MODEL 1
REMARK VINA RESULT:     -13.0      0.000      0.000
REMARK SMILES O=C(OCCOCCOC(=O)c1ccc(-c2c3nc(c(-c4c(F)c(F)c(F)c(F)c4F)c4ccc([nH]4)c(-c4c(F)c(F)c(F)c(F)c4F)c4nc(c(-c5c(F)c(F)c(F)c(F)c5F)c5ccc2[nH]5)C=C4)C=C3)cc1)C1=Cc2cc(S(F)(F)(F)(F)F)cc(Br)c2O[C@@H]1C(F)(F)F
REMARK SMILES IDX 7 1 6 2 5 3 4 4 3 5 2 6 1 7 75 8 76 9 91 10 77 11 90 12
REMARK SMILES IDX 78 13 89 14 79 15 87 16 86 17 88 18 92 19 93 20 94 21 95 22
REMARK SMILES IDX 80 23 81 24 82 25 83 26 84 27 85 28 8 29 9 30 10 31 11 32
REMARK SMILES IDX 12 33 13 34 74 35 14 36 73 37 15 38 16 39 17 40 67 41 18 42
REMARK SMILES IDX 72 43 66 44 68 45 19 46 71 47 65 48 64 49 20 51 52 52 32 53
REMARK SMILES IDX 51 54 33 55 36 56 50 57 69 58 34 59 35 60 49 62 70 63 37 64
REMARK SMILES IDX 21 65 22 66 30 67 23 68 24 69 28 70 31 71 25 72 26 73 29 74
REMARK SMILES IDX 27 75 53 76 54 77 62 78 55 79 56 80 60 81 63 82 57 83 58 84
REMARK SMILES IDX 61 85 59 86 38 87 39 88 47 89 40 90 41 91 45 92 48 93 42 94
REMARK SMILES IDX 43 95 46 96 44 97
REMARK H PARENT 68 50 36 61
REMARK Flexibility Score: inf
ROOT
ATOM      1  C   UNL A   1      31.851  31.889  26.773  1.00  0.00     0.202 C 
ENDROOT
BRANCH   1   2
ATOM      2  O   UNL A   1      32.532  30.771  26.222  1.00  0.00    -0.374 OA
BRANCH   2   3
ATOM      3  C   UNL A   1      33.213  30.076  27.257  1.00  0.00     0.202 C 
BRANCH   3   4
ATOM      4  C   UNL A   1      33.856  28.822  26.686  1.00  0.00     0.261 C 
BRANCH   4   5
ATOM      5  O   UNL A   1      33.104  27.684  27.079  1.00  0.00    -0.460 OA
BRANCH   5   6
ATOM      6  C   UNL A   1      31.836  27.432  26.490  1.00  0.00     0.338 C 
ATOM      7  O   UNL A   1      30.831  27.184  27.227  1.00  0.00    -0.246 OA
BRANCH   6   8
ATOM      8  C   UNL A   1      31.683  27.457  24.978  1.00  0.00     0.087 C 
ATOM      9  C   UNL A   1      32.314  26.524  24.214  1.00  0.00     0.027 C 
ATOM     10  C   UNL A   1      30.824  28.525  24.319  1.00  0.00     0.316 C 
ATOM     11  C   UNL A   1      33.173  25.457  24.874  1.00  0.00     0.020 A 
ATOM     12  O   UNL A   1      31.629  25.250  26.668  1.00  0.00    -0.474 OA
ATOM     13  C   UNL A   1      34.362  25.138  24.240  1.00  0.00     0.036 A 
ATOM     14  C   UNL A   1      32.767  24.795  25.950  1.00  0.00     0.142 A 
ATOM     15  C   UNL A   1      34.918  23.903  24.652  1.00  0.00     0.109 A 
ATOM     16  C   UNL A   1      33.437  23.674  26.377  1.00  0.00     0.062 A 
ATOM     17  C   UNL A   1      34.587  23.266  25.761  1.00  0.00     0.044 A 
ATOM     18  Br  UNL A   1      32.734  22.645  27.890  1.00  0.00    -0.047 Br
BRANCH  10  19
ATOM     19  C   UNL A   1      29.698  27.860  23.543  1.00  0.00     0.430 C 
ATOM     20  F   UNL A   1      30.145  27.481  22.349  1.00  0.00    -0.167 F 
ATOM     21  F   UNL A   1      29.268  26.795  24.213  1.00  0.00    -0.167 F 
ATOM     22  F   UNL A   1      28.697  28.721  23.389  1.00  0.00    -0.167 F 
ENDBRANCH  10  19
BRANCH  15  23
ATOM     23  S   UNL A   1      36.167  23.144  23.585  1.00  0.00     0.310 S 
ATOM     24  F   UNL A   1      36.059  21.759  24.350  1.00  0.00    -0.094 F 
ATOM     25  F   UNL A   1      37.267  23.558  24.633  1.00  0.00    -0.094 F 
ATOM     26  F   UNL A   1      37.243  22.486  22.674  1.00  0.00    -0.094 F 
ATOM     27  F   UNL A   1      35.036  22.614  22.617  1.00  0.00    -0.094 F 
ATOM     28  F   UNL A   1      35.053  23.707  24.555  1.00  0.00    -0.094 F 
ENDBRANCH  15  23
ENDBRANCH   6   8
ENDBRANCH   5   6
ENDBRANCH   4   5
ENDBRANCH   3   4
ENDBRANCH   2   3
ENDBRANCH   1   2
BRANCH   1  29
ATOM     29  C   UNL A   1      32.827  32.731  27.579  1.00  0.00     0.261 C 
BRANCH  29  30
ATOM     30  O   UNL A   1      32.269  34.018  27.804  1.00  0.00    -0.460 OA
BRANCH  30  31
ATOM     31  C   UNL A   1      32.925  34.935  28.667  1.00  0.00     0.338 C 
ATOM     32  O   UNL A   1      32.506  36.131  28.761  1.00  0.00    -0.246 OA
BRANCH  31  33
ATOM     33  C   UNL A   1      34.129  34.486  29.479  1.00  0.00     0.060 A 
ATOM     34  C   UNL A   1      35.380  34.647  28.906  1.00  0.00     0.016 A 
ATOM     35  C   UNL A   1      33.977  33.839  30.629  1.00  0.00     0.016 A 
ATOM     36  C   UNL A   1      36.384  33.834  29.482  1.00  0.00     0.010 A 
ATOM     37  C   UNL A   1      35.035  33.179  31.205  1.00  0.00     0.010 A 
ATOM     38  C   UNL A   1      36.287  33.246  30.660  1.00  0.00    -0.014 A 
BRANCH  38  39
ATOM     39  C   UNL A   1      37.502  32.675  31.374  1.00  0.00     0.031 A 
ATOM     40  C   UNL A   1      37.877  33.110  32.646  1.00  0.00     0.074 A 
ATOM     41  C   UNL A   1      38.125  31.642  30.694  1.00  0.00     0.049 A 
ATOM     42  N   UNL A   1      38.838  32.612  33.425  1.00  0.00    -0.248 NA
ATOM     43  C   UNL A   1      37.239  34.230  33.355  1.00  0.00     0.031 C 
ATOM     44  C   UNL A   1      37.747  31.192  29.414  1.00  0.00     0.029 A 
ATOM     45  N   UNL A   1      39.192  30.879  31.112  1.00  0.00    -0.354 N 
ATOM     46  C   UNL A   1      38.886  33.280  34.581  1.00  0.00     0.074 A 
ATOM     47  C   UNL A   1      37.863  34.333  34.549  1.00  0.00     0.031 C 
ATOM     48  C   UNL A   1      38.582  30.181  29.060  1.00  0.00     0.029 A 
ATOM     49  C   UNL A   1      39.494  29.980  30.112  1.00  0.00     0.049 A 
ATOM     50  H   UNL A   1      39.658  30.961  31.974  1.00  0.00     0.167 HD
ATOM     51  C   UNL A   1      39.742  33.050  35.658  1.00  0.00     0.037 A 
ATOM     52  C   UNL A   1      40.506  29.033  30.101  1.00  0.00     0.037 A 
ATOM     53  C   UNL A   1      40.727  32.074  35.664  1.00  0.00     0.049 A 
ATOM     54  C   UNL A   1      41.401  28.841  31.157  1.00  0.00     0.074 A 
ATOM     55  C   UNL A   1      41.592  31.823  36.745  1.00  0.00     0.029 A 
ATOM     56  N   UNL A   1      41.045  31.191  34.656  1.00  0.00    -0.354 N 
ATOM     57  N   UNL A   1      41.424  29.482  32.327  1.00  0.00    -0.248 NA
ATOM     58  C   UNL A   1      42.497  27.863  31.142  1.00  0.00     0.031 C 
ATOM     59  C   UNL A   1      42.428  30.811  36.391  1.00  0.00     0.029 A 
ATOM     60  C   UNL A   1      42.098  30.412  35.082  1.00  0.00     0.049 A 
ATOM     61  H   UNL A   1      40.597  31.128  33.780  1.00  0.00     0.167 HD
ATOM     62  C   UNL A   1      42.412  29.011  33.089  1.00  0.00     0.074 A 
ATOM     63  C   UNL A   1      43.122  27.969  32.335  1.00  0.00     0.031 C 
ATOM     64  C   UNL A   1      42.750  29.407  34.384  1.00  0.00     0.037 A 
BRANCH  51  65
ATOM     65  C   UNL A   1      39.587  33.918  36.896  1.00  0.00     0.064 A 
ATOM     66  C   UNL A   1      38.874  33.375  37.952  1.00  0.00     0.173 A 
ATOM     67  C   UNL A   1      40.185  35.099  37.005  1.00  0.00     0.173 A 
ATOM     68  F   UNL A   1      38.478  32.105  37.983  1.00  0.00    -0.203 F 
ATOM     69  C   UNL A   1      38.606  34.292  38.995  1.00  0.00     0.198 A 
ATOM     70  C   UNL A   1      39.985  35.885  38.114  1.00  0.00     0.198 A 
ATOM     71  F   UNL A   1      40.984  35.524  36.030  1.00  0.00    -0.203 F 
ATOM     72  F   UNL A   1      37.644  33.982  39.860  1.00  0.00    -0.200 F 
ATOM     73  C   UNL A   1      39.243  35.435  39.170  1.00  0.00     0.200 A 
ATOM     74  F   UNL A   1      40.522  37.101  38.159  1.00  0.00    -0.200 F 
ATOM     75  F   UNL A   1      39.168  36.113  40.312  1.00  0.00    -0.200 F 
ENDBRANCH  51  65
BRANCH  52  76
ATOM     76  C   UNL A   1      40.651  28.154  28.869  1.00  0.00     0.064 A 
ATOM     77  C   UNL A   1      41.436  28.557  27.802  1.00  0.00     0.173 A 
ATOM     78  C   UNL A   1      39.924  27.044  28.810  1.00  0.00     0.173 A 
ATOM     79  F   UNL A   1      42.363  29.505  27.900  1.00  0.00    -0.203 F 
ATOM     80  C   UNL A   1      41.161  27.869  26.596  1.00  0.00     0.198 A 
ATOM     81  C   UNL A   1      39.810  26.346  27.631  1.00  0.00     0.198 A 
ATOM     82  F   UNL A   1      39.302  26.605  29.900  1.00  0.00    -0.203 F 
ATOM     83  F   UNL A   1      41.589  28.414  25.461  1.00  0.00    -0.200 F 
ATOM     84  C   UNL A   1      40.510  26.722  26.520  1.00  0.00     0.200 A 
ATOM     85  F   UNL A   1      39.005  25.288  27.573  1.00  0.00    -0.200 F 
ATOM     86  F   UNL A   1      40.535  25.974  25.420  1.00  0.00    -0.200 F 
ENDBRANCH  52  76
BRANCH  64  87
ATOM     87  C   UNL A   1      43.901  28.692  35.072  1.00  0.00     0.064 A 
ATOM     88  C   UNL A   1      45.171  29.193  34.837  1.00  0.00     0.173 A 
ATOM     89  C   UNL A   1      43.718  27.583  35.779  1.00  0.00     0.173 A 
ATOM     90  F   UNL A   1      45.393  30.415  34.362  1.00  0.00    -0.203 F 
ATOM     91  C   UNL A   1      46.211  28.285  35.150  1.00  0.00     0.198 A 
ATOM     92  C   UNL A   1      44.789  26.815  36.167  1.00  0.00     0.198 A 
ATOM     93  F   UNL A   1      42.486  27.212  36.114  1.00  0.00    -0.203 F 
ATOM     94  F   UNL A   1      47.415  28.523  34.634  1.00  0.00    -0.200 F 
ATOM     95  C   UNL A   1      46.071  27.220  35.916  1.00  0.00     0.200 A 
ATOM     96  F   UNL A   1      44.577  25.663  36.796  1.00  0.00    -0.200 F 
ATOM     97  F   UNL A   1      47.120  26.575  36.418  1.00  0.00    -0.200 F 
ENDBRANCH  64  87
ENDBRANCH  38  39
ENDBRANCH  31  33
ENDBRANCH  30  31
ENDBRANCH  29  30
ENDBRANCH   1  29
TORSDOF 16
ENDMDL
MODEL 2
REMARK VINA RESULT:     -13.0      5.545     10.582
REMARK SMILES O=C(OCCOCCOC(=O)c1ccc(-c2c3nc(c(-c4c(F)c(F)c(F)c(F)c4F)c4ccc([nH]4)c(-c4c(F)c(F)c(F)c(F)c4F)c4nc(c(-c5c(F)c(F)c(F)c(F)c5F)c5ccc2[nH]5)C=C4)C=C3)cc1)C1=Cc2cc(S(F)(F)(F)(F)F)cc(Br)c2O[C@@H]1C(F)(F)F
REMARK SMILES IDX 7 1 6 2 5 3 4 4 3 5 2 6 1 7 75 8 76 9 91 10 77 11 90 12
REMARK SMILES IDX 78 13 89 14 79 15 87 16 86 17 88 18 92 19 93 20 94 21 95 22
REMARK SMILES IDX 80 23 81 24 82 25 83 26 84 27 85 28 8 29 9 30 10 31 11 32
REMARK SMILES IDX 12 33 13 34 74 35 14 36 73 37 15 38 16 39 17 40 67 41 18 42
REMARK SMILES IDX 72 43 66 44 68 45 19 46 71 47 65 48 64 49 20 51 52 52 32 53
REMARK SMILES IDX 51 54 33 55 36 56 50 57 69 58 34 59 35 60 49 62 70 63 37 64
REMARK SMILES IDX 21 65 22 66 30 67 23 68 24 69 28 70 31 71 25 72 26 73 29 74
REMARK SMILES IDX 27 75 53 76 54 77 62 78 55 79 56 80 60 81 63 82 57 83 58 84
REMARK SMILES IDX 61 85 59 86 38 87 39 88 47 89 40 90 41 91 45 92 48 93 42 94
REMARK SMILES IDX 43 95 46 96 44 97
REMARK H PARENT 68 50 36 61
REMARK Flexibility Score: inf
ROOT
ATOM      1  C   UNL A   1      38.059  19.788  25.018  1.00  0.00     0.202 C 
ENDROOT
BRANCH   1   2
ATOM      2  O   UNL A   1      37.165  20.863  25.266  1.00  0.00    -0.374 OA
BRANCH   2   3
ATOM      3  C   UNL A   1      37.782  22.087  24.895  1.00  0.00     0.202 C 
BRANCH   3   4
ATOM      4  C   UNL A   1      37.043  23.245  25.545  1.00  0.00     0.261 C 
BRANCH   4   5
ATOM      5  O   UNL A   1      36.286  23.935  24.563  1.00  0.00    -0.460 OA
BRANCH   5   6
ATOM      6  C   UNL A   1      35.327  23.235  23.784  1.00  0.00     0.338 C 
ATOM      7  O   UNL A   1      35.487  23.125  22.527  1.00  0.00    -0.246 OA
BRANCH   6   8
ATOM      8  C   UNL A   1      34.109  22.618  24.452  1.00  0.00     0.087 C 
ATOM      9  C   UNL A   1      33.167  23.418  25.022  1.00  0.00     0.027 C 
ATOM     10  C   UNL A   1      33.944  21.107  24.484  1.00  0.00     0.316 C 
ATOM     11  C   UNL A   1      33.333  24.928  24.990  1.00  0.00     0.020 A 
ATOM     12  O   UNL A   1      34.204  24.837  22.781  1.00  0.00    -0.474 OA
ATOM     13  C   UNL A   1      32.986  25.616  26.141  1.00  0.00     0.036 A 
ATOM     14  C   UNL A   1      33.702  25.571  23.889  1.00  0.00     0.142 A 
ATOM     15  C   UNL A   1      32.781  27.002  25.941  1.00  0.00     0.109 A 
ATOM     16  C   UNL A   1      33.602  26.939  23.810  1.00  0.00     0.062 A 
ATOM     17  C   UNL A   1      33.210  27.678  24.891  1.00  0.00     0.044 A 
ATOM     18  Br  UNL A   1      34.030  27.844  22.125  1.00  0.00    -0.047 Br
BRANCH  10  19
ATOM     19  C   UNL A   1      32.657  20.724  23.773  1.00  0.00     0.430 C 
ATOM     20  F   UNL A   1      32.715  19.445  23.408  1.00  0.00    -0.167 F 
ATOM     21  F   UNL A   1      31.626  20.903  24.594  1.00  0.00    -0.167 F 
ATOM     22  F   UNL A   1      32.502  21.486  22.694  1.00  0.00    -0.167 F 
ENDBRANCH  10  19
BRANCH  15  23
ATOM     23  S   UNL A   1      31.866  27.909  27.212  1.00  0.00     0.310 S 
ATOM     24  F   UNL A   1      31.469  29.053  26.187  1.00  0.00    -0.094 F 
ATOM     25  F   UNL A   1      33.173  28.733  27.518  1.00  0.00    -0.094 F 
ATOM     26  F   UNL A   1      31.082  28.697  28.300  1.00  0.00    -0.094 F 
ATOM     27  F   UNL A   1      30.532  27.174  26.795  1.00  0.00    -0.094 F 
ATOM     28  F   UNL A   1      32.620  27.183  26.028  1.00  0.00    -0.094 F 
ENDBRANCH  15  23
ENDBRANCH   6   8
ENDBRANCH   5   6
ENDBRANCH   4   5
ENDBRANCH   3   4
ENDBRANCH   2   3
ENDBRANCH   1   2
BRANCH   1  29
ATOM     29  C   UNL A   1      39.444  20.152  25.529  1.00  0.00     0.261 C 
BRANCH  29  30
ATOM     30  O   UNL A   1      40.192  18.966  25.756  1.00  0.00    -0.460 OA
BRANCH  30  31
ATOM     31  C   UNL A   1      41.595  19.040  25.956  1.00  0.00     0.338 C 
ATOM     32  O   UNL A   1      42.317  18.008  25.784  1.00  0.00    -0.246 OA
BRANCH  31  33
ATOM     33  C   UNL A   1      42.235  20.352  26.377  1.00  0.00     0.060 A 
ATOM     34  C   UNL A   1      42.161  20.697  27.717  1.00  0.00     0.016 A 
ATOM     35  C   UNL A   1      42.721  21.198  25.476  1.00  0.00     0.016 A 
ATOM     36  C   UNL A   1      42.359  22.075  27.967  1.00  0.00     0.010 A 
ATOM     37  C   UNL A   1      43.021  22.493  25.821  1.00  0.00     0.010 A 
ATOM     38  C   UNL A   1      42.913  22.918  27.116  1.00  0.00    -0.014 A 
BRANCH  38  39
ATOM     39  C   UNL A   1      43.408  24.288  27.553  1.00  0.00     0.031 A 
ATOM     40  C   UNL A   1      44.765  24.613  27.551  1.00  0.00     0.074 A 
ATOM     41  C   UNL A   1      42.397  25.187  27.851  1.00  0.00     0.049 A 
ATOM     42  N   UNL A   1      45.317  25.803  27.792  1.00  0.00    -0.248 NA
ATOM     43  C   UNL A   1      45.842  23.652  27.269  1.00  0.00     0.031 C 
ATOM     44  C   UNL A   1      41.025  24.869  27.845  1.00  0.00     0.029 A 
ATOM     45  N   UNL A   1      42.521  26.513  28.197  1.00  0.00    -0.354 N 
ATOM     46  C   UNL A   1      46.645  25.726  27.679  1.00  0.00     0.074 A 
ATOM     47  C   UNL A   1      47.001  24.340  27.349  1.00  0.00     0.031 C 
ATOM     48  C   UNL A   1      40.333  25.984  28.195  1.00  0.00     0.029 A 
ATOM     49  C   UNL A   1      41.260  27.018  28.423  1.00  0.00     0.049 A 
ATOM     50  H   UNL A   1      43.365  27.014  28.270  1.00  0.00     0.167 HD
ATOM     51  C   UNL A   1      47.571  26.757  27.840  1.00  0.00     0.037 A 
ATOM     52  C   UNL A   1      40.918  28.304  28.810  1.00  0.00     0.037 A 
ATOM     53  C   UNL A   1      47.226  28.055  28.185  1.00  0.00     0.049 A 
ATOM     54  C   UNL A   1      41.850  29.323  29.027  1.00  0.00     0.074 A 
ATOM     55  C   UNL A   1      48.146  29.108  28.342  1.00  0.00     0.029 A 
ATOM     56  N   UNL A   1      45.967  28.554  28.436  1.00  0.00    -0.354 N 
ATOM     57  N   UNL A   1      43.173  29.255  28.878  1.00  0.00    -0.248 NA
ATOM     58  C   UNL A   1      41.501  30.679  29.469  1.00  0.00     0.031 C 
ATOM     59  C   UNL A   1      47.454  30.224  28.693  1.00  0.00     0.029 A 
ATOM     60  C   UNL A   1      46.088  29.887  28.760  1.00  0.00     0.049 A 
ATOM     61  H   UNL A   1      45.124  28.045  28.391  1.00  0.00     0.167 HD
ATOM     62  C   UNL A   1      43.728  30.436  29.159  1.00  0.00     0.074 A 
ATOM     63  C   UNL A   1      42.661  31.367  29.551  1.00  0.00     0.031 C 
ATOM     64  C   UNL A   1      45.080  30.775  29.101  1.00  0.00     0.037 A 
BRANCH  51  65
ATOM     65  C   UNL A   1      49.042  26.441  27.624  1.00  0.00     0.064 A 
ATOM     66  C   UNL A   1      49.779  26.109  28.749  1.00  0.00     0.173 A 
ATOM     67  C   UNL A   1      49.578  26.387  26.410  1.00  0.00     0.173 A 
ATOM     68  F   UNL A   1      49.228  25.903  29.942  1.00  0.00    -0.203 F 
ATOM     69  C   UNL A   1      51.170  26.008  28.514  1.00  0.00     0.198 A 
ATOM     70  C   UNL A   1      50.921  26.150  26.248  1.00  0.00     0.198 A 
ATOM     71  F   UNL A   1      48.806  26.566  25.342  1.00  0.00    -0.203 F 
ATOM     72  F   UNL A   1      51.981  26.053  29.568  1.00  0.00    -0.200 F 
ATOM     73  C   UNL A   1      51.721  25.873  27.321  1.00  0.00     0.200 A 
ATOM     74  F   UNL A   1      51.451  26.190  25.029  1.00  0.00    -0.200 F 
ATOM     75  F   UNL A   1      52.985  25.487  27.172  1.00  0.00    -0.200 F 
ENDBRANCH  51  65
BRANCH  52  76
ATOM     76  C   UNL A   1      39.446  28.625  29.011  1.00  0.00     0.064 A 
ATOM     77  C   UNL A   1      38.716  29.252  28.015  1.00  0.00     0.173 A 
ATOM     78  C   UNL A   1      38.914  28.380  30.203  1.00  0.00     0.173 A 
ATOM     79  F   UNL A   1      39.109  29.291  26.744  1.00  0.00    -0.203 F 
ATOM     80  C   UNL A   1      37.516  29.847  28.469  1.00  0.00     0.198 A 
ATOM     81  C   UNL A   1      37.676  28.879  30.533  1.00  0.00     0.198 A 
ATOM     82  F   UNL A   1      39.585  27.645  31.085  1.00  0.00    -0.203 F 
ATOM     83  F   UNL A   1      36.942  30.758  27.689  1.00  0.00    -0.200 F 
ATOM     84  C   UNL A   1      36.925  29.559  29.616  1.00  0.00     0.200 A 
ATOM     85  F   UNL A   1      37.204  28.696  31.763  1.00  0.00    -0.200 F 
ATOM     86  F   UNL A   1      35.667  29.912  29.864  1.00  0.00    -0.200 F 
ENDBRANCH  52  76
BRANCH  64  87
ATOM     87  C   UNL A   1      45.472  32.207  29.431  1.00  0.00     0.064 A 
ATOM     88  C   UNL A   1      45.709  32.493  30.766  1.00  0.00     0.173 A 
ATOM     89  C   UNL A   1      45.488  33.162  28.508  1.00  0.00     0.173 A 
ATOM     90  F   UNL A   1      45.953  31.556  31.677  1.00  0.00    -0.203 F 
ATOM     91  C   UNL A   1      45.668  33.874  31.071  1.00  0.00     0.198 A 
ATOM     92  C   UNL A   1      45.587  34.483  28.871  1.00  0.00     0.198 A 
ATOM     93  F   UNL A   1      45.408  32.835  27.221  1.00  0.00    -0.203 F 
ATOM     94  F   UNL A   1      45.523  34.221  32.347  1.00  0.00    -0.200 F 
ATOM     95  C   UNL A   1      45.763  34.842  30.178  1.00  0.00     0.200 A 
ATOM     96  F   UNL A   1      45.511  35.427  27.937  1.00  0.00    -0.200 F 
ATOM     97  F   UNL A   1      46.017  36.098  30.532  1.00  0.00    -0.200 F 
ENDBRANCH  64  87
ENDBRANCH  38  39
ENDBRANCH  31  33
ENDBRANCH  30  31
ENDBRANCH  29  30
ENDBRANCH   1  29
TORSDOF 16
ENDMDL
MODEL 3
REMARK VINA RESULT:     -12.9      2.727      4.200
REMARK SMILES O=C(OCCOCCOC(=O)c1ccc(-c2c3nc(c(-c4c(F)c(F)c(F)c(F)c4F)c4ccc([nH]4)c(-c4c(F)c(F)c(F)c(F)c4F)c4nc(c(-c5c(F)c(F)c(F)c(F)c5F)c5ccc2[nH]5)C=C4)C=C3)cc1)C1=Cc2cc(S(F)(F)(F)(F)F)cc(Br)c2O[C@@H]1C(F)(F)F
REMARK SMILES IDX 7 1 6 2 5 3 4 4 3 5 2 6 1 7 75 8 76 9 91 10 77 11 90 12
REMARK SMILES IDX 78 13 89 14 79 15 87 16 86 17 88 18 92 19 93 20 94 21 95 22
REMARK SMILES IDX 80 23 81 24 82 25 83 26 84 27 85 28 8 29 9 30 10 31 11 32
REMARK SMILES IDX 12 33 13 34 74 35 14 36 73 37 15 38 16 39 17 40 67 41 18 42
REMARK SMILES IDX 72 43 66 44 68 45 19 46 71 47 65 48 64 49 20 51 52 52 32 53
REMARK SMILES IDX 51 54 33 55 36 56 50 57 69 58 34 59 35 60 49 62 70 63 37 64
REMARK SMILES IDX 21 65 22 66 30 67 23 68 24 69 28 70 31 71 25 72 26 73 29 74
REMARK SMILES IDX 27 75 53 76 54 77 62 78 55 79 56 80 60 81 63 82 57 83 58 84
REMARK SMILES IDX 61 85 59 86 38 87 39 88 47 89 40 90 41 91 45 92 48 93 42 94
REMARK SMILES IDX 43 95 46 96 44 97
REMARK H PARENT 68 50 36 61
REMARK Flexibility Score: inf
ROOT
ATOM      1  C   UNL A   1      31.866  27.970  26.019  1.00  0.00     0.202 C 
ENDROOT
BRANCH   1   2
ATOM      2  O   UNL A   1      32.095  27.091  24.927  1.00  0.00    -0.374 OA
BRANCH   2   3
ATOM      3  C   UNL A   1      33.493  26.930  24.735  1.00  0.00     0.202 C 
BRANCH   3   4
ATOM      4  C   UNL A   1      33.738  25.917  23.629  1.00  0.00     0.261 C 
BRANCH   4   5
ATOM      5  O   UNL A   1      33.843  24.617  24.192  1.00  0.00    -0.460 OA
BRANCH   5   6
ATOM      6  C   UNL A   1      33.053  23.555  23.679  1.00  0.00     0.338 C 
ATOM      7  O   UNL A   1      33.368  23.003  22.578  1.00  0.00    -0.246 OA
BRANCH   6   8
ATOM      8  C   UNL A   1      31.831  23.077  24.446  1.00  0.00     0.087 C 
ATOM      9  C   UNL A   1      31.779  21.801  24.917  1.00  0.00     0.027 C 
ATOM     10  C   UNL A   1      30.666  24.025  24.687  1.00  0.00     0.316 C 
ATOM     11  C   UNL A   1      32.942  20.854  24.675  1.00  0.00     0.020 A 
ATOM     12  O   UNL A   1      34.508  22.606  25.027  1.00  0.00    -0.474 OA
ATOM     13  C   UNL A   1      32.622  19.546  24.350  1.00  0.00     0.036 A 
ATOM     14  C   UNL A   1      34.202  21.230  24.855  1.00  0.00     0.142 A 
ATOM     15  C   UNL A   1      33.690  18.635  24.522  1.00  0.00     0.109 A 
ATOM     16  C   UNL A   1      35.214  20.300  24.876  1.00  0.00     0.062 A 
ATOM     17  C   UNL A   1      34.961  18.981  24.622  1.00  0.00     0.044 A 
ATOM     18  Br  UNL A   1      37.045  20.873  25.276  1.00  0.00    -0.047 Br
BRANCH  10  19
ATOM     19  C   UNL A   1      30.452  24.192  26.183  1.00  0.00     0.430 C 
ATOM     20  F   UNL A   1      29.869  23.102  26.673  1.00  0.00    -0.167 F 
ATOM     21  F   UNL A   1      31.627  24.372  26.781  1.00  0.00    -0.167 F 
ATOM     22  F   UNL A   1      29.676  25.248  26.405  1.00  0.00    -0.167 F 
ENDBRANCH  10  19
BRANCH  15  23
ATOM     23  S   UNL A   1      33.288  16.872  24.613  1.00  0.00     0.310 S 
ATOM     24  F   UNL A   1      34.757  16.504  25.084  1.00  0.00    -0.094 F 
ATOM     25  F   UNL A   1      33.798  16.714  23.131  1.00  0.00    -0.094 F 
ATOM     26  F   UNL A   1      32.951  15.356  24.688  1.00  0.00    -0.094 F 
ATOM     27  F   UNL A   1      32.914  17.023  26.140  1.00  0.00    -0.094 F 
ATOM     28  F   UNL A   1      33.732  18.389  24.586  1.00  0.00    -0.094 F 
ENDBRANCH  15  23
ENDBRANCH   6   8
ENDBRANCH   5   6
ENDBRANCH   4   5
ENDBRANCH   3   4
ENDBRANCH   2   3
ENDBRANCH   1   2
BRANCH   1  29
ATOM     29  C   UNL A   1      31.611  29.374  25.496  1.00  0.00     0.261 C 
BRANCH  29  30
ATOM     30  O   UNL A   1      32.822  30.115  25.517  1.00  0.00    -0.460 OA
BRANCH  30  31
ATOM     31  C   UNL A   1      33.178  30.861  26.671  1.00  0.00     0.338 C 
ATOM     32  O   UNL A   1      32.376  31.728  27.139  1.00  0.00    -0.246 OA
BRANCH  31  33
ATOM     33  C   UNL A   1      34.517  30.622  27.348  1.00  0.00     0.060 A 
ATOM     34  C   UNL A   1      34.791  29.337  27.785  1.00  0.00     0.016 A 
ATOM     35  C   UNL A   1      35.331  31.633  27.632  1.00  0.00     0.016 A 
ATOM     36  C   UNL A   1      35.805  29.269  28.769  1.00  0.00     0.010 A 
ATOM     37  C   UNL A   1      36.384  31.462  28.496  1.00  0.00     0.010 A 
ATOM     38  C   UNL A   1      36.676  30.230  29.013  1.00  0.00    -0.014 A 
BRANCH  38  39
ATOM     39  C   UNL A   1      37.937  29.981  29.826  1.00  0.00     0.031 A 
ATOM     40  C   UNL A   1      38.109  30.526  31.100  1.00  0.00     0.074 A 
ATOM     41  C   UNL A   1      38.831  29.105  29.232  1.00  0.00     0.049 A 
ATOM     42  N   UNL A   1      39.102  30.290  31.958  1.00  0.00    -0.248 NA
ATOM     43  C   UNL A   1      37.179  31.482  31.718  1.00  0.00     0.031 C 
ATOM     44  C   UNL A   1      38.660  28.545  27.951  1.00  0.00     0.029 A 
ATOM     45  N   UNL A   1      40.013  28.626  29.748  1.00  0.00    -0.354 N 
ATOM     46  C   UNL A   1      38.910  30.980  33.085  1.00  0.00     0.074 A 
ATOM     47  C   UNL A   1      37.675  31.762  32.943  1.00  0.00     0.031 C 
ATOM     48  C   UNL A   1      39.731  27.749  27.694  1.00  0.00     0.029 A 
ATOM     49  C   UNL A   1      40.587  27.797  28.809  1.00  0.00     0.049 A 
ATOM     50  H   UNL A   1      40.385  28.839  30.634  1.00  0.00     0.167 HD
ATOM     51  C   UNL A   1      39.717  30.988  34.223  1.00  0.00     0.037 A 
ATOM     52  C   UNL A   1      41.790  27.115  28.902  1.00  0.00     0.037 A 
ATOM     53  C   UNL A   1      40.900  30.272  34.332  1.00  0.00     0.049 A 
ATOM     54  C   UNL A   1      42.628  27.168  30.019  1.00  0.00     0.074 A 
ATOM     55  C   UNL A   1      41.720  30.261  35.476  1.00  0.00     0.029 A 
ATOM     56  N   UNL A   1      41.486  29.462  33.385  1.00  0.00    -0.354 N 
ATOM     57  N   UNL A   1      42.417  27.828  31.160  1.00  0.00    -0.248 NA
ATOM     58  C   UNL A   1      43.920  26.476  30.116  1.00  0.00     0.031 C 
ATOM     59  C   UNL A   1      42.792  29.466  35.218  1.00  0.00     0.029 A 
ATOM     60  C   UNL A   1      42.658  28.964  33.909  1.00  0.00     0.049 A 
ATOM     61  H   UNL A   1      41.128  29.272  32.487  1.00  0.00     0.167 HD
ATOM     62  C   UNL A   1      43.432  27.624  32.002  1.00  0.00     0.074 A 
ATOM     63  C   UNL A   1      44.417  26.758  31.340  1.00  0.00     0.031 C 
ATOM     64  C   UNL A   1      43.574  28.123  33.297  1.00  0.00     0.037 A 
BRANCH  51  65
ATOM     65  C   UNL A   1      39.276  31.829  35.410  1.00  0.00     0.064 A 
ATOM     66  C   UNL A   1      39.666  33.158  35.410  1.00  0.00     0.173 A 
ATOM     67  C   UNL A   1      38.476  31.346  36.353  1.00  0.00     0.173 A 
ATOM     68  F   UNL A   1      40.249  33.743  34.368  1.00  0.00    -0.203 F 
ATOM     69  C   UNL A   1      39.388  33.836  36.620  1.00  0.00     0.198 A 
ATOM     70  C   UNL A   1      38.135  32.112  37.441  1.00  0.00     0.198 A 
ATOM     71  F   UNL A   1      38.000  30.109  36.242  1.00  0.00    -0.203 F 
ATOM     72  F   UNL A   1      40.031  34.978  36.851  1.00  0.00    -0.200 F 
ATOM     73  C   UNL A   1      38.535  33.416  37.536  1.00  0.00     0.200 A 
ATOM     74  F   UNL A   1      37.406  31.577  38.416  1.00  0.00    -0.200 F 
ATOM     75  F   UNL A   1      38.088  34.218  38.498  1.00  0.00    -0.200 F 
ENDBRANCH  51  65
BRANCH  52  76
ATOM     76  C   UNL A   1      42.224  26.262  27.721  1.00  0.00     0.064 A 
ATOM     77  C   UNL A   1      41.884  24.921  27.655  1.00  0.00     0.173 A 
ATOM     78  C   UNL A   1      43.020  26.816  26.814  1.00  0.00     0.173 A 
ATOM     79  F   UNL A   1      40.905  24.385  28.378  1.00  0.00    -0.203 F 
ATOM     80  C   UNL A   1      42.673  24.173  26.750  1.00  0.00     0.198 A 
ATOM     81  C   UNL A   1      43.653  26.041  25.873  1.00  0.00     0.198 A 
ATOM     82  F   UNL A   1      43.206  28.133  26.817  1.00  0.00    -0.203 F 
ATOM     83  F   UNL A   1      42.673  22.849  26.876  1.00  0.00    -0.200 F 
ATOM     84  C   UNL A   1      43.410  24.699  25.788  1.00  0.00     0.200 A 
ATOM     85  F   UNL A   1      44.515  26.606  25.032  1.00  0.00    -0.200 F 
ATOM     86  F   UNL A   1      43.890  23.961  24.790  1.00  0.00    -0.200 F 
ENDBRANCH  52  76
BRANCH  64  87
ATOM     87  C   UNL A   1      44.809  27.718  34.087  1.00  0.00     0.064 A 
ATOM     88  C   UNL A   1      44.694  26.590  34.883  1.00  0.00     0.173 A 
ATOM     89  C   UNL A   1      45.911  28.460  34.098  1.00  0.00     0.173 A 
ATOM     90  F   UNL A   1      43.732  25.685  34.725  1.00  0.00    -0.203 F 
ATOM     91  C   UNL A   1      45.693  26.489  35.880  1.00  0.00     0.198 A 
ATOM     92  C   UNL A   1      46.907  28.219  35.013  1.00  0.00     0.198 A 
ATOM     93  F   UNL A   1      46.050  29.445  33.216  1.00  0.00    -0.203 F 
ATOM     94  F   UNL A   1      45.467  25.663  36.899  1.00  0.00    -0.200 F 
ATOM     95  C   UNL A   1      46.831  27.157  35.870  1.00  0.00     0.200 A 
ATOM     96  F   UNL A   1      47.960  29.029  35.064  1.00  0.00    -0.200 F 
ATOM     97  F   UNL A   1      47.851  26.814  36.652  1.00  0.00    -0.200 F 
ENDBRANCH  64  87
ENDBRANCH  38  39
ENDBRANCH  31  33
ENDBRANCH  30  31
ENDBRANCH  29  30
ENDBRANCH   1  29
TORSDOF 16
ENDMDL
