MODEL 1
REMARK VINA RESULT:     -12.7      0.000      0.000
REMARK SMILES COc1cc(OC)c(-c2cc(C(=O)OCCOCCOC(=O)c3ccc(-c4c5nc(c(-c6c(F)c(F)c(F)c(F)c6F)c6ccc([nH]6)c(-c6c(F)c(F)c(F)c(F)c6F)c6nc(c(-c7c(F)c(F)c(F)c(F)c7F)c7ccc4[nH]7)C=C6)C=C5)cc3)c3c(-c4ccc(Cl)cc4)[nH]nc3n2)cc1OC
REMARK SMILES IDX 17 1 16 2 15 3 14 4 12 5 13 6 11 7 9 8 10 9 98 10 97 11
REMARK SMILES IDX 86 12 96 13 87 14 95 15 8 17 3 18 4 19 100 20 5 21 99 22
REMARK SMILES IDX 2 23 1 24 101 25 102 26 6 27 7 28 88 29 89 30 94 31 90 32
REMARK SMILES IDX 93 33 91 34 92 35 18 36 19 37 20 38 21 39 22 40 23 41 24 42
REMARK SMILES IDX 85 43 25 44 84 45 26 46 27 47 28 48 78 49 29 50 83 51 77 52
REMARK SMILES IDX 79 53 30 54 82 55 76 56 75 57 31 59 63 60 43 61 62 62 44 63
REMARK SMILES IDX 47 64 61 65 80 66 45 67 46 68 60 70 81 71 48 72 32 73 33 74
REMARK SMILES IDX 41 75 34 76 35 77 39 78 42 79 36 80 37 81 40 82 38 83 64 84
REMARK SMILES IDX 65 85 73 86 66 87 67 88 71 89 74 90 68 91 69 92 72 93 70 94
REMARK SMILES IDX 49 95 50 96 58 97 51 98 52 99 56 100 59 101 53 102 54 103
REMARK SMILES IDX 57 104 55 105
REMARK H PARENT 95 16 79 58 47 69
REMARK Flexibility Score: inf
ROOT
ATOM      1  O   UNL A   1      33.639  29.019  27.373  1.00  0.00    -0.374 OA
ENDROOT
BRANCH   1   2
ATOM      2  C   UNL A   1      33.220  27.850  26.664  1.00  0.00     0.202 C 
BRANCH   2   3
ATOM      3  C   UNL A   1      31.808  27.389  27.037  1.00  0.00     0.261 C 
BRANCH   3   4
ATOM      4  O   UNL A   1      31.007  27.191  25.853  1.00  0.00    -0.460 OA
BRANCH   4   5
ATOM      5  C   UNL A   1      30.773  25.893  25.520  1.00  0.00     0.339 C 
ATOM      6  O   UNL A   1      29.847  25.207  25.906  1.00  0.00    -0.246 OA
BRANCH   5   7
ATOM      7  C   UNL A   1      31.800  25.430  24.568  1.00  0.00     0.075 A 
ATOM      8  C   UNL A   1      33.785  24.034  24.011  1.00  0.00     0.078 A 
ATOM      9  C   UNL A   1      32.862  24.580  24.949  1.00  0.00     0.045 A 
ATOM     10  N   UNL A   1      33.718  24.227  22.668  1.00  0.00    -0.226 NA
ATOM     11  C   UNL A   1      32.763  25.104  22.276  1.00  0.00     0.182 A 
ATOM     12  C   UNL A   1      31.845  25.718  23.194  1.00  0.00     0.061 A 
ATOM     13  N   UNL A   1      32.598  25.557  21.035  1.00  0.00    -0.154 NA
ATOM     14  C   UNL A   1      31.197  26.693  22.445  1.00  0.00     0.075 A 
ATOM     15  N   UNL A   1      31.639  26.483  21.158  1.00  0.00    -0.275 N 
ATOM     16  H   UNL A   1      31.278  26.977  20.387  1.00  0.00     0.190 HD
BRANCH   8  17
ATOM     17  C   UNL A   1      34.925  23.193  24.472  1.00  0.00     0.046 A 
ATOM     18  C   UNL A   1      37.231  21.775  25.403  1.00  0.00     0.164 A 
ATOM     19  C   UNL A   1      36.064  21.097  25.030  1.00  0.00     0.097 A 
ATOM     20  C   UNL A   1      37.265  23.164  25.322  1.00  0.00     0.161 A 
ATOM     21  C   UNL A   1      34.927  21.784  24.547  1.00  0.00     0.132 A 
ATOM     22  C   UNL A   1      36.114  23.844  24.879  1.00  0.00     0.064 A 
BRANCH  18  23
ATOM     23  O   UNL A   1      38.349  21.028  25.657  1.00  0.00    -0.493 OA
ATOM     24  C   UNL A   1      38.319  19.744  25.034  1.00  0.00     0.278 C 
ENDBRANCH  18  23
BRANCH  20  25
ATOM     25  O   UNL A   1      38.307  24.014  25.570  1.00  0.00    -0.493 OA
ATOM     26  C   UNL A   1      38.507  24.482  26.894  1.00  0.00     0.278 C 
ENDBRANCH  20  25
BRANCH  21  27
ATOM     27  O   UNL A   1      33.907  20.924  24.225  1.00  0.00    -0.496 OA
ATOM     28  C   UNL A   1      33.460  20.017  25.225  1.00  0.00     0.278 C 
ENDBRANCH  21  27
ENDBRANCH   8  17
BRANCH  14  29
ATOM     29  C   UNL A   1      30.355  27.854  22.736  1.00  0.00     0.000 A 
ATOM     30  C   UNL A   1      30.884  29.144  22.775  1.00  0.00     0.012 A 
ATOM     31  C   UNL A   1      28.986  27.677  23.001  1.00  0.00     0.012 A 
ATOM     32  C   UNL A   1      30.043  30.247  22.971  1.00  0.00     0.021 A 
ATOM     33  C   UNL A   1      28.138  28.777  23.156  1.00  0.00     0.021 A 
ATOM     34  C   UNL A   1      28.671  30.062  23.127  1.00  0.00     0.041 A 
ATOM     35  Cl  UNL A   1      27.631  31.423  23.281  1.00  0.00    -0.084 Cl
ENDBRANCH  14  29
ENDBRANCH   5   7
ENDBRANCH   4   5
ENDBRANCH   3   4
ENDBRANCH   2   3
ENDBRANCH   1   2
BRANCH   1  36
ATOM     36  C   UNL A   1      32.967  30.213  26.984  1.00  0.00     0.202 C 
BRANCH  36  37
ATOM     37  C   UNL A   1      33.668  31.458  27.500  1.00  0.00     0.261 C 
BRANCH  37  38
ATOM     38  O   UNL A   1      35.041  31.135  27.650  1.00  0.00    -0.460 OA
BRANCH  38  39
ATOM     39  C   UNL A   1      35.810  32.117  28.189  1.00  0.00     0.338 C 
ATOM     40  O   UNL A   1      35.880  33.276  27.885  1.00  0.00    -0.246 OA
BRANCH  39  41
ATOM     41  C   UNL A   1      36.650  31.423  29.172  1.00  0.00     0.060 A 
ATOM     42  C   UNL A   1      37.806  32.107  29.522  1.00  0.00     0.016 A 
ATOM     43  C   UNL A   1      36.491  30.037  29.348  1.00  0.00     0.016 A 
ATOM     44  C   UNL A   1      38.933  31.349  29.716  1.00  0.00     0.010 A 
ATOM     45  C   UNL A   1      37.623  29.285  29.511  1.00  0.00     0.010 A 
ATOM     46  C   UNL A   1      38.837  29.957  29.577  1.00  0.00    -0.014 A 
BRANCH  46  47
ATOM     47  C   UNL A   1      40.060  29.199  29.628  1.00  0.00     0.031 A 
ATOM     48  C   UNL A   1      40.536  29.059  31.013  1.00  0.00     0.074 A 
ATOM     49  C   UNL A   1      40.646  28.660  28.546  1.00  0.00     0.049 A 
ATOM     50  N   UNL A   1      41.478  29.737  31.575  1.00  0.00    -0.248 NA
ATOM     51  C   UNL A   1      39.712  28.272  31.942  1.00  0.00     0.031 C 
ATOM     52  C   UNL A   1      40.125  28.518  27.186  1.00  0.00     0.029 A 
ATOM     53  N   UNL A   1      41.854  28.044  28.478  1.00  0.00    -0.354 N 
ATOM     54  C   UNL A   1      41.501  29.296  32.889  1.00  0.00     0.074 A 
ATOM     55  C   UNL A   1      40.259  28.605  33.110  1.00  0.00     0.031 C 
ATOM     56  C   UNL A   1      40.916  27.660  26.497  1.00  0.00     0.029 A 
ATOM     57  C   UNL A   1      42.060  27.306  27.320  1.00  0.00     0.049 A 
ATOM     58  H   UNL A   1      42.528  28.113  29.191  1.00  0.00     0.167 HD
ATOM     59  C   UNL A   1      42.669  29.264  33.581  1.00  0.00     0.037 A 
ATOM     60  C   UNL A   1      43.065  26.410  27.139  1.00  0.00     0.037 A 
ATOM     61  C   UNL A   1      43.676  30.074  32.941  1.00  0.00     0.049 A 
ATOM     62  C   UNL A   1      44.121  26.726  28.142  1.00  0.00     0.074 A 
ATOM     63  C   UNL A   1      43.789  31.416  32.633  1.00  0.00     0.029 A 
ATOM     64  N   UNL A   1      44.600  29.427  32.158  1.00  0.00    -0.354 N 
ATOM     65  N   UNL A   1      44.852  27.807  28.103  1.00  0.00    -0.248 NA
ATOM     66  C   UNL A   1      44.025  26.088  29.449  1.00  0.00     0.031 C 
ATOM     67  C   UNL A   1      44.445  31.454  31.366  1.00  0.00     0.029 A 
ATOM     68  C   UNL A   1      44.753  30.144  31.000  1.00  0.00     0.049 A 
ATOM     69  H   UNL A   1      45.071  28.594  32.388  1.00  0.00     0.167 HD
ATOM     70  C   UNL A   1      44.941  28.223  29.424  1.00  0.00     0.074 A 
ATOM     71  C   UNL A   1      44.476  27.087  30.215  1.00  0.00     0.031 C 
ATOM     72  C   UNL A   1      45.095  29.545  29.731  1.00  0.00     0.037 A 
BRANCH  59  73
ATOM     73  C   UNL A   1      43.014  28.185  34.573  1.00  0.00     0.064 A 
ATOM     74  C   UNL A   1      43.378  28.559  35.878  1.00  0.00     0.173 A 
ATOM     75  C   UNL A   1      43.286  26.842  34.224  1.00  0.00     0.173 A 
ATOM     76  F   UNL A   1      43.187  29.818  36.304  1.00  0.00    -0.203 F 
ATOM     77  C   UNL A   1      44.036  27.679  36.738  1.00  0.00     0.198 A 
ATOM     78  C   UNL A   1      43.886  25.950  35.106  1.00  0.00     0.198 A 
ATOM     79  F   UNL A   1      43.101  26.365  32.988  1.00  0.00    -0.203 F 
ATOM     80  F   UNL A   1      44.484  28.117  37.921  1.00  0.00    -0.200 F 
ATOM     81  C   UNL A   1      44.292  26.376  36.350  1.00  0.00     0.200 A 
ATOM     82  F   UNL A   1      44.143  24.697  34.700  1.00  0.00    -0.200 F 
ATOM     83  F   UNL A   1      44.976  25.548  37.150  1.00  0.00    -0.200 F 
ENDBRANCH  59  73
BRANCH  60  84
ATOM     84  C   UNL A   1      43.020  25.107  26.432  1.00  0.00     0.064 A 
ATOM     85  C   UNL A   1      43.865  24.848  25.338  1.00  0.00     0.173 A 
ATOM     86  C   UNL A   1      42.362  23.993  26.989  1.00  0.00     0.173 A 
ATOM     87  F   UNL A   1      44.567  25.844  24.778  1.00  0.00    -0.203 F 
ATOM     88  C   UNL A   1      44.061  23.550  24.853  1.00  0.00     0.198 A 
ATOM     89  C   UNL A   1      42.555  22.700  26.499  1.00  0.00     0.198 A 
ATOM     90  F   UNL A   1      41.597  24.120  28.082  1.00  0.00    -0.203 F 
ATOM     91  F   UNL A   1      44.925  23.335  23.851  1.00  0.00    -0.200 F 
ATOM     92  C   UNL A   1      43.415  22.476  25.441  1.00  0.00     0.200 A 
ATOM     93  F   UNL A   1      41.953  21.665  27.104  1.00  0.00    -0.200 F 
ATOM     94  F   UNL A   1      43.651  21.226  25.019  1.00  0.00    -0.200 F 
ENDBRANCH  60  84
BRANCH  72  95
ATOM     95  C   UNL A   1      45.441  30.484  28.610  1.00  0.00     0.064 A 
ATOM     96  C   UNL A   1      44.494  31.092  27.768  1.00  0.00     0.173 A 
ATOM     97  C   UNL A   1      46.776  30.889  28.479  1.00  0.00     0.173 A 
ATOM     98  F   UNL A   1      43.186  30.833  27.900  1.00  0.00    -0.203 F 
ATOM     99  C   UNL A   1      44.877  32.029  26.808  1.00  0.00     0.198 A 
ATOM    100  C   UNL A   1      47.150  31.852  27.547  1.00  0.00     0.198 A 
ATOM    101  F   UNL A   1      47.714  30.383  29.294  1.00  0.00    -0.203 F 
ATOM    102  F   UNL A   1      43.959  32.586  26.005  1.00  0.00    -0.200 F 
ATOM    103  C   UNL A   1      46.204  32.413  26.704  1.00  0.00     0.200 A 
ATOM    104  F   UNL A   1      48.427  32.257  27.487  1.00  0.00    -0.200 F 
ATOM    105  F   UNL A   1      46.569  33.345  25.812  1.00  0.00    -0.200 F 
ENDBRANCH  72  95
ENDBRANCH  46  47
ENDBRANCH  39  41
ENDBRANCH  38  39
ENDBRANCH  37  38
ENDBRANCH  36  37
ENDBRANCH   1  36
TORSDOF 19
ENDMDL
MODEL 2
REMARK VINA RESULT:     -12.1      3.238      8.922
REMARK SMILES COc1cc(OC)c(-c2cc(C(=O)OCCOCCOC(=O)c3ccc(-c4c5nc(c(-c6c(F)c(F)c(F)c(F)c6F)c6ccc([nH]6)c(-c6c(F)c(F)c(F)c(F)c6F)c6nc(c(-c7c(F)c(F)c(F)c(F)c7F)c7ccc4[nH]7)C=C6)C=C5)cc3)c3c(-c4ccc(Cl)cc4)[nH]nc3n2)cc1OC
REMARK SMILES IDX 17 1 16 2 15 3 14 4 12 5 13 6 11 7 9 8 10 9 98 10 97 11
REMARK SMILES IDX 86 12 96 13 87 14 95 15 8 17 3 18 4 19 100 20 5 21 99 22
REMARK SMILES IDX 2 23 1 24 101 25 102 26 6 27 7 28 88 29 89 30 94 31 90 32
REMARK SMILES IDX 93 33 91 34 92 35 18 36 19 37 20 38 21 39 22 40 23 41 24 42
REMARK SMILES IDX 85 43 25 44 84 45 26 46 27 47 28 48 78 49 29 50 83 51 77 52
REMARK SMILES IDX 79 53 30 54 82 55 76 56 75 57 31 59 63 60 43 61 62 62 44 63
REMARK SMILES IDX 47 64 61 65 80 66 45 67 46 68 60 70 81 71 48 72 32 73 33 74
REMARK SMILES IDX 41 75 34 76 35 77 39 78 42 79 36 80 37 81 40 82 38 83 64 84
REMARK SMILES IDX 65 85 73 86 66 87 67 88 71 89 74 90 68 91 69 92 72 93 70 94
REMARK SMILES IDX 49 95 50 96 58 97 51 98 52 99 56 100 59 101 53 102 54 103
REMARK SMILES IDX 57 104 55 105
REMARK H PARENT 95 16 79 58 47 69
REMARK Flexibility Score: inf
ROOT
ATOM      1  O   UNL A   1      37.505  23.347  24.798  1.00  0.00    -0.374 OA
ENDROOT
BRANCH   1   2
ATOM      2  C   UNL A   1      36.178  23.818  24.553  1.00  0.00     0.202 C 
BRANCH   2   3
ATOM      3  C   UNL A   1      35.558  23.246  23.276  1.00  0.00     0.261 C 
BRANCH   3   4
ATOM      4  O   UNL A   1      34.450  24.061  22.838  1.00  0.00    -0.460 OA
BRANCH   4   5
ATOM      5  C   UNL A   1      33.216  23.560  23.112  1.00  0.00     0.339 C 
ATOM      6  O   UNL A   1      32.642  22.684  22.495  1.00  0.00    -0.246 OA
BRANCH   5   7
ATOM      7  C   UNL A   1      32.671  24.211  24.318  1.00  0.00     0.075 A 
ATOM      8  C   UNL A   1      32.061  26.253  25.606  1.00  0.00     0.078 A 
ATOM      9  C   UNL A   1      32.693  25.611  24.501  1.00  0.00     0.045 A 
ATOM     10  N   UNL A   1      31.341  25.607  26.559  1.00  0.00    -0.226 NA
ATOM     11  C   UNL A   1      31.369  24.256  26.460  1.00  0.00     0.182 A 
ATOM     12  C   UNL A   1      32.037  23.566  25.392  1.00  0.00     0.061 A 
ATOM     13  N   UNL A   1      30.858  23.409  27.352  1.00  0.00    -0.154 NA
ATOM     14  C   UNL A   1      32.022  22.229  25.773  1.00  0.00     0.075 A 
ATOM     15  N   UNL A   1      31.238  22.207  26.904  1.00  0.00    -0.275 N 
ATOM     16  H   UNL A   1      30.976  21.368  27.350  1.00  0.00     0.190 HD
BRANCH   8  17
ATOM     17  C   UNL A   1      32.167  27.728  25.787  1.00  0.00     0.046 A 
ATOM     18  C   UNL A   1      32.557  30.523  26.270  1.00  0.00     0.164 A 
ATOM     19  C   UNL A   1      31.566  30.069  25.391  1.00  0.00     0.097 A 
ATOM     20  C   UNL A   1      33.368  29.593  26.916  1.00  0.00     0.161 A 
ATOM     21  C   UNL A   1      31.348  28.692  25.161  1.00  0.00     0.132 A 
ATOM     22  C   UNL A   1      33.173  28.225  26.650  1.00  0.00     0.064 A 
BRANCH  18  23
ATOM     23  O   UNL A   1      32.563  31.852  26.595  1.00  0.00    -0.493 OA
ATOM     24  C   UNL A   1      31.278  32.464  26.475  1.00  0.00     0.278 C 
ENDBRANCH  18  23
BRANCH  20  25
ATOM     25  O   UNL A   1      34.342  29.808  27.851  1.00  0.00    -0.493 OA
ATOM     26  C   UNL A   1      35.605  29.185  27.679  1.00  0.00     0.278 C 
ENDBRANCH  20  25
BRANCH  21  27
ATOM     27  O   UNL A   1      30.319  28.475  24.280  1.00  0.00    -0.496 OA
ATOM     28  C   UNL A   1      30.584  28.644  22.893  1.00  0.00     0.278 C 
ENDBRANCH  21  27
ENDBRANCH   8  17
BRANCH  14  29
ATOM     29  C   UNL A   1      32.712  21.009  25.352  1.00  0.00     0.000 A 
ATOM     30  C   UNL A   1      32.025  19.962  24.737  1.00  0.00     0.012 A 
ATOM     31  C   UNL A   1      34.091  20.870  25.581  1.00  0.00     0.012 A 
ATOM     32  C   UNL A   1      32.721  18.841  24.265  1.00  0.00     0.021 A 
ATOM     33  C   UNL A   1      34.795  19.773  25.076  1.00  0.00     0.021 A 
ATOM     34  C   UNL A   1      34.105  18.767  24.407  1.00  0.00     0.041 A 
ATOM     35  Cl  UNL A   1      34.967  17.430  23.750  1.00  0.00    -0.084 Cl
ENDBRANCH  14  29
ENDBRANCH   5   7
ENDBRANCH   4   5
ENDBRANCH   3   4
ENDBRANCH   2   3
ENDBRANCH   1   2
BRANCH   1  36
ATOM     36  C   UNL A   1      38.014  23.670  26.088  1.00  0.00     0.202 C 
BRANCH  36  37
ATOM     37  C   UNL A   1      39.053  22.668  26.562  1.00  0.00     0.261 C 
BRANCH  37  38
ATOM     38  O   UNL A   1      40.096  23.405  27.180  1.00  0.00    -0.460 OA
BRANCH  38  39
ATOM     39  C   UNL A   1      41.327  23.235  26.630  1.00  0.00     0.338 C 
ATOM     40  O   UNL A   1      41.845  22.231  26.229  1.00  0.00    -0.246 OA
BRANCH  39  41
ATOM     41  C   UNL A   1      41.958  24.557  26.739  1.00  0.00     0.060 A 
ATOM     42  C   UNL A   1      42.605  24.785  27.945  1.00  0.00     0.016 A 
ATOM     43  C   UNL A   1      41.531  25.589  25.886  1.00  0.00     0.016 A 
ATOM     44  C   UNL A   1      42.504  26.049  28.466  1.00  0.00     0.010 A 
ATOM     45  C   UNL A   1      41.404  26.842  26.422  1.00  0.00     0.010 A 
ATOM     46  C   UNL A   1      41.791  27.017  27.745  1.00  0.00    -0.014 A 
BRANCH  46  47
ATOM     47  C   UNL A   1      41.564  28.288  28.383  1.00  0.00     0.031 A 
ATOM     48  C   UNL A   1      42.628  29.245  28.044  1.00  0.00     0.074 A 
ATOM     49  C   UNL A   1      40.490  28.555  29.145  1.00  0.00     0.049 A 
ATOM     50  N   UNL A   1      43.630  29.577  28.786  1.00  0.00    -0.248 NA
ATOM     51  C   UNL A   1      42.734  29.681  26.644  1.00  0.00     0.031 C 
ATOM     52  C   UNL A   1      39.266  27.775  29.325  1.00  0.00     0.029 A 
ATOM     53  N   UNL A   1      40.255  29.670  29.884  1.00  0.00    -0.354 N 
ATOM     54  C   UNL A   1      44.382  30.441  28.005  1.00  0.00     0.074 A 
ATOM     55  C   UNL A   1      43.931  30.266  26.651  1.00  0.00     0.031 C 
ATOM     56  C   UNL A   1      38.335  28.547  29.937  1.00  0.00     0.029 A 
ATOM     57  C   UNL A   1      38.940  29.816  30.305  1.00  0.00     0.049 A 
ATOM     58  H   UNL A   1      40.959  30.322  30.103  1.00  0.00     0.167 HD
ATOM     59  C   UNL A   1      45.087  31.448  28.582  1.00  0.00     0.037 A 
ATOM     60  C   UNL A   1      38.415  30.954  30.828  1.00  0.00     0.037 A 
ATOM     61  C   UNL A   1      45.248  31.226  29.998  1.00  0.00     0.049 A 
ATOM     62  C   UNL A   1      39.555  31.785  31.306  1.00  0.00     0.074 A 
ATOM     63  C   UNL A   1      45.848  30.245  30.763  1.00  0.00     0.029 A 
ATOM     64  N   UNL A   1      44.395  31.894  30.841  1.00  0.00    -0.354 N 
ATOM     65  N   UNL A   1      40.303  31.463  32.326  1.00  0.00    -0.248 NA
ATOM     66  C   UNL A   1      40.162  32.711  30.358  1.00  0.00     0.031 C 
ATOM     67  C   UNL A   1      44.996  30.081  31.896  1.00  0.00     0.029 A 
ATOM     68  C   UNL A   1      43.961  31.011  31.795  1.00  0.00     0.049 A 
ATOM     69  H   UNL A   1      44.140  32.842  30.774  1.00  0.00     0.167 HD
ATOM     70  C   UNL A   1      41.596  31.783  31.933  1.00  0.00     0.074 A 
ATOM     71  C   UNL A   1      41.439  32.614  30.743  1.00  0.00     0.031 C 
ATOM     72  C   UNL A   1      42.666  31.096  32.430  1.00  0.00     0.037 A 
BRANCH  59  73
ATOM     73  C   UNL A   1      45.251  32.808  27.956  1.00  0.00     0.064 A 
ATOM     74  C   UNL A   1      46.547  33.254  27.644  1.00  0.00     0.173 A 
ATOM     75  C   UNL A   1      44.239  33.795  27.923  1.00  0.00     0.173 A 
ATOM     76  F   UNL A   1      47.585  32.405  27.671  1.00  0.00    -0.203 F 
ATOM     77  C   UNL A   1      46.819  34.600  27.396  1.00  0.00     0.198 A 
ATOM     78  C   UNL A   1      44.506  35.124  27.614  1.00  0.00     0.198 A 
ATOM     79  F   UNL A   1      42.980  33.552  28.302  1.00  0.00    -0.203 F 
ATOM     80  F   UNL A   1      48.087  35.002  27.236  1.00  0.00    -0.200 F 
ATOM     81  C   UNL A   1      45.799  35.534  27.384  1.00  0.00     0.200 A 
ATOM     82  F   UNL A   1      43.503  36.015  27.630  1.00  0.00    -0.200 F 
ATOM     83  F   UNL A   1      46.066  36.834  27.206  1.00  0.00    -0.200 F 
ENDBRANCH  59  73
BRANCH  60  84
ATOM     84  C   UNL A   1      37.063  31.525  30.613  1.00  0.00     0.064 A 
ATOM     85  C   UNL A   1      36.152  31.647  31.678  1.00  0.00     0.173 A 
ATOM     86  C   UNL A   1      36.742  32.227  29.435  1.00  0.00     0.173 A 
ATOM     87  F   UNL A   1      36.405  31.051  32.852  1.00  0.00    -0.203 F 
ATOM     88  C   UNL A   1      35.007  32.446  31.578  1.00  0.00     0.198 A 
ATOM     89  C   UNL A   1      35.596  33.020  29.336  1.00  0.00     0.198 A 
ATOM     90  F   UNL A   1      37.582  32.242  28.391  1.00  0.00    -0.203 F 
ATOM     91  F   UNL A   1      34.197  32.590  32.637  1.00  0.00    -0.200 F 
ATOM     92  C   UNL A   1      34.737  33.141  30.410  1.00  0.00     0.200 A 
ATOM     93  F   UNL A   1      35.368  33.717  28.213  1.00  0.00    -0.200 F 
ATOM     94  F   UNL A   1      33.676  33.956  30.336  1.00  0.00    -0.200 F 
ENDBRANCH  60  84
BRANCH  72  95
ATOM     95  C   UNL A   1      42.428  30.190  33.606  1.00  0.00     0.064 A 
ATOM     96  C   UNL A   1      42.571  30.583  34.948  1.00  0.00     0.173 A 
ATOM     97  C   UNL A   1      41.897  28.918  33.359  1.00  0.00     0.173 A 
ATOM     98  F   UNL A   1      42.975  31.820  35.266  1.00  0.00    -0.203 F 
ATOM     99  C   UNL A   1      42.240  29.719  35.992  1.00  0.00     0.198 A 
ATOM    100  C   UNL A   1      41.531  28.072  34.401  1.00  0.00     0.198 A 
ATOM    101  F   UNL A   1      41.687  28.512  32.097  1.00  0.00    -0.203 F 
ATOM    102  F   UNL A   1      42.398  30.109  37.266  1.00  0.00    -0.200 F 
ATOM    103  C   UNL A   1      41.713  28.467  35.717  1.00  0.00     0.200 A 
ATOM    104  F   UNL A   1      40.975  26.884  34.128  1.00  0.00    -0.200 F 
ATOM    105  F   UNL A   1      41.355  27.652  36.718  1.00  0.00    -0.200 F 
ENDBRANCH  72  95
ENDBRANCH  46  47
ENDBRANCH  39  41
ENDBRANCH  38  39
ENDBRANCH  37  38
ENDBRANCH  36  37
ENDBRANCH   1  36
TORSDOF 19
ENDMDL
MODEL 3
REMARK VINA RESULT:     -12.1      1.462      2.351
REMARK SMILES COc1cc(OC)c(-c2cc(C(=O)OCCOCCOC(=O)c3ccc(-c4c5nc(c(-c6c(F)c(F)c(F)c(F)c6F)c6ccc([nH]6)c(-c6c(F)c(F)c(F)c(F)c6F)c6nc(c(-c7c(F)c(F)c(F)c(F)c7F)c7ccc4[nH]7)C=C6)C=C5)cc3)c3c(-c4ccc(Cl)cc4)[nH]nc3n2)cc1OC
REMARK SMILES IDX 17 1 16 2 15 3 14 4 12 5 13 6 11 7 9 8 10 9 98 10 97 11
REMARK SMILES IDX 86 12 96 13 87 14 95 15 8 17 3 18 4 19 100 20 5 21 99 22
REMARK SMILES IDX 2 23 1 24 101 25 102 26 6 27 7 28 88 29 89 30 94 31 90 32
REMARK SMILES IDX 93 33 91 34 92 35 18 36 19 37 20 38 21 39 22 40 23 41 24 42
REMARK SMILES IDX 85 43 25 44 84 45 26 46 27 47 28 48 78 49 29 50 83 51 77 52
REMARK SMILES IDX 79 53 30 54 82 55 76 56 75 57 31 59 63 60 43 61 62 62 44 63
REMARK SMILES IDX 47 64 61 65 80 66 45 67 46 68 60 70 81 71 48 72 32 73 33 74
REMARK SMILES IDX 41 75 34 76 35 77 39 78 42 79 36 80 37 81 40 82 38 83 64 84
REMARK SMILES IDX 65 85 73 86 66 87 67 88 71 89 74 90 68 91 69 92 72 93 70 94
REMARK SMILES IDX 49 95 50 96 58 97 51 98 52 99 56 100 59 101 53 102 54 103
REMARK SMILES IDX 57 104 55 105
REMARK H PARENT 95 16 79 58 47 69
REMARK Flexibility Score: inf
ROOT
ATOM      1  O   UNL A   1      33.937  28.391  26.070  1.00  0.00    -0.374 OA
ENDROOT
BRANCH   1   2
ATOM      2  C   UNL A   1      33.620  29.140  24.894  1.00  0.00     0.202 C 
BRANCH   2   3
ATOM      3  C   UNL A   1      33.882  28.370  23.597  1.00  0.00     0.261 C 
BRANCH   3   4
ATOM      4  O   UNL A   1      33.871  26.947  23.838  1.00  0.00    -0.460 OA
BRANCH   4   5
ATOM      5  C   UNL A   1      32.910  26.252  23.172  1.00  0.00     0.339 C 
ATOM      6  O   UNL A   1      32.499  26.487  22.052  1.00  0.00    -0.246 OA
BRANCH   5   7
ATOM      7  C   UNL A   1      32.452  25.119  23.997  1.00  0.00     0.075 A 
ATOM      8  C   UNL A   1      32.730  22.802  24.866  1.00  0.00     0.078 A 
ATOM      9  C   UNL A   1      33.093  23.860  23.983  1.00  0.00     0.045 A 
ATOM     10  N   UNL A   1      31.779  22.900  25.831  1.00  0.00    -0.226 NA
ATOM     11  C   UNL A   1      31.087  24.065  25.817  1.00  0.00     0.182 A 
ATOM     12  C   UNL A   1      31.386  25.138  24.911  1.00  0.00     0.061 A 
ATOM     13  N   UNL A   1      30.023  24.335  26.570  1.00  0.00    -0.154 NA
ATOM     14  C   UNL A   1      30.332  26.032  25.065  1.00  0.00     0.075 A 
ATOM     15  N   UNL A   1      29.609  25.526  26.121  1.00  0.00    -0.275 N 
ATOM     16  H   UNL A   1      28.844  26.004  26.516  1.00  0.00     0.190 HD
BRANCH   8  17
ATOM     17  C   UNL A   1      33.395  21.473  24.768  1.00  0.00     0.046 A 
ATOM     18  C   UNL A   1      34.484  18.842  24.469  1.00  0.00     0.164 A 
ATOM     19  C   UNL A   1      35.236  19.878  25.035  1.00  0.00     0.097 A 
ATOM     20  C   UNL A   1      33.184  19.101  24.042  1.00  0.00     0.161 A 
ATOM     21  C   UNL A   1      34.702  21.175  25.209  1.00  0.00     0.132 A 
ATOM     22  C   UNL A   1      32.674  20.405  24.180  1.00  0.00     0.064 A 
BRANCH  18  23
ATOM     23  O   UNL A   1      34.997  17.574  24.529  1.00  0.00    -0.493 OA
ATOM     24  C   UNL A   1      34.219  16.693  25.340  1.00  0.00     0.278 C 
ENDBRANCH  18  23
BRANCH  20  25
ATOM     25  O   UNL A   1      32.261  18.233  23.526  1.00  0.00    -0.493 OA
ATOM     26  C   UNL A   1      32.262  17.985  22.130  1.00  0.00     0.278 C 
ENDBRANCH  20  25
BRANCH  21  27
ATOM     27  O   UNL A   1      35.604  22.027  25.797  1.00  0.00    -0.496 OA
ATOM     28  C   UNL A   1      36.635  22.570  24.982  1.00  0.00     0.278 C 
ENDBRANCH  21  27
ENDBRANCH   8  17
BRANCH  14  29
ATOM     29  C   UNL A   1      29.815  27.183  24.324  1.00  0.00     0.000 A 
ATOM     30  C   UNL A   1      28.622  27.108  23.605  1.00  0.00     0.012 A 
ATOM     31  C   UNL A   1      30.535  28.390  24.315  1.00  0.00     0.012 A 
ATOM     32  C   UNL A   1      28.105  28.247  22.974  1.00  0.00     0.021 A 
ATOM     33  C   UNL A   1      30.001  29.538  23.722  1.00  0.00     0.021 A 
ATOM     34  C   UNL A   1      28.778  29.463  23.063  1.00  0.00     0.041 A 
ATOM     35  Cl  UNL A   1      28.096  30.878  22.361  1.00  0.00    -0.084 Cl
ENDBRANCH  14  29
ENDBRANCH   5   7
ENDBRANCH   4   5
ENDBRANCH   3   4
ENDBRANCH   2   3
ENDBRANCH   1   2
BRANCH   1  36
ATOM     36  C   UNL A   1      34.604  29.140  27.081  1.00  0.00     0.202 C 
BRANCH  36  37
ATOM     37  C   UNL A   1      34.115  30.577  27.145  1.00  0.00     0.261 C 
BRANCH  37  38
ATOM     38  O   UNL A   1      34.531  31.107  28.393  1.00  0.00    -0.460 OA
BRANCH  38  39
ATOM     39  C   UNL A   1      35.588  31.959  28.335  1.00  0.00     0.338 C 
ATOM     40  O   UNL A   1      35.774  32.885  27.596  1.00  0.00    -0.246 OA
BRANCH  39  41
ATOM     41  C   UNL A   1      36.541  31.425  29.317  1.00  0.00     0.060 A 
ATOM     42  C   UNL A   1      37.720  32.148  29.424  1.00  0.00     0.016 A 
ATOM     43  C   UNL A   1      36.418  30.086  29.727  1.00  0.00     0.016 A 
ATOM     44  C   UNL A   1      38.870  31.424  29.609  1.00  0.00     0.010 A 
ATOM     45  C   UNL A   1      37.569  29.362  29.880  1.00  0.00     0.010 A 
ATOM     46  C   UNL A   1      38.776  30.029  29.704  1.00  0.00    -0.014 A 
BRANCH  46  47
ATOM     47  C   UNL A   1      40.006  29.281  29.739  1.00  0.00     0.031 A 
ATOM     48  C   UNL A   1      40.501  29.144  31.117  1.00  0.00     0.074 A 
ATOM     49  C   UNL A   1      40.582  28.748  28.648  1.00  0.00     0.049 A 
ATOM     50  N   UNL A   1      41.445  29.830  31.667  1.00  0.00    -0.248 NA
ATOM     51  C   UNL A   1      39.696  28.350  32.057  1.00  0.00     0.031 C 
ATOM     52  C   UNL A   1      40.045  28.602  27.296  1.00  0.00     0.029 A 
ATOM     53  N   UNL A   1      41.794  28.142  28.564  1.00  0.00    -0.354 N 
ATOM     54  C   UNL A   1      41.488  29.389  32.981  1.00  0.00     0.074 A 
ATOM     55  C   UNL A   1      40.255  28.687  33.217  1.00  0.00     0.031 C 
ATOM     56  C   UNL A   1      40.834  27.752  26.595  1.00  0.00     0.029 A 
ATOM     57  C   UNL A   1      41.992  27.406  27.403  1.00  0.00     0.049 A 
ATOM     58  H   UNL A   1      42.477  28.217  29.269  1.00  0.00     0.167 HD
ATOM     59  C   UNL A   1      42.665  29.367  33.658  1.00  0.00     0.037 A 
ATOM     60  C   UNL A   1      43.002  26.520  27.209  1.00  0.00     0.037 A 
ATOM     61  C   UNL A   1      43.657  30.185  33.005  1.00  0.00     0.049 A 
ATOM     62  C   UNL A   1      44.068  26.844  28.198  1.00  0.00     0.074 A 
ATOM     63  C   UNL A   1      43.755  31.528  32.696  1.00  0.00     0.029 A 
ATOM     64  N   UNL A   1      44.576  29.546  32.209  1.00  0.00    -0.354 N 
ATOM     65  N   UNL A   1      44.789  27.931  28.150  1.00  0.00    -0.248 NA
ATOM     66  C   UNL A   1      43.995  26.205  29.506  1.00  0.00     0.031 C 
ATOM     67  C   UNL A   1      44.393  31.573  31.421  1.00  0.00     0.029 A 
ATOM     68  C   UNL A   1      44.708  30.265  31.050  1.00  0.00     0.049 A 
ATOM     69  H   UNL A   1      45.057  28.717  32.433  1.00  0.00     0.167 HD
ATOM     70  C   UNL A   1      44.891  28.347  29.471  1.00  0.00     0.074 A 
ATOM     71  C   UNL A   1      44.446  27.207  30.267  1.00  0.00     0.031 C 
ATOM     72  C   UNL A   1      45.039  29.670  29.777  1.00  0.00     0.037 A 
BRANCH  59  73
ATOM     73  C   UNL A   1      43.032  28.289  34.644  1.00  0.00     0.064 A 
ATOM     74  C   UNL A   1      43.392  28.665  35.950  1.00  0.00     0.173 A 
ATOM     75  C   UNL A   1      43.329  26.953  34.289  1.00  0.00     0.173 A 
ATOM     76  F   UNL A   1      43.178  29.918  36.382  1.00  0.00    -0.203 F 
ATOM     77  C   UNL A   1      44.068  27.793  36.805  1.00  0.00     0.198 A 
ATOM     78  C   UNL A   1      43.947  26.069  35.166  1.00  0.00     0.198 A 
ATOM     79  F   UNL A   1      43.151  26.478  33.051  1.00  0.00    -0.203 F 
ATOM     80  F   UNL A   1      44.510  28.236  37.989  1.00  0.00    -0.200 F 
ATOM     81  C   UNL A   1      44.348  26.497  36.411  1.00  0.00     0.200 A 
ATOM     82  F   UNL A   1      44.227  24.823  34.753  1.00  0.00    -0.200 F 
ATOM     83  F   UNL A   1      45.048  25.679  37.205  1.00  0.00    -0.200 F 
ENDBRANCH  59  73
BRANCH  60  84
ATOM     84  C   UNL A   1      42.958  25.217  26.502  1.00  0.00     0.064 A 
ATOM     85  C   UNL A   1      43.806  24.957  25.410  1.00  0.00     0.173 A 
ATOM     86  C   UNL A   1      42.299  24.103  27.057  1.00  0.00     0.173 A 
ATOM     87  F   UNL A   1      44.510  25.953  24.852  1.00  0.00    -0.203 F 
ATOM     88  C   UNL A   1      44.004  23.659  24.925  1.00  0.00     0.198 A 
ATOM     89  C   UNL A   1      42.493  22.809  26.567  1.00  0.00     0.198 A 
ATOM     90  F   UNL A   1      41.531  24.230  28.148  1.00  0.00    -0.203 F 
ATOM     91  F   UNL A   1      44.871  23.444  23.926  1.00  0.00    -0.200 F 
ATOM     92  C   UNL A   1      43.356  22.585  25.512  1.00  0.00     0.200 A 
ATOM     93  F   UNL A   1      41.890  21.774  27.170  1.00  0.00    -0.200 F 
ATOM     94  F   UNL A   1      43.594  21.335  25.090  1.00  0.00    -0.200 F 
ENDBRANCH  60  84
BRANCH  72  95
ATOM     95  C   UNL A   1      45.362  30.613  28.651  1.00  0.00     0.064 A 
ATOM     96  C   UNL A   1      44.400  31.196  27.807  1.00  0.00     0.173 A 
ATOM     97  C   UNL A   1      46.686  31.048  28.517  1.00  0.00     0.173 A 
ATOM     98  F   UNL A   1      43.099  30.907  27.941  1.00  0.00    -0.203 F 
ATOM     99  C   UNL A   1      44.761  32.137  26.844  1.00  0.00     0.198 A 
ATOM    100  C   UNL A   1      47.038  32.016  27.582  1.00  0.00     0.198 A 
ATOM    101  F   UNL A   1      47.637  30.567  29.334  1.00  0.00    -0.203 F 
ATOM    102  F   UNL A   1      43.829  32.670  26.039  1.00  0.00    -0.200 F 
ATOM    103  C   UNL A   1      46.079  32.552  26.738  1.00  0.00     0.200 A 
ATOM    104  F   UNL A   1      48.305  32.450  27.519  1.00  0.00    -0.200 F 
ATOM    105  F   UNL A   1      46.421  33.488  25.841  1.00  0.00    -0.200 F 
ENDBRANCH  72  95
ENDBRANCH  46  47
ENDBRANCH  39  41
ENDBRANCH  38  39
ENDBRANCH  37  38
ENDBRANCH  36  37
ENDBRANCH   1  36
TORSDOF 19
ENDMDL
