MODEL 1
REMARK VINA RESULT:     -11.9      0.000      0.000
REMARK SMILES O=C(OCCOCCOC(=O)c1cc(Br)ccc1N1CC2(CCCCC2)C1)c1ccc(-c2c3nc(c(-c4c(F)c(F)c(F)c(F)c4F)c4ccc([nH]4)c(-c4c(F)c(F)c(F)c(F)c4F)c4nc(c(-c5c(F)c(F)c(F)c(F)c5F)c5ccc2[nH]5)C=C4)C=C3)cc1
REMARK SMILES IDX 5 1 4 2 3 3 2 4 1 5 28 6 29 7 90 8 30 9 89 10 31 11 32 12
REMARK SMILES IDX 33 13 83 14 34 15 88 16 82 17 84 18 35 19 87 20 81 21 80 22
REMARK SMILES IDX 36 24 68 25 48 26 67 27 49 28 52 29 66 30 85 31 50 32 51 33
REMARK SMILES IDX 65 35 86 36 53 37 37 38 38 39 46 40 39 41 40 42 44 43 47 44
REMARK SMILES IDX 41 45 42 46 45 47 43 48 69 49 70 50 78 51 71 52 72 53 76 54
REMARK SMILES IDX 79 55 73 56 74 57 77 58 75 59 54 60 55 61 63 62 56 63 57 64
REMARK SMILES IDX 61 65 64 66 58 67 59 68 62 69 60 70 6 71 7 72 8 73 9 74
REMARK SMILES IDX 10 75 11 76 12 77 13 78 18 79 14 80 17 81 15 82 16 83 19 84
REMARK SMILES IDX 20 85 27 86 21 87 22 88 26 89 23 90 25 91 24 92
REMARK H PARENT 84 23 52 34
REMARK Flexibility Score: inf
ROOT
ATOM      1  C   UNL A   1      31.393  32.387  26.525  1.00  0.00     0.202 C 
ENDROOT
BRANCH   1   2
ATOM      2  C   UNL A   1      32.628  33.051  27.142  1.00  0.00     0.261 C 
BRANCH   2   3
ATOM      3  O   UNL A   1      32.236  34.219  27.898  1.00  0.00    -0.460 OA
BRANCH   3   4
ATOM      4  C   UNL A   1      33.021  34.865  28.794  1.00  0.00     0.338 C 
ATOM      5  O   UNL A   1      32.673  35.938  29.276  1.00  0.00    -0.246 OA
BRANCH   4   6
ATOM      6  C   UNL A   1      34.173  34.156  29.404  1.00  0.00     0.060 A 
ATOM      7  C   UNL A   1      34.032  33.027  30.202  1.00  0.00     0.016 A 
ATOM      8  C   UNL A   1      35.465  34.558  29.034  1.00  0.00     0.016 A 
ATOM      9  C   UNL A   1      35.145  32.341  30.664  1.00  0.00     0.010 A 
ATOM     10  C   UNL A   1      36.591  33.849  29.480  1.00  0.00     0.010 A 
ATOM     11  C   UNL A   1      36.434  32.734  30.313  1.00  0.00    -0.014 A 
BRANCH  11  12
ATOM     12  C   UNL A   1      37.571  31.998  30.917  1.00  0.00     0.031 A 
ATOM     13  C   UNL A   1      37.860  32.178  32.377  1.00  0.00     0.074 A 
ATOM     14  C   UNL A   1      38.229  31.059  30.209  1.00  0.00     0.049 A 
ATOM     15  N   UNL A   1      38.849  31.709  33.092  1.00  0.00    -0.248 NA
ATOM     16  C   UNL A   1      36.897  32.988  33.138  1.00  0.00     0.031 C 
ATOM     17  C   UNL A   1      37.934  30.685  28.824  1.00  0.00     0.029 A 
ATOM     18  N   UNL A   1      39.241  30.206  30.569  1.00  0.00    -0.354 N 
ATOM     19  C   UNL A   1      38.666  32.223  34.368  1.00  0.00     0.074 A 
ATOM     20  C   UNL A   1      37.458  33.019  34.338  1.00  0.00     0.031 C 
ATOM     21  C   UNL A   1      38.693  29.634  28.479  1.00  0.00     0.029 A 
ATOM     22  C   UNL A   1      39.605  29.330  29.574  1.00  0.00     0.049 A 
ATOM     23  H   UNL A   1      39.667  30.221  31.457  1.00  0.00     0.167 HD
ATOM     24  C   UNL A   1      39.454  32.058  35.456  1.00  0.00     0.037 A 
ATOM     25  C   UNL A   1      40.591  28.413  29.542  1.00  0.00     0.037 A 
ATOM     26  C   UNL A   1      40.628  31.226  35.472  1.00  0.00     0.049 A 
ATOM     27  C   UNL A   1      41.496  28.300  30.740  1.00  0.00     0.074 A 
ATOM     28  C   UNL A   1      41.543  31.036  36.491  1.00  0.00     0.029 A 
ATOM     29  N   UNL A   1      41.034  30.424  34.413  1.00  0.00    -0.354 N 
ATOM     30  N   UNL A   1      41.407  28.896  31.905  1.00  0.00    -0.248 NA
ATOM     31  C   UNL A   1      42.662  27.417  30.605  1.00  0.00     0.031 C 
ATOM     32  C   UNL A   1      42.525  30.148  36.034  1.00  0.00     0.029 A 
ATOM     33  C   UNL A   1      42.193  29.746  34.749  1.00  0.00     0.049 A 
ATOM     34  H   UNL A   1      40.566  30.350  33.550  1.00  0.00     0.167 HD
ATOM     35  C   UNL A   1      42.499  28.459  32.642  1.00  0.00     0.074 A 
ATOM     36  C   UNL A   1      43.218  27.523  31.804  1.00  0.00     0.031 C 
ATOM     37  C   UNL A   1      42.882  28.813  33.893  1.00  0.00     0.037 A 
BRANCH  24  38
ATOM     38  C   UNL A   1      39.116  32.869  36.672  1.00  0.00     0.064 A 
ATOM     39  C   UNL A   1      39.642  34.149  36.893  1.00  0.00     0.173 A 
ATOM     40  C   UNL A   1      38.271  32.328  37.655  1.00  0.00     0.173 A 
ATOM     41  F   UNL A   1      40.478  34.699  35.999  1.00  0.00    -0.203 F 
ATOM     42  C   UNL A   1      39.364  34.844  38.069  1.00  0.00     0.198 A 
ATOM     43  C   UNL A   1      37.972  33.037  38.815  1.00  0.00     0.198 A 
ATOM     44  F   UNL A   1      37.745  31.105  37.495  1.00  0.00    -0.203 F 
ATOM     45  F   UNL A   1      39.932  36.037  38.290  1.00  0.00    -0.200 F 
ATOM     46  C   UNL A   1      38.528  34.288  39.026  1.00  0.00     0.200 A 
ATOM     47  F   UNL A   1      37.158  32.499  39.734  1.00  0.00    -0.200 F 
ATOM     48  F   UNL A   1      38.269  34.954  40.160  1.00  0.00    -0.200 F 
ENDBRANCH  24  38
BRANCH  25  49
ATOM     49  C   UNL A   1      40.818  27.584  28.325  1.00  0.00     0.064 A 
ATOM     50  C   UNL A   1      40.204  26.332  28.177  1.00  0.00     0.173 A 
ATOM     51  C   UNL A   1      41.671  28.011  27.296  1.00  0.00     0.173 A 
ATOM     52  F   UNL A   1      39.405  25.858  29.144  1.00  0.00    -0.203 F 
ATOM     53  C   UNL A   1      40.442  25.539  27.054  1.00  0.00     0.198 A 
ATOM     54  C   UNL A   1      41.880  27.235  26.158  1.00  0.00     0.198 A 
ATOM     55  F   UNL A   1      42.299  29.193  27.389  1.00  0.00    -0.203 F 
ATOM     56  F   UNL A   1      39.883  24.324  26.963  1.00  0.00    -0.200 F 
ATOM     57  C   UNL A   1      41.272  25.995  26.042  1.00  0.00     0.200 A 
ATOM     58  F   UNL A   1      42.673  27.688  25.178  1.00  0.00    -0.200 F 
ATOM     59  F   UNL A   1      41.498  25.236  24.961  1.00  0.00    -0.200 F 
ENDBRANCH  25  49
BRANCH  37  60
ATOM     60  C   UNL A   1      44.119  28.160  34.434  1.00  0.00     0.064 A 
ATOM     61  C   UNL A   1      44.066  26.928  35.102  1.00  0.00     0.173 A 
ATOM     62  C   UNL A   1      45.374  28.758  34.250  1.00  0.00     0.173 A 
ATOM     63  F   UNL A   1      42.886  26.326  35.316  1.00  0.00    -0.203 F 
ATOM     64  C   UNL A   1      45.225  26.331  35.590  1.00  0.00     0.198 A 
ATOM     65  C   UNL A   1      46.533  28.144  34.715  1.00  0.00     0.198 A 
ATOM     66  F   UNL A   1      45.476  29.934  33.612  1.00  0.00    -0.203 F 
ATOM     67  F   UNL A   1      45.147  25.177  36.268  1.00  0.00    -0.200 F 
ATOM     68  C   UNL A   1      46.457  26.935  35.390  1.00  0.00     0.200 A 
ATOM     69  F   UNL A   1      47.724  28.723  34.508  1.00  0.00    -0.200 F 
ATOM     70  F   UNL A   1      47.572  26.356  35.855  1.00  0.00    -0.200 F 
ENDBRANCH  37  60
ENDBRANCH  11  12
ENDBRANCH   4   6
ENDBRANCH   3   4
ENDBRANCH   2   3
ENDBRANCH   1   2
BRANCH   1  71
ATOM     71  O   UNL A   1      31.627  30.985  26.451  1.00  0.00    -0.374 OA
BRANCH  71  72
ATOM     72  C   UNL A   1      32.838  30.509  27.026  1.00  0.00     0.202 C 
BRANCH  72  73
ATOM     73  C   UNL A   1      33.341  29.290  26.258  1.00  0.00     0.261 C 
BRANCH  73  74
ATOM     74  O   UNL A   1      32.387  28.970  25.234  1.00  0.00    -0.460 OA
BRANCH  74  75
ATOM     75  C   UNL A   1      31.731  27.784  25.370  1.00  0.00     0.340 C 
ATOM     76  O   UNL A   1      31.028  27.464  26.313  1.00  0.00    -0.246 OA
BRANCH  75  77
ATOM     77  C   UNL A   1      31.958  26.996  24.123  1.00  0.00     0.084 A 
ATOM     78  C   UNL A   1      32.862  25.917  24.189  1.00  0.00     0.033 A 
ATOM     79  C   UNL A   1      31.308  27.302  22.904  1.00  0.00     0.051 A 
ATOM     80  C   UNL A   1      33.157  25.179  23.050  1.00  0.00     0.018 A 
ATOM     81  C   UNL A   1      31.622  26.529  21.774  1.00  0.00     0.028 A 
ATOM     82  Br  UNL A   1      34.397  23.757  23.154  1.00  0.00    -0.051 Br
ATOM     83  C   UNL A   1      32.552  25.488  21.839  1.00  0.00     0.018 A 
BRANCH  79  84
ATOM     84  N   UNL A   1      30.364  28.333  22.782  1.00  0.00    -0.370 N 
ATOM     85  C   UNL A   1      30.440  29.529  22.001  1.00  0.00     0.125 C 
ATOM     86  C   UNL A   1      28.932  28.306  22.751  1.00  0.00     0.125 C 
ATOM     87  C   UNL A   1      28.996  29.835  22.486  1.00  0.00     0.005 C 
ATOM     88  C   UNL A   1      28.028  30.390  21.439  1.00  0.00     0.011 C 
ATOM     89  C   UNL A   1      28.919  30.668  23.778  1.00  0.00     0.011 C 
ATOM     90  C   UNL A   1      28.364  31.852  21.133  1.00  0.00     0.001 C 
ATOM     91  C   UNL A   1      29.306  32.105  23.467  1.00  0.00     0.001 C 
ATOM     92  C   UNL A   1      28.403  32.712  22.397  1.00  0.00     0.000 C 
ENDBRANCH  79  84
ENDBRANCH  75  77
ENDBRANCH  74  75
ENDBRANCH  73  74
ENDBRANCH  72  73
ENDBRANCH  71  72
ENDBRANCH   1  71
TORSDOF 15
ENDMDL
MODEL 2
REMARK VINA RESULT:     -11.9      2.142      8.334
REMARK SMILES O=C(OCCOCCOC(=O)c1cc(Br)ccc1N1CC2(CCCCC2)C1)c1ccc(-c2c3nc(c(-c4c(F)c(F)c(F)c(F)c4F)c4ccc([nH]4)c(-c4c(F)c(F)c(F)c(F)c4F)c4nc(c(-c5c(F)c(F)c(F)c(F)c5F)c5ccc2[nH]5)C=C4)C=C3)cc1
REMARK SMILES IDX 5 1 4 2 3 3 2 4 1 5 28 6 29 7 90 8 30 9 89 10 31 11 32 12
REMARK SMILES IDX 33 13 83 14 34 15 88 16 82 17 84 18 35 19 87 20 81 21 80 22
REMARK SMILES IDX 36 24 68 25 48 26 67 27 49 28 52 29 66 30 85 31 50 32 51 33
REMARK SMILES IDX 65 35 86 36 53 37 37 38 38 39 46 40 39 41 40 42 44 43 47 44
REMARK SMILES IDX 41 45 42 46 45 47 43 48 69 49 70 50 78 51 71 52 72 53 76 54
REMARK SMILES IDX 79 55 73 56 74 57 77 58 75 59 54 60 55 61 63 62 56 63 57 64
REMARK SMILES IDX 61 65 64 66 58 67 59 68 62 69 60 70 6 71 7 72 8 73 9 74
REMARK SMILES IDX 10 75 11 76 12 77 13 78 18 79 14 80 17 81 15 82 16 83 19 84
REMARK SMILES IDX 20 85 27 86 21 87 22 88 26 89 23 90 25 91 24 92
REMARK H PARENT 84 23 52 34
REMARK Flexibility Score: inf
ROOT
ATOM      1  C   UNL A   1      31.767  28.521  26.684  1.00  0.00     0.202 C 
ENDROOT
BRANCH   1   2
ATOM      2  C   UNL A   1      31.772  29.697  25.701  1.00  0.00     0.261 C 
BRANCH   2   3
ATOM      3  O   UNL A   1      33.021  30.418  25.801  1.00  0.00    -0.460 OA
BRANCH   3   4
ATOM      4  C   UNL A   1      33.360  31.248  26.818  1.00  0.00     0.338 C 
ATOM      5  O   UNL A   1      32.597  32.134  27.188  1.00  0.00    -0.246 OA
BRANCH   4   6
ATOM      6  C   UNL A   1      34.533  30.922  27.669  1.00  0.00     0.060 A 
ATOM      7  C   UNL A   1      34.816  29.635  28.108  1.00  0.00     0.016 A 
ATOM      8  C   UNL A   1      35.472  31.936  27.911  1.00  0.00     0.016 A 
ATOM      9  C   UNL A   1      35.978  29.366  28.815  1.00  0.00     0.010 A 
ATOM     10  C   UNL A   1      36.661  31.659  28.603  1.00  0.00     0.010 A 
ATOM     11  C   UNL A   1      36.916  30.363  29.071  1.00  0.00    -0.014 A 
BRANCH  11  12
ATOM     12  C   UNL A   1      38.090  30.012  29.905  1.00  0.00     0.031 A 
ATOM     13  C   UNL A   1      39.212  29.231  29.289  1.00  0.00     0.074 A 
ATOM     14  C   UNL A   1      38.225  30.526  31.144  1.00  0.00     0.049 A 
ATOM     15  N   UNL A   1      40.287  28.740  29.847  1.00  0.00    -0.248 NA
ATOM     16  C   UNL A   1      39.115  28.979  27.843  1.00  0.00     0.031 C 
ATOM     17  C   UNL A   1      37.270  31.426  31.793  1.00  0.00     0.029 A 
ATOM     18  N   UNL A   1      39.242  30.414  32.057  1.00  0.00    -0.354 N 
ATOM     19  C   UNL A   1      40.958  28.063  28.839  1.00  0.00     0.074 A 
ATOM     20  C   UNL A   1      40.184  28.227  27.627  1.00  0.00     0.031 C 
ATOM     21  C   UNL A   1      37.779  31.841  32.962  1.00  0.00     0.029 A 
ATOM     22  C   UNL A   1      39.042  31.154  33.199  1.00  0.00     0.049 A 
ATOM     23  H   UNL A   1      40.040  29.857  31.909  1.00  0.00     0.167 HD
ATOM     24  C   UNL A   1      42.106  27.352  28.930  1.00  0.00     0.037 A 
ATOM     25  C   UNL A   1      39.780  31.232  34.323  1.00  0.00     0.037 A 
ATOM     26  C   UNL A   1      42.880  27.239  30.138  1.00  0.00     0.049 A 
ATOM     27  C   UNL A   1      41.014  30.376  34.426  1.00  0.00     0.074 A 
ATOM     28  C   UNL A   1      44.020  26.491  30.372  1.00  0.00     0.029 A 
ATOM     29  N   UNL A   1      42.599  27.919  31.316  1.00  0.00    -0.354 N 
ATOM     30  N   UNL A   1      41.574  29.619  33.513  1.00  0.00    -0.248 NA
ATOM     31  C   UNL A   1      41.696  30.355  35.726  1.00  0.00     0.031 C 
ATOM     32  C   UNL A   1      44.405  26.690  31.704  1.00  0.00     0.029 A 
ATOM     33  C   UNL A   1      43.534  27.601  32.283  1.00  0.00     0.049 A 
ATOM     34  H   UNL A   1      41.843  28.538  31.443  1.00  0.00     0.167 HD
ATOM     35  C   UNL A   1      42.675  29.034  34.125  1.00  0.00     0.074 A 
ATOM     36  C   UNL A   1      42.721  29.551  35.478  1.00  0.00     0.031 C 
ATOM     37  C   UNL A   1      43.558  28.139  33.620  1.00  0.00     0.037 A 
BRANCH  24  38
ATOM     38  C   UNL A   1      42.524  26.572  27.719  1.00  0.00     0.064 A 
ATOM     39  C   UNL A   1      42.057  25.276  27.460  1.00  0.00     0.173 A 
ATOM     40  C   UNL A   1      43.444  27.130  26.817  1.00  0.00     0.173 A 
ATOM     41  F   UNL A   1      41.199  24.686  28.306  1.00  0.00    -0.203 F 
ATOM     42  C   UNL A   1      42.523  24.554  26.363  1.00  0.00     0.198 A 
ATOM     43  C   UNL A   1      43.885  26.417  25.706  1.00  0.00     0.198 A 
ATOM     44  F   UNL A   1      43.926  28.366  27.020  1.00  0.00    -0.203 F 
ATOM     45  F   UNL A   1      42.115  23.292  26.172  1.00  0.00    -0.200 F 
ATOM     46  C   UNL A   1      43.433  25.126  25.487  1.00  0.00     0.200 A 
ATOM     47  F   UNL A   1      44.760  26.976  24.858  1.00  0.00    -0.200 F 
ATOM     48  F   UNL A   1      43.887  24.426  24.437  1.00  0.00    -0.200 F 
ENDBRANCH  24  38
BRANCH  25  49
ATOM     49  C   UNL A   1      39.343  32.092  35.459  1.00  0.00     0.064 A 
ATOM     50  C   UNL A   1      38.510  31.591  36.468  1.00  0.00     0.173 A 
ATOM     51  C   UNL A   1      39.728  33.439  35.548  1.00  0.00     0.173 A 
ATOM     52  F   UNL A   1      38.082  30.321  36.417  1.00  0.00    -0.203 F 
ATOM     53  C   UNL A   1      38.072  32.405  37.514  1.00  0.00     0.198 A 
ATOM     54  C   UNL A   1      39.321  34.241  36.612  1.00  0.00     0.198 A 
ATOM     55  F   UNL A   1      40.513  33.979  34.603  1.00  0.00    -0.203 F 
ATOM     56  F   UNL A   1      37.233  31.914  38.436  1.00  0.00    -0.200 F 
ATOM     57  C   UNL A   1      38.486  33.726  37.590  1.00  0.00     0.200 A 
ATOM     58  F   UNL A   1      39.735  35.514  36.685  1.00  0.00    -0.200 F 
ATOM     59  F   UNL A   1      38.069  34.507  38.596  1.00  0.00    -0.200 F 
ENDBRANCH  25  49
BRANCH  37  60
ATOM     60  C   UNL A   1      44.662  27.688  34.530  1.00  0.00     0.064 A 
ATOM     61  C   UNL A   1      45.869  28.394  34.625  1.00  0.00     0.173 A 
ATOM     62  C   UNL A   1      44.493  26.556  35.341  1.00  0.00     0.173 A 
ATOM     63  F   UNL A   1      46.083  29.473  33.857  1.00  0.00    -0.203 F 
ATOM     64  C   UNL A   1      46.880  27.967  35.482  1.00  0.00     0.198 A 
ATOM     65  C   UNL A   1      45.495  26.149  36.217  1.00  0.00     0.198 A 
ATOM     66  F   UNL A   1      43.353  25.851  35.290  1.00  0.00    -0.203 F 
ATOM     67  F   UNL A   1      48.045  28.628  35.522  1.00  0.00    -0.200 F 
ATOM     68  C   UNL A   1      46.690  26.850  36.281  1.00  0.00     0.200 A 
ATOM     69  F   UNL A   1      45.304  25.077  36.998  1.00  0.00    -0.200 F 
ATOM     70  F   UNL A   1      47.662  26.444  37.109  1.00  0.00    -0.200 F 
ENDBRANCH  37  60
ENDBRANCH  11  12
ENDBRANCH   4   6
ENDBRANCH   3   4
ENDBRANCH   2   3
ENDBRANCH   1   2
BRANCH   1  71
ATOM     71  O   UNL A   1      32.273  27.373  26.011  1.00  0.00    -0.374 OA
BRANCH  71  72
ATOM     72  C   UNL A   1      33.677  27.332  25.784  1.00  0.00     0.202 C 
BRANCH  72  73
ATOM     73  C   UNL A   1      33.995  26.400  24.619  1.00  0.00     0.261 C 
BRANCH  73  74
ATOM     74  O   UNL A   1      33.859  27.136  23.394  1.00  0.00    -0.460 OA
BRANCH  74  75
ATOM     75  C   UNL A   1      33.146  26.532  22.403  1.00  0.00     0.340 C 
ATOM     76  O   UNL A   1      33.611  26.047  21.386  1.00  0.00    -0.246 OA
BRANCH  75  77
ATOM     77  C   UNL A   1      31.717  26.494  22.833  1.00  0.00     0.084 A 
ATOM     78  C   UNL A   1      30.958  27.671  22.678  1.00  0.00     0.033 A 
ATOM     79  C   UNL A   1      31.122  25.334  23.383  1.00  0.00     0.051 A 
ATOM     80  C   UNL A   1      29.638  27.716  23.110  1.00  0.00     0.018 A 
ATOM     81  C   UNL A   1      29.783  25.412  23.799  1.00  0.00     0.028 A 
ATOM     82  Br  UNL A   1      28.649  29.314  22.923  1.00  0.00    -0.051 Br
ATOM     83  C   UNL A   1      29.050  26.596  23.682  1.00  0.00     0.018 A 
BRANCH  79  84
ATOM     84  N   UNL A   1      31.808  24.118  23.522  1.00  0.00    -0.370 N 
ATOM     85  C   UNL A   1      32.002  23.328  24.698  1.00  0.00     0.125 C 
ATOM     86  C   UNL A   1      31.920  22.989  22.646  1.00  0.00     0.125 C 
ATOM     87  C   UNL A   1      32.719  22.296  23.784  1.00  0.00     0.005 C 
ATOM     88  C   UNL A   1      32.405  20.821  24.041  1.00  0.00     0.011 C 
ATOM     89  C   UNL A   1      34.239  22.504  23.656  1.00  0.00     0.011 C 
ATOM     90  C   UNL A   1      33.099  20.350  25.321  1.00  0.00     0.001 C 
ATOM     91  C   UNL A   1      34.909  22.080  24.954  1.00  0.00     0.001 C 
ATOM     92  C   UNL A   1      34.604  20.624  25.296  1.00  0.00     0.000 C 
ENDBRANCH  79  84
ENDBRANCH  75  77
ENDBRANCH  74  75
ENDBRANCH  73  74
ENDBRANCH  72  73
ENDBRANCH  71  72
ENDBRANCH   1  71
TORSDOF 15
ENDMDL
MODEL 3
REMARK VINA RESULT:     -11.9      1.626      8.053
REMARK SMILES O=C(OCCOCCOC(=O)c1cc(Br)ccc1N1CC2(CCCCC2)C1)c1ccc(-c2c3nc(c(-c4c(F)c(F)c(F)c(F)c4F)c4ccc([nH]4)c(-c4c(F)c(F)c(F)c(F)c4F)c4nc(c(-c5c(F)c(F)c(F)c(F)c5F)c5ccc2[nH]5)C=C4)C=C3)cc1
REMARK SMILES IDX 5 1 4 2 3 3 2 4 1 5 28 6 29 7 90 8 30 9 89 10 31 11 32 12
REMARK SMILES IDX 33 13 83 14 34 15 88 16 82 17 84 18 35 19 87 20 81 21 80 22
REMARK SMILES IDX 36 24 68 25 48 26 67 27 49 28 52 29 66 30 85 31 50 32 51 33
REMARK SMILES IDX 65 35 86 36 53 37 37 38 38 39 46 40 39 41 40 42 44 43 47 44
REMARK SMILES IDX 41 45 42 46 45 47 43 48 69 49 70 50 78 51 71 52 72 53 76 54
REMARK SMILES IDX 79 55 73 56 74 57 77 58 75 59 54 60 55 61 63 62 56 63 57 64
REMARK SMILES IDX 61 65 64 66 58 67 59 68 62 69 60 70 6 71 7 72 8 73 9 74
REMARK SMILES IDX 10 75 11 76 12 77 13 78 18 79 14 80 17 81 15 82 16 83 19 84
REMARK SMILES IDX 20 85 27 86 21 87 22 88 26 89 23 90 25 91 24 92
REMARK H PARENT 84 23 52 34
REMARK Flexibility Score: inf
ROOT
ATOM      1  C   UNL A   1      31.323  31.786  26.591  1.00  0.00     0.202 C 
ENDROOT
BRANCH   1   2
ATOM      2  C   UNL A   1      32.540  32.472  27.218  1.00  0.00     0.261 C 
BRANCH   2   3
ATOM      3  O   UNL A   1      32.185  33.803  27.657  1.00  0.00    -0.460 OA
BRANCH   3   4
ATOM      4  C   UNL A   1      32.960  34.597  28.437  1.00  0.00     0.338 C 
ATOM      5  O   UNL A   1      32.601  35.734  28.728  1.00  0.00    -0.246 OA
BRANCH   4   6
ATOM      6  C   UNL A   1      34.111  34.009  29.167  1.00  0.00     0.060 A 
ATOM      7  C   UNL A   1      33.976  32.986  30.097  1.00  0.00     0.016 A 
ATOM      8  C   UNL A   1      35.402  34.403  28.786  1.00  0.00     0.016 A 
ATOM      9  C   UNL A   1      35.092  32.402  30.676  1.00  0.00     0.010 A 
ATOM     10  C   UNL A   1      36.532  33.794  29.352  1.00  0.00     0.010 A 
ATOM     11  C   UNL A   1      36.380  32.789  30.316  1.00  0.00    -0.014 A 
BRANCH  11  12
ATOM     12  C   UNL A   1      37.516  32.174  31.042  1.00  0.00     0.031 A 
ATOM     13  C   UNL A   1      38.393  31.192  30.325  1.00  0.00     0.074 A 
ATOM     14  C   UNL A   1      37.858  32.612  32.271  1.00  0.00     0.049 A 
ATOM     15  N   UNL A   1      39.381  30.470  30.784  1.00  0.00    -0.248 NA
ATOM     16  C   UNL A   1      38.128  31.008  28.890  1.00  0.00     0.031 C 
ATOM     17  C   UNL A   1      37.172  33.675  33.009  1.00  0.00     0.029 A 
ATOM     18  N   UNL A   1      38.899  32.262  33.093  1.00  0.00    -0.354 N 
ATOM     19  C   UNL A   1      39.808  29.696  29.714  1.00  0.00     0.074 A 
ATOM     20  C   UNL A   1      38.991  30.054  28.575  1.00  0.00     0.031 C 
ATOM     21  C   UNL A   1      37.851  33.939  34.135  1.00  0.00     0.029 A 
ATOM     22  C   UNL A   1      38.954  32.994  34.255  1.00  0.00     0.049 A 
ATOM     23  H   UNL A   1      39.546  31.554  32.870  1.00  0.00     0.167 HD
ATOM     24  C   UNL A   1      40.783  28.756  29.699  1.00  0.00     0.037 A 
ATOM     25  C   UNL A   1      39.780  32.883  35.313  1.00  0.00     0.037 A 
ATOM     26  C   UNL A   1      41.611  28.448  30.834  1.00  0.00     0.049 A 
ATOM     27  C   UNL A   1      40.809  31.783  35.300  1.00  0.00     0.074 A 
ATOM     28  C   UNL A   1      42.581  27.470  30.962  1.00  0.00     0.029 A 
ATOM     29  N   UNL A   1      41.577  29.138  32.039  1.00  0.00    -0.354 N 
ATOM     30  N   UNL A   1      41.119  30.951  34.335  1.00  0.00    -0.248 NA
ATOM     31  C   UNL A   1      41.575  31.582  36.537  1.00  0.00     0.031 C 
ATOM     32  C   UNL A   1      43.106  27.545  32.258  1.00  0.00     0.029 A 
ATOM     33  C   UNL A   1      42.499  28.602  32.920  1.00  0.00     0.049 A 
ATOM     34  H   UNL A   1      40.983  29.898  32.238  1.00  0.00     0.167 HD
ATOM     35  C   UNL A   1      42.117  30.131  34.844  1.00  0.00     0.074 A 
ATOM     36  C   UNL A   1      42.381  30.587  36.193  1.00  0.00     0.031 C 
ATOM     37  C   UNL A   1      42.745  29.084  34.256  1.00  0.00     0.037 A 
BRANCH  24  38
ATOM     38  C   UNL A   1      40.925  27.941  28.448  1.00  0.00     0.064 A 
ATOM     39  C   UNL A   1      40.252  26.726  28.260  1.00  0.00     0.173 A 
ATOM     40  C   UNL A   1      41.788  28.377  27.430  1.00  0.00     0.173 A 
ATOM     41  F   UNL A   1      39.438  26.251  29.215  1.00  0.00    -0.203 F 
ATOM     42  C   UNL A   1      40.465  25.960  27.116  1.00  0.00     0.198 A 
ATOM     43  C   UNL A   1      41.977  27.623  26.275  1.00  0.00     0.198 A 
ATOM     44  F   UNL A   1      42.461  29.530  27.561  1.00  0.00    -0.203 F 
ATOM     45  F   UNL A   1      39.863  24.769  26.987  1.00  0.00    -0.200 F 
ATOM     46  C   UNL A   1      41.324  26.410  26.124  1.00  0.00     0.200 A 
ATOM     47  F   UNL A   1      42.803  28.065  25.316  1.00  0.00    -0.200 F 
ATOM     48  F   UNL A   1      41.534  25.668  25.028  1.00  0.00    -0.200 F 
ENDBRANCH  24  38
BRANCH  25  49
ATOM     49  C   UNL A   1      39.631  33.783  36.491  1.00  0.00     0.064 A 
ATOM     50  C   UNL A   1      40.303  35.011  36.554  1.00  0.00     0.173 A 
ATOM     51  C   UNL A   1      38.834  33.426  37.589  1.00  0.00     0.173 A 
ATOM     52  F   UNL A   1      41.106  35.389  35.548  1.00  0.00    -0.203 F 
ATOM     53  C   UNL A   1      40.192  35.840  37.671  1.00  0.00     0.198 A 
ATOM     54  C   UNL A   1      38.693  34.270  38.689  1.00  0.00     0.198 A 
ATOM     55  F   UNL A   1      38.178  32.256  37.593  1.00  0.00    -0.203 F 
ATOM     56  F   UNL A   1      40.888  36.984  37.727  1.00  0.00    -0.200 F 
ATOM     57  C   UNL A   1      39.380  35.473  38.733  1.00  0.00     0.200 A 
ATOM     58  F   UNL A   1      37.897  33.915  39.706  1.00  0.00    -0.200 F 
ATOM     59  F   UNL A   1      39.269  36.270  39.804  1.00  0.00    -0.200 F 
ENDBRANCH  25  49
BRANCH  37  60
ATOM     60  C   UNL A   1      43.798  28.385  35.063  1.00  0.00     0.064 A 
ATOM     61  C   UNL A   1      45.135  28.807  35.049  1.00  0.00     0.173 A 
ATOM     62  C   UNL A   1      43.457  27.301  35.886  1.00  0.00     0.173 A 
ATOM     63  F   UNL A   1      45.513  29.828  34.264  1.00  0.00    -0.203 F 
ATOM     64  C   UNL A   1      46.098  28.152  35.811  1.00  0.00     0.198 A 
ATOM     65  C   UNL A   1      44.417  26.668  36.669  1.00  0.00     0.198 A 
ATOM     66  F   UNL A   1      42.189  26.865  35.938  1.00  0.00    -0.203 F 
ATOM     67  F   UNL A   1      47.380  28.541  35.746  1.00  0.00    -0.200 F 
ATOM     68  C   UNL A   1      45.738  27.089  36.625  1.00  0.00     0.200 A 
ATOM     69  F   UNL A   1      44.064  25.649  37.465  1.00  0.00    -0.200 F 
ATOM     70  F   UNL A   1      46.665  26.464  37.362  1.00  0.00    -0.200 F 
ENDBRANCH  37  60
ENDBRANCH  11  12
ENDBRANCH   4   6
ENDBRANCH   3   4
ENDBRANCH   2   3
ENDBRANCH   1   2
BRANCH   1  71
ATOM     71  O   UNL A   1      31.785  30.737  25.745  1.00  0.00    -0.374 OA
BRANCH  71  72
ATOM     72  C   UNL A   1      32.428  29.640  26.384  1.00  0.00     0.202 C 
BRANCH  72  73
ATOM     73  C   UNL A   1      33.171  28.795  25.353  1.00  0.00     0.261 C 
BRANCH  73  74
ATOM     74  O   UNL A   1      32.865  29.298  24.043  1.00  0.00    -0.460 OA
BRANCH  74  75
ATOM     75  C   UNL A   1      32.483  28.375  23.117  1.00  0.00     0.340 C 
ATOM     76  O   UNL A   1      33.226  27.610  22.527  1.00  0.00    -0.246 OA
BRANCH  75  77
ATOM     77  C   UNL A   1      30.993  28.413  23.028  1.00  0.00     0.084 A 
ATOM     78  C   UNL A   1      30.404  29.555  22.450  1.00  0.00     0.033 A 
ATOM     79  C   UNL A   1      30.179  27.358  23.503  1.00  0.00     0.051 A 
ATOM     80  C   UNL A   1      29.021  29.675  22.388  1.00  0.00     0.018 A 
ATOM     81  C   UNL A   1      28.785  27.509  23.415  1.00  0.00     0.028 A 
ATOM     82  Br  UNL A   1      28.251  31.229  21.639  1.00  0.00    -0.051 Br
ATOM     83  C   UNL A   1      28.208  28.663  22.880  1.00  0.00     0.018 A 
BRANCH  79  84
ATOM     84  N   UNL A   1      30.703  26.177  24.047  1.00  0.00    -0.370 N 
ATOM     85  C   UNL A   1      30.820  25.797  25.421  1.00  0.00     0.125 C 
ATOM     86  C   UNL A   1      30.645  24.818  23.593  1.00  0.00     0.125 C 
ATOM     87  C   UNL A   1      31.374  24.438  24.910  1.00  0.00     0.005 C 
ATOM     88  C   UNL A   1      30.876  23.184  25.632  1.00  0.00     0.011 C 
ATOM     89  C   UNL A   1      32.904  24.391  24.753  1.00  0.00     0.011 C 
ATOM     90  C   UNL A   1      31.534  23.072  27.009  1.00  0.00     0.001 C 
ATOM     91  C   UNL A   1      33.545  24.332  26.131  1.00  0.00     0.001 C 
ATOM     92  C   UNL A   1      33.060  23.122  26.926  1.00  0.00     0.000 C 
ENDBRANCH  79  84
ENDBRANCH  75  77
ENDBRANCH  74  75
ENDBRANCH  73  74
ENDBRANCH  72  73
ENDBRANCH  71  72
ENDBRANCH   1  71
TORSDOF 15
ENDMDL
