MODEL 1
REMARK VINA RESULT:     -11.8      0.000      0.000
REMARK SMILES Nc1c(CC(=O)OCCOCCOC(=O)c2ccc(-c3c4nc(c(-c5c(F)c(F)c(F)c(F)c5F)c5ccc([nH]5)c(-c5c(F)c(F)c(F)c(F)c5F)c5nc(c(-c6c(F)c(F)c(F)c(F)c6F)c6ccc3[nH]6)C=C5)C=C4)cc2)cccc1C(=O)c1ccc(Br)cc1
REMARK SMILES IDX 9 1 8 2 7 3 5 4 6 5 4 6 3 7 2 8 82 9 79 10 81 11 80 12 1 13
REMARK SMILES IDX 83 16 84 17 85 18 86 19 91 20 87 21 90 22 88 23 89 24 10 25
REMARK SMILES IDX 11 26 12 27 13 28 14 29 15 30 16 31 17 32 78 33 18 34 77 35
REMARK SMILES IDX 19 36 20 37 21 38 71 39 22 40 76 41 70 42 72 43 23 44 75 45
REMARK SMILES IDX 69 46 68 47 24 49 56 50 36 51 55 52 37 53 40 54 54 55 73 56
REMARK SMILES IDX 38 57 39 58 53 60 74 61 41 62 25 63 26 64 34 65 27 66 28 67
REMARK SMILES IDX 32 68 35 69 29 70 30 71 33 72 31 73 57 74 58 75 66 76 59 77
REMARK SMILES IDX 60 78 64 79 67 80 61 81 62 82 65 83 63 84 42 85 43 86 51 87
REMARK SMILES IDX 44 88 45 89 49 90 52 91 46 92 47 93 50 94 48 95
REMARK H PARENT 1 14 1 15 72 48 40 59
REMARK Flexibility Score: inf
ROOT
ATOM      1  C   UNL A   1      41.849  20.362  26.227  1.00  0.00     0.202 C 
ENDROOT
BRANCH   1   2
ATOM      2  C   UNL A   1      40.321  20.321  26.150  1.00  0.00     0.261 C 
BRANCH   2   3
ATOM      3  O   UNL A   1      39.751  21.446  26.841  1.00  0.00    -0.463 OA
BRANCH   3   4
ATOM      4  C   UNL A   1      38.843  22.166  26.137  1.00  0.00     0.310 C 
ATOM      5  O   UNL A   1      38.645  23.367  26.287  1.00  0.00    -0.252 OA
BRANCH   4   6
ATOM      6  C   UNL A   1      38.150  21.376  25.052  1.00  0.00     0.160 C 
BRANCH   6   7
ATOM      7  C   UNL A   1      36.660  21.585  24.851  1.00  0.00    -0.013 A 
ATOM      8  C   UNL A   1      36.152  22.675  24.110  1.00  0.00     0.047 A 
ATOM      9  C   UNL A   1      34.772  22.667  23.779  1.00  0.00     0.046 A 
ATOM     10  C   UNL A   1      35.776  20.618  25.372  1.00  0.00     0.006 A 
ATOM     11  C   UNL A   1      33.909  21.706  24.333  1.00  0.00     0.014 A 
ATOM     12  C   UNL A   1      34.407  20.696  25.145  1.00  0.00     0.001 A 
BRANCH   8  13
ATOM     13  N   UNL A   1      37.028  23.653  23.642  1.00  0.00    -0.398 N 
ATOM     14  H   UNL A   1      36.864  24.601  23.852  1.00  0.00     0.156 HD
ATOM     15  H   UNL A   1      37.809  23.396  23.101  1.00  0.00     0.156 HD
ENDBRANCH   8  13
BRANCH   9  16
ATOM     16  C   UNL A   1      34.127  23.636  22.844  1.00  0.00     0.195 C 
ATOM     17  O   UNL A   1      33.946  23.326  21.669  1.00  0.00    -0.289 OA
BRANCH  16  18
ATOM     18  C   UNL A   1      33.689  24.979  23.298  1.00  0.00     0.023 A 
ATOM     19  C   UNL A   1      33.767  25.266  24.665  1.00  0.00     0.013 A 
ATOM     20  C   UNL A   1      33.282  25.967  22.392  1.00  0.00     0.013 A 
ATOM     21  C   UNL A   1      33.515  26.562  25.118  1.00  0.00     0.016 A 
ATOM     22  C   UNL A   1      33.031  27.263  22.849  1.00  0.00     0.016 A 
ATOM     23  C   UNL A   1      33.165  27.558  24.206  1.00  0.00     0.018 A 
ATOM     24  Br  UNL A   1      32.900  29.328  24.810  1.00  0.00    -0.051 Br
ENDBRANCH  16  18
ENDBRANCH   9  16
ENDBRANCH   6   7
ENDBRANCH   4   6
ENDBRANCH   3   4
ENDBRANCH   2   3
ENDBRANCH   1   2
BRANCH   1  25
ATOM     25  O   UNL A   1      42.487  21.325  25.384  1.00  0.00    -0.374 OA
BRANCH  25  26
ATOM     26  C   UNL A   1      43.914  21.358  25.392  1.00  0.00     0.202 C 
BRANCH  26  27
ATOM     27  C   UNL A   1      44.571  22.537  24.665  1.00  0.00     0.261 C 
BRANCH  27  28
ATOM     28  O   UNL A   1      43.699  23.676  24.567  1.00  0.00    -0.460 OA
BRANCH  28  29
ATOM     29  C   UNL A   1      44.252  24.836  24.988  1.00  0.00     0.338 C 
ATOM     30  O   UNL A   1      45.331  25.306  24.646  1.00  0.00    -0.246 OA
BRANCH  29  31
ATOM     31  C   UNL A   1      43.316  25.601  25.830  1.00  0.00     0.060 A 
ATOM     32  C   UNL A   1      43.673  26.924  26.120  1.00  0.00     0.016 A 
ATOM     33  C   UNL A   1      42.191  25.024  26.423  1.00  0.00     0.016 A 
ATOM     34  C   UNL A   1      42.963  27.644  27.075  1.00  0.00     0.010 A 
ATOM     35  C   UNL A   1      41.476  25.751  27.386  1.00  0.00     0.010 A 
ATOM     36  C   UNL A   1      41.896  27.042  27.756  1.00  0.00    -0.014 A 
BRANCH  36  37
ATOM     37  C   UNL A   1      41.372  27.718  28.970  1.00  0.00     0.031 A 
ATOM     38  C   UNL A   1      42.131  27.584  30.264  1.00  0.00     0.074 A 
ATOM     39  C   UNL A   1      40.303  28.531  28.899  1.00  0.00     0.049 A 
ATOM     40  N   UNL A   1      41.929  28.178  31.414  1.00  0.00    -0.248 NA
ATOM     41  C   UNL A   1      43.277  26.660  30.258  1.00  0.00     0.031 C 
ATOM     42  C   UNL A   1      39.505  28.770  27.700  1.00  0.00     0.029 A 
ATOM     43  N   UNL A   1      39.720  29.322  29.857  1.00  0.00    -0.354 N 
ATOM     44  C   UNL A   1      42.923  27.705  32.262  1.00  0.00     0.074 A 
ATOM     45  C   UNL A   1      43.703  26.747  31.510  1.00  0.00     0.031 C 
ATOM     46  C   UNL A   1      38.538  29.657  27.990  1.00  0.00     0.029 A 
ATOM     47  C   UNL A   1      38.642  30.036  29.399  1.00  0.00     0.049 A 
ATOM     48  H   UNL A   1      40.043  29.371  30.786  1.00  0.00     0.167 HD
ATOM     49  C   UNL A   1      43.176  28.052  33.546  1.00  0.00     0.037 A 
ATOM     50  C   UNL A   1      37.834  30.900  30.043  1.00  0.00     0.037 A 
ATOM     51  C   UNL A   1      42.404  29.008  34.296  1.00  0.00     0.049 A 
ATOM     52  C   UNL A   1      38.106  31.233  31.488  1.00  0.00     0.074 A 
ATOM     53  C   UNL A   1      42.591  29.439  35.599  1.00  0.00     0.029 A 
ATOM     54  N   UNL A   1      41.291  29.675  33.810  1.00  0.00    -0.354 N 
ATOM     55  N   UNL A   1      39.073  30.813  32.267  1.00  0.00    -0.248 NA
ATOM     56  C   UNL A   1      37.180  32.172  32.135  1.00  0.00     0.031 C 
ATOM     57  C   UNL A   1      41.564  30.335  35.915  1.00  0.00     0.029 A 
ATOM     58  C   UNL A   1      40.765  30.498  34.794  1.00  0.00     0.049 A 
ATOM     59  H   UNL A   1      40.927  29.580  32.900  1.00  0.00     0.167 HD
ATOM     60  C   UNL A   1      38.884  31.449  33.487  1.00  0.00     0.074 A 
ATOM     61  C   UNL A   1      37.723  32.301  33.337  1.00  0.00     0.031 C 
ATOM     62  C   UNL A   1      39.607  31.339  34.629  1.00  0.00     0.037 A 
BRANCH  49  63
ATOM     63  C   UNL A   1      44.330  27.378  34.230  1.00  0.00     0.064 A 
ATOM     64  C   UNL A   1      45.620  27.928  34.209  1.00  0.00     0.173 A 
ATOM     65  C   UNL A   1      44.136  26.182  34.936  1.00  0.00     0.173 A 
ATOM     66  F   UNL A   1      45.859  29.063  33.535  1.00  0.00    -0.203 F 
ATOM     67  C   UNL A   1      46.680  27.292  34.851  1.00  0.00     0.198 A 
ATOM     68  C   UNL A   1      45.193  25.563  35.600  1.00  0.00     0.198 A 
ATOM     69  F   UNL A   1      42.920  25.618  34.991  1.00  0.00    -0.203 F 
ATOM     70  F   UNL A   1      47.913  27.812  34.783  1.00  0.00    -0.200 F 
ATOM     71  C   UNL A   1      46.464  26.113  35.551  1.00  0.00     0.200 A 
ATOM     72  F   UNL A   1      44.980  24.430  36.284  1.00  0.00    -0.200 F 
ATOM     73  F   UNL A   1      47.484  25.506  36.172  1.00  0.00    -0.200 F 
ENDBRANCH  49  63
BRANCH  50  74
ATOM     74  C   UNL A   1      36.691  31.521  29.325  1.00  0.00     0.064 A 
ATOM     75  C   UNL A   1      36.685  32.888  29.012  1.00  0.00     0.173 A 
ATOM     76  C   UNL A   1      35.573  30.761  28.953  1.00  0.00     0.173 A 
ATOM     77  F   UNL A   1      37.720  33.661  29.370  1.00  0.00    -0.203 F 
ATOM     78  C   UNL A   1      35.596  33.473  28.368  1.00  0.00     0.198 A 
ATOM     79  C   UNL A   1      34.497  31.342  28.286  1.00  0.00     0.198 A 
ATOM     80  F   UNL A   1      35.528  29.450  29.232  1.00  0.00    -0.203 F 
ATOM     81  F   UNL A   1      35.597  34.790  28.120  1.00  0.00    -0.200 F 
ATOM     82  C   UNL A   1      34.506  32.699  28.000  1.00  0.00     0.200 A 
ATOM     83  F   UNL A   1      33.450  30.588  27.923  1.00  0.00    -0.200 F 
ATOM     84  F   UNL A   1      33.461  33.262  27.379  1.00  0.00    -0.200 F 
ENDBRANCH  50  74
BRANCH  62  85
ATOM     85  C   UNL A   1      39.173  32.173  35.800  1.00  0.00     0.064 A 
ATOM     86  C   UNL A   1      38.291  31.676  36.769  1.00  0.00     0.173 A 
ATOM     87  C   UNL A   1      39.668  33.476  35.968  1.00  0.00     0.173 A 
ATOM     88  F   UNL A   1      37.779  30.442  36.645  1.00  0.00    -0.203 F 
ATOM     89  C   UNL A   1      37.894  32.462  37.848  1.00  0.00     0.198 A 
ATOM     90  C   UNL A   1      39.292  34.249  37.062  1.00  0.00     0.198 A 
ATOM     91  F   UNL A   1      40.521  33.996  35.073  1.00  0.00    -0.203 F 
ATOM     92  F   UNL A   1      37.010  31.984  38.734  1.00  0.00    -0.200 F 
ATOM     93  C   UNL A   1      38.400  33.745  37.996  1.00  0.00     0.200 A 
ATOM     94  F   UNL A   1      39.791  35.485  37.211  1.00  0.00    -0.200 F 
ATOM     95  F   UNL A   1      38.018  34.500  39.035  1.00  0.00    -0.200 F 
ENDBRANCH  62  85
ENDBRANCH  36  37
ENDBRANCH  29  31
ENDBRANCH  28  29
ENDBRANCH  27  28
ENDBRANCH  26  27
ENDBRANCH  25  26
ENDBRANCH   1  25
TORSDOF 18
ENDMDL
MODEL 2
REMARK VINA RESULT:     -11.6      3.511      8.928
REMARK SMILES Nc1c(CC(=O)OCCOCCOC(=O)c2ccc(-c3c4nc(c(-c5c(F)c(F)c(F)c(F)c5F)c5ccc([nH]5)c(-c5c(F)c(F)c(F)c(F)c5F)c5nc(c(-c6c(F)c(F)c(F)c(F)c6F)c6ccc3[nH]6)C=C5)C=C4)cc2)cccc1C(=O)c1ccc(Br)cc1
REMARK SMILES IDX 9 1 8 2 7 3 5 4 6 5 4 6 3 7 2 8 82 9 79 10 81 11 80 12 1 13
REMARK SMILES IDX 83 16 84 17 85 18 86 19 91 20 87 21 90 22 88 23 89 24 10 25
REMARK SMILES IDX 11 26 12 27 13 28 14 29 15 30 16 31 17 32 78 33 18 34 77 35
REMARK SMILES IDX 19 36 20 37 21 38 71 39 22 40 76 41 70 42 72 43 23 44 75 45
REMARK SMILES IDX 69 46 68 47 24 49 56 50 36 51 55 52 37 53 40 54 54 55 73 56
REMARK SMILES IDX 38 57 39 58 53 60 74 61 41 62 25 63 26 64 34 65 27 66 28 67
REMARK SMILES IDX 32 68 35 69 29 70 30 71 33 72 31 73 57 74 58 75 66 76 59 77
REMARK SMILES IDX 60 78 64 79 67 80 61 81 62 82 65 83 63 84 42 85 43 86 51 87
REMARK SMILES IDX 44 88 45 89 49 90 52 91 46 92 47 93 50 94 48 95
REMARK H PARENT 1 14 1 15 72 48 40 59
REMARK Flexibility Score: inf
ROOT
ATOM      1  C   UNL A   1      32.742  29.690  24.986  1.00  0.00     0.202 C 
ENDROOT
BRANCH   1   2
ATOM      2  C   UNL A   1      32.269  28.390  24.330  1.00  0.00     0.261 C 
BRANCH   2   3
ATOM      3  O   UNL A   1      30.833  28.353  24.258  1.00  0.00    -0.463 OA
BRANCH   3   4
ATOM      4  C   UNL A   1      30.316  27.552  23.295  1.00  0.00     0.310 C 
ATOM      5  O   UNL A   1      30.485  27.718  22.091  1.00  0.00    -0.252 OA
BRANCH   4   6
ATOM      6  C   UNL A   1      29.582  26.347  23.835  1.00  0.00     0.160 C 
BRANCH   6   7
ATOM      7  C   UNL A   1      30.393  25.250  24.500  1.00  0.00    -0.013 A 
ATOM      8  C   UNL A   1      31.270  24.420  23.767  1.00  0.00     0.047 A 
ATOM      9  C   UNL A   1      32.154  23.581  24.495  1.00  0.00     0.046 A 
ATOM     10  C   UNL A   1      30.303  25.112  25.900  1.00  0.00     0.006 A 
ATOM     11  C   UNL A   1      32.025  23.443  25.887  1.00  0.00     0.014 A 
ATOM     12  C   UNL A   1      31.088  24.191  26.585  1.00  0.00     0.001 A 
BRANCH   8  13
ATOM     13  N   UNL A   1      31.315  24.529  22.378  1.00  0.00    -0.398 N 
ATOM     14  H   UNL A   1      30.716  25.159  21.914  1.00  0.00     0.156 HD
ATOM     15  H   UNL A   1      31.944  23.977  21.861  1.00  0.00     0.156 HD
ENDBRANCH   8  13
BRANCH   9  16
ATOM     16  C   UNL A   1      33.265  22.798  23.878  1.00  0.00     0.195 C 
ATOM     17  O   UNL A   1      34.118  23.371  23.203  1.00  0.00    -0.289 OA
BRANCH  16  18
ATOM     18  C   UNL A   1      33.377  21.330  24.062  1.00  0.00     0.023 A 
ATOM     19  C   UNL A   1      32.383  20.522  23.499  1.00  0.00     0.013 A 
ATOM     20  C   UNL A   1      34.476  20.749  24.707  1.00  0.00     0.013 A 
ATOM     21  C   UNL A   1      32.526  19.134  23.512  1.00  0.00     0.016 A 
ATOM     22  C   UNL A   1      34.617  19.359  24.717  1.00  0.00     0.016 A 
ATOM     23  C   UNL A   1      33.651  18.560  24.105  1.00  0.00     0.018 A 
ATOM     24  Br  UNL A   1      33.882  16.686  24.053  1.00  0.00    -0.051 Br
ENDBRANCH  16  18
ENDBRANCH   9  16
ENDBRANCH   6   7
ENDBRANCH   4   6
ENDBRANCH   3   4
ENDBRANCH   2   3
ENDBRANCH   1   2
BRANCH   1  25
ATOM     25  O   UNL A   1      31.726  30.464  25.628  1.00  0.00    -0.374 OA
BRANCH  25  26
ATOM     26  C   UNL A   1      32.058  31.071  26.877  1.00  0.00     0.202 C 
BRANCH  26  27
ATOM     27  C   UNL A   1      31.799  32.577  26.992  1.00  0.00     0.261 C 
BRANCH  27  28
ATOM     28  O   UNL A   1      33.014  33.346  26.973  1.00  0.00    -0.460 OA
BRANCH  28  29
ATOM     29  C   UNL A   1      33.534  33.590  28.197  1.00  0.00     0.338 C 
ATOM     30  O   UNL A   1      32.995  34.184  29.124  1.00  0.00    -0.246 OA
BRANCH  29  31
ATOM     31  C   UNL A   1      34.827  32.906  28.375  1.00  0.00     0.060 A 
ATOM     32  C   UNL A   1      34.777  31.578  28.819  1.00  0.00     0.016 A 
ATOM     33  C   UNL A   1      36.053  33.562  28.239  1.00  0.00     0.016 A 
ATOM     34  C   UNL A   1      35.943  30.933  29.217  1.00  0.00     0.010 A 
ATOM     35  C   UNL A   1      37.227  32.909  28.643  1.00  0.00     0.010 A 
ATOM     36  C   UNL A   1      37.167  31.613  29.187  1.00  0.00    -0.014 A 
BRANCH  36  37
ATOM     37  C   UNL A   1      38.319  31.011  29.904  1.00  0.00     0.031 A 
ATOM     38  C   UNL A   1      38.529  31.347  31.357  1.00  0.00     0.074 A 
ATOM     39  C   UNL A   1      39.100  30.093  29.307  1.00  0.00     0.049 A 
ATOM     40  N   UNL A   1      39.391  30.852  32.211  1.00  0.00    -0.248 NA
ATOM     41  C   UNL A   1      37.644  32.375  31.927  1.00  0.00     0.031 C 
ATOM     42  C   UNL A   1      38.977  29.659  27.917  1.00  0.00     0.029 A 
ATOM     43  N   UNL A   1      40.138  29.346  29.805  1.00  0.00    -0.354 N 
ATOM     44  C   UNL A   1      39.146  31.502  33.414  1.00  0.00     0.074 A 
ATOM     45  C   UNL A   1      38.084  32.455  33.174  1.00  0.00     0.031 C 
ATOM     46  C   UNL A   1      39.900  28.713  27.675  1.00  0.00     0.029 A 
ATOM     47  C   UNL A   1      40.686  28.486  28.887  1.00  0.00     0.049 A 
ATOM     48  H   UNL A   1      40.459  29.421  30.732  1.00  0.00     0.167 HD
ATOM     49  C   UNL A   1      39.739  31.310  34.616  1.00  0.00     0.037 A 
ATOM     50  C   UNL A   1      41.704  27.614  29.013  1.00  0.00     0.037 A 
ATOM     51  C   UNL A   1      40.793  30.361  34.859  1.00  0.00     0.049 A 
ATOM     52  C   UNL A   1      42.381  27.453  30.350  1.00  0.00     0.074 A 
ATOM     53  C   UNL A   1      41.447  30.080  36.047  1.00  0.00     0.029 A 
ATOM     54  N   UNL A   1      41.353  29.541  33.892  1.00  0.00    -0.354 N 
ATOM     55  N   UNL A   1      42.115  28.042  31.490  1.00  0.00    -0.248 NA
ATOM     56  C   UNL A   1      43.493  26.495  30.417  1.00  0.00     0.031 C 
ATOM     57  C   UNL A   1      42.433  29.122  35.788  1.00  0.00     0.029 A 
ATOM     58  C   UNL A   1      42.361  28.771  34.449  1.00  0.00     0.049 A 
ATOM     59  H   UNL A   1      41.075  29.510  32.948  1.00  0.00     0.167 HD
ATOM     60  C   UNL A   1      43.008  27.513  32.412  1.00  0.00     0.074 A 
ATOM     61  C   UNL A   1      43.811  26.539  31.703  1.00  0.00     0.031 C 
ATOM     62  C   UNL A   1      43.152  27.806  33.728  1.00  0.00     0.037 A 
BRANCH  49  63
ATOM     63  C   UNL A   1      39.270  32.159  35.761  1.00  0.00     0.064 A 
ATOM     64  C   UNL A   1      39.766  33.455  35.968  1.00  0.00     0.173 A 
ATOM     65  C   UNL A   1      38.292  31.682  36.645  1.00  0.00     0.173 A 
ATOM     66  F   UNL A   1      40.714  33.952  35.158  1.00  0.00    -0.203 F 
ATOM     67  C   UNL A   1      39.318  34.232  37.033  1.00  0.00     0.198 A 
ATOM     68  C   UNL A   1      37.826  32.472  37.694  1.00  0.00     0.198 A 
ATOM     69  F   UNL A   1      37.780  30.451  36.488  1.00  0.00    -0.203 F 
ATOM     70  F   UNL A   1      39.838  35.451  37.239  1.00  0.00    -0.200 F 
ATOM     71  C   UNL A   1      38.345  33.742  37.892  1.00  0.00     0.200 A 
ATOM     72  F   UNL A   1      36.878  32.000  38.516  1.00  0.00    -0.200 F 
ATOM     73  F   UNL A   1      37.911  34.493  38.913  1.00  0.00    -0.200 F 
ENDBRANCH  49  63
BRANCH  50  74
ATOM     74  C   UNL A   1      42.144  26.814  27.840  1.00  0.00     0.064 A 
ATOM     75  C   UNL A   1      43.129  27.292  26.964  1.00  0.00     0.173 A 
ATOM     76  C   UNL A   1      41.576  25.562  27.565  1.00  0.00     0.173 A 
ATOM     77  F   UNL A   1      43.684  28.494  27.170  1.00  0.00    -0.203 F 
ATOM     78  C   UNL A   1      43.515  26.553  25.846  1.00  0.00     0.198 A 
ATOM     79  C   UNL A   1      41.981  24.814  26.463  1.00  0.00     0.198 A 
ATOM     80  F   UNL A   1      40.628  25.063  28.372  1.00  0.00    -0.203 F 
ATOM     81  F   UNL A   1      44.425  27.052  24.999  1.00  0.00    -0.200 F 
ATOM     82  C   UNL A   1      42.945  25.313  25.599  1.00  0.00     0.200 A 
ATOM     83  F   UNL A   1      41.436  23.612  26.235  1.00  0.00    -0.200 F 
ATOM     84  F   UNL A   1      43.319  24.603  24.527  1.00  0.00    -0.200 F 
ENDBRANCH  50  74
BRANCH  62  85
ATOM     85  C   UNL A   1      44.204  27.052  34.489  1.00  0.00     0.064 A 
ATOM     86  C   UNL A   1      45.504  27.556  34.639  1.00  0.00     0.173 A 
ATOM     87  C   UNL A   1      43.900  25.825  35.098  1.00  0.00     0.173 A 
ATOM     88  F   UNL A   1      45.848  28.718  34.064  1.00  0.00    -0.203 F 
ATOM     89  C   UNL A   1      46.471  26.844  35.345  1.00  0.00     0.198 A 
ATOM     90  C   UNL A   1      44.861  25.129  35.826  1.00  0.00     0.198 A 
ATOM     91  F   UNL A   1      42.669  25.304  34.991  1.00  0.00    -0.203 F 
ATOM     92  F   UNL A   1      47.720  27.319  35.432  1.00  0.00    -0.200 F 
ATOM     93  C   UNL A   1      46.146  25.635  35.942  1.00  0.00     0.200 A 
ATOM     94  F   UNL A   1      44.542  23.967  36.414  1.00  0.00    -0.200 F 
ATOM     95  F   UNL A   1      47.077  24.951  36.622  1.00  0.00    -0.200 F 
ENDBRANCH  62  85
ENDBRANCH  36  37
ENDBRANCH  29  31
ENDBRANCH  28  29
ENDBRANCH  27  28
ENDBRANCH  26  27
ENDBRANCH  25  26
ENDBRANCH   1  25
TORSDOF 18
ENDMDL
MODEL 3
REMARK VINA RESULT:     -11.5      3.655      8.883
REMARK SMILES Nc1c(CC(=O)OCCOCCOC(=O)c2ccc(-c3c4nc(c(-c5c(F)c(F)c(F)c(F)c5F)c5ccc([nH]5)c(-c5c(F)c(F)c(F)c(F)c5F)c5nc(c(-c6c(F)c(F)c(F)c(F)c6F)c6ccc3[nH]6)C=C5)C=C4)cc2)cccc1C(=O)c1ccc(Br)cc1
REMARK SMILES IDX 9 1 8 2 7 3 5 4 6 5 4 6 3 7 2 8 82 9 79 10 81 11 80 12 1 13
REMARK SMILES IDX 83 16 84 17 85 18 86 19 91 20 87 21 90 22 88 23 89 24 10 25
REMARK SMILES IDX 11 26 12 27 13 28 14 29 15 30 16 31 17 32 78 33 18 34 77 35
REMARK SMILES IDX 19 36 20 37 21 38 71 39 22 40 76 41 70 42 72 43 23 44 75 45
REMARK SMILES IDX 69 46 68 47 24 49 56 50 36 51 55 52 37 53 40 54 54 55 73 56
REMARK SMILES IDX 38 57 39 58 53 60 74 61 41 62 25 63 26 64 34 65 27 66 28 67
REMARK SMILES IDX 32 68 35 69 29 70 30 71 33 72 31 73 57 74 58 75 66 76 59 77
REMARK SMILES IDX 60 78 64 79 67 80 61 81 62 82 65 83 63 84 42 85 43 86 51 87
REMARK SMILES IDX 44 88 45 89 49 90 52 91 46 92 47 93 50 94 48 95
REMARK H PARENT 1 14 1 15 72 48 40 59
REMARK Flexibility Score: inf
ROOT
ATOM      1  C   UNL A   1      32.838  29.733  25.897  1.00  0.00     0.202 C 
ENDROOT
BRANCH   1   2
ATOM      2  C   UNL A   1      31.850  29.301  24.810  1.00  0.00     0.261 C 
BRANCH   2   3
ATOM      3  O   UNL A   1      31.957  27.888  24.563  1.00  0.00    -0.463 OA
BRANCH   3   4
ATOM      4  C   UNL A   1      31.148  27.402  23.591  1.00  0.00     0.310 C 
ATOM      5  O   UNL A   1      31.303  27.610  22.392  1.00  0.00    -0.252 OA
BRANCH   4   6
ATOM      6  C   UNL A   1      30.074  26.471  24.102  1.00  0.00     0.160 C 
BRANCH   6   7
ATOM      7  C   UNL A   1      30.490  25.108  24.622  1.00  0.00    -0.013 A 
ATOM      8  C   UNL A   1      31.131  24.157  23.796  1.00  0.00     0.047 A 
ATOM      9  C   UNL A   1      31.688  23.008  24.415  1.00  0.00     0.046 A 
ATOM     10  C   UNL A   1      30.280  24.823  25.987  1.00  0.00     0.006 A 
ATOM     11  C   UNL A   1      31.442  22.736  25.771  1.00  0.00     0.014 A 
ATOM     12  C   UNL A   1      30.722  23.631  26.550  1.00  0.00     0.001 A 
BRANCH   8  13
ATOM     13  N   UNL A   1      31.289  24.426  22.438  1.00  0.00    -0.398 N 
ATOM     14  H   UNL A   1      30.502  24.634  21.882  1.00  0.00     0.156 HD
ATOM     15  H   UNL A   1      32.185  24.408  22.033  1.00  0.00     0.156 HD
ENDBRANCH   8  13
BRANCH   9  16
ATOM     16  C   UNL A   1      32.559  22.018  23.716  1.00  0.00     0.195 C 
ATOM     17  O   UNL A   1      32.091  21.312  22.825  1.00  0.00    -0.289 OA
BRANCH  16  18
ATOM     18  C   UNL A   1      33.993  21.861  24.064  1.00  0.00     0.023 A 
ATOM     19  C   UNL A   1      34.862  22.912  23.749  1.00  0.00     0.013 A 
ATOM     20  C   UNL A   1      34.466  20.739  24.757  1.00  0.00     0.013 A 
ATOM     21  C   UNL A   1      36.184  22.877  24.194  1.00  0.00     0.016 A 
ATOM     22  C   UNL A   1      35.789  20.708  25.202  1.00  0.00     0.016 A 
ATOM     23  C   UNL A   1      36.636  21.783  24.933  1.00  0.00     0.018 A 
ATOM     24  Br  UNL A   1      38.403  21.773  25.601  1.00  0.00    -0.051 Br
ENDBRANCH  16  18
ENDBRANCH   9  16
ENDBRANCH   6   7
ENDBRANCH   4   6
ENDBRANCH   3   4
ENDBRANCH   2   3
ENDBRANCH   1   2
BRANCH   1  25
ATOM     25  O   UNL A   1      32.306  30.582  26.917  1.00  0.00    -0.374 OA
BRANCH  25  26
ATOM     26  C   UNL A   1      31.508  31.688  26.496  1.00  0.00     0.202 C 
BRANCH  26  27
ATOM     27  C   UNL A   1      31.788  33.029  27.184  1.00  0.00     0.261 C 
BRANCH  27  28
ATOM     28  O   UNL A   1      33.177  33.396  27.127  1.00  0.00    -0.460 OA
BRANCH  28  29
ATOM     29  C   UNL A   1      33.733  33.650  28.333  1.00  0.00     0.338 C 
ATOM     30  O   UNL A   1      33.228  34.267  29.264  1.00  0.00    -0.246 OA
BRANCH  29  31
ATOM     31  C   UNL A   1      35.019  32.947  28.489  1.00  0.00     0.060 A 
ATOM     32  C   UNL A   1      34.957  31.618  28.928  1.00  0.00     0.016 A 
ATOM     33  C   UNL A   1      36.251  33.587  28.337  1.00  0.00     0.016 A 
ATOM     34  C   UNL A   1      36.119  30.955  29.305  1.00  0.00     0.010 A 
ATOM     35  C   UNL A   1      37.422  32.916  28.720  1.00  0.00     0.010 A 
ATOM     36  C   UNL A   1      37.352  31.618  29.259  1.00  0.00    -0.014 A 
BRANCH  36  37
ATOM     37  C   UNL A   1      38.507  30.997  29.957  1.00  0.00     0.031 A 
ATOM     38  C   UNL A   1      38.735  31.313  31.411  1.00  0.00     0.074 A 
ATOM     39  C   UNL A   1      39.272  30.079  29.339  1.00  0.00     0.049 A 
ATOM     40  N   UNL A   1      39.601  30.799  32.249  1.00  0.00    -0.248 NA
ATOM     41  C   UNL A   1      37.865  32.342  32.003  1.00  0.00     0.031 C 
ATOM     42  C   UNL A   1      39.130  29.664  27.946  1.00  0.00     0.029 A 
ATOM     43  N   UNL A   1      40.308  29.317  29.816  1.00  0.00    -0.354 N 
ATOM     44  C   UNL A   1      39.376  31.436  33.462  1.00  0.00     0.074 A 
ATOM     45  C   UNL A   1      38.320  32.401  33.246  1.00  0.00     0.031 C 
ATOM     46  C   UNL A   1      40.042  28.713  27.681  1.00  0.00     0.029 A 
ATOM     47  C   UNL A   1      40.839  28.464  28.882  1.00  0.00     0.049 A 
ATOM     48  H   UNL A   1      40.641  29.377  30.741  1.00  0.00     0.167 HD
ATOM     49  C   UNL A   1      39.980  31.224  34.655  1.00  0.00     0.037 A 
ATOM     50  C   UNL A   1      41.850  27.580  28.986  1.00  0.00     0.037 A 
ATOM     51  C   UNL A   1      41.028  30.262  34.876  1.00  0.00     0.049 A 
ATOM     52  C   UNL A   1      42.540  27.397  30.313  1.00  0.00     0.074 A 
ATOM     53  C   UNL A   1      41.692  29.961  36.052  1.00  0.00     0.029 A 
ATOM     54  N   UNL A   1      41.569  29.449  33.892  1.00  0.00    -0.354 N 
ATOM     55  N   UNL A   1      42.291  27.974  31.464  1.00  0.00    -0.248 NA
ATOM     56  C   UNL A   1      43.644  26.428  30.356  1.00  0.00     0.031 C 
ATOM     57  C   UNL A   1      42.667  28.997  35.771  1.00  0.00     0.029 A 
ATOM     58  C   UNL A   1      42.577  28.664  34.428  1.00  0.00     0.049 A 
ATOM     59  H   UNL A   1      41.281  29.433  32.950  1.00  0.00     0.167 HD
ATOM     60  C   UNL A   1      43.190  27.426  32.369  1.00  0.00     0.074 A 
ATOM     61  C   UNL A   1      43.977  26.453  31.638  1.00  0.00     0.031 C 
ATOM     62  C   UNL A   1      43.351  27.701  33.687  1.00  0.00     0.037 A 
BRANCH  49  63
ATOM     63  C   UNL A   1      39.531  32.063  35.816  1.00  0.00     0.064 A 
ATOM     64  C   UNL A   1      38.489  31.654  36.660  1.00  0.00     0.173 A 
ATOM     65  C   UNL A   1      40.171  33.278  36.103  1.00  0.00     0.173 A 
ATOM     66  F   UNL A   1      37.836  30.507  36.420  1.00  0.00    -0.203 F 
ATOM     67  C   UNL A   1      38.086  32.442  37.736  1.00  0.00     0.198 A 
ATOM     68  C   UNL A   1      39.783  34.051  37.195  1.00  0.00     0.198 A 
ATOM     69  F   UNL A   1      41.177  33.712  35.329  1.00  0.00    -0.203 F 
ATOM     70  F   UNL A   1      37.059  32.054  38.504  1.00  0.00    -0.200 F 
ATOM     71  C   UNL A   1      38.737  33.638  38.005  1.00  0.00     0.200 A 
ATOM     72  F   UNL A   1      40.421  35.201  37.460  1.00  0.00    -0.200 F 
ATOM     73  F   UNL A   1      38.352  34.392  39.043  1.00  0.00    -0.200 F 
ENDBRANCH  49  63
BRANCH  50  74
ATOM     74  C   UNL A   1      42.270  26.792  27.798  1.00  0.00     0.064 A 
ATOM     75  C   UNL A   1      41.718  25.532  27.531  1.00  0.00     0.173 A 
ATOM     76  C   UNL A   1      43.246  27.278  26.917  1.00  0.00     0.173 A 
ATOM     77  F   UNL A   1      40.800  25.013  28.359  1.00  0.00    -0.203 F 
ATOM     78  C   UNL A   1      42.139  24.781  26.434  1.00  0.00     0.198 A 
ATOM     79  C   UNL A   1      43.647  26.538  25.807  1.00  0.00     0.198 A 
ATOM     80  F   UNL A   1      43.808  28.478  27.131  1.00  0.00    -0.203 F 
ATOM     81  F   UNL A   1      41.627  23.560  26.226  1.00  0.00    -0.200 F 
ATOM     82  C   UNL A   1      43.098  25.286  25.570  1.00  0.00     0.200 A 
ATOM     83  F   UNL A   1      44.566  27.035  24.969  1.00  0.00    -0.200 F 
ATOM     84  F   UNL A   1      43.500  24.565  24.515  1.00  0.00    -0.200 F 
ENDBRANCH  50  74
BRANCH  62  85
ATOM     85  C   UNL A   1      44.404  26.928  34.427  1.00  0.00     0.064 A 
ATOM     86  C   UNL A   1      44.122  25.694  35.029  1.00  0.00     0.173 A 
ATOM     87  C   UNL A   1      45.717  27.416  34.512  1.00  0.00     0.173 A 
ATOM     88  F   UNL A   1      42.878  25.191  34.987  1.00  0.00    -0.203 F 
ATOM     89  C   UNL A   1      45.107  24.989  35.715  1.00  0.00     0.198 A 
ATOM     90  C   UNL A   1      46.707  26.696  35.175  1.00  0.00     0.198 A 
ATOM     91  F   UNL A   1      46.041  28.588  33.948  1.00  0.00    -0.203 F 
ATOM     92  F   UNL A   1      44.802  23.836  36.326  1.00  0.00    -0.200 F 
ATOM     93  C   UNL A   1      46.399  25.488  35.782  1.00  0.00     0.200 A 
ATOM     94  F   UNL A   1      47.959  27.173  35.229  1.00  0.00    -0.200 F 
ATOM     95  F   UNL A   1      47.348  24.809  36.443  1.00  0.00    -0.200 F 
ENDBRANCH  62  85
ENDBRANCH  36  37
ENDBRANCH  29  31
ENDBRANCH  28  29
ENDBRANCH  27  28
ENDBRANCH  26  27
ENDBRANCH  25  26
ENDBRANCH   1  25
TORSDOF 18
ENDMDL
