MODEL 1
REMARK VINA RESULT:     -11.1      0.000      0.000
REMARK SMILES C[C@H]1CCN(C(=O)NC[C@@H]2CC[C@H](C(=O)OCCOCCOC(=O)c3ccc(-c4c5nc(c(-c6c(F)c(F)c(F)c(F)c6F)c6ccc([nH]6)c(-c6c(F)c(F)c(F)c(F)c6F)c6nc(c(-c7c(F)c(F)c(F)c(F)c7F)c7ccc4[nH]7)C=C6)C=C5)cc3)O2)C1
REMARK SMILES IDX 18 1 17 2 16 3 14 4 15 5 13 6 10 7 11 8 88 9 12 10 9 11 8 12
REMARK SMILES IDX 6 13 7 14 5 16 1 17 2 18 3 19 89 20 4 21 19 22 20 23 21 24
REMARK SMILES IDX 22 25 23 26 24 27 25 28 26 29 87 30 27 31 86 32 28 33 29 34
REMARK SMILES IDX 30 35 80 36 31 37 85 38 79 39 81 40 32 41 84 42 78 43 77 44
REMARK SMILES IDX 33 46 65 47 45 48 64 49 46 50 49 51 63 52 82 53 47 54 48 55
REMARK SMILES IDX 62 57 83 58 50 59 34 60 35 61 43 62 36 63 37 64 41 65 44 66
REMARK SMILES IDX 38 67 39 68 42 69 40 70 66 71 67 72 75 73 68 74 69 75 73 76
REMARK SMILES IDX 76 77 70 78 71 79 74 80 72 81 51 82 52 83 60 84 53 85 54 86
REMARK SMILES IDX 58 87 61 88 55 89 56 90 59 91 57 92
REMARK H PARENT 8 15 81 45 49 56
REMARK Flexibility Score: inf
ROOT
ATOM      1  C   UNL A   1      32.143  29.278  26.494  1.00  0.00     0.202 C 
ENDROOT
BRANCH   1   2
ATOM      2  C   UNL A   1      33.217  29.124  25.412  1.00  0.00     0.261 C 
BRANCH   2   3
ATOM      3  O   UNL A   1      32.647  29.063  24.089  1.00  0.00    -0.461 OA
BRANCH   3   4
ATOM      4  C   UNL A   1      32.728  27.848  23.472  1.00  0.00     0.335 C 
ATOM      5  O   UNL A   1      33.754  27.186  23.369  1.00  0.00    -0.249 OA
BRANCH   4   6
ATOM      6  C   UNL A   1      31.379  27.386  22.903  1.00  0.00     0.228 C 
ATOM      7  C   UNL A   1      30.133  26.018  24.330  1.00  0.00     0.138 C 
ATOM      8  C   UNL A   1      30.873  25.097  23.364  1.00  0.00     0.037 C 
ATOM      9  O   UNL A   1      30.372  27.370  23.911  1.00  0.00    -0.361 OA
ATOM     10  C   UNL A   1      31.339  26.013  22.258  1.00  0.00     0.047 C 
BRANCH   7  11
ATOM     11  C   UNL A   1      30.534  25.799  25.805  1.00  0.00     0.149 C 
BRANCH  11  12
ATOM     12  N   UNL A   1      29.849  24.707  26.473  1.00  0.00    -0.335 N 
ATOM     13  C   UNL A   1      30.200  23.480  26.896  1.00  0.00     0.317 C 
ATOM     14  O   UNL A   1      29.384  22.910  27.626  1.00  0.00    -0.249 OA
ATOM     15  H   UNL A   1      28.904  24.914  26.659  1.00  0.00     0.165 HD
BRANCH  13  16
ATOM     16  N   UNL A   1      31.381  22.905  26.551  1.00  0.00    -0.325 N 
ATOM     17  C   UNL A   1      34.604  21.581  26.449  1.00  0.00     0.009 C 
ATOM     18  C   UNL A   1      33.681  22.680  25.940  1.00  0.00     0.007 C 
ATOM     19  C   UNL A   1      32.775  22.211  24.800  1.00  0.00     0.027 C 
ATOM     20  C   UNL A   1      32.721  23.193  27.020  1.00  0.00     0.124 C 
ATOM     21  C   UNL A   1      31.431  21.956  25.458  1.00  0.00     0.121 C 
ENDBRANCH  13  16
ENDBRANCH  11  12
ENDBRANCH   7  11
ENDBRANCH   4   6
ENDBRANCH   3   4
ENDBRANCH   2   3
ENDBRANCH   1   2
BRANCH   1  22
ATOM     22  O   UNL A   1      32.056  30.549  27.136  1.00  0.00    -0.374 OA
BRANCH  22  23
ATOM     23  C   UNL A   1      31.506  31.630  26.388  1.00  0.00     0.202 C 
BRANCH  23  24
ATOM     24  C   UNL A   1      31.892  33.044  26.845  1.00  0.00     0.261 C 
BRANCH  24  25
ATOM     25  O   UNL A   1      32.704  33.036  28.035  1.00  0.00    -0.460 OA
BRANCH  25  26
ATOM     26  C   UNL A   1      33.804  33.822  27.969  1.00  0.00     0.338 C 
ATOM     27  O   UNL A   1      33.841  35.034  27.797  1.00  0.00    -0.246 OA
BRANCH  26  28
ATOM     28  C   UNL A   1      35.017  33.052  28.294  1.00  0.00     0.060 A 
ATOM     29  C   UNL A   1      34.841  31.742  28.756  1.00  0.00     0.016 A 
ATOM     30  C   UNL A   1      36.291  33.625  28.252  1.00  0.00     0.016 A 
ATOM     31  C   UNL A   1      35.931  31.017  29.233  1.00  0.00     0.010 A 
ATOM     32  C   UNL A   1      37.383  32.896  28.740  1.00  0.00     0.010 A 
ATOM     33  C   UNL A   1      37.203  31.605  29.267  1.00  0.00    -0.014 A 
BRANCH  33  34
ATOM     34  C   UNL A   1      38.299  30.917  29.995  1.00  0.00     0.031 A 
ATOM     35  C   UNL A   1      38.517  31.224  31.451  1.00  0.00     0.074 A 
ATOM     36  C   UNL A   1      39.059  29.991  29.383  1.00  0.00     0.049 A 
ATOM     37  N   UNL A   1      39.410  30.741  32.279  1.00  0.00    -0.248 NA
ATOM     38  C   UNL A   1      37.604  32.206  32.057  1.00  0.00     0.031 C 
ATOM     39  C   UNL A   1      38.920  29.575  27.989  1.00  0.00     0.029 A 
ATOM     40  N   UNL A   1      40.099  29.236  29.860  1.00  0.00    -0.354 N 
ATOM     41  C   UNL A   1      39.167  31.358  33.499  1.00  0.00     0.074 A 
ATOM     42  C   UNL A   1      38.065  32.275  33.298  1.00  0.00     0.031 C 
ATOM     43  C   UNL A   1      39.848  28.639  27.721  1.00  0.00     0.029 A 
ATOM     44  C   UNL A   1      40.660  28.413  28.916  1.00  0.00     0.049 A 
ATOM     45  H   UNL A   1      40.414  29.279  30.793  1.00  0.00     0.167 HD
ATOM     46  C   UNL A   1      39.795  31.168  34.683  1.00  0.00     0.037 A 
ATOM     47  C   UNL A   1      41.718  27.583  29.002  1.00  0.00     0.037 A 
ATOM     48  C   UNL A   1      40.889  30.255  34.888  1.00  0.00     0.049 A 
ATOM     49  C   UNL A   1      42.444  27.440  30.315  1.00  0.00     0.074 A 
ATOM     50  C   UNL A   1      41.582  29.986  36.055  1.00  0.00     0.029 A 
ATOM     51  N   UNL A   1      41.452  29.465  33.897  1.00  0.00    -0.354 N 
ATOM     52  N   UNL A   1      42.195  28.011  31.468  1.00  0.00    -0.248 NA
ATOM     53  C   UNL A   1      43.600  26.530  30.337  1.00  0.00     0.031 C 
ATOM     54  C   UNL A   1      42.595  29.066  35.761  1.00  0.00     0.029 A 
ATOM     55  C   UNL A   1      42.500  28.726  34.421  1.00  0.00     0.049 A 
ATOM     56  H   UNL A   1      41.151  29.435  32.960  1.00  0.00     0.167 HD
ATOM     57  C   UNL A   1      43.138  27.513  32.356  1.00  0.00     0.074 A 
ATOM     58  C   UNL A   1      43.962  26.583  31.612  1.00  0.00     0.031 C 
ATOM     59  C   UNL A   1      43.307  27.798  33.671  1.00  0.00     0.037 A 
BRANCH  46  60
ATOM     60  C   UNL A   1      39.326  31.982  35.854  1.00  0.00     0.064 A 
ATOM     61  C   UNL A   1      38.371  31.491  36.756  1.00  0.00     0.173 A 
ATOM     62  C   UNL A   1      39.864  33.255  36.094  1.00  0.00     0.173 A 
ATOM     63  F   UNL A   1      37.816  30.285  36.561  1.00  0.00    -0.203 F 
ATOM     64  C   UNL A   1      37.957  32.254  37.845  1.00  0.00     0.198 A 
ATOM     65  C   UNL A   1      39.467  34.004  37.198  1.00  0.00     0.198 A 
ATOM     66  F   UNL A   1      40.783  33.769  35.263  1.00  0.00    -0.203 F 
ATOM     67  F   UNL A   1      37.013  31.782  38.671  1.00  0.00    -0.200 F 
ATOM     68  C   UNL A   1      38.510  33.506  38.069  1.00  0.00     0.200 A 
ATOM     69  F   UNL A   1      40.010  35.209  37.420  1.00  0.00    -0.200 F 
ATOM     70  F   UNL A   1      38.114  34.236  39.121  1.00  0.00    -0.200 F 
ENDBRANCH  46  60
BRANCH  47  71
ATOM     71  C   UNL A   1      42.164  26.826  27.804  1.00  0.00     0.064 A 
ATOM     72  C   UNL A   1      41.679  25.539  27.537  1.00  0.00     0.173 A 
ATOM     73  C   UNL A   1      43.102  27.368  26.915  1.00  0.00     0.173 A 
ATOM     74  F   UNL A   1      40.801  24.967  28.375  1.00  0.00    -0.203 F 
ATOM     75  C   UNL A   1      42.126  24.816  26.432  1.00  0.00     0.198 A 
ATOM     76  C   UNL A   1      43.529  26.656  25.796  1.00  0.00     0.198 A 
ATOM     77  F   UNL A   1      43.601  28.594  27.129  1.00  0.00    -0.203 F 
ATOM     78  F   UNL A   1      41.681  23.570  26.225  1.00  0.00    -0.200 F 
ATOM     79  C   UNL A   1      43.047  25.378  25.561  1.00  0.00     0.200 A 
ATOM     80  F   UNL A   1      44.413  27.205  24.952  1.00  0.00    -0.200 F 
ATOM     81  F   UNL A   1      43.478  24.682  24.499  1.00  0.00    -0.200 F 
ENDBRANCH  47  71
BRANCH  59  82
ATOM     82  C   UNL A   1      44.400  27.074  34.402  1.00  0.00     0.064 A 
ATOM     83  C   UNL A   1      44.186  25.819  34.989  1.00  0.00     0.173 A 
ATOM     84  C   UNL A   1      45.689  27.623  34.476  1.00  0.00     0.173 A 
ATOM     85  F   UNL A   1      42.968  25.257  34.957  1.00  0.00    -0.203 F 
ATOM     86  C   UNL A   1      45.217  25.150  35.644  1.00  0.00     0.198 A 
ATOM     87  C   UNL A   1      46.725  26.940  35.108  1.00  0.00     0.198 A 
ATOM     88  F   UNL A   1      45.948  28.819  33.924  1.00  0.00    -0.203 F 
ATOM     89  F   UNL A   1      44.980  23.971  36.235  1.00  0.00    -0.200 F 
ATOM     90  C   UNL A   1      46.486  25.708  35.697  1.00  0.00     0.200 A 
ATOM     91  F   UNL A   1      47.953  27.474  35.146  1.00  0.00    -0.200 F 
ATOM     92  F   UNL A   1      47.480  25.059  36.321  1.00  0.00    -0.200 F 
ENDBRANCH  59  82
ENDBRANCH  33  34
ENDBRANCH  26  28
ENDBRANCH  25  26
ENDBRANCH  24  25
ENDBRANCH  23  24
ENDBRANCH  22  23
ENDBRANCH   1  22
TORSDOF 17
ENDMDL
MODEL 2
REMARK VINA RESULT:     -11.0      4.755     10.213
REMARK SMILES C[C@H]1CCN(C(=O)NC[C@@H]2CC[C@H](C(=O)OCCOCCOC(=O)c3ccc(-c4c5nc(c(-c6c(F)c(F)c(F)c(F)c6F)c6ccc([nH]6)c(-c6c(F)c(F)c(F)c(F)c6F)c6nc(c(-c7c(F)c(F)c(F)c(F)c7F)c7ccc4[nH]7)C=C6)C=C5)cc3)O2)C1
REMARK SMILES IDX 18 1 17 2 16 3 14 4 15 5 13 6 10 7 11 8 88 9 12 10 9 11 8 12
REMARK SMILES IDX 6 13 7 14 5 16 1 17 2 18 3 19 89 20 4 21 19 22 20 23 21 24
REMARK SMILES IDX 22 25 23 26 24 27 25 28 26 29 87 30 27 31 86 32 28 33 29 34
REMARK SMILES IDX 30 35 80 36 31 37 85 38 79 39 81 40 32 41 84 42 78 43 77 44
REMARK SMILES IDX 33 46 65 47 45 48 64 49 46 50 49 51 63 52 82 53 47 54 48 55
REMARK SMILES IDX 62 57 83 58 50 59 34 60 35 61 43 62 36 63 37 64 41 65 44 66
REMARK SMILES IDX 38 67 39 68 42 69 40 70 66 71 67 72 75 73 68 74 69 75 73 76
REMARK SMILES IDX 76 77 70 78 71 79 74 80 72 81 51 82 52 83 60 84 53 85 54 86
REMARK SMILES IDX 58 87 61 88 55 89 56 90 59 91 57 92
REMARK H PARENT 8 15 81 45 49 56
REMARK Flexibility Score: inf
ROOT
ATOM      1  C   UNL A   1      35.799  21.932  26.126  1.00  0.00     0.202 C 
ENDROOT
BRANCH   1   2
ATOM      2  C   UNL A   1      34.665  22.230  27.112  1.00  0.00     0.261 C 
BRANCH   2   3
ATOM      3  O   UNL A   1      33.983  23.461  26.797  1.00  0.00    -0.461 OA
BRANCH   3   4
ATOM      4  C   UNL A   1      32.624  23.371  26.706  1.00  0.00     0.335 C 
ATOM      5  O   UNL A   1      31.887  23.025  27.622  1.00  0.00    -0.249 OA
BRANCH   4   6
ATOM      6  C   UNL A   1      32.100  23.746  25.313  1.00  0.00     0.228 C 
ATOM      7  C   UNL A   1      32.162  22.014  23.746  1.00  0.00     0.138 C 
ATOM      8  C   UNL A   1      33.411  22.862  23.522  1.00  0.00     0.037 C 
ATOM      9  O   UNL A   1      31.359  22.676  24.735  1.00  0.00    -0.361 OA
ATOM     10  C   UNL A   1      33.133  24.141  24.274  1.00  0.00     0.047 C 
BRANCH   7  11
ATOM     11  C   UNL A   1      32.482  20.558  24.153  1.00  0.00     0.149 C 
BRANCH  11  12
ATOM     12  N   UNL A   1      32.284  19.571  23.106  1.00  0.00    -0.335 N 
ATOM     13  C   UNL A   1      32.538  18.257  22.978  1.00  0.00     0.317 C 
ATOM     14  O   UNL A   1      32.024  17.704  22.001  1.00  0.00    -0.249 OA
ATOM     15  H   UNL A   1      31.866  19.955  22.302  1.00  0.00     0.165 HD
BRANCH  13  16
ATOM     16  N   UNL A   1      33.305  17.576  23.868  1.00  0.00    -0.325 N 
ATOM     17  C   UNL A   1      35.890  16.189  25.752  1.00  0.00     0.009 C 
ATOM     18  C   UNL A   1      34.757  15.906  24.774  1.00  0.00     0.007 C 
ATOM     19  C   UNL A   1      33.387  15.853  25.455  1.00  0.00     0.027 C 
ATOM     20  C   UNL A   1      34.620  16.991  23.699  1.00  0.00     0.124 C 
ATOM     21  C   UNL A   1      32.757  17.202  25.156  1.00  0.00     0.121 C 
ENDBRANCH  13  16
ENDBRANCH  11  12
ENDBRANCH   7  11
ENDBRANCH   4   6
ENDBRANCH   3   4
ENDBRANCH   2   3
ENDBRANCH   1   2
BRANCH   1  22
ATOM     22  O   UNL A   1      35.744  20.681  25.444  1.00  0.00    -0.374 OA
BRANCH  22  23
ATOM     23  C   UNL A   1      36.856  20.325  24.625  1.00  0.00     0.202 C 
BRANCH  23  24
ATOM     24  C   UNL A   1      38.125  19.870  25.356  1.00  0.00     0.261 C 
BRANCH  24  25
ATOM     25  O   UNL A   1      39.128  20.903  25.416  1.00  0.00    -0.460 OA
BRANCH  25  26
ATOM     26  C   UNL A   1      39.994  20.785  26.450  1.00  0.00     0.338 C 
ATOM     27  O   UNL A   1      40.577  19.773  26.818  1.00  0.00    -0.246 OA
BRANCH  26  28
ATOM     28  C   UNL A   1      40.298  22.105  27.029  1.00  0.00     0.060 A 
ATOM     29  C   UNL A   1      39.630  23.211  26.492  1.00  0.00     0.016 A 
ATOM     30  C   UNL A   1      41.288  22.277  28.000  1.00  0.00     0.016 A 
ATOM     31  C   UNL A   1      39.987  24.500  26.881  1.00  0.00     0.010 A 
ATOM     32  C   UNL A   1      41.652  23.574  28.383  1.00  0.00     0.010 A 
ATOM     33  C   UNL A   1      41.030  24.692  27.797  1.00  0.00    -0.014 A 
BRANCH  33  34
ATOM     34  C   UNL A   1      41.558  26.062  28.016  1.00  0.00     0.031 A 
ATOM     35  C   UNL A   1      42.925  26.412  27.496  1.00  0.00     0.074 A 
ATOM     36  C   UNL A   1      40.811  27.000  28.626  1.00  0.00     0.049 A 
ATOM     37  N   UNL A   1      43.580  27.543  27.572  1.00  0.00    -0.248 NA
ATOM     38  C   UNL A   1      43.651  25.343  26.790  1.00  0.00     0.031 C 
ATOM     39  C   UNL A   1      39.458  26.798  29.137  1.00  0.00     0.029 A 
ATOM     40  N   UNL A   1      41.091  28.311  28.916  1.00  0.00    -0.354 N 
ATOM     41  C   UNL A   1      44.790  27.324  26.928  1.00  0.00     0.074 A 
ATOM     42  C   UNL A   1      44.795  25.942  26.494  1.00  0.00     0.031 C 
ATOM     43  C   UNL A   1      39.025  27.947  29.686  1.00  0.00     0.029 A 
ATOM     44  C   UNL A   1      40.081  28.954  29.587  1.00  0.00     0.049 A 
ATOM     45  H   UNL A   1      41.937  28.751  28.666  1.00  0.00     0.167 HD
ATOM     46  C   UNL A   1      45.801  28.197  26.704  1.00  0.00     0.037 A 
ATOM     47  C   UNL A   1      40.022  30.207  30.078  1.00  0.00     0.037 A 
ATOM     48  C   UNL A   1      45.800  29.571  27.131  1.00  0.00     0.049 A 
ATOM     49  C   UNL A   1      41.188  31.139  29.876  1.00  0.00     0.074 A 
ATOM     50  C   UNL A   1      46.774  30.536  26.941  1.00  0.00     0.029 A 
ATOM     51  N   UNL A   1      44.772  30.175  27.840  1.00  0.00    -0.354 N 
ATOM     52  N   UNL A   1      42.319  30.929  29.248  1.00  0.00    -0.248 NA
ATOM     53  C   UNL A   1      41.066  32.488  30.451  1.00  0.00     0.031 C 
ATOM     54  C   UNL A   1      46.355  31.712  27.574  1.00  0.00     0.029 A 
ATOM     55  C   UNL A   1      45.098  31.493  28.116  1.00  0.00     0.049 A 
ATOM     56  H   UNL A   1      43.934  29.732  28.107  1.00  0.00     0.167 HD
ATOM     57  C   UNL A   1      43.029  32.121  29.326  1.00  0.00     0.074 A 
ATOM     58  C   UNL A   1      42.196  33.056  30.055  1.00  0.00     0.031 C 
ATOM     59  C   UNL A   1      44.258  32.415  28.836  1.00  0.00     0.037 A 
BRANCH  46  60
ATOM     60  C   UNL A   1      47.011  27.684  25.978  1.00  0.00     0.064 A 
ATOM     61  C   UNL A   1      47.094  27.709  24.578  1.00  0.00     0.173 A 
ATOM     62  C   UNL A   1      48.113  27.194  26.694  1.00  0.00     0.173 A 
ATOM     63  F   UNL A   1      46.060  28.156  23.849  1.00  0.00    -0.203 F 
ATOM     64  C   UNL A   1      48.229  27.243  23.920  1.00  0.00     0.198 A 
ATOM     65  C   UNL A   1      49.256  26.752  26.034  1.00  0.00     0.198 A 
ATOM     66  F   UNL A   1      48.085  27.151  28.034  1.00  0.00    -0.203 F 
ATOM     67  F   UNL A   1      48.271  27.237  22.581  1.00  0.00    -0.200 F 
ATOM     68  C   UNL A   1      49.312  26.771  24.649  1.00  0.00     0.200 A 
ATOM     69  F   UNL A   1      50.306  26.307  26.739  1.00  0.00    -0.200 F 
ATOM     70  F   UNL A   1      50.405  26.328  24.014  1.00  0.00    -0.200 F 
ENDBRANCH  46  60
BRANCH  47  71
ATOM     71  C   UNL A   1      38.815  30.654  30.820  1.00  0.00     0.064 A 
ATOM     72  C   UNL A   1      37.726  31.233  30.154  1.00  0.00     0.173 A 
ATOM     73  C   UNL A   1      38.737  30.531  32.214  1.00  0.00     0.173 A 
ATOM     74  F   UNL A   1      37.766  31.397  28.824  1.00  0.00    -0.203 F 
ATOM     75  C   UNL A   1      36.610  31.685  30.857  1.00  0.00     0.198 A 
ATOM     76  C   UNL A   1      37.610  30.959  32.914  1.00  0.00     0.198 A 
ATOM     77  F   UNL A   1      39.755  29.989  32.899  1.00  0.00    -0.203 F 
ATOM     78  F   UNL A   1      35.603  32.276  30.201  1.00  0.00    -0.200 F 
ATOM     79  C   UNL A   1      36.552  31.543  32.235  1.00  0.00     0.200 A 
ATOM     80  F   UNL A   1      37.555  30.813  34.245  1.00  0.00    -0.200 F 
ATOM     81  F   UNL A   1      35.480  31.978  32.911  1.00  0.00    -0.200 F 
ENDBRANCH  47  71
BRANCH  59  82
ATOM     82  C   UNL A   1      44.768  33.812  29.039  1.00  0.00     0.064 A 
ATOM     83  C   UNL A   1      44.480  34.840  28.130  1.00  0.00     0.173 A 
ATOM     84  C   UNL A   1      45.518  34.135  30.180  1.00  0.00     0.173 A 
ATOM     85  F   UNL A   1      43.778  34.579  27.017  1.00  0.00    -0.203 F 
ATOM     86  C   UNL A   1      44.942  36.136  28.345  1.00  0.00     0.198 A 
ATOM     87  C   UNL A   1      45.956  35.437  30.407  1.00  0.00     0.198 A 
ATOM     88  F   UNL A   1      45.815  33.189  31.084  1.00  0.00    -0.203 F 
ATOM     89  F   UNL A   1      44.690  37.093  27.443  1.00  0.00    -0.200 F 
ATOM     90  C   UNL A   1      45.673  36.434  29.486  1.00  0.00     0.200 A 
ATOM     91  F   UNL A   1      46.650  35.727  31.515  1.00  0.00    -0.200 F 
ATOM     92  F   UNL A   1      46.110  37.684  29.695  1.00  0.00    -0.200 F 
ENDBRANCH  59  82
ENDBRANCH  33  34
ENDBRANCH  26  28
ENDBRANCH  25  26
ENDBRANCH  24  25
ENDBRANCH  23  24
ENDBRANCH  22  23
ENDBRANCH   1  22
TORSDOF 17
ENDMDL
MODEL 3
REMARK VINA RESULT:     -10.9      1.634      2.724
REMARK SMILES C[C@H]1CCN(C(=O)NC[C@@H]2CC[C@H](C(=O)OCCOCCOC(=O)c3ccc(-c4c5nc(c(-c6c(F)c(F)c(F)c(F)c6F)c6ccc([nH]6)c(-c6c(F)c(F)c(F)c(F)c6F)c6nc(c(-c7c(F)c(F)c(F)c(F)c7F)c7ccc4[nH]7)C=C6)C=C5)cc3)O2)C1
REMARK SMILES IDX 18 1 17 2 16 3 14 4 15 5 13 6 10 7 11 8 88 9 12 10 9 11 8 12
REMARK SMILES IDX 6 13 7 14 5 16 1 17 2 18 3 19 89 20 4 21 19 22 20 23 21 24
REMARK SMILES IDX 22 25 23 26 24 27 25 28 26 29 87 30 27 31 86 32 28 33 29 34
REMARK SMILES IDX 30 35 80 36 31 37 85 38 79 39 81 40 32 41 84 42 78 43 77 44
REMARK SMILES IDX 33 46 65 47 45 48 64 49 46 50 49 51 63 52 82 53 47 54 48 55
REMARK SMILES IDX 62 57 83 58 50 59 34 60 35 61 43 62 36 63 37 64 41 65 44 66
REMARK SMILES IDX 38 67 39 68 42 69 40 70 66 71 67 72 75 73 68 74 69 75 73 76
REMARK SMILES IDX 76 77 70 78 71 79 74 80 72 81 51 82 52 83 60 84 53 85 54 86
REMARK SMILES IDX 58 87 61 88 55 89 56 90 59 91 57 92
REMARK H PARENT 8 15 81 45 49 56
REMARK Flexibility Score: inf
ROOT
ATOM      1  C   UNL A   1      30.185  29.312  22.970  1.00  0.00     0.202 C 
ENDROOT
BRANCH   1   2
ATOM      2  C   UNL A   1      30.183  27.781  23.037  1.00  0.00     0.261 C 
BRANCH   2   3
ATOM      3  O   UNL A   1      31.413  27.216  22.539  1.00  0.00    -0.461 OA
BRANCH   3   4
ATOM      4  C   UNL A   1      31.905  26.162  23.252  1.00  0.00     0.335 C 
ATOM      5  O   UNL A   1      31.217  25.286  23.764  1.00  0.00    -0.249 OA
BRANCH   4   6
ATOM      6  C   UNL A   1      33.435  26.186  23.359  1.00  0.00     0.228 C 
ATOM      7  C   UNL A   1      34.440  24.080  23.488  1.00  0.00     0.138 C 
ATOM      8  C   UNL A   1      34.316  24.603  24.916  1.00  0.00     0.037 C 
ATOM      9  O   UNL A   1      34.022  25.131  22.604  1.00  0.00    -0.361 OA
ATOM     10  C   UNL A   1      34.029  26.076  24.751  1.00  0.00     0.047 C 
BRANCH   7  11
ATOM     11  C   UNL A   1      33.642  22.781  23.246  1.00  0.00     0.149 C 
BRANCH  11  12
ATOM     12  N   UNL A   1      32.560  22.542  24.184  1.00  0.00    -0.335 N 
ATOM     13  C   UNL A   1      32.100  21.470  24.854  1.00  0.00     0.317 C 
ATOM     14  O   UNL A   1      31.276  21.705  25.743  1.00  0.00    -0.249 OA
ATOM     15  H   UNL A   1      32.041  23.356  24.376  1.00  0.00     0.165 HD
BRANCH  13  16
ATOM     16  N   UNL A   1      32.520  20.208  24.578  1.00  0.00    -0.325 N 
ATOM     17  C   UNL A   1      33.747  17.285  23.127  1.00  0.00     0.009 C 
ATOM     18  C   UNL A   1      32.527  17.974  23.724  1.00  0.00     0.007 C 
ATOM     19  C   UNL A   1      32.532  17.964  25.255  1.00  0.00     0.027 C 
ATOM     20  C   UNL A   1      32.440  19.457  23.342  1.00  0.00     0.124 C 
ATOM     21  C   UNL A   1      32.998  19.355  25.647  1.00  0.00     0.121 C 
ENDBRANCH  13  16
ENDBRANCH  11  12
ENDBRANCH   7  11
ENDBRANCH   4   6
ENDBRANCH   3   4
ENDBRANCH   2   3
ENDBRANCH   1   2
BRANCH   1  22
ATOM     22  O   UNL A   1      30.266  30.008  24.212  1.00  0.00    -0.374 OA
BRANCH  22  23
ATOM     23  C   UNL A   1      31.427  29.800  25.012  1.00  0.00     0.202 C 
BRANCH  23  24
ATOM     24  C   UNL A   1      31.683  30.824  26.126  1.00  0.00     0.261 C 
BRANCH  24  25
ATOM     25  O   UNL A   1      32.815  30.475  26.946  1.00  0.00    -0.460 OA
BRANCH  25  26
ATOM     26  C   UNL A   1      33.521  31.534  27.407  1.00  0.00     0.338 C 
ATOM     27  O   UNL A   1      33.107  32.666  27.618  1.00  0.00    -0.246 OA
BRANCH  26  28
ATOM     28  C   UNL A   1      34.882  31.126  27.795  1.00  0.00     0.060 A 
ATOM     29  C   UNL A   1      35.103  29.762  28.021  1.00  0.00     0.016 A 
ATOM     30  C   UNL A   1      35.894  32.058  28.038  1.00  0.00     0.016 A 
ATOM     31  C   UNL A   1      36.319  29.328  28.545  1.00  0.00     0.010 A 
ATOM     32  C   UNL A   1      37.113  31.620  28.572  1.00  0.00     0.010 A 
ATOM     33  C   UNL A   1      37.317  30.259  28.864  1.00  0.00    -0.014 A 
BRANCH  33  34
ATOM     34  C   UNL A   1      38.501  29.813  29.639  1.00  0.00     0.031 A 
ATOM     35  C   UNL A   1      38.717  30.357  31.026  1.00  0.00     0.074 A 
ATOM     36  C   UNL A   1      39.349  28.897  29.138  1.00  0.00     0.049 A 
ATOM     37  N   UNL A   1      39.678  30.104  31.878  1.00  0.00    -0.248 NA
ATOM     38  C   UNL A   1      37.710  31.310  31.519  1.00  0.00     0.031 C 
ATOM     39  C   UNL A   1      39.227  28.265  27.827  1.00  0.00     0.029 A 
ATOM     40  N   UNL A   1      40.482  28.342  29.678  1.00  0.00    -0.354 N 
ATOM     41  C   UNL A   1      39.393  30.865  33.004  1.00  0.00     0.074 A 
ATOM     42  C   UNL A   1      38.188  31.614  32.717  1.00  0.00     0.031 C 
ATOM     43  C   UNL A   1      40.251  27.409  27.661  1.00  0.00     0.029 A 
ATOM     44  C   UNL A   1      41.112  27.455  28.842  1.00  0.00     0.049 A 
ATOM     45  H   UNL A   1      40.811  28.558  30.582  1.00  0.00     0.167 HD
ATOM     46  C   UNL A   1      40.066  30.925  34.178  1.00  0.00     0.037 A 
ATOM     47  C   UNL A   1      42.261  26.771  29.006  1.00  0.00     0.037 A 
ATOM     48  C   UNL A   1      41.263  30.180  34.469  1.00  0.00     0.049 A 
ATOM     49  C   UNL A   1      43.028  26.906  30.295  1.00  0.00     0.074 A 
ATOM     50  C   UNL A   1      42.010  30.167  35.634  1.00  0.00     0.029 A 
ATOM     51  N   UNL A   1      41.891  29.319  33.582  1.00  0.00    -0.354 N 
ATOM     52  N   UNL A   1      42.741  27.612  31.362  1.00  0.00    -0.248 NA
ATOM     53  C   UNL A   1      44.283  26.144  30.403  1.00  0.00     0.031 C 
ATOM     54  C   UNL A   1      43.115  29.331  35.437  1.00  0.00     0.029 A 
ATOM     55  C   UNL A   1      43.030  28.787  34.165  1.00  0.00     0.049 A 
ATOM     56  H   UNL A   1      41.574  29.116  32.672  1.00  0.00     0.167 HD
ATOM     57  C   UNL A   1      43.757  27.359  32.275  1.00  0.00     0.074 A 
ATOM     58  C   UNL A   1      44.665  26.426  31.641  1.00  0.00     0.031 C 
ATOM     59  C   UNL A   1      43.921  27.854  33.526  1.00  0.00     0.037 A 
BRANCH  46  60
ATOM     60  C   UNL A   1      39.533  31.847  35.236  1.00  0.00     0.064 A 
ATOM     61  C   UNL A   1      39.874  33.207  35.265  1.00  0.00     0.173 A 
ATOM     62  C   UNL A   1      38.645  31.370  36.211  1.00  0.00     0.173 A 
ATOM     63  F   UNL A   1      40.731  33.708  34.362  1.00  0.00    -0.203 F 
ATOM     64  C   UNL A   1      39.360  34.053  36.245  1.00  0.00     0.198 A 
ATOM     65  C   UNL A   1      38.113  32.223  37.174  1.00  0.00     0.198 A 
ATOM     66  F   UNL A   1      38.286  30.078  36.225  1.00  0.00    -0.203 F 
ATOM     67  F   UNL A   1      39.731  35.340  36.279  1.00  0.00    -0.200 F 
ATOM     68  C   UNL A   1      38.475  33.561  37.194  1.00  0.00     0.200 A 
ATOM     69  F   UNL A   1      37.250  31.750  38.083  1.00  0.00    -0.200 F 
ATOM     70  F   UNL A   1      37.977  34.377  38.133  1.00  0.00    -0.200 F 
ENDBRANCH  46  60
BRANCH  47  71
ATOM     71  C   UNL A   1      42.764  25.898  27.914  1.00  0.00     0.064 A 
ATOM     72  C   UNL A   1      42.388  24.550  27.830  1.00  0.00     0.173 A 
ATOM     73  C   UNL A   1      43.648  26.391  26.944  1.00  0.00     0.173 A 
ATOM     74  F   UNL A   1      41.566  24.026  28.751  1.00  0.00    -0.203 F 
ATOM     75  C   UNL A   1      42.890  23.724  26.826  1.00  0.00     0.198 A 
ATOM     76  C   UNL A   1      44.129  25.572  25.924  1.00  0.00     0.198 A 
ATOM     77  F   UNL A   1      44.042  27.672  26.983  1.00  0.00    -0.203 F 
ATOM     78  F   UNL A   1      42.551  22.429  26.796  1.00  0.00    -0.200 F 
ATOM     79  C   UNL A   1      43.756  24.237  25.872  1.00  0.00     0.200 A 
ATOM     80  F   UNL A   1      44.959  26.074  25.000  1.00  0.00    -0.200 F 
ATOM     81  F   UNL A   1      44.239  23.443  24.906  1.00  0.00    -0.200 F 
ENDBRANCH  47  71
BRANCH  59  82
ATOM     82  C   UNL A   1      45.108  27.373  34.310  1.00  0.00     0.064 A 
ATOM     83  C   UNL A   1      46.327  28.065  34.298  1.00  0.00     0.173 A 
ATOM     84  C   UNL A   1      45.009  26.230  35.118  1.00  0.00     0.173 A 
ATOM     85  F   UNL A   1      46.476  29.156  33.531  1.00  0.00    -0.203 F 
ATOM     86  C   UNL A   1      47.411  27.618  35.049  1.00  0.00     0.198 A 
ATOM     87  C   UNL A   1      46.086  25.800  35.889  1.00  0.00     0.198 A 
ATOM     88  F   UNL A   1      43.862  25.536  35.170  1.00  0.00    -0.203 F 
ATOM     89  F   UNL A   1      48.580  28.271  34.989  1.00  0.00    -0.200 F 
ATOM     90  C   UNL A   1      47.287  26.491  35.848  1.00  0.00     0.200 A 
ATOM     91  F   UNL A   1      45.961  24.720  36.670  1.00  0.00    -0.200 F 
ATOM     92  F   UNL A   1      48.330  26.066  36.577  1.00  0.00    -0.200 F 
ENDBRANCH  59  82
ENDBRANCH  33  34
ENDBRANCH  26  28
ENDBRANCH  25  26
ENDBRANCH  24  25
ENDBRANCH  23  24
ENDBRANCH  22  23
ENDBRANCH   1  22
TORSDOF 17
ENDMDL
