MODEL 1
REMARK VINA RESULT:     -11.9      0.000      0.000
REMARK SMILES C[C@H]1[C@@H](C(=O)OCCOCCOC(=O)c2ccc(-c3c4nc(c(-c5c(F)c(F)c(F)c(F)c5F)c5ccc([nH]5)c(-c5c(F)c(F)c(F)c(F)c5F)c5nc(c(-c6c(F)c(F)c(F)c(F)c6F)c6ccc3[nH]6)C=C5)C=C4)cc2)CCN1C(=O)c1cc2cc(F)ccc2s1
REMARK SMILES IDX 9 1 8 2 7 3 6 4 4 5 5 6 3 7 1 8 2 9 80 10 78 11 79 12 81 13
REMARK SMILES IDX 82 14 83 15 84 16 92 17 85 18 91 19 86 20 90 21 87 22 89 23
REMARK SMILES IDX 88 24 10 25 11 26 12 27 13 28 14 29 15 30 16 31 77 32 17 33
REMARK SMILES IDX 76 34 18 35 19 36 20 37 70 38 21 39 75 40 69 41 71 42 22 43
REMARK SMILES IDX 74 44 68 45 67 46 23 48 55 49 35 50 54 51 36 52 39 53 53 54
REMARK SMILES IDX 72 55 37 56 38 57 52 59 73 60 40 61 24 62 25 63 33 64 26 65
REMARK SMILES IDX 27 66 31 67 34 68 28 69 29 70 32 71 30 72 56 73 57 74 65 75
REMARK SMILES IDX 58 76 59 77 63 78 66 79 60 80 61 81 64 82 62 83 41 84 42 85
REMARK SMILES IDX 50 86 43 87 44 88 48 89 51 90 45 91 46 92 49 93 47 94
REMARK H PARENT 71 47 39 58
REMARK Flexibility Score: inf
ROOT
ATOM      1  O   UNL A   1      36.082  20.686  25.241  1.00  0.00    -0.374 OA
ENDROOT
BRANCH   1   2
ATOM      2  C   UNL A   1      34.751  20.223  24.995  1.00  0.00     0.202 C 
BRANCH   2   3
ATOM      3  C   UNL A   1      33.699  20.756  25.969  1.00  0.00     0.261 C 
BRANCH   3   4
ATOM      4  O   UNL A   1      34.147  22.015  26.510  1.00  0.00    -0.463 OA
BRANCH   4   5
ATOM      5  C   UNL A   1      33.179  22.900  26.820  1.00  0.00     0.311 C 
ATOM      6  O   UNL A   1      32.410  22.771  27.766  1.00  0.00    -0.252 OA
BRANCH   5   7
ATOM      7  C   UNL A   1      33.182  24.156  25.969  1.00  0.00     0.123 C 
ATOM      8  C   UNL A   1      31.418  23.207  24.257  1.00  0.00     0.032 C 
ATOM      9  C   UNL A   1      32.373  24.321  24.657  1.00  0.00     0.096 C 
ATOM     10  N   UNL A   1      33.373  24.640  23.633  1.00  0.00    -0.334 N 
ATOM     11  C   UNL A   1      34.636  24.509  25.613  1.00  0.00     0.039 C 
ATOM     12  C   UNL A   1      34.719  24.425  24.108  1.00  0.00     0.121 C 
BRANCH  10  13
ATOM     13  C   UNL A   1      33.193  25.505  22.565  1.00  0.00     0.264 C 
ATOM     14  O   UNL A   1      33.275  25.092  21.407  1.00  0.00    -0.268 OA
BRANCH  13  15
ATOM     15  C   UNL A   1      32.790  26.873  22.806  1.00  0.00     0.093 A 
ATOM     16  C   UNL A   1      31.610  27.284  23.399  1.00  0.00     0.034 A 
ATOM     17  S   UNL A   1      34.027  28.018  23.144  1.00  0.00    -0.130 S 
ATOM     18  C   UNL A   1      31.934  27.951  24.638  1.00  0.00    -0.004 A 
ATOM     19  C   UNL A   1      33.277  28.348  24.668  1.00  0.00     0.035 A 
ATOM     20  C   UNL A   1      31.160  28.116  25.810  1.00  0.00     0.048 A 
ATOM     21  C   UNL A   1      33.874  28.881  25.826  1.00  0.00     0.022 A 
ATOM     22  C   UNL A   1      31.776  28.568  26.975  1.00  0.00     0.123 A 
ATOM     23  C   UNL A   1      33.112  28.938  26.994  1.00  0.00     0.041 A 
ATOM     24  F   UNL A   1      31.072  28.601  28.114  1.00  0.00    -0.207 F 
ENDBRANCH  13  15
ENDBRANCH  10  13
ENDBRANCH   5   7
ENDBRANCH   4   5
ENDBRANCH   3   4
ENDBRANCH   2   3
ENDBRANCH   1   2
BRANCH   1  25
ATOM     25  C   UNL A   1      37.140  19.994  24.578  1.00  0.00     0.202 C 
BRANCH  25  26
ATOM     26  C   UNL A   1      38.404  19.763  25.411  1.00  0.00     0.261 C 
BRANCH  26  27
ATOM     27  O   UNL A   1      39.185  20.963  25.552  1.00  0.00    -0.460 OA
BRANCH  27  28
ATOM     28  C   UNL A   1      40.246  20.842  26.377  1.00  0.00     0.338 C 
ATOM     29  O   UNL A   1      40.997  19.875  26.483  1.00  0.00    -0.246 OA
BRANCH  28  30
ATOM     30  C   UNL A   1      40.513  22.109  27.081  1.00  0.00     0.060 A 
ATOM     31  C   UNL A   1      39.837  23.243  26.617  1.00  0.00     0.016 A 
ATOM     32  C   UNL A   1      41.466  22.217  28.098  1.00  0.00     0.016 A 
ATOM     33  C   UNL A   1      40.170  24.502  27.107  1.00  0.00     0.010 A 
ATOM     34  C   UNL A   1      41.803  23.487  28.589  1.00  0.00     0.010 A 
ATOM     35  C   UNL A   1      41.192  24.636  28.055  1.00  0.00    -0.014 A 
BRANCH  35  36
ATOM     36  C   UNL A   1      41.727  25.994  28.321  1.00  0.00     0.031 A 
ATOM     37  C   UNL A   1      43.081  26.360  27.775  1.00  0.00     0.074 A 
ATOM     38  C   UNL A   1      40.979  26.919  28.946  1.00  0.00     0.049 A 
ATOM     39  N   UNL A   1      43.697  27.516  27.783  1.00  0.00    -0.248 NA
ATOM     40  C   UNL A   1      43.841  25.279  27.129  1.00  0.00     0.031 C 
ATOM     41  C   UNL A   1      39.643  26.694  29.494  1.00  0.00     0.029 A 
ATOM     42  N   UNL A   1      41.234  28.241  29.209  1.00  0.00    -0.354 N 
ATOM     43  C   UNL A   1      44.907  27.301  27.137  1.00  0.00     0.074 A 
ATOM     44  C   UNL A   1      44.960  25.899  26.786  1.00  0.00     0.031 C 
ATOM     45  C   UNL A   1      39.191  27.844  30.024  1.00  0.00     0.029 A 
ATOM     46  C   UNL A   1      40.209  28.881  29.859  1.00  0.00     0.049 A 
ATOM     47  H   UNL A   1      42.074  28.689  28.955  1.00  0.00     0.167 HD
ATOM     48  C   UNL A   1      45.881  28.196  26.844  1.00  0.00     0.037 A 
ATOM     49  C   UNL A   1      40.105  30.160  30.268  1.00  0.00     0.037 A 
ATOM     50  C   UNL A   1      45.831  29.592  27.190  1.00  0.00     0.049 A 
ATOM     51  C   UNL A   1      41.220  31.128  29.968  1.00  0.00     0.074 A 
ATOM     52  C   UNL A   1      46.763  30.581  26.930  1.00  0.00     0.029 A 
ATOM     53  N   UNL A   1      44.790  30.194  27.880  1.00  0.00    -0.354 N 
ATOM     54  N   UNL A   1      42.342  30.924  29.321  1.00  0.00    -0.248 NA
ATOM     55  C   UNL A   1      41.045  32.507  30.443  1.00  0.00     0.031 C 
ATOM     56  C   UNL A   1      46.303  31.775  27.497  1.00  0.00     0.029 A 
ATOM     57  C   UNL A   1      45.064  31.539  28.070  1.00  0.00     0.049 A 
ATOM     58  H   UNL A   1      43.975  29.734  28.187  1.00  0.00     0.167 HD
ATOM     59  C   UNL A   1      42.992  32.151  29.288  1.00  0.00     0.074 A 
ATOM     60  C   UNL A   1      42.132  33.098  29.966  1.00  0.00     0.031 C 
ATOM     61  C   UNL A   1      44.193  32.467  28.744  1.00  0.00     0.037 A 
BRANCH  48  62
ATOM     62  C   UNL A   1      47.093  27.685  26.124  1.00  0.00     0.064 A 
ATOM     63  C   UNL A   1      47.141  27.617  24.723  1.00  0.00     0.173 A 
ATOM     64  C   UNL A   1      48.228  27.280  26.840  1.00  0.00     0.173 A 
ATOM     65  F   UNL A   1      46.074  27.978  23.993  1.00  0.00    -0.203 F 
ATOM     66  C   UNL A   1      48.272  27.139  24.067  1.00  0.00     0.198 A 
ATOM     67  C   UNL A   1      49.367  26.827  26.181  1.00  0.00     0.198 A 
ATOM     68  F   UNL A   1      48.234  27.327  28.182  1.00  0.00    -0.203 F 
ATOM     69  F   UNL A   1      48.280  27.042  22.731  1.00  0.00    -0.200 F 
ATOM     70  C   UNL A   1      49.386  26.751  24.797  1.00  0.00     0.200 A 
ATOM     71  F   UNL A   1      50.446  26.459  26.886  1.00  0.00    -0.200 F 
ATOM     72  F   UNL A   1      50.477  26.294  24.164  1.00  0.00    -0.200 F 
ENDBRANCH  48  62
BRANCH  49  73
ATOM     73  C   UNL A   1      38.889  30.608  30.994  1.00  0.00     0.064 A 
ATOM     74  C   UNL A   1      37.769  31.091  30.305  1.00  0.00     0.173 A 
ATOM     75  C   UNL A   1      38.831  30.577  32.395  1.00  0.00     0.173 A 
ATOM     76  F   UNL A   1      37.786  31.163  28.966  1.00  0.00    -0.203 F 
ATOM     77  C   UNL A   1      36.642  31.543  30.989  1.00  0.00     0.198 A 
ATOM     78  C   UNL A   1      37.695  31.006  33.078  1.00  0.00     0.198 A 
ATOM     79  F   UNL A   1      39.878  30.124  33.101  1.00  0.00    -0.203 F 
ATOM     80  F   UNL A   1      35.602  32.041  30.308  1.00  0.00    -0.200 F 
ATOM     81  C   UNL A   1      36.604  31.495  32.375  1.00  0.00     0.200 A 
ATOM     82  F   UNL A   1      37.658  30.948  34.416  1.00  0.00    -0.200 F 
ATOM     83  F   UNL A   1      35.520  31.927  33.032  1.00  0.00    -0.200 F 
ENDBRANCH  49  73
BRANCH  61  84
ATOM     84  C   UNL A   1      44.633  33.900  28.833  1.00  0.00     0.064 A 
ATOM     85  C   UNL A   1      44.238  34.850  27.881  1.00  0.00     0.173 A 
ATOM     86  C   UNL A   1      45.434  34.331  29.901  1.00  0.00     0.173 A 
ATOM     87  F   UNL A   1      43.484  34.483  26.835  1.00  0.00    -0.203 F 
ATOM     88  C   UNL A   1      44.653  36.176  27.980  1.00  0.00     0.198 A 
ATOM     89  C   UNL A   1      45.825  35.663  30.011  1.00  0.00     0.198 A 
ATOM     90  F   UNL A   1      45.833  33.462  30.843  1.00  0.00    -0.203 F 
ATOM     91  F   UNL A   1      44.305  37.057  27.032  1.00  0.00    -0.200 F 
ATOM     92  C   UNL A   1      45.441  36.582  29.046  1.00  0.00     0.200 A 
ATOM     93  F   UNL A   1      46.577  36.056  31.048  1.00  0.00    -0.200 F 
ATOM     94  F   UNL A   1      45.840  37.858  29.139  1.00  0.00    -0.200 F 
ENDBRANCH  61  84
ENDBRANCH  35  36
ENDBRANCH  28  30
ENDBRANCH  27  28
ENDBRANCH  26  27
ENDBRANCH  25  26
ENDBRANCH   1  25
TORSDOF 16
ENDMDL
MODEL 2
REMARK VINA RESULT:     -11.9      4.413      9.959
REMARK SMILES C[C@H]1[C@@H](C(=O)OCCOCCOC(=O)c2ccc(-c3c4nc(c(-c5c(F)c(F)c(F)c(F)c5F)c5ccc([nH]5)c(-c5c(F)c(F)c(F)c(F)c5F)c5nc(c(-c6c(F)c(F)c(F)c(F)c6F)c6ccc3[nH]6)C=C5)C=C4)cc2)CCN1C(=O)c1cc2cc(F)ccc2s1
REMARK SMILES IDX 9 1 8 2 7 3 6 4 4 5 5 6 3 7 1 8 2 9 80 10 78 11 79 12 81 13
REMARK SMILES IDX 82 14 83 15 84 16 92 17 85 18 91 19 86 20 90 21 87 22 89 23
REMARK SMILES IDX 88 24 10 25 11 26 12 27 13 28 14 29 15 30 16 31 77 32 17 33
REMARK SMILES IDX 76 34 18 35 19 36 20 37 70 38 21 39 75 40 69 41 71 42 22 43
REMARK SMILES IDX 74 44 68 45 67 46 23 48 55 49 35 50 54 51 36 52 39 53 53 54
REMARK SMILES IDX 72 55 37 56 38 57 52 59 73 60 40 61 24 62 25 63 33 64 26 65
REMARK SMILES IDX 27 66 31 67 34 68 28 69 29 70 32 71 30 72 56 73 57 74 65 75
REMARK SMILES IDX 58 76 59 77 63 78 66 79 60 80 61 81 64 82 62 83 41 84 42 85
REMARK SMILES IDX 50 86 43 87 44 88 48 89 51 90 45 91 46 92 49 93 47 94
REMARK H PARENT 71 47 39 58
REMARK Flexibility Score: inf
ROOT
ATOM      1  O   UNL A   1      31.393  28.983  25.738  1.00  0.00    -0.374 OA
ENDROOT
BRANCH   1   2
ATOM      2  C   UNL A   1      31.019  29.701  24.559  1.00  0.00     0.202 C 
BRANCH   2   3
ATOM      3  C   UNL A   1      30.756  28.825  23.333  1.00  0.00     0.261 C 
BRANCH   3   4
ATOM      4  O   UNL A   1      31.925  28.026  23.061  1.00  0.00    -0.463 OA
BRANCH   4   5
ATOM      5  C   UNL A   1      31.704  26.859  22.422  1.00  0.00     0.311 C 
ATOM      6  O   UNL A   1      31.347  26.776  21.252  1.00  0.00    -0.252 OA
BRANCH   5   7
ATOM      7  C   UNL A   1      32.050  25.625  23.234  1.00  0.00     0.123 C 
ATOM      8  C   UNL A   1      29.632  25.408  24.256  1.00  0.00     0.032 C 
ATOM      9  C   UNL A   1      31.070  24.917  24.203  1.00  0.00     0.096 C 
ATOM     10  N   UNL A   1      31.748  24.929  25.504  1.00  0.00    -0.334 N 
ATOM     11  C   UNL A   1      33.318  25.912  24.055  1.00  0.00     0.039 C 
ATOM     12  C   UNL A   1      32.903  25.795  25.502  1.00  0.00     0.121 C 
BRANCH  10  13
ATOM     13  C   UNL A   1      31.693  23.923  26.456  1.00  0.00     0.264 C 
ATOM     14  O   UNL A   1      30.790  23.906  27.294  1.00  0.00    -0.268 OA
BRANCH  13  15
ATOM     15  C   UNL A   1      32.628  22.822  26.396  1.00  0.00     0.093 A 
ATOM     16  C   UNL A   1      32.960  22.093  25.268  1.00  0.00     0.034 A 
ATOM     17  S   UNL A   1      33.975  22.863  27.465  1.00  0.00    -0.130 S 
ATOM     18  C   UNL A   1      34.358  22.316  24.981  1.00  0.00    -0.004 A 
ATOM     19  C   UNL A   1      35.035  22.821  26.098  1.00  0.00     0.035 A 
ATOM     20  C   UNL A   1      35.058  22.232  23.755  1.00  0.00     0.048 A 
ATOM     21  C   UNL A   1      36.369  23.262  26.029  1.00  0.00     0.022 A 
ATOM     22  C   UNL A   1      36.351  22.744  23.672  1.00  0.00     0.123 A 
ATOM     23  C   UNL A   1      37.000  23.259  24.783  1.00  0.00     0.041 A 
ATOM     24  F   UNL A   1      36.963  22.780  22.481  1.00  0.00    -0.207 F 
ENDBRANCH  13  15
ENDBRANCH  10  13
ENDBRANCH   5   7
ENDBRANCH   4   5
ENDBRANCH   3   4
ENDBRANCH   2   3
ENDBRANCH   1   2
BRANCH   1  25
ATOM     25  C   UNL A   1      32.369  29.591  26.583  1.00  0.00     0.202 C 
BRANCH  25  26
ATOM     26  C   UNL A   1      32.276  31.114  26.712  1.00  0.00     0.261 C 
BRANCH  26  27
ATOM     27  O   UNL A   1      32.844  31.588  27.945  1.00  0.00    -0.460 OA
BRANCH  27  28
ATOM     28  C   UNL A   1      33.739  32.588  27.798  1.00  0.00     0.338 C 
ATOM     29  O   UNL A   1      33.497  33.777  27.603  1.00  0.00    -0.246 OA
BRANCH  28  30
ATOM     30  C   UNL A   1      35.110  32.108  28.044  1.00  0.00     0.060 A 
ATOM     31  C   UNL A   1      35.280  30.726  28.182  1.00  0.00     0.016 A 
ATOM     32  C   UNL A   1      36.187  32.978  28.236  1.00  0.00     0.016 A 
ATOM     33  C   UNL A   1      36.505  30.212  28.595  1.00  0.00     0.010 A 
ATOM     34  C   UNL A   1      37.421  32.459  28.655  1.00  0.00     0.010 A 
ATOM     35  C   UNL A   1      37.566  31.079  28.886  1.00  0.00    -0.014 A 
BRANCH  35  36
ATOM     36  C   UNL A   1      38.739  30.532  29.611  1.00  0.00     0.031 A 
ATOM     37  C   UNL A   1      38.944  30.913  31.052  1.00  0.00     0.074 A 
ATOM     38  C   UNL A   1      39.549  29.631  29.029  1.00  0.00     0.049 A 
ATOM     39  N   UNL A   1      39.827  30.471  31.912  1.00  0.00    -0.248 NA
ATOM     40  C   UNL A   1      38.027  31.926  31.599  1.00  0.00     0.031 C 
ATOM     41  C   UNL A   1      39.436  29.162  27.650  1.00  0.00     0.029 A 
ATOM     42  N   UNL A   1      40.618  28.937  29.536  1.00  0.00    -0.354 N 
ATOM     43  C   UNL A   1      39.564  31.143  33.099  1.00  0.00     0.074 A 
ATOM     44  C   UNL A   1      38.470  32.052  32.841  1.00  0.00     0.031 C 
ATOM     45  C   UNL A   1      40.396  28.249  27.422  1.00  0.00     0.029 A 
ATOM     46  C   UNL A   1      41.195  28.078  28.635  1.00  0.00     0.049 A 
ATOM     47  H   UNL A   1      40.942  29.045  30.460  1.00  0.00     0.167 HD
ATOM     48  C   UNL A   1      40.169  31.002  34.303  1.00  0.00     0.037 A 
ATOM     49  C   UNL A   1      42.243  27.245  28.778  1.00  0.00     0.037 A 
ATOM     50  C   UNL A   1      41.257  30.097  34.564  1.00  0.00     0.049 A 
ATOM     51  C   UNL A   1      42.926  27.136  30.117  1.00  0.00     0.074 A 
ATOM     52  C   UNL A   1      41.931  29.875  35.752  1.00  0.00     0.029 A 
ATOM     53  N   UNL A   1      41.835  29.268  33.615  1.00  0.00    -0.354 N 
ATOM     54  N   UNL A   1      42.645  27.746  31.243  1.00  0.00    -0.248 NA
ATOM     55  C   UNL A   1      44.064  26.211  30.205  1.00  0.00     0.031 C 
ATOM     56  C   UNL A   1      42.943  28.939  35.512  1.00  0.00     0.029 A 
ATOM     57  C   UNL A   1      42.870  28.545  34.186  1.00  0.00     0.049 A 
ATOM     58  H   UNL A   1      41.551  29.202  32.674  1.00  0.00     0.167 HD
ATOM     59  C   UNL A   1      43.550  27.260  32.177  1.00  0.00     0.074 A 
ATOM     60  C   UNL A   1      44.380  26.292  31.490  1.00  0.00     0.031 C 
ATOM     61  C   UNL A   1      43.682  27.583  33.487  1.00  0.00     0.037 A 
BRANCH  48  62
ATOM     62  C   UNL A   1      39.672  31.861  35.428  1.00  0.00     0.064 A 
ATOM     63  C   UNL A   1      38.681  31.410  36.313  1.00  0.00     0.173 A 
ATOM     64  C   UNL A   1      40.208  33.139  35.638  1.00  0.00     0.173 A 
ATOM     65  F   UNL A   1      38.125  30.200  36.145  1.00  0.00    -0.203 F 
ATOM     66  C   UNL A   1      38.229  32.217  37.353  1.00  0.00     0.198 A 
ATOM     67  C   UNL A   1      39.773  33.934  36.694  1.00  0.00     0.198 A 
ATOM     68  F   UNL A   1      41.160  33.616  34.820  1.00  0.00    -0.203 F 
ATOM     69  F   UNL A   1      37.251  31.784  38.161  1.00  0.00    -0.200 F 
ATOM     70  C   UNL A   1      38.779  33.476  37.546  1.00  0.00     0.200 A 
ATOM     71  F   UNL A   1      40.310  35.147  36.884  1.00  0.00    -0.200 F 
ATOM     72  F   UNL A   1      38.346  34.252  38.550  1.00  0.00    -0.200 F 
ENDBRANCH  48  62
BRANCH  49  73
ATOM     73  C   UNL A   1      42.704  26.431  27.624  1.00  0.00     0.064 A 
ATOM     74  C   UNL A   1      42.172  25.159  27.374  1.00  0.00     0.173 A 
ATOM     75  C   UNL A   1      43.701  26.904  26.758  1.00  0.00     0.173 A 
ATOM     76  F   UNL A   1      41.234  24.654  28.189  1.00  0.00    -0.203 F 
ATOM     77  C   UNL A   1      42.630  24.384  26.311  1.00  0.00     0.198 A 
ATOM     78  C   UNL A   1      44.141  26.138  25.682  1.00  0.00     0.198 A 
ATOM     79  F   UNL A   1      44.243  28.115  26.956  1.00  0.00    -0.203 F 
ATOM     80  F   UNL A   1      42.136  23.153  26.120  1.00  0.00    -0.200 F 
ATOM     81  C   UNL A   1      43.611  24.875  25.463  1.00  0.00     0.200 A 
ATOM     82  F   UNL A   1      45.082  26.622  24.858  1.00  0.00    -0.200 F 
ATOM     83  F   UNL A   1      44.050  24.131  24.440  1.00  0.00    -0.200 F 
ENDBRANCH  49  73
BRANCH  61  84
ATOM     84  C   UNL A   1      44.743  26.864  34.269  1.00  0.00     0.064 A 
ATOM     85  C   UNL A   1      46.038  27.385  34.402  1.00  0.00     0.173 A 
ATOM     86  C   UNL A   1      44.450  25.655  34.917  1.00  0.00     0.173 A 
ATOM     87  F   UNL A   1      46.369  28.532  33.790  1.00  0.00    -0.203 F 
ATOM     88  C   UNL A   1      47.010  26.707  35.132  1.00  0.00     0.198 A 
ATOM     89  C   UNL A   1      45.417  24.992  35.669  1.00  0.00     0.198 A 
ATOM     90  F   UNL A   1      43.224  25.118  34.827  1.00  0.00    -0.203 F 
ATOM     91  F   UNL A   1      48.255  27.198  35.205  1.00  0.00    -0.200 F 
ATOM     92  C   UNL A   1      46.698  25.514  35.769  1.00  0.00     0.200 A 
ATOM     93  F   UNL A   1      45.111  23.847  36.292  1.00  0.00    -0.200 F 
ATOM     94  F   UNL A   1      47.635  24.863  36.471  1.00  0.00    -0.200 F 
ENDBRANCH  61  84
ENDBRANCH  35  36
ENDBRANCH  28  30
ENDBRANCH  27  28
ENDBRANCH  26  27
ENDBRANCH  25  26
ENDBRANCH   1  25
TORSDOF 16
ENDMDL
MODEL 3
REMARK VINA RESULT:     -11.8      1.800      2.799
REMARK SMILES C[C@H]1[C@@H](C(=O)OCCOCCOC(=O)c2ccc(-c3c4nc(c(-c5c(F)c(F)c(F)c(F)c5F)c5ccc([nH]5)c(-c5c(F)c(F)c(F)c(F)c5F)c5nc(c(-c6c(F)c(F)c(F)c(F)c6F)c6ccc3[nH]6)C=C5)C=C4)cc2)CCN1C(=O)c1cc2cc(F)ccc2s1
REMARK SMILES IDX 9 1 8 2 7 3 6 4 4 5 5 6 3 7 1 8 2 9 80 10 78 11 79 12 81 13
REMARK SMILES IDX 82 14 83 15 84 16 92 17 85 18 91 19 86 20 90 21 87 22 89 23
REMARK SMILES IDX 88 24 10 25 11 26 12 27 13 28 14 29 15 30 16 31 77 32 17 33
REMARK SMILES IDX 76 34 18 35 19 36 20 37 70 38 21 39 75 40 69 41 71 42 22 43
REMARK SMILES IDX 74 44 68 45 67 46 23 48 55 49 35 50 54 51 36 52 39 53 53 54
REMARK SMILES IDX 72 55 37 56 38 57 52 59 73 60 40 61 24 62 25 63 33 64 26 65
REMARK SMILES IDX 27 66 31 67 34 68 28 69 29 70 32 71 30 72 56 73 57 74 65 75
REMARK SMILES IDX 58 76 59 77 63 78 66 79 60 80 61 81 64 82 62 83 41 84 42 85
REMARK SMILES IDX 50 86 43 87 44 88 48 89 51 90 45 91 46 92 49 93 47 94
REMARK H PARENT 71 47 39 58
REMARK Flexibility Score: inf
ROOT
ATOM      1  O   UNL A   1      38.036  22.248  25.462  1.00  0.00    -0.374 OA
ENDROOT
BRANCH   1   2
ATOM      2  C   UNL A   1      37.311  21.426  24.540  1.00  0.00     0.202 C 
BRANCH   2   3
ATOM      3  C   UNL A   1      35.978  20.897  25.068  1.00  0.00     0.261 C 
BRANCH   3   4
ATOM      4  O   UNL A   1      35.576  21.678  26.212  1.00  0.00    -0.463 OA
BRANCH   4   5
ATOM      5  C   UNL A   1      34.257  21.671  26.495  1.00  0.00     0.311 C 
ATOM      6  O   UNL A   1      33.797  21.457  27.611  1.00  0.00    -0.252 OA
BRANCH   5   7
ATOM      7  C   UNL A   1      33.365  22.072  25.335  1.00  0.00     0.123 C 
ATOM      8  C   UNL A   1      33.905  24.639  25.584  1.00  0.00     0.032 C 
ATOM      9  C   UNL A   1      33.115  23.537  24.896  1.00  0.00     0.096 C 
ATOM     10  N   UNL A   1      31.661  23.714  24.975  1.00  0.00    -0.334 N 
ATOM     11  C   UNL A   1      31.973  21.453  25.543  1.00  0.00     0.039 C 
ATOM     12  C   UNL A   1      31.022  22.619  25.665  1.00  0.00     0.121 C 
BRANCH  10  13
ATOM     13  C   UNL A   1      30.888  24.476  24.114  1.00  0.00     0.264 C 
ATOM     14  O   UNL A   1      30.360  23.960  23.127  1.00  0.00    -0.268 OA
BRANCH  13  15
ATOM     15  C   UNL A   1      30.598  25.856  24.435  1.00  0.00     0.093 A 
ATOM     16  C   UNL A   1      30.518  26.399  25.705  1.00  0.00     0.034 A 
ATOM     17  S   UNL A   1      31.141  27.060  23.334  1.00  0.00    -0.130 S 
ATOM     18  C   UNL A   1      31.577  27.370  25.851  1.00  0.00    -0.004 A 
ATOM     19  C   UNL A   1      32.075  27.772  24.605  1.00  0.00     0.035 A 
ATOM     20  C   UNL A   1      32.233  27.831  27.015  1.00  0.00     0.048 A 
ATOM     21  C   UNL A   1      33.211  28.594  24.483  1.00  0.00     0.022 A 
ATOM     22  C   UNL A   1      33.402  28.578  26.888  1.00  0.00     0.123 A 
ATOM     23  C   UNL A   1      33.895  28.951  25.647  1.00  0.00     0.041 A 
ATOM     24  F   UNL A   1      34.091  28.903  27.990  1.00  0.00    -0.207 F 
ENDBRANCH  13  15
ENDBRANCH  10  13
ENDBRANCH   5   7
ENDBRANCH   4   5
ENDBRANCH   3   4
ENDBRANCH   2   3
ENDBRANCH   1   2
BRANCH   1  25
ATOM     25  C   UNL A   1      39.148  21.649  26.124  1.00  0.00     0.202 C 
BRANCH  25  26
ATOM     26  C   UNL A   1      39.554  20.263  25.615  1.00  0.00     0.261 C 
BRANCH  26  27
ATOM     27  O   UNL A   1      40.420  19.580  26.538  1.00  0.00    -0.460 OA
BRANCH  27  28
ATOM     28  C   UNL A   1      41.699  19.464  26.120  1.00  0.00     0.338 C 
ATOM     29  O   UNL A   1      42.182  18.550  25.456  1.00  0.00    -0.246 OA
BRANCH  28  30
ATOM     30  C   UNL A   1      42.469  20.679  26.440  1.00  0.00     0.060 A 
ATOM     31  C   UNL A   1      42.511  21.065  27.784  1.00  0.00     0.016 A 
ATOM     32  C   UNL A   1      43.053  21.480  25.454  1.00  0.00     0.016 A 
ATOM     33  C   UNL A   1      43.060  22.291  28.141  1.00  0.00     0.010 A 
ATOM     34  C   UNL A   1      43.604  22.718  25.814  1.00  0.00     0.010 A 
ATOM     35  C   UNL A   1      43.561  23.148  27.152  1.00  0.00    -0.014 A 
BRANCH  35  36
ATOM     36  C   UNL A   1      43.849  24.555  27.525  1.00  0.00     0.031 A 
ATOM     37  C   UNL A   1      45.257  25.069  27.389  1.00  0.00     0.074 A 
ATOM     38  C   UNL A   1      42.857  25.391  27.880  1.00  0.00     0.049 A 
ATOM     39  N   UNL A   1      45.718  26.284  27.545  1.00  0.00    -0.248 NA
ATOM     40  C   UNL A   1      46.282  24.079  27.022  1.00  0.00     0.031 C 
ATOM     41  C   UNL A   1      41.451  25.020  28.020  1.00  0.00     0.029 A 
ATOM     42  N   UNL A   1      42.884  26.731  28.170  1.00  0.00    -0.354 N 
ATOM     43  C   UNL A   1      47.081  26.205  27.286  1.00  0.00     0.074 A 
ATOM     44  C   UNL A   1      47.380  24.819  27.004  1.00  0.00     0.031 C 
ATOM     45  C   UNL A   1      40.746  26.111  28.364  1.00  0.00     0.029 A 
ATOM     46  C   UNL A   1      41.652  27.253  28.475  1.00  0.00     0.049 A 
ATOM     47  H   UNL A   1      43.709  27.269  28.160  1.00  0.00     0.167 HD
ATOM     48  C   UNL A   1      47.998  27.202  27.266  1.00  0.00     0.037 A 
ATOM     49  C   UNL A   1      41.299  28.511  28.801  1.00  0.00     0.037 A 
ATOM     50  C   UNL A   1      47.702  28.582  27.544  1.00  0.00     0.049 A 
ATOM     51  C   UNL A   1      42.345  29.596  28.813  1.00  0.00     0.074 A 
ATOM     52  C   UNL A   1      48.560  29.668  27.541  1.00  0.00     0.029 A 
ATOM     53  N   UNL A   1      46.447  29.065  27.884  1.00  0.00    -0.354 N 
ATOM     54  N   UNL A   1      43.622  29.518  28.528  1.00  0.00    -0.248 NA
ATOM     55  C   UNL A   1      41.894  30.946  29.179  1.00  0.00     0.031 C 
ATOM     56  C   UNL A   1      47.831  30.802  27.916  1.00  0.00     0.029 A 
ATOM     57  C   UNL A   1      46.511  30.430  28.109  1.00  0.00     0.049 A 
ATOM     58  H   UNL A   1      45.631  28.518  27.953  1.00  0.00     0.167 HD
ATOM     59  C   UNL A   1      44.121  30.808  28.652  1.00  0.00     0.074 A 
ATOM     60  C   UNL A   1      43.005  31.653  29.024  1.00  0.00     0.031 C 
ATOM     61  C   UNL A   1      45.388  31.255  28.474  1.00  0.00     0.037 A 
BRANCH  48  62
ATOM     62  C   UNL A   1      49.414  26.828  26.945  1.00  0.00     0.064 A 
ATOM     63  C   UNL A   1      49.878  26.778  25.622  1.00  0.00     0.173 A 
ATOM     64  C   UNL A   1      50.324  26.540  27.972  1.00  0.00     0.173 A 
ATOM     65  F   UNL A   1      49.042  27.029  24.603  1.00  0.00    -0.203 F 
ATOM     66  C   UNL A   1      51.195  26.429  25.338  1.00  0.00     0.198 A 
ATOM     67  C   UNL A   1      51.647  26.216  27.686  1.00  0.00     0.198 A 
ATOM     68  F   UNL A   1      49.930  26.576  29.255  1.00  0.00    -0.203 F 
ATOM     69  F   UNL A   1      51.606  26.345  24.065  1.00  0.00    -0.200 F 
ATOM     70  C   UNL A   1      52.080  26.154  26.371  1.00  0.00     0.200 A 
ATOM     71  F   UNL A   1      52.504  25.959  28.685  1.00  0.00    -0.200 F 
ATOM     72  F   UNL A   1      53.350  25.822  26.097  1.00  0.00    -0.200 F 
ENDBRANCH  48  62
BRANCH  49  73
ATOM     73  C   UNL A   1      39.883  28.821  29.128  1.00  0.00     0.064 A 
ATOM     74  C   UNL A   1      39.401  28.711  30.439  1.00  0.00     0.173 A 
ATOM     75  C   UNL A   1      38.981  29.217  28.130  1.00  0.00     0.173 A 
ATOM     76  F   UNL A   1      40.220  28.312  31.423  1.00  0.00    -0.203 F 
ATOM     77  C   UNL A   1      38.064  28.969  30.738  1.00  0.00     0.198 A 
ATOM     78  C   UNL A   1      37.651  29.498  28.434  1.00  0.00     0.198 A 
ATOM     79  F   UNL A   1      39.394  29.335  26.860  1.00  0.00    -0.203 F 
ATOM     80  F   UNL A   1      37.618  28.814  31.991  1.00  0.00    -0.200 F 
ATOM     81  C   UNL A   1      37.191  29.367  29.736  1.00  0.00     0.200 A 
ATOM     82  F   UNL A   1      36.814  29.893  27.465  1.00  0.00    -0.200 F 
ATOM     83  F   UNL A   1      35.907  29.617  30.023  1.00  0.00    -0.200 F 
ENDBRANCH  49  73
BRANCH  61  84
ATOM     84  C   UNL A   1      45.629  32.726  28.649  1.00  0.00     0.064 A 
ATOM     85  C   UNL A   1      45.489  33.626  27.583  1.00  0.00     0.173 A 
ATOM     86  C   UNL A   1      45.976  33.244  29.906  1.00  0.00     0.173 A 
ATOM     87  F   UNL A   1      45.173  33.177  26.359  1.00  0.00    -0.203 F 
ATOM     88  C   UNL A   1      45.715  34.989  27.762  1.00  0.00     0.198 A 
ATOM     89  C   UNL A   1      46.174  34.611  30.088  1.00  0.00     0.198 A 
ATOM     90  F   UNL A   1      46.115  32.427  30.961  1.00  0.00    -0.203 F 
ATOM     91  F   UNL A   1      45.623  35.823  26.718  1.00  0.00    -0.200 F 
ATOM     92  C   UNL A   1      46.052  35.480  29.015  1.00  0.00     0.200 A 
ATOM     93  F   UNL A   1      46.488  35.085  31.301  1.00  0.00    -0.200 F 
ATOM     94  F   UNL A   1      46.268  36.791  29.185  1.00  0.00    -0.200 F 
ENDBRANCH  61  84
ENDBRANCH  35  36
ENDBRANCH  28  30
ENDBRANCH  27  28
ENDBRANCH  26  27
ENDBRANCH  25  26
ENDBRANCH   1  25
TORSDOF 16
ENDMDL
