MODEL 1
REMARK VINA RESULT:     -12.6      0.000      0.000
REMARK SMILES Cc1nc(NC(=O)[C@H]2[C@@H]3CC[C@@H](C3)[C@@H]2C(=O)OCCOCCOC(=O)c2ccc(-c3c4nc(c(-c5c(F)c(F)c(F)c(F)c5F)c5ccc([nH]5)c(-c5c(F)c(F)c(F)c(F)c5F)c5nc(c(-c6c(F)c(F)c(F)c(F)c6F)c6ccc3[nH]6)C=C5)C=C4)cc2)sc1-c1ccccc1
REMARK SMILES IDX 19 1 18 2 17 3 15 4 16 5 14 6 8 7 9 8 10 9 13 10 12 11 11 12
REMARK SMILES IDX 6 13 5 14 7 16 4 17 1 18 2 19 3 20 90 21 89 22 91 23 92 24
REMARK SMILES IDX 96 25 93 26 95 27 94 28 20 29 21 30 22 31 23 32 24 33 25 34
REMARK SMILES IDX 26 35 27 36 88 37 28 38 87 39 29 40 30 41 31 42 81 43 32 44
REMARK SMILES IDX 86 45 80 46 82 47 33 48 85 49 79 50 78 51 34 53 66 54 46 55
REMARK SMILES IDX 65 56 47 57 50 58 64 59 83 60 48 61 49 62 63 64 84 65 51 66
REMARK SMILES IDX 35 67 36 68 44 69 37 70 38 71 42 72 45 73 39 74 40 75 43 76
REMARK SMILES IDX 41 77 67 78 68 79 76 80 69 81 70 82 74 83 77 84 71 85 72 86
REMARK SMILES IDX 75 87 73 88 52 89 53 90 61 91 54 92 55 93 59 94 62 95 56 96
REMARK SMILES IDX 57 97 60 98 58 99
REMARK H PARENT 5 15 82 52 50 63
REMARK Flexibility Score: inf
ROOT
ATOM      1  C   UNL A   1      36.210  22.583  23.836  1.00  0.00     0.202 C 
ENDROOT
BRANCH   1   2
ATOM      2  C   UNL A   1      35.189  23.624  24.289  1.00  0.00     0.261 C 
BRANCH   2   3
ATOM      3  O   UNL A   1      34.597  24.241  23.136  1.00  0.00    -0.463 OA
BRANCH   3   4
ATOM      4  C   UNL A   1      33.298  24.643  23.271  1.00  0.00     0.310 C 
ATOM      5  O   UNL A   1      32.339  24.144  22.706  1.00  0.00    -0.252 OA
BRANCH   4   6
ATOM      6  C   UNL A   1      33.239  25.724  24.331  1.00  0.00     0.115 C 
ATOM      7  C   UNL A   1      31.824  26.172  24.718  1.00  0.00     0.096 C 
ATOM      8  C   UNL A   1      31.835  27.662  24.289  1.00  0.00     0.003 C 
ATOM      9  C   UNL A   1      31.990  27.760  22.749  1.00  0.00     0.005 C 
ATOM     10  C   UNL A   1      33.217  28.098  24.766  1.00  0.00     0.009 C 
ATOM     11  C   UNL A   1      33.940  27.043  23.921  1.00  0.00     0.004 C 
ATOM     12  C   UNL A   1      33.480  27.462  22.519  1.00  0.00     0.005 C 
BRANCH   7  13
ATOM     13  C   UNL A   1      31.231  26.009  26.143  1.00  0.00     0.230 C 
ATOM     14  N   UNL A   1      31.077  24.899  26.906  1.00  0.00    -0.302 N 
ATOM     15  H   UNL A   1      30.475  25.018  27.674  1.00  0.00     0.172 HD
ATOM     16  O   UNL A   1      30.775  27.043  26.668  1.00  0.00    -0.274 OA
BRANCH  14  17
ATOM     17  C   UNL A   1      31.604  23.648  26.802  1.00  0.00     0.190 A 
ATOM     18  C   UNL A   1      34.383  21.532  27.320  1.00  0.00     0.068 C 
ATOM     19  C   UNL A   1      33.041  21.992  26.869  1.00  0.00     0.058 A 
ATOM     20  N   UNL A   1      32.548  23.108  27.512  1.00  0.00    -0.225 NA
ATOM     21  C   UNL A   1      32.269  21.534  25.805  1.00  0.00     0.059 A 
ATOM     22  S   UNL A   1      30.966  22.650  25.565  1.00  0.00    -0.096 S 
BRANCH  21  23
ATOM     23  C   UNL A   1      32.509  20.378  24.925  1.00  0.00    -0.006 A 
ATOM     24  C   UNL A   1      32.683  19.080  25.427  1.00  0.00     0.009 A 
ATOM     25  C   UNL A   1      32.396  20.536  23.534  1.00  0.00     0.009 A 
ATOM     26  C   UNL A   1      32.630  17.970  24.577  1.00  0.00     0.001 A 
ATOM     27  C   UNL A   1      32.351  19.428  22.682  1.00  0.00     0.001 A 
ATOM     28  C   UNL A   1      32.441  18.143  23.208  1.00  0.00     0.000 A 
ENDBRANCH  21  23
ENDBRANCH  14  17
ENDBRANCH   7  13
ENDBRANCH   4   6
ENDBRANCH   3   4
ENDBRANCH   2   3
ENDBRANCH   1   2
BRANCH   1  29
ATOM     29  O   UNL A   1      36.867  21.921  24.916  1.00  0.00    -0.374 OA
BRANCH  29  30
ATOM     30  C   UNL A   1      36.878  20.493  24.854  1.00  0.00     0.202 C 
BRANCH  30  31
ATOM     31  C   UNL A   1      38.226  19.872  25.222  1.00  0.00     0.261 C 
BRANCH  31  32
ATOM     32  O   UNL A   1      39.217  20.907  25.391  1.00  0.00    -0.460 OA
BRANCH  32  33
ATOM     33  C   UNL A   1      40.014  20.783  26.476  1.00  0.00     0.338 C 
ATOM     34  O   UNL A   1      40.537  19.759  26.891  1.00  0.00    -0.246 OA
BRANCH  33  35
ATOM     35  C   UNL A   1      40.347  22.118  27.021  1.00  0.00     0.060 A 
ATOM     36  C   UNL A   1      39.661  23.223  26.504  1.00  0.00     0.016 A 
ATOM     37  C   UNL A   1      41.341  22.306  27.981  1.00  0.00     0.016 A 
ATOM     38  C   UNL A   1      40.017  24.515  26.892  1.00  0.00     0.010 A 
ATOM     39  C   UNL A   1      41.695  23.601  28.378  1.00  0.00     0.010 A 
ATOM     40  C   UNL A   1      41.068  24.716  27.798  1.00  0.00    -0.014 A 
BRANCH  40  41
ATOM     41  C   UNL A   1      41.606  26.083  28.018  1.00  0.00     0.031 A 
ATOM     42  C   UNL A   1      42.972  26.428  27.487  1.00  0.00     0.074 A 
ATOM     43  C   UNL A   1      40.882  27.018  28.660  1.00  0.00     0.049 A 
ATOM     44  N   UNL A   1      43.637  27.555  27.563  1.00  0.00    -0.248 NA
ATOM     45  C   UNL A   1      43.690  25.357  26.778  1.00  0.00     0.031 C 
ATOM     46  C   UNL A   1      39.542  26.818  29.207  1.00  0.00     0.029 A 
ATOM     47  N   UNL A   1      41.179  28.325  28.964  1.00  0.00    -0.354 N 
ATOM     48  C   UNL A   1      44.845  27.326  26.918  1.00  0.00     0.074 A 
ATOM     49  C   UNL A   1      44.844  25.943  26.495  1.00  0.00     0.031 C 
ATOM     50  C   UNL A   1      39.133  27.960  29.784  1.00  0.00     0.029 A 
ATOM     51  C   UNL A   1      40.192  28.963  29.674  1.00  0.00     0.049 A 
ATOM     52  H   UNL A   1      42.019  28.763  28.697  1.00  0.00     0.167 HD
ATOM     53  C   UNL A   1      45.858  28.196  26.684  1.00  0.00     0.037 A 
ATOM     54  C   UNL A   1      40.154  30.208  30.192  1.00  0.00     0.037 A 
ATOM     55  C   UNL A   1      45.856  29.572  27.102  1.00  0.00     0.049 A 
ATOM     56  C   UNL A   1      41.322  31.138  29.977  1.00  0.00     0.074 A 
ATOM     57  C   UNL A   1      46.820  30.541  26.880  1.00  0.00     0.029 A 
ATOM     58  N   UNL A   1      44.848  30.173  27.841  1.00  0.00    -0.354 N 
ATOM     59  N   UNL A   1      42.437  30.929  29.319  1.00  0.00    -0.248 NA
ATOM     60  C   UNL A   1      41.225  32.480  30.571  1.00  0.00     0.031 C 
ATOM     61  C   UNL A   1      46.427  31.708  27.542  1.00  0.00     0.029 A 
ATOM     62  C   UNL A   1      45.183  31.490  28.113  1.00  0.00     0.049 A 
ATOM     63  H   UNL A   1      44.017  29.730  28.129  1.00  0.00     0.167 HD
ATOM     64  C   UNL A   1      43.151  32.119  29.384  1.00  0.00     0.074 A 
ATOM     65  C   UNL A   1      42.346  33.048  30.146  1.00  0.00     0.031 C 
ATOM     66  C   UNL A   1      44.363  32.414  28.855  1.00  0.00     0.037 A 
BRANCH  53  67
ATOM     67  C   UNL A   1      47.069  27.681  25.958  1.00  0.00     0.064 A 
ATOM     68  C   UNL A   1      47.169  27.726  24.559  1.00  0.00     0.173 A 
ATOM     69  C   UNL A   1      48.165  27.178  26.675  1.00  0.00     0.173 A 
ATOM     70  F   UNL A   1      46.147  28.189  23.823  1.00  0.00    -0.203 F 
ATOM     71  C   UNL A   1      48.307  27.260  23.906  1.00  0.00     0.198 A 
ATOM     72  C   UNL A   1      49.316  26.745  26.021  1.00  0.00     0.198 A 
ATOM     73  F   UNL A   1      48.127  27.118  28.015  1.00  0.00    -0.203 F 
ATOM     74  F   UNL A   1      48.358  27.265  22.566  1.00  0.00    -0.200 F 
ATOM     75  C   UNL A   1      49.382  26.777  24.636  1.00  0.00     0.200 A 
ATOM     76  F   UNL A   1      50.360  26.296  26.731  1.00  0.00    -0.200 F 
ATOM     77  F   UNL A   1      50.480  26.337  24.006  1.00  0.00    -0.200 F 
ENDBRANCH  53  67
BRANCH  54  78
ATOM     78  C   UNL A   1      38.966  30.650  30.968  1.00  0.00     0.064 A 
ATOM     79  C   UNL A   1      37.883  31.283  30.342  1.00  0.00     0.173 A 
ATOM     80  C   UNL A   1      38.893  30.459  32.356  1.00  0.00     0.173 A 
ATOM     81  F   UNL A   1      37.914  31.510  29.020  1.00  0.00    -0.203 F 
ATOM     82  C   UNL A   1      36.783  31.723  31.075  1.00  0.00     0.198 A 
ATOM     83  C   UNL A   1      37.779  30.872  33.085  1.00  0.00     0.198 A 
ATOM     84  F   UNL A   1      39.902  29.859  33.006  1.00  0.00    -0.203 F 
ATOM     85  F   UNL A   1      35.784  32.369  30.458  1.00  0.00    -0.200 F 
ATOM     86  C   UNL A   1      36.729  31.511  32.445  1.00  0.00     0.200 A 
ATOM     87  F   UNL A   1      37.726  30.651  34.405  1.00  0.00    -0.200 F 
ATOM     88  F   UNL A   1      35.668  31.931  33.149  1.00  0.00    -0.200 F 
ENDBRANCH  54  78
BRANCH  66  89
ATOM     89  C   UNL A   1      44.884  33.815  29.020  1.00  0.00     0.064 A 
ATOM     90  C   UNL A   1      45.728  34.173  30.082  1.00  0.00     0.173 A 
ATOM     91  C   UNL A   1      44.602  34.790  28.050  1.00  0.00     0.173 A 
ATOM     92  F   UNL A   1      46.018  33.283  31.043  1.00  0.00    -0.203 F 
ATOM     93  C   UNL A   1      46.261  35.456  30.171  1.00  0.00     0.198 A 
ATOM     94  C   UNL A   1      45.162  36.062  28.125  1.00  0.00     0.198 A 
ATOM     95  F   UNL A   1      43.807  34.497  27.010  1.00  0.00    -0.203 F 
ATOM     96  F   UNL A   1      47.039  35.786  31.211  1.00  0.00    -0.200 F 
ATOM     97  C   UNL A   1      45.988  36.395  29.187  1.00  0.00     0.200 A 
ATOM     98  F   UNL A   1      44.912  36.961  27.163  1.00  0.00    -0.200 F 
ATOM     99  F   UNL A   1      46.520  37.623  29.263  1.00  0.00    -0.200 F 
ENDBRANCH  66  89
ENDBRANCH  40  41
ENDBRANCH  33  35
ENDBRANCH  32  33
ENDBRANCH  31  32
ENDBRANCH  30  31
ENDBRANCH  29  30
ENDBRANCH   1  29
TORSDOF 17
ENDMDL
MODEL 2
REMARK VINA RESULT:     -12.4      4.396     10.201
REMARK SMILES Cc1nc(NC(=O)[C@H]2[C@@H]3CC[C@@H](C3)[C@@H]2C(=O)OCCOCCOC(=O)c2ccc(-c3c4nc(c(-c5c(F)c(F)c(F)c(F)c5F)c5ccc([nH]5)c(-c5c(F)c(F)c(F)c(F)c5F)c5nc(c(-c6c(F)c(F)c(F)c(F)c6F)c6ccc3[nH]6)C=C5)C=C4)cc2)sc1-c1ccccc1
REMARK SMILES IDX 19 1 18 2 17 3 15 4 16 5 14 6 8 7 9 8 10 9 13 10 12 11 11 12
REMARK SMILES IDX 6 13 5 14 7 16 4 17 1 18 2 19 3 20 90 21 89 22 91 23 92 24
REMARK SMILES IDX 96 25 93 26 95 27 94 28 20 29 21 30 22 31 23 32 24 33 25 34
REMARK SMILES IDX 26 35 27 36 88 37 28 38 87 39 29 40 30 41 31 42 81 43 32 44
REMARK SMILES IDX 86 45 80 46 82 47 33 48 85 49 79 50 78 51 34 53 66 54 46 55
REMARK SMILES IDX 65 56 47 57 50 58 64 59 83 60 48 61 49 62 63 64 84 65 51 66
REMARK SMILES IDX 35 67 36 68 44 69 37 70 38 71 42 72 45 73 39 74 40 75 43 76
REMARK SMILES IDX 41 77 67 78 68 79 76 80 69 81 70 82 74 83 77 84 71 85 72 86
REMARK SMILES IDX 75 87 73 88 52 89 53 90 61 91 54 92 55 93 59 94 62 95 56 96
REMARK SMILES IDX 57 97 60 98 58 99
REMARK H PARENT 5 15 82 52 50 63
REMARK Flexibility Score: inf
ROOT
ATOM      1  C   UNL A   1      32.760  28.841  26.688  1.00  0.00     0.202 C 
ENDROOT
BRANCH   1   2
ATOM      2  C   UNL A   1      33.407  27.932  25.646  1.00  0.00     0.261 C 
BRANCH   2   3
ATOM      3  O   UNL A   1      33.966  26.783  26.300  1.00  0.00    -0.463 OA
BRANCH   3   4
ATOM      4  C   UNL A   1      33.433  25.575  25.951  1.00  0.00     0.310 C 
ATOM      5  O   UNL A   1      32.477  25.041  26.487  1.00  0.00    -0.252 OA
BRANCH   4   6
ATOM      6  C   UNL A   1      34.147  25.076  24.711  1.00  0.00     0.115 C 
ATOM      7  C   UNL A   1      33.372  24.033  23.896  1.00  0.00     0.096 C 
ATOM      8  C   UNL A   1      34.303  22.796  23.997  1.00  0.00     0.003 C 
ATOM      9  C   UNL A   1      34.382  22.323  25.473  1.00  0.00     0.005 C 
ATOM     10  C   UNL A   1      35.673  23.439  23.805  1.00  0.00     0.009 C 
ATOM     11  C   UNL A   1      35.499  24.380  25.004  1.00  0.00     0.004 C 
ATOM     12  C   UNL A   1      35.321  23.350  26.128  1.00  0.00     0.005 C 
BRANCH   7  13
ATOM     13  C   UNL A   1      32.907  24.258  22.432  1.00  0.00     0.230 C 
ATOM     14  N   UNL A   1      31.893  25.012  21.942  1.00  0.00    -0.302 N 
ATOM     15  H   UNL A   1      31.660  24.816  21.007  1.00  0.00     0.172 HD
ATOM     16  O   UNL A   1      33.520  23.616  21.558  1.00  0.00    -0.274 OA
BRANCH  14  17
ATOM     17  C   UNL A   1      31.136  25.992  22.509  1.00  0.00     0.190 A 
ATOM     18  C   UNL A   1      28.021  26.936  23.876  1.00  0.00     0.068 C 
ATOM     19  C   UNL A   1      29.414  27.047  23.365  1.00  0.00     0.058 A 
ATOM     20  N   UNL A   1      30.125  25.866  23.314  1.00  0.00    -0.225 NA
ATOM     21  C   UNL A   1      30.060  28.149  22.812  1.00  0.00     0.059 A 
ATOM     22  S   UNL A   1      31.544  27.604  22.103  1.00  0.00    -0.096 S 
BRANCH  21  23
ATOM     23  C   UNL A   1      29.585  29.539  22.711  1.00  0.00    -0.006 A 
ATOM     24  C   UNL A   1      28.965  30.036  21.556  1.00  0.00     0.009 A 
ATOM     25  C   UNL A   1      29.596  30.355  23.855  1.00  0.00     0.009 A 
ATOM     26  C   UNL A   1      28.278  31.255  21.579  1.00  0.00     0.001 A 
ATOM     27  C   UNL A   1      28.918  31.578  23.876  1.00  0.00     0.001 A 
ATOM     28  C   UNL A   1      28.237  32.015  22.745  1.00  0.00     0.000 A 
ENDBRANCH  21  23
ENDBRANCH  14  17
ENDBRANCH   7  13
ENDBRANCH   4   6
ENDBRANCH   3   4
ENDBRANCH   2   3
ENDBRANCH   1   2
BRANCH   1  29
ATOM     29  O   UNL A   1      32.561  30.179  26.233  1.00  0.00    -0.374 OA
BRANCH  29  30
ATOM     30  C   UNL A   1      31.474  30.884  26.837  1.00  0.00     0.202 C 
BRANCH  30  31
ATOM     31  C   UNL A   1      31.675  32.399  26.883  1.00  0.00     0.261 C 
BRANCH  31  32
ATOM     32  O   UNL A   1      33.075  32.717  26.738  1.00  0.00    -0.460 OA
BRANCH  32  33
ATOM     33  C   UNL A   1      33.646  33.343  27.791  1.00  0.00     0.338 C 
ATOM     34  O   UNL A   1      33.165  34.247  28.459  1.00  0.00    -0.246 OA
BRANCH  33  35
ATOM     35  C   UNL A   1      34.896  32.653  28.180  1.00  0.00     0.060 A 
ATOM     36  C   UNL A   1      34.817  31.294  28.504  1.00  0.00     0.016 A 
ATOM     37  C   UNL A   1      36.118  33.318  28.276  1.00  0.00     0.016 A 
ATOM     38  C   UNL A   1      35.938  30.622  28.992  1.00  0.00     0.010 A 
ATOM     39  C   UNL A   1      37.246  32.645  28.758  1.00  0.00     0.010 A 
ATOM     40  C   UNL A   1      37.150  31.304  29.166  1.00  0.00    -0.014 A 
BRANCH  40  41
ATOM     41  C   UNL A   1      38.262  30.661  29.912  1.00  0.00     0.031 A 
ATOM     42  C   UNL A   1      38.486  31.026  31.355  1.00  0.00     0.074 A 
ATOM     43  C   UNL A   1      39.052  29.743  29.323  1.00  0.00     0.049 A 
ATOM     44  N   UNL A   1      39.394  30.591  32.195  1.00  0.00    -0.248 NA
ATOM     45  C   UNL A   1      37.567  32.021  31.930  1.00  0.00     0.031 C 
ATOM     46  C   UNL A   1      38.931  29.290  27.940  1.00  0.00     0.029 A 
ATOM     47  N   UNL A   1      40.118  29.032  29.820  1.00  0.00    -0.354 N 
ATOM     48  C   UNL A   1      39.155  31.259  33.389  1.00  0.00     0.074 A 
ATOM     49  C   UNL A   1      38.049  32.161  33.157  1.00  0.00     0.031 C 
ATOM     50  C   UNL A   1      39.888  28.380  27.695  1.00  0.00     0.029 A 
ATOM     51  C   UNL A   1      40.708  28.207  28.894  1.00  0.00     0.049 A 
ATOM     52  H   UNL A   1      40.429  29.106  30.750  1.00  0.00     0.167 HD
ATOM     53  C   UNL A   1      39.790  31.120  34.578  1.00  0.00     0.037 A 
ATOM     54  C   UNL A   1      41.795  27.416  28.997  1.00  0.00     0.037 A 
ATOM     55  C   UNL A   1      40.889  30.219  34.809  1.00  0.00     0.049 A 
ATOM     56  C   UNL A   1      42.528  27.328  30.312  1.00  0.00     0.074 A 
ATOM     57  C   UNL A   1      41.574  29.981  35.988  1.00  0.00     0.029 A 
ATOM     58  N   UNL A   1      41.472  29.418  33.839  1.00  0.00    -0.354 N 
ATOM     59  N   UNL A   1      42.262  27.922  31.450  1.00  0.00    -0.248 NA
ATOM     60  C   UNL A   1      43.711  26.454  30.361  1.00  0.00     0.031 C 
ATOM     61  C   UNL A   1      42.614  29.089  35.716  1.00  0.00     0.029 A 
ATOM     62  C   UNL A   1      42.531  28.712  34.385  1.00  0.00     0.049 A 
ATOM     63  H   UNL A   1      41.177  29.360  32.901  1.00  0.00     0.167 HD
ATOM     64  C   UNL A   1      43.213  27.465  32.355  1.00  0.00     0.074 A 
ATOM     65  C   UNL A   1      44.064  26.543  31.636  1.00  0.00     0.031 C 
ATOM     66  C   UNL A   1      43.361  27.779  33.665  1.00  0.00     0.037 A 
BRANCH  53  67
ATOM     67  C   UNL A   1      39.329  31.978  35.722  1.00  0.00     0.064 A 
ATOM     68  C   UNL A   1      38.364  31.534  36.639  1.00  0.00     0.173 A 
ATOM     69  C   UNL A   1      39.896  33.244  35.933  1.00  0.00     0.173 A 
ATOM     70  F   UNL A   1      37.782  30.335  36.481  1.00  0.00    -0.203 F 
ATOM     71  C   UNL A   1      37.962  32.337  37.703  1.00  0.00     0.198 A 
ATOM     72  C   UNL A   1      39.518  34.031  37.018  1.00  0.00     0.198 A 
ATOM     73  F   UNL A   1      40.829  33.716  35.092  1.00  0.00    -0.203 F 
ATOM     74  F   UNL A   1      37.001  31.913  38.535  1.00  0.00    -0.200 F 
ATOM     75  C   UNL A   1      38.545  33.581  37.897  1.00  0.00     0.200 A 
ATOM     76  F   UNL A   1      40.095  35.224  37.212  1.00  0.00    -0.200 F 
ATOM     77  F   UNL A   1      38.164  34.349  38.927  1.00  0.00    -0.200 F 
ENDBRANCH  53  67
BRANCH  54  78
ATOM     78  C   UNL A   1      42.261  26.641  27.816  1.00  0.00     0.064 A 
ATOM     79  C   UNL A   1      41.757  25.362  27.542  1.00  0.00     0.173 A 
ATOM     80  C   UNL A   1      43.229  27.160  26.943  1.00  0.00     0.173 A 
ATOM     81  F   UNL A   1      40.847  24.812  28.359  1.00  0.00    -0.203 F 
ATOM     82  C   UNL A   1      42.216  24.626  26.452  1.00  0.00     0.198 A 
ATOM     83  C   UNL A   1      43.665  26.436  25.835  1.00  0.00     0.198 A 
ATOM     84  F   UNL A   1      43.745  28.379  27.160  1.00  0.00    -0.203 F 
ATOM     85  F   UNL A   1      41.753  23.387  26.240  1.00  0.00    -0.200 F 
ATOM     86  C   UNL A   1      43.164  25.166  25.595  1.00  0.00     0.200 A 
ATOM     87  F   UNL A   1      44.569  26.969  25.004  1.00  0.00    -0.200 F 
ATOM     88  F   UNL A   1      43.601  24.459  24.544  1.00  0.00    -0.200 F 
ENDBRANCH  54  78
BRANCH  66  89
ATOM     89  C   UNL A   1      44.445  27.083  34.440  1.00  0.00     0.064 A 
ATOM     90  C   UNL A   1      44.241  25.833  35.043  1.00  0.00     0.173 A 
ATOM     91  C   UNL A   1      45.733  27.638  34.501  1.00  0.00     0.173 A 
ATOM     92  F   UNL A   1      43.027  25.264  35.024  1.00  0.00    -0.203 F 
ATOM     93  C   UNL A   1      45.284  25.171  35.688  1.00  0.00     0.198 A 
ATOM     94  C   UNL A   1      46.780  26.960  35.119  1.00  0.00     0.198 A 
ATOM     95  F   UNL A   1      45.984  28.827  33.934  1.00  0.00    -0.203 F 
ATOM     96  F   UNL A   1      45.059  23.993  36.285  1.00  0.00    -0.200 F 
ATOM     97  C   UNL A   1      46.553  25.729  35.715  1.00  0.00     0.200 A 
ATOM     98  F   UNL A   1      48.010  27.492  35.127  1.00  0.00    -0.200 F 
ATOM     99  F   UNL A   1      47.560  25.079  36.316  1.00  0.00    -0.200 F 
ENDBRANCH  66  89
ENDBRANCH  40  41
ENDBRANCH  33  35
ENDBRANCH  32  33
ENDBRANCH  31  32
ENDBRANCH  30  31
ENDBRANCH  29  30
ENDBRANCH   1  29
TORSDOF 17
ENDMDL
MODEL 3
REMARK VINA RESULT:     -12.3      4.457      9.821
REMARK SMILES Cc1nc(NC(=O)[C@H]2[C@@H]3CC[C@@H](C3)[C@@H]2C(=O)OCCOCCOC(=O)c2ccc(-c3c4nc(c(-c5c(F)c(F)c(F)c(F)c5F)c5ccc([nH]5)c(-c5c(F)c(F)c(F)c(F)c5F)c5nc(c(-c6c(F)c(F)c(F)c(F)c6F)c6ccc3[nH]6)C=C5)C=C4)cc2)sc1-c1ccccc1
REMARK SMILES IDX 19 1 18 2 17 3 15 4 16 5 14 6 8 7 9 8 10 9 13 10 12 11 11 12
REMARK SMILES IDX 6 13 5 14 7 16 4 17 1 18 2 19 3 20 90 21 89 22 91 23 92 24
REMARK SMILES IDX 96 25 93 26 95 27 94 28 20 29 21 30 22 31 23 32 24 33 25 34
REMARK SMILES IDX 26 35 27 36 88 37 28 38 87 39 29 40 30 41 31 42 81 43 32 44
REMARK SMILES IDX 86 45 80 46 82 47 33 48 85 49 79 50 78 51 34 53 66 54 46 55
REMARK SMILES IDX 65 56 47 57 50 58 64 59 83 60 48 61 49 62 63 64 84 65 51 66
REMARK SMILES IDX 35 67 36 68 44 69 37 70 38 71 42 72 45 73 39 74 40 75 43 76
REMARK SMILES IDX 41 77 67 78 68 79 76 80 69 81 70 82 74 83 77 84 71 85 72 86
REMARK SMILES IDX 75 87 73 88 52 89 53 90 61 91 54 92 55 93 59 94 62 95 56 96
REMARK SMILES IDX 57 97 60 98 58 99
REMARK H PARENT 5 15 82 52 50 63
REMARK Flexibility Score: inf
ROOT
ATOM      1  C   UNL A   1      33.214  29.615  27.089  1.00  0.00     0.202 C 
ENDROOT
BRANCH   1   2
ATOM      2  C   UNL A   1      34.281  28.739  26.436  1.00  0.00     0.261 C 
BRANCH   2   3
ATOM      3  O   UNL A   1      33.644  27.671  25.719  1.00  0.00    -0.463 OA
BRANCH   3   4
ATOM      4  C   UNL A   1      33.431  27.886  24.387  1.00  0.00     0.310 C 
ATOM      5  O   UNL A   1      34.142  28.553  23.654  1.00  0.00    -0.252 OA
BRANCH   4   6
ATOM      6  C   UNL A   1      32.239  27.058  23.951  1.00  0.00     0.115 C 
ATOM      7  C   UNL A   1      31.939  27.100  22.447  1.00  0.00     0.096 C 
ATOM      8  C   UNL A   1      30.528  27.745  22.424  1.00  0.00     0.003 C 
ATOM      9  C   UNL A   1      30.611  29.198  22.961  1.00  0.00     0.005 C 
ATOM     10  C   UNL A   1      29.853  27.024  23.587  1.00  0.00     0.009 C 
ATOM     11  C   UNL A   1      30.903  27.491  24.603  1.00  0.00     0.004 C 
ATOM     12  C   UNL A   1      30.734  29.011  24.482  1.00  0.00     0.005 C 
BRANCH   7  13
ATOM     13  C   UNL A   1      31.993  25.853  21.526  1.00  0.00     0.230 C 
ATOM     14  N   UNL A   1      32.602  24.655  21.709  1.00  0.00    -0.302 N 
ATOM     15  H   UNL A   1      32.681  24.114  20.891  1.00  0.00     0.172 HD
ATOM     16  O   UNL A   1      31.436  25.966  20.417  1.00  0.00    -0.274 OA
BRANCH  14  17
ATOM     17  C   UNL A   1      33.125  24.064  22.818  1.00  0.00     0.190 A 
ATOM     18  C   UNL A   1      33.203  23.888  26.343  1.00  0.00     0.068 C 
ATOM     19  C   UNL A   1      33.563  23.629  24.922  1.00  0.00     0.058 A 
ATOM     20  N   UNL A   1      32.592  23.945  23.996  1.00  0.00    -0.225 NA
ATOM     21  C   UNL A   1      34.784  23.232  24.385  1.00  0.00     0.059 A 
ATOM     22  S   UNL A   1      34.698  23.406  22.664  1.00  0.00    -0.096 S 
BRANCH  21  23
ATOM     23  C   UNL A   1      36.012  22.827  25.091  1.00  0.00    -0.006 A 
ATOM     24  C   UNL A   1      36.529  21.527  25.004  1.00  0.00     0.009 A 
ATOM     25  C   UNL A   1      36.788  23.802  25.739  1.00  0.00     0.009 A 
ATOM     26  C   UNL A   1      37.826  21.240  25.445  1.00  0.00     0.001 A 
ATOM     27  C   UNL A   1      38.080  23.515  26.189  1.00  0.00     0.001 A 
ATOM     28  C   UNL A   1      38.609  22.240  26.017  1.00  0.00     0.000 A 
ENDBRANCH  21  23
ENDBRANCH  14  17
ENDBRANCH   7  13
ENDBRANCH   4   6
ENDBRANCH   3   4
ENDBRANCH   2   3
ENDBRANCH   1   2
BRANCH   1  29
ATOM     29  O   UNL A   1      32.880  30.772  26.323  1.00  0.00    -0.374 OA
BRANCH  29  30
ATOM     30  C   UNL A   1      31.840  31.592  26.859  1.00  0.00     0.202 C 
BRANCH  30  31
ATOM     31  C   UNL A   1      32.172  33.084  26.862  1.00  0.00     0.261 C 
BRANCH  31  32
ATOM     32  O   UNL A   1      32.570  33.499  28.186  1.00  0.00    -0.460 OA
BRANCH  32  33
ATOM     33  C   UNL A   1      33.693  34.249  28.251  1.00  0.00     0.338 C 
ATOM     34  O   UNL A   1      33.768  35.467  28.199  1.00  0.00    -0.246 OA
BRANCH  33  35
ATOM     35  C   UNL A   1      34.854  33.399  28.596  1.00  0.00     0.060 A 
ATOM     36  C   UNL A   1      34.605  32.189  29.253  1.00  0.00     0.016 A 
ATOM     37  C   UNL A   1      36.168  33.786  28.331  1.00  0.00     0.016 A 
ATOM     38  C   UNL A   1      35.666  31.406  29.710  1.00  0.00     0.010 A 
ATOM     39  C   UNL A   1      37.235  32.998  28.780  1.00  0.00     0.010 A 
ATOM     40  C   UNL A   1      36.990  31.827  29.517  1.00  0.00    -0.014 A 
BRANCH  40  41
ATOM     41  C   UNL A   1      38.099  31.128  30.213  1.00  0.00     0.031 A 
ATOM     42  C   UNL A   1      38.369  31.439  31.661  1.00  0.00     0.074 A 
ATOM     43  C   UNL A   1      38.846  30.206  29.576  1.00  0.00     0.049 A 
ATOM     44  N   UNL A   1      39.283  30.951  32.463  1.00  0.00    -0.248 NA
ATOM     45  C   UNL A   1      37.496  32.443  32.290  1.00  0.00     0.031 C 
ATOM     46  C   UNL A   1      38.677  29.802  28.183  1.00  0.00     0.029 A 
ATOM     47  N   UNL A   1      39.901  29.449  30.023  1.00  0.00    -0.354 N 
ATOM     48  C   UNL A   1      39.095  31.586  33.684  1.00  0.00     0.074 A 
ATOM     49  C   UNL A   1      38.012  32.528  33.508  1.00  0.00     0.031 C 
ATOM     50  C   UNL A   1      39.600  28.872  27.885  1.00  0.00     0.029 A 
ATOM     51  C   UNL A   1      40.442  28.636  29.057  1.00  0.00     0.049 A 
ATOM     52  H   UNL A   1      40.237  29.483  30.947  1.00  0.00     0.167 HD
ATOM     53  C   UNL A   1      39.754  31.390  34.851  1.00  0.00     0.037 A 
ATOM     54  C   UNL A   1      41.508  27.811  29.107  1.00  0.00     0.037 A 
ATOM     55  C   UNL A   1      40.830  30.450  35.025  1.00  0.00     0.049 A 
ATOM     56  C   UNL A   1      42.270  27.658  30.400  1.00  0.00     0.074 A 
ATOM     57  C   UNL A   1      41.536  30.154  36.179  1.00  0.00     0.029 A 
ATOM     58  N   UNL A   1      41.365  29.664  34.017  1.00  0.00    -0.354 N 
ATOM     59  N   UNL A   1      42.050  28.223  31.562  1.00  0.00    -0.248 NA
ATOM     60  C   UNL A   1      43.426  26.748  30.391  1.00  0.00     0.031 C 
ATOM     61  C   UNL A   1      42.542  29.241  35.853  1.00  0.00     0.029 A 
ATOM     62  C   UNL A   1      42.415  28.909  34.513  1.00  0.00     0.049 A 
ATOM     63  H   UNL A   1      41.045  29.645  33.085  1.00  0.00     0.167 HD
ATOM     64  C   UNL A   1      43.008  27.709  32.428  1.00  0.00     0.074 A 
ATOM     65  C   UNL A   1      43.813  26.785  31.658  1.00  0.00     0.031 C 
ATOM     66  C   UNL A   1      43.197  27.975  33.743  1.00  0.00     0.037 A 
BRANCH  53  67
ATOM     67  C   UNL A   1      39.348  32.225  36.033  1.00  0.00     0.064 A 
ATOM     68  C   UNL A   1      38.371  31.794  36.943  1.00  0.00     0.173 A 
ATOM     69  C   UNL A   1      39.980  33.452  36.286  1.00  0.00     0.173 A 
ATOM     70  F   UNL A   1      37.728  30.632  36.745  1.00  0.00    -0.203 F 
ATOM     71  C   UNL A   1      38.020  32.573  38.042  1.00  0.00     0.198 A 
ATOM     72  C   UNL A   1      39.652  34.213  37.406  1.00  0.00     0.198 A 
ATOM     73  F   UNL A   1      40.927  33.909  35.454  1.00  0.00    -0.203 F 
ATOM     74  F   UNL A   1      37.046  32.165  38.868  1.00  0.00    -0.200 F 
ATOM     75  C   UNL A   1      38.666  33.778  38.278  1.00  0.00     0.200 A 
ATOM     76  F   UNL A   1      40.290  35.367  37.639  1.00  0.00    -0.200 F 
ATOM     77  F   UNL A   1      38.334  34.523  39.341  1.00  0.00    -0.200 F 
ENDBRANCH  53  67
BRANCH  54  78
ATOM     78  C   UNL A   1      41.920  27.060  27.891  1.00  0.00     0.064 A 
ATOM     79  C   UNL A   1      42.775  27.633  26.939  1.00  0.00     0.173 A 
ATOM     80  C   UNL A   1      41.458  25.757  27.651  1.00  0.00     0.173 A 
ATOM     81  F   UNL A   1      43.226  28.884  27.111  1.00  0.00    -0.203 F 
ATOM     82  C   UNL A   1      43.137  26.939  25.786  1.00  0.00     0.198 A 
ATOM     83  C   UNL A   1      41.845  25.052  26.513  1.00  0.00     0.198 A 
ATOM     84  F   UNL A   1      40.637  25.163  28.529  1.00  0.00    -0.203 F 
ATOM     85  F   UNL A   1      43.916  27.527  24.869  1.00  0.00    -0.200 F 
ATOM     86  C   UNL A   1      42.678  25.646  25.577  1.00  0.00     0.200 A 
ATOM     87  F   UNL A   1      41.410  23.800  26.324  1.00  0.00    -0.200 F 
ATOM     88  F   UNL A   1      43.030  24.978  24.471  1.00  0.00    -0.200 F 
ENDBRANCH  54  78
BRANCH  66  89
ATOM     89  C   UNL A   1      44.279  27.223  34.467  1.00  0.00     0.064 A 
ATOM     90  C   UNL A   1      45.557  27.766  34.664  1.00  0.00     0.173 A 
ATOM     91  C   UNL A   1      44.000  25.975  35.048  1.00  0.00     0.173 A 
ATOM     92  F   UNL A   1      45.879  28.949  34.119  1.00  0.00    -0.203 F 
ATOM     93  C   UNL A   1      46.518  27.083  35.406  1.00  0.00     0.198 A 
ATOM     94  C   UNL A   1      44.953  25.311  35.815  1.00  0.00     0.198 A 
ATOM     95  F   UNL A   1      42.791  25.415  34.897  1.00  0.00    -0.203 F 
ATOM     96  F   UNL A   1      47.742  27.606  35.554  1.00  0.00    -0.200 F 
ATOM     97  C   UNL A   1      46.212  25.864  35.990  1.00  0.00     0.200 A 
ATOM     98  F   UNL A   1      44.647  24.141  36.395  1.00  0.00    -0.200 F 
ATOM     99  F   UNL A   1      47.131  25.220  36.723  1.00  0.00    -0.200 F 
ENDBRANCH  66  89
ENDBRANCH  40  41
ENDBRANCH  33  35
ENDBRANCH  32  33
ENDBRANCH  31  32
ENDBRANCH  30  31
ENDBRANCH  29  30
ENDBRANCH   1  29
TORSDOF 17
ENDMDL
