MODEL 1
REMARK VINA RESULT:     -12.9      0.000      0.000
REMARK SMILES O=C(OCCOCCOC(=O)[C@H]1O[C@@H](Oc2c(-c3cc(O)c(O)c(O)c3)oc3cc(O)cc(O)c3c2=O)[C@H](O)[C@@H](O)[C@@H]1O)c1ccc(-c2c3nc(c(-c4c(F)c(F)c(F)c(F)c4F)c4ccc([nH]4)c(-c4c(F)c(F)c(F)c(F)c4F)c4nc(c(-c5c(F)c(F)c(F)c(F)c5F)c5ccc2[nH]5)C=C4)C=C3)cc1
REMARK SMILES IDX 7 1 6 2 5 3 4 4 3 5 2 6 1 7 44 8 45 9 106 10 46 11 105 12
REMARK SMILES IDX 47 13 48 14 49 15 99 16 50 17 104 18 98 19 100 20 51 21
REMARK SMILES IDX 103 22 97 23 96 24 52 26 84 27 64 28 83 29 65 30 68 31 82 32
REMARK SMILES IDX 101 33 66 34 67 35 81 37 102 38 69 39 53 40 54 41 62 42
REMARK SMILES IDX 55 43 56 44 60 45 63 46 57 47 58 48 61 49 59 50 85 51 86 52
REMARK SMILES IDX 94 53 87 54 88 55 92 56 95 57 89 58 90 59 93 60 91 61 70 62
REMARK SMILES IDX 71 63 79 64 72 65 73 66 77 67 80 68 74 69 75 70 78 71 76 72
REMARK SMILES IDX 8 73 9 74 10 75 11 76 12 77 13 78 42 79 14 80 40 81 38 82
REMARK SMILES IDX 43 83 15 85 16 86 17 87 36 88 27 89 35 90 37 91 28 92 33 93
REMARK SMILES IDX 29 94 32 95 30 96 18 97 19 98 26 99 20 100 24 101 22 102
REMARK SMILES IDX 21 103 25 105 23 107 34 109 31 111 41 113 39 115
REMARK H PARENT 100 25 68 36 43 84 21 104 25 106 23 108 34 110 31 112 41 114
REMARK H PARENT 39 116
REMARK Flexibility Score: inf
ROOT
ATOM      1  C   UNL A   1      32.674  29.232  26.395  1.00  0.00     0.202 C 
ENDROOT
BRANCH   1   2
ATOM      2  O   UNL A   1      31.951  30.267  27.069  1.00  0.00    -0.374 OA
BRANCH   2   3
ATOM      3  C   UNL A   1      31.399  31.298  26.237  1.00  0.00     0.202 C 
BRANCH   3   4
ATOM      4  C   UNL A   1      31.397  32.697  26.855  1.00  0.00     0.261 C 
BRANCH   4   5
ATOM      5  O   UNL A   1      32.744  33.188  26.971  1.00  0.00    -0.460 OA
BRANCH   5   6
ATOM      6  C   UNL A   1      33.348  33.692  28.070  1.00  0.00     0.338 C 
ATOM      7  O   UNL A   1      32.851  34.668  28.627  1.00  0.00    -0.246 OA
BRANCH   6   8
ATOM      8  C   UNL A   1      34.583  33.101  28.663  1.00  0.00     0.060 A 
ATOM      9  C   UNL A   1      34.648  31.848  29.267  1.00  0.00     0.016 A 
ATOM     10  C   UNL A   1      35.776  33.831  28.539  1.00  0.00     0.016 A 
ATOM     11  C   UNL A   1      35.816  31.334  29.763  1.00  0.00     0.010 A 
ATOM     12  C   UNL A   1      36.985  33.306  29.008  1.00  0.00     0.010 A 
ATOM     13  C   UNL A   1      36.993  32.049  29.619  1.00  0.00    -0.014 A 
BRANCH  13  14
ATOM     14  C   UNL A   1      38.152  31.439  30.271  1.00  0.00     0.031 A 
ATOM     15  C   UNL A   1      38.313  31.666  31.737  1.00  0.00     0.074 A 
ATOM     16  C   UNL A   1      38.822  30.483  29.603  1.00  0.00     0.049 A 
ATOM     17  N   UNL A   1      39.214  31.191  32.549  1.00  0.00    -0.248 NA
ATOM     18  C   UNL A   1      37.300  32.518  32.386  1.00  0.00     0.031 C 
ATOM     19  C   UNL A   1      38.549  30.074  28.218  1.00  0.00     0.029 A 
ATOM     20  N   UNL A   1      39.809  29.632  30.010  1.00  0.00    -0.354 N 
ATOM     21  C   UNL A   1      38.892  31.703  33.795  1.00  0.00     0.074 A 
ATOM     22  C   UNL A   1      37.717  32.529  33.642  1.00  0.00     0.031 C 
ATOM     23  C   UNL A   1      39.334  29.033  27.904  1.00  0.00     0.029 A 
ATOM     24  C   UNL A   1      40.222  28.767  29.026  1.00  0.00     0.049 A 
ATOM     25  H   UNL A   1      40.188  29.639  30.919  1.00  0.00     0.167 HD
ATOM     26  C   UNL A   1      39.541  31.492  34.961  1.00  0.00     0.037 A 
ATOM     27  C   UNL A   1      41.247  27.898  29.035  1.00  0.00     0.037 A 
ATOM     28  C   UNL A   1      40.709  30.660  35.056  1.00  0.00     0.049 A 
ATOM     29  C   UNL A   1      42.044  27.800  30.309  1.00  0.00     0.074 A 
ATOM     30  C   UNL A   1      41.543  30.453  36.135  1.00  0.00     0.029 A 
ATOM     31  N   UNL A   1      41.200  29.888  34.008  1.00  0.00    -0.354 N 
ATOM     32  N   UNL A   1      41.828  28.385  31.465  1.00  0.00    -0.248 NA
ATOM     33  C   UNL A   1      43.229  26.940  30.280  1.00  0.00     0.031 C 
ATOM     34  C   UNL A   1      42.567  29.592  35.725  1.00  0.00     0.029 A 
ATOM     35  C   UNL A   1      42.336  29.213  34.409  1.00  0.00     0.049 A 
ATOM     36  H   UNL A   1      40.796  29.831  33.111  1.00  0.00     0.167 HD
ATOM     37  C   UNL A   1      42.842  27.957  32.306  1.00  0.00     0.074 A 
ATOM     38  C   UNL A   1      43.649  27.031  31.532  1.00  0.00     0.031 C 
ATOM     39  C   UNL A   1      43.099  28.299  33.594  1.00  0.00     0.037 A 
BRANCH  26  40
ATOM     40  C   UNL A   1      39.049  32.243  36.160  1.00  0.00     0.064 A 
ATOM     41  C   UNL A   1      39.490  33.541  36.459  1.00  0.00     0.173 A 
ATOM     42  C   UNL A   1      38.157  31.630  37.052  1.00  0.00     0.173 A 
ATOM     43  F   UNL A   1      40.376  34.154  35.661  1.00  0.00    -0.203 F 
ATOM     44  C   UNL A   1      39.072  34.188  37.621  1.00  0.00     0.198 A 
ATOM     45  C   UNL A   1      37.721  32.290  38.198  1.00  0.00     0.198 A 
ATOM     46  F   UNL A   1      37.721  30.383  36.823  1.00  0.00    -0.203 F 
ATOM     47  F   UNL A   1      39.553  35.402  37.920  1.00  0.00    -0.200 F 
ATOM     48  C   UNL A   1      38.183  33.564  38.485  1.00  0.00     0.200 A 
ATOM     49  F   UNL A   1      36.864  31.684  39.032  1.00  0.00    -0.200 F 
ATOM     50  F   UNL A   1      37.788  34.185  39.605  1.00  0.00    -0.200 F 
ENDBRANCH  26  40
BRANCH  27  51
ATOM     51  C   UNL A   1      41.632  27.158  27.802  1.00  0.00     0.064 A 
ATOM     52  C   UNL A   1      41.398  25.784  27.662  1.00  0.00     0.173 A 
ATOM     53  C   UNL A   1      42.300  27.810  26.750  1.00  0.00     0.173 A 
ATOM     54  F   UNL A   1      40.781  25.105  28.640  1.00  0.00    -0.203 F 
ATOM     55  C   UNL A   1      41.849  25.086  26.541  1.00  0.00     0.198 A 
ATOM     56  C   UNL A   1      42.714  27.119  25.614  1.00  0.00     0.198 A 
ATOM     57  F   UNL A   1      42.557  29.123  26.825  1.00  0.00    -0.203 F 
ATOM     58  F   UNL A   1      41.674  23.759  26.467  1.00  0.00    -0.200 F 
ATOM     59  C   UNL A   1      42.503  25.753  25.517  1.00  0.00     0.200 A 
ATOM     60  F   UNL A   1      43.331  27.775  24.622  1.00  0.00    -0.200 F 
ATOM     61  F   UNL A   1      42.945  25.081  24.446  1.00  0.00    -0.200 F 
ENDBRANCH  27  51
BRANCH  39  62
ATOM     62  C   UNL A   1      44.281  27.637  34.233  1.00  0.00     0.064 A 
ATOM     63  C   UNL A   1      45.557  28.217  34.198  1.00  0.00     0.173 A 
ATOM     64  C   UNL A   1      44.125  26.417  34.907  1.00  0.00     0.173 A 
ATOM     65  F   UNL A   1      45.755  29.375  33.549  1.00  0.00    -0.203 F 
ATOM     66  C   UNL A   1      46.644  27.580  34.785  1.00  0.00     0.198 A 
ATOM     67  C   UNL A   1      45.206  25.803  35.527  1.00  0.00     0.198 A 
ATOM     68  F   UNL A   1      42.921  25.830  34.974  1.00  0.00    -0.203 F 
ATOM     69  F   UNL A   1      47.867  28.116  34.682  1.00  0.00    -0.200 F 
ATOM     70  C   UNL A   1      46.467  26.378  35.454  1.00  0.00     0.200 A 
ATOM     71  F   UNL A   1      45.030  24.653  36.191  1.00  0.00    -0.200 F 
ATOM     72  F   UNL A   1      47.515  25.767  36.024  1.00  0.00    -0.200 F 
ENDBRANCH  39  62
ENDBRANCH  13  14
ENDBRANCH   6   8
ENDBRANCH   5   6
ENDBRANCH   4   5
ENDBRANCH   3   4
ENDBRANCH   2   3
ENDBRANCH   1   2
BRANCH   1  73
ATOM     73  C   UNL A   1      32.110  29.050  24.991  1.00  0.00     0.261 C 
BRANCH  73  74
ATOM     74  O   UNL A   1      31.012  28.140  25.103  1.00  0.00    -0.461 OA
BRANCH  74  75
ATOM     75  C   UNL A   1      30.725  27.463  23.961  1.00  0.00     0.338 C 
ATOM     76  O   UNL A   1      29.753  27.656  23.230  1.00  0.00    -0.249 OA
BRANCH  75  77
ATOM     77  C   UNL A   1      31.770  26.396  23.680  1.00  0.00     0.263 C 
ATOM     78  O   UNL A   1      31.722  25.193  24.471  1.00  0.00    -0.322 OA
ATOM     79  C   UNL A   1      31.638  25.974  22.225  1.00  0.00     0.186 C 
ATOM     80  C   UNL A   1      32.938  24.448  24.358  1.00  0.00     0.340 C 
ATOM     81  C   UNL A   1      32.935  25.272  21.851  1.00  0.00     0.181 C 
ATOM     82  C   UNL A   1      33.327  24.210  22.881  1.00  0.00     0.214 C 
BRANCH  79  83
ATOM     83  O   UNL A   1      31.413  27.028  21.285  1.00  0.00    -0.387 OA
ATOM     84  H   UNL A   1      30.500  27.346  21.370  1.00  0.00     0.211 HD
ENDBRANCH  79  83
BRANCH  80  85
ATOM     85  O   UNL A   1      33.024  23.202  25.115  1.00  0.00    -0.454 OA
BRANCH  85  86
ATOM     86  C   UNL A   1      34.168  22.472  25.403  1.00  0.00     0.214 A 
ATOM     87  C   UNL A   1      34.438  21.206  24.999  1.00  0.00     0.181 A 
ATOM     88  C   UNL A   1      35.365  23.259  25.892  1.00  0.00     0.239 A 
ATOM     89  O   UNL A   1      35.627  20.537  25.191  1.00  0.00    -0.452 OA
ATOM     90  C   UNL A   1      36.702  22.588  25.882  1.00  0.00     0.111 A 
ATOM     91  O   UNL A   1      35.218  24.422  26.257  1.00  0.00    -0.285 OA
ATOM     92  C   UNL A   1      36.739  21.242  25.536  1.00  0.00     0.146 A 
ATOM     93  C   UNL A   1      37.922  23.218  26.185  1.00  0.00     0.134 A 
ATOM     94  C   UNL A   1      37.939  20.523  25.508  1.00  0.00     0.094 A 
ATOM     95  C   UNL A   1      39.135  22.505  26.157  1.00  0.00     0.093 A 
ATOM     96  C   UNL A   1      39.128  21.157  25.821  1.00  0.00     0.123 A 
BRANCH  87  97
ATOM     97  C   UNL A   1      33.489  20.328  24.313  1.00  0.00     0.029 A 
ATOM     98  C   UNL A   1      32.799  20.847  23.203  1.00  0.00     0.062 A 
ATOM     99  C   UNL A   1      33.357  18.972  24.666  1.00  0.00     0.062 A 
ATOM    100  C   UNL A   1      32.121  19.982  22.361  1.00  0.00     0.162 A 
ATOM    101  C   UNL A   1      32.683  18.119  23.799  1.00  0.00     0.162 A 
ATOM    102  C   UNL A   1      32.107  18.619  22.634  1.00  0.00     0.200 A 
BRANCH 100 103
ATOM    103  O   UNL A   1      31.594  20.466  21.200  1.00  0.00    -0.504 OA
ATOM    104  H   UNL A   1      30.957  21.151  21.225  1.00  0.00     0.293 HD
ENDBRANCH 100 103
BRANCH 101 105
ATOM    105  O   UNL A   1      32.769  16.771  23.993  1.00  0.00    -0.504 OA
ATOM    106  H   UNL A   1      33.608  16.361  24.074  1.00  0.00     0.293 HD
ENDBRANCH 101 105
BRANCH 102 107
ATOM    107  O   UNL A   1      31.760  17.743  21.639  1.00  0.00    -0.502 OA
ATOM    108  H   UNL A   1      31.800  16.820  21.793  1.00  0.00     0.293 HD
ENDBRANCH 102 107
ENDBRANCH  87  97
BRANCH  93 109
ATOM    109  O   UNL A   1      37.965  24.546  26.506  1.00  0.00    -0.507 OA
ATOM    110  H   UNL A   1      38.787  24.995  26.533  1.00  0.00     0.293 HD
ENDBRANCH  93 109
BRANCH  96 111
ATOM    111  O   UNL A   1      40.270  20.414  25.780  1.00  0.00    -0.508 OA
ATOM    112  H   UNL A   1      40.536  19.923  26.532  1.00  0.00     0.293 HD
ENDBRANCH  96 111
ENDBRANCH  85  86
ENDBRANCH  80  85
BRANCH  81 113
ATOM    113  O   UNL A   1      32.778  24.654  20.544  1.00  0.00    -0.387 OA
ATOM    114  H   UNL A   1      33.511  24.922  19.970  1.00  0.00     0.211 HD
ENDBRANCH  81 113
BRANCH  82 115
ATOM    115  O   UNL A   1      34.725  23.927  22.759  1.00  0.00    -0.384 OA
ATOM    116  H   UNL A   1      34.979  23.949  21.823  1.00  0.00     0.211 HD
ENDBRANCH  82 115
ENDBRANCH  75  77
ENDBRANCH  74  75
ENDBRANCH  73  74
ENDBRANCH   1  73
TORSDOF 25
ENDMDL
MODEL 2
REMARK VINA RESULT:     -12.5      4.252     10.407
REMARK SMILES O=C(OCCOCCOC(=O)[C@H]1O[C@@H](Oc2c(-c3cc(O)c(O)c(O)c3)oc3cc(O)cc(O)c3c2=O)[C@H](O)[C@@H](O)[C@@H]1O)c1ccc(-c2c3nc(c(-c4c(F)c(F)c(F)c(F)c4F)c4ccc([nH]4)c(-c4c(F)c(F)c(F)c(F)c4F)c4nc(c(-c5c(F)c(F)c(F)c(F)c5F)c5ccc2[nH]5)C=C4)C=C3)cc1
REMARK SMILES IDX 7 1 6 2 5 3 4 4 3 5 2 6 1 7 44 8 45 9 106 10 46 11 105 12
REMARK SMILES IDX 47 13 48 14 49 15 99 16 50 17 104 18 98 19 100 20 51 21
REMARK SMILES IDX 103 22 97 23 96 24 52 26 84 27 64 28 83 29 65 30 68 31 82 32
REMARK SMILES IDX 101 33 66 34 67 35 81 37 102 38 69 39 53 40 54 41 62 42
REMARK SMILES IDX 55 43 56 44 60 45 63 46 57 47 58 48 61 49 59 50 85 51 86 52
REMARK SMILES IDX 94 53 87 54 88 55 92 56 95 57 89 58 90 59 93 60 91 61 70 62
REMARK SMILES IDX 71 63 79 64 72 65 73 66 77 67 80 68 74 69 75 70 78 71 76 72
REMARK SMILES IDX 8 73 9 74 10 75 11 76 12 77 13 78 42 79 14 80 40 81 38 82
REMARK SMILES IDX 43 83 15 85 16 86 17 87 36 88 27 89 35 90 37 91 28 92 33 93
REMARK SMILES IDX 29 94 32 95 30 96 18 97 19 98 26 99 20 100 24 101 22 102
REMARK SMILES IDX 21 103 25 105 23 107 34 109 31 111 41 113 39 115
REMARK H PARENT 100 25 68 36 43 84 21 104 25 106 23 108 34 110 31 112 41 114
REMARK H PARENT 39 116
REMARK Flexibility Score: inf
ROOT
ATOM      1  C   UNL A   1      37.393  22.492  25.353  1.00  0.00     0.202 C 
ENDROOT
BRANCH   1   2
ATOM      2  O   UNL A   1      38.540  21.686  25.641  1.00  0.00    -0.374 OA
BRANCH   2   3
ATOM      3  C   UNL A   1      38.489  20.327  25.185  1.00  0.00     0.202 C 
BRANCH   3   4
ATOM      4  C   UNL A   1      39.278  19.329  26.035  1.00  0.00     0.261 C 
BRANCH   4   5
ATOM      5  O   UNL A   1      40.555  19.065  25.429  1.00  0.00    -0.460 OA
BRANCH   5   6
ATOM      6  C   UNL A   1      41.778  19.392  25.902  1.00  0.00     0.338 C 
ATOM      7  O   UNL A   1      42.654  18.530  25.933  1.00  0.00    -0.246 OA
BRANCH   6   8
ATOM      8  C   UNL A   1      42.131  20.765  26.366  1.00  0.00     0.060 A 
ATOM      9  C   UNL A   1      42.240  21.876  25.535  1.00  0.00     0.016 A 
ATOM     10  C   UNL A   1      42.296  20.961  27.747  1.00  0.00     0.016 A 
ATOM     11  C   UNL A   1      42.530  23.126  26.016  1.00  0.00     0.010 A 
ATOM     12  C   UNL A   1      42.556  22.237  28.259  1.00  0.00     0.010 A 
ATOM     13  C   UNL A   1      42.670  23.317  27.380  1.00  0.00    -0.014 A 
BRANCH  13  14
ATOM     14  C   UNL A   1      43.070  24.671  27.760  1.00  0.00     0.031 A 
ATOM     15  C   UNL A   1      44.440  25.117  27.371  1.00  0.00     0.074 A 
ATOM     16  C   UNL A   1      42.110  25.526  28.155  1.00  0.00     0.049 A 
ATOM     17  N   UNL A   1      45.005  26.278  27.538  1.00  0.00    -0.248 NA
ATOM     18  C   UNL A   1      45.277  24.130  26.665  1.00  0.00     0.031 C 
ATOM     19  C   UNL A   1      40.695  25.176  28.342  1.00  0.00     0.029 A 
ATOM     20  N   UNL A   1      42.152  26.869  28.397  1.00  0.00    -0.354 N 
ATOM     21  C   UNL A   1      46.268  26.155  26.982  1.00  0.00     0.074 A 
ATOM     22  C   UNL A   1      46.396  24.809  26.474  1.00  0.00     0.031 C 
ATOM     23  C   UNL A   1      40.003  26.285  28.643  1.00  0.00     0.029 A 
ATOM     24  C   UNL A   1      40.937  27.395  28.760  1.00  0.00     0.049 A 
ATOM     25  H   UNL A   1      42.973  27.407  28.319  1.00  0.00     0.167 HD
ATOM     26  C   UNL A   1      47.231  27.101  26.915  1.00  0.00     0.037 A 
ATOM     27  C   UNL A   1      40.642  28.634  29.191  1.00  0.00     0.037 A 
ATOM     28  C   UNL A   1      47.050  28.426  27.440  1.00  0.00     0.049 A 
ATOM     29  C   UNL A   1      41.776  29.622  29.246  1.00  0.00     0.074 A 
ATOM     30  C   UNL A   1      47.970  29.447  27.559  1.00  0.00     0.029 A 
ATOM     31  N   UNL A   1      45.841  28.908  27.933  1.00  0.00    -0.354 N 
ATOM     32  N   UNL A   1      43.019  29.476  28.844  1.00  0.00    -0.248 NA
ATOM     33  C   UNL A   1      41.480  30.935  29.824  1.00  0.00     0.031 C 
ATOM     34  C   UNL A   1      47.329  30.532  28.169  1.00  0.00     0.029 A 
ATOM     35  C   UNL A   1      45.994  30.209  28.373  1.00  0.00     0.049 A 
ATOM     36  H   UNL A   1      45.000  28.396  27.965  1.00  0.00     0.167 HD
ATOM     37  C   UNL A   1      43.651  30.680  29.109  1.00  0.00     0.074 A 
ATOM     38  C   UNL A   1      42.639  31.557  29.672  1.00  0.00     0.031 C 
ATOM     39  C   UNL A   1      44.947  31.035  28.922  1.00  0.00     0.037 A 
BRANCH  26  40
ATOM     40  C   UNL A   1      48.554  26.687  26.349  1.00  0.00     0.064 A 
ATOM     41  C   UNL A   1      49.534  26.054  27.128  1.00  0.00     0.173 A 
ATOM     42  C   UNL A   1      48.865  26.977  25.012  1.00  0.00     0.173 A 
ATOM     43  F   UNL A   1      49.303  25.794  28.424  1.00  0.00    -0.203 F 
ATOM     44  C   UNL A   1      50.784  25.746  26.594  1.00  0.00     0.198 A 
ATOM     45  C   UNL A   1      50.104  26.643  24.475  1.00  0.00     0.198 A 
ATOM     46  F   UNL A   1      47.971  27.599  24.230  1.00  0.00    -0.203 F 
ATOM     47  F   UNL A   1      51.727  25.198  27.373  1.00  0.00    -0.200 F 
ATOM     48  C   UNL A   1      51.065  26.035  25.267  1.00  0.00     0.200 A 
ATOM     49  F   UNL A   1      50.375  26.926  23.193  1.00  0.00    -0.200 F 
ATOM     50  F   UNL A   1      52.270  25.745  24.757  1.00  0.00    -0.200 F 
ENDBRANCH  26  40
BRANCH  27  51
ATOM     51  C   UNL A   1      39.280  28.965  29.692  1.00  0.00     0.064 A 
ATOM     52  C   UNL A   1      38.300  29.520  28.857  1.00  0.00     0.173 A 
ATOM     53  C   UNL A   1      38.946  28.781  31.045  1.00  0.00     0.173 A 
ATOM     54  F   UNL A   1      38.568  29.735  27.561  1.00  0.00    -0.203 F 
ATOM     55  C   UNL A   1      37.061  29.912  29.362  1.00  0.00     0.198 A 
ATOM     56  C   UNL A   1      37.693  29.137  31.539  1.00  0.00     0.198 A 
ATOM     57  F   UNL A   1      39.840  28.258  31.896  1.00  0.00    -0.203 F 
ATOM     58  F   UNL A   1      36.170  30.507  28.555  1.00  0.00    -0.200 F 
ATOM     59  C   UNL A   1      36.756  29.718  30.701  1.00  0.00     0.200 A 
ATOM     60  F   UNL A   1      37.402  28.930  32.831  1.00  0.00    -0.200 F 
ATOM     61  F   UNL A   1      35.569  30.105  31.187  1.00  0.00    -0.200 F 
ENDBRANCH  27  51
BRANCH  39  62
ATOM     62  C   UNL A   1      45.313  32.437  29.304  1.00  0.00     0.064 A 
ATOM     63  C   UNL A   1      45.173  33.504  28.405  1.00  0.00     0.173 A 
ATOM     64  C   UNL A   1      45.789  32.713  30.594  1.00  0.00     0.173 A 
ATOM     65  F   UNL A   1      44.738  33.283  27.156  1.00  0.00    -0.203 F 
ATOM     66  C   UNL A   1      45.531  34.795  28.775  1.00  0.00     0.198 A 
ATOM     67  C   UNL A   1      46.108  34.012  30.972  1.00  0.00     0.198 A 
ATOM     68  F   UNL A   1      45.931  31.725  31.489  1.00  0.00    -0.203 F 
ATOM     69  F   UNL A   1      45.454  35.791  27.881  1.00  0.00    -0.200 F 
ATOM     70  C   UNL A   1      45.991  35.049  30.058  1.00  0.00     0.200 A 
ATOM     71  F   UNL A   1      46.533  34.258  32.218  1.00  0.00    -0.200 F 
ATOM     72  F   UNL A   1      46.332  36.296  30.414  1.00  0.00    -0.200 F 
ENDBRANCH  39  62
ENDBRANCH  13  14
ENDBRANCH   6   8
ENDBRANCH   5   6
ENDBRANCH   4   5
ENDBRANCH   3   4
ENDBRANCH   2   3
ENDBRANCH   1   2
BRANCH   1  73
ATOM     73  C   UNL A   1      36.127  21.709  25.681  1.00  0.00     0.261 C 
BRANCH  73  74
ATOM     74  O   UNL A   1      35.039  22.634  25.602  1.00  0.00    -0.461 OA
BRANCH  74  75
ATOM     75  C   UNL A   1      34.255  22.675  26.712  1.00  0.00     0.338 C 
ATOM     76  O   UNL A   1      34.212  21.822  27.599  1.00  0.00    -0.249 OA
BRANCH  75  77
ATOM     77  C   UNL A   1      33.402  23.933  26.733  1.00  0.00     0.263 C 
ATOM     78  O   UNL A   1      33.748  24.985  25.812  1.00  0.00    -0.322 OA
ATOM     79  C   UNL A   1      31.965  23.535  26.431  1.00  0.00     0.186 C 
ATOM     80  C   UNL A   1      33.111  26.217  26.168  1.00  0.00     0.340 C 
ATOM     81  C   UNL A   1      31.085  24.688  26.891  1.00  0.00     0.181 C 
ATOM     82  C   UNL A   1      31.589  26.036  26.370  1.00  0.00     0.214 C 
BRANCH  79  83
ATOM     83  O   UNL A   1      31.501  22.339  27.062  1.00  0.00    -0.387 OA
ATOM     84  H   UNL A   1      30.654  22.074  26.668  1.00  0.00     0.211 HD
ENDBRANCH  79  83
BRANCH  80  85
ATOM     85  O   UNL A   1      33.380  27.372  25.316  1.00  0.00    -0.454 OA
BRANCH  85  86
ATOM     86  C   UNL A   1      32.552  27.903  24.338  1.00  0.00     0.214 A 
ATOM     87  C   UNL A   1      31.996  27.230  23.301  1.00  0.00     0.181 A 
ATOM     88  C   UNL A   1      31.923  29.245  24.644  1.00  0.00     0.239 A 
ATOM     89  O   UNL A   1      31.082  27.743  22.407  1.00  0.00    -0.452 OA
ATOM     90  C   UNL A   1      30.773  29.694  23.799  1.00  0.00     0.111 A 
ATOM     91  O   UNL A   1      32.348  29.916  25.580  1.00  0.00    -0.285 OA
ATOM     92  C   UNL A   1      30.433  28.900  22.709  1.00  0.00     0.146 A 
ATOM     93  C   UNL A   1      30.005  30.849  24.030  1.00  0.00     0.134 A 
ATOM     94  C   UNL A   1      29.380  29.240  21.853  1.00  0.00     0.094 A 
ATOM     95  C   UNL A   1      28.942  31.198  23.178  1.00  0.00     0.093 A 
ATOM     96  C   UNL A   1      28.643  30.387  22.089  1.00  0.00     0.123 A 
BRANCH  87  97
ATOM     97  C   UNL A   1      32.303  25.844  22.945  1.00  0.00     0.029 A 
ATOM     98  C   UNL A   1      33.655  25.495  22.770  1.00  0.00     0.062 A 
ATOM     99  C   UNL A   1      31.299  24.858  22.900  1.00  0.00     0.062 A 
ATOM    100  C   UNL A   1      34.008  24.158  22.720  1.00  0.00     0.162 A 
ATOM    101  C   UNL A   1      31.679  23.521  22.863  1.00  0.00     0.162 A 
ATOM    102  C   UNL A   1      33.027  23.178  22.816  1.00  0.00     0.200 A 
BRANCH 100 103
ATOM    103  O   UNL A   1      35.330  23.823  22.718  1.00  0.00    -0.504 OA
ATOM    104  H   UNL A   1      35.850  23.963  23.484  1.00  0.00     0.293 HD
ENDBRANCH 100 103
BRANCH 101 105
ATOM    105  O   UNL A   1      30.737  22.557  23.079  1.00  0.00    -0.504 OA
ATOM    106  H   UNL A   1      30.497  21.972  22.387  1.00  0.00     0.293 HD
ENDBRANCH 101 105
BRANCH 102 107
ATOM    107  O   UNL A   1      33.394  21.894  23.127  1.00  0.00    -0.502 OA
ATOM    108  H   UNL A   1      32.765  21.301  23.487  1.00  0.00     0.293 HD
ENDBRANCH 102 107
ENDBRANCH  87  97
BRANCH  93 109
ATOM    109  O   UNL A   1      30.264  31.661  25.099  1.00  0.00    -0.507 OA
ATOM    110  H   UNL A   1      30.524  32.550  24.959  1.00  0.00     0.293 HD
ENDBRANCH  93 109
BRANCH  96 111
ATOM    111  O   UNL A   1      27.627  30.674  21.227  1.00  0.00    -0.508 OA
ATOM    112  H   UNL A   1      27.514  31.549  20.913  1.00  0.00     0.293 HD
ENDBRANCH  96 111
ENDBRANCH  85  86
ENDBRANCH  80  85
BRANCH  81 113
ATOM    113  O   UNL A   1      29.727  24.459  26.427  1.00  0.00    -0.387 OA
ATOM    114  H   UNL A   1      29.500  25.120  25.755  1.00  0.00     0.211 HD
ENDBRANCH  81 113
BRANCH  82 115
ATOM    115  O   UNL A   1      31.052  27.086  27.179  1.00  0.00    -0.384 OA
ATOM    116  H   UNL A   1      31.777  27.609  27.555  1.00  0.00     0.211 HD
ENDBRANCH  82 115
ENDBRANCH  75  77
ENDBRANCH  74  75
ENDBRANCH  73  74
ENDBRANCH   1  73
TORSDOF 25
ENDMDL
MODEL 3
REMARK VINA RESULT:     -12.4      4.090     10.539
REMARK SMILES O=C(OCCOCCOC(=O)[C@H]1O[C@@H](Oc2c(-c3cc(O)c(O)c(O)c3)oc3cc(O)cc(O)c3c2=O)[C@H](O)[C@@H](O)[C@@H]1O)c1ccc(-c2c3nc(c(-c4c(F)c(F)c(F)c(F)c4F)c4ccc([nH]4)c(-c4c(F)c(F)c(F)c(F)c4F)c4nc(c(-c5c(F)c(F)c(F)c(F)c5F)c5ccc2[nH]5)C=C4)C=C3)cc1
REMARK SMILES IDX 7 1 6 2 5 3 4 4 3 5 2 6 1 7 44 8 45 9 106 10 46 11 105 12
REMARK SMILES IDX 47 13 48 14 49 15 99 16 50 17 104 18 98 19 100 20 51 21
REMARK SMILES IDX 103 22 97 23 96 24 52 26 84 27 64 28 83 29 65 30 68 31 82 32
REMARK SMILES IDX 101 33 66 34 67 35 81 37 102 38 69 39 53 40 54 41 62 42
REMARK SMILES IDX 55 43 56 44 60 45 63 46 57 47 58 48 61 49 59 50 85 51 86 52
REMARK SMILES IDX 94 53 87 54 88 55 92 56 95 57 89 58 90 59 93 60 91 61 70 62
REMARK SMILES IDX 71 63 79 64 72 65 73 66 77 67 80 68 74 69 75 70 78 71 76 72
REMARK SMILES IDX 8 73 9 74 10 75 11 76 12 77 13 78 42 79 14 80 40 81 38 82
REMARK SMILES IDX 43 83 15 85 16 86 17 87 36 88 27 89 35 90 37 91 28 92 33 93
REMARK SMILES IDX 29 94 32 95 30 96 18 97 19 98 26 99 20 100 24 101 22 102
REMARK SMILES IDX 21 103 25 105 23 107 34 109 31 111 41 113 39 115
REMARK H PARENT 100 25 68 36 43 84 21 104 25 106 23 108 34 110 31 112 41 114
REMARK H PARENT 39 116
REMARK Flexibility Score: inf
ROOT
ATOM      1  C   UNL A   1      37.119  22.839  24.917  1.00  0.00     0.202 C 
ENDROOT
BRANCH   1   2
ATOM      2  O   UNL A   1      37.919  21.895  25.638  1.00  0.00    -0.374 OA
BRANCH   2   3
ATOM      3  C   UNL A   1      37.938  20.557  25.120  1.00  0.00     0.202 C 
BRANCH   3   4
ATOM      4  C   UNL A   1      39.186  19.745  25.470  1.00  0.00     0.261 C 
BRANCH   4   5
ATOM      5  O   UNL A   1      39.694  20.148  26.754  1.00  0.00    -0.460 OA
BRANCH   5   6
ATOM      6  C   UNL A   1      40.966  20.466  27.077  1.00  0.00     0.338 C 
ATOM      7  O   UNL A   1      41.811  19.575  27.115  1.00  0.00    -0.246 OA
BRANCH   6   8
ATOM      8  C   UNL A   1      41.409  21.862  27.363  1.00  0.00     0.060 A 
ATOM      9  C   UNL A   1      41.063  22.973  26.598  1.00  0.00     0.016 A 
ATOM     10  C   UNL A   1      42.168  22.078  28.524  1.00  0.00     0.016 A 
ATOM     11  C   UNL A   1      41.464  24.241  26.924  1.00  0.00     0.010 A 
ATOM     12  C   UNL A   1      42.555  23.370  28.893  1.00  0.00     0.010 A 
ATOM     13  C   UNL A   1      42.194  24.450  28.082  1.00  0.00    -0.014 A 
BRANCH  13  14
ATOM     14  C   UNL A   1      42.641  25.829  28.271  1.00  0.00     0.031 A 
ATOM     15  C   UNL A   1      43.876  26.256  27.551  1.00  0.00     0.074 A 
ATOM     16  C   UNL A   1      41.778  26.704  28.819  1.00  0.00     0.049 A 
ATOM     17  N   UNL A   1      44.440  27.430  27.508  1.00  0.00    -0.248 NA
ATOM     18  C   UNL A   1      44.551  25.228  26.739  1.00  0.00     0.031 C 
ATOM     19  C   UNL A   1      40.450  26.359  29.347  1.00  0.00     0.029 A 
ATOM     20  N   UNL A   1      41.845  28.060  28.957  1.00  0.00    -0.354 N 
ATOM     21  C   UNL A   1      45.545  27.276  26.687  1.00  0.00     0.074 A 
ATOM     22  C   UNL A   1      45.583  25.900  26.252  1.00  0.00     0.031 C 
ATOM     23  C   UNL A   1      39.822  27.481  29.725  1.00  0.00     0.029 A 
ATOM     24  C   UNL A   1      40.733  28.603  29.553  1.00  0.00     0.049 A 
ATOM     25  H   UNL A   1      42.615  28.597  28.658  1.00  0.00     0.167 HD
ATOM     26  C   UNL A   1      46.446  28.220  26.340  1.00  0.00     0.037 A 
ATOM     27  C   UNL A   1      40.518  29.866  29.958  1.00  0.00     0.037 A 
ATOM     28  C   UNL A   1      46.361  29.578  26.805  1.00  0.00     0.049 A 
ATOM     29  C   UNL A   1      41.613  30.863  29.688  1.00  0.00     0.074 A 
ATOM     30  C   UNL A   1      47.262  30.610  26.644  1.00  0.00     0.029 A 
ATOM     31  N   UNL A   1      45.287  30.085  27.529  1.00  0.00    -0.354 N 
ATOM     32  N   UNL A   1      42.734  30.697  29.023  1.00  0.00    -0.248 NA
ATOM     33  C   UNL A   1      41.428  32.210  30.231  1.00  0.00     0.031 C 
ATOM     34  C   UNL A   1      46.754  31.730  27.311  1.00  0.00     0.029 A 
ATOM     35  C   UNL A   1      45.508  31.414  27.836  1.00  0.00     0.049 A 
ATOM     36  H   UNL A   1      44.486  29.571  27.785  1.00  0.00     0.167 HD
ATOM     37  C   UNL A   1      43.384  31.920  29.057  1.00  0.00     0.074 A 
ATOM     38  C   UNL A   1      42.508  32.827  29.777  1.00  0.00     0.031 C 
ATOM     39  C   UNL A   1      44.596  32.269  28.555  1.00  0.00     0.037 A 
BRANCH  26  40
ATOM     40  C   UNL A   1      47.614  27.778  25.515  1.00  0.00     0.064 A 
ATOM     41  C   UNL A   1      48.838  27.407  26.092  1.00  0.00     0.173 A 
ATOM     42  C   UNL A   1      47.520  27.772  24.115  1.00  0.00     0.173 A 
ATOM     43  F   UNL A   1      48.993  27.437  27.424  1.00  0.00    -0.203 F 
ATOM     44  C   UNL A   1      49.931  27.069  25.296  1.00  0.00     0.198 A 
ATOM     45  C   UNL A   1      48.606  27.407  23.324  1.00  0.00     0.198 A 
ATOM     46  F   UNL A   1      46.379  28.137  23.513  1.00  0.00    -0.203 F 
ATOM     47  F   UNL A   1      51.109  26.779  25.866  1.00  0.00    -0.200 F 
ATOM     48  C   UNL A   1      49.812  27.064  23.914  1.00  0.00     0.200 A 
ATOM     49  F   UNL A   1      48.489  27.406  21.989  1.00  0.00    -0.200 F 
ATOM     50  F   UNL A   1      50.866  26.745  23.150  1.00  0.00    -0.200 F 
ENDBRANCH  26  40
BRANCH  27  51
ATOM     51  C   UNL A   1      39.299  30.222  30.734  1.00  0.00     0.064 A 
ATOM     52  C   UNL A   1      38.196  30.846  30.135  1.00  0.00     0.173 A 
ATOM     53  C   UNL A   1      39.235  29.993  32.120  1.00  0.00     0.173 A 
ATOM     54  F   UNL A   1      38.208  31.106  28.819  1.00  0.00    -0.203 F 
ATOM     55  C   UNL A   1      37.101  31.259  30.892  1.00  0.00     0.198 A 
ATOM     56  C   UNL A   1      38.123  30.370  32.869  1.00  0.00     0.198 A 
ATOM     57  F   UNL A   1      40.258  29.403  32.755  1.00  0.00    -0.203 F 
ATOM     58  F   UNL A   1      36.092  31.918  30.303  1.00  0.00    -0.200 F 
ATOM     59  C   UNL A   1      37.062  31.018  32.258  1.00  0.00     0.200 A 
ATOM     60  F   UNL A   1      38.088  30.119  34.185  1.00  0.00    -0.200 F 
ATOM     61  F   UNL A   1      36.014  31.425  32.986  1.00  0.00    -0.200 F 
ENDBRANCH  27  51
BRANCH  39  62
ATOM     62  C   UNL A   1      45.008  33.696  28.751  1.00  0.00     0.064 A 
ATOM     63  C   UNL A   1      45.770  34.096  29.857  1.00  0.00     0.173 A 
ATOM     64  C   UNL A   1      44.653  34.668  27.803  1.00  0.00     0.173 A 
ATOM     65  F   UNL A   1      46.119  33.204  30.797  1.00  0.00    -0.203 F 
ATOM     66  C   UNL A   1      46.131  35.428  30.027  1.00  0.00     0.198 A 
ATOM     67  C   UNL A   1      45.049  35.990  27.957  1.00  0.00     0.198 A 
ATOM     68  F   UNL A   1      43.932  34.329  26.724  1.00  0.00    -0.203 F 
ATOM     69  F   UNL A   1      46.801  35.803  31.126  1.00  0.00    -0.200 F 
ATOM     70  C   UNL A   1      45.777  36.372  29.075  1.00  0.00     0.200 A 
ATOM     71  F   UNL A   1      44.723  36.897  27.026  1.00  0.00    -0.200 F 
ATOM     72  F   UNL A   1      46.129  37.654  29.238  1.00  0.00    -0.200 F 
ENDBRANCH  39  62
ENDBRANCH  13  14
ENDBRANCH   6   8
ENDBRANCH   5   6
ENDBRANCH   4   5
ENDBRANCH   3   4
ENDBRANCH   2   3
ENDBRANCH   1   2
BRANCH   1  73
ATOM     73  C   UNL A   1      36.580  22.186  23.650  1.00  0.00     0.261 C 
BRANCH  73  74
ATOM     74  O   UNL A   1      35.192  22.522  23.572  1.00  0.00    -0.461 OA
BRANCH  74  75
ATOM     75  C   UNL A   1      34.439  22.041  24.596  1.00  0.00     0.338 C 
ATOM     76  O   UNL A   1      34.528  20.919  25.094  1.00  0.00    -0.249 OA
BRANCH  75  77
ATOM     77  C   UNL A   1      33.435  23.079  25.070  1.00  0.00     0.263 C 
ATOM     78  O   UNL A   1      33.184  24.204  24.206  1.00  0.00    -0.322 OA
ATOM     79  C   UNL A   1      32.101  22.382  25.287  1.00  0.00     0.186 C 
ATOM     80  C   UNL A   1      32.510  25.255  24.905  1.00  0.00     0.340 C 
ATOM     81  C   UNL A   1      31.262  23.300  26.164  1.00  0.00     0.181 C 
ATOM     82  C   UNL A   1      31.252  24.738  25.640  1.00  0.00     0.214 C 
BRANCH  79  83
ATOM     83  O   UNL A   1      32.160  21.098  25.913  1.00  0.00    -0.387 OA
ATOM     84  H   UNL A   1      32.627  20.477  25.331  1.00  0.00     0.211 HD
ENDBRANCH  79  83
BRANCH  80  85
ATOM     85  O   UNL A   1      32.196  26.462  24.144  1.00  0.00    -0.454 OA
BRANCH  85  86
ATOM     86  C   UNL A   1      32.323  27.777  24.565  1.00  0.00     0.214 A 
ATOM     87  C   UNL A   1      31.361  28.731  24.528  1.00  0.00     0.181 A 
ATOM     88  C   UNL A   1      33.496  28.084  25.471  1.00  0.00     0.239 A 
ATOM     89  O   UNL A   1      31.462  29.998  25.059  1.00  0.00    -0.452 OA
ATOM     90  C   UNL A   1      33.486  29.377  26.224  1.00  0.00     0.111 A 
ATOM     91  O   UNL A   1      34.405  27.267  25.584  1.00  0.00    -0.285 OA
ATOM     92  C   UNL A   1      32.454  30.268  25.951  1.00  0.00     0.146 A 
ATOM     93  C   UNL A   1      34.434  29.752  27.193  1.00  0.00     0.134 A 
ATOM     94  C   UNL A   1      32.363  31.506  26.594  1.00  0.00     0.094 A 
ATOM     95  C   UNL A   1      34.350  30.994  27.848  1.00  0.00     0.093 A 
ATOM     96  C   UNL A   1      33.312  31.864  27.537  1.00  0.00     0.123 A 
BRANCH  87  97
ATOM     97  C   UNL A   1      30.055  28.576  23.883  1.00  0.00     0.029 A 
ATOM     98  C   UNL A   1      29.408  27.332  24.004  1.00  0.00     0.062 A 
ATOM     99  C   UNL A   1      29.406  29.663  23.269  1.00  0.00     0.062 A 
ATOM    100  C   UNL A   1      28.070  27.231  23.666  1.00  0.00     0.162 A 
ATOM    101  C   UNL A   1      28.058  29.542  22.951  1.00  0.00     0.162 A 
ATOM    102  C   UNL A   1      27.388  28.345  23.189  1.00  0.00     0.200 A 
BRANCH 100 103
ATOM    103  O   UNL A   1      27.405  26.072  23.939  1.00  0.00    -0.504 OA
ATOM    104  H   UNL A   1      26.472  26.039  23.866  1.00  0.00     0.293 HD
ENDBRANCH 100 103
BRANCH 101 105
ATOM    105  O   UNL A   1      27.355  30.658  22.600  1.00  0.00    -0.504 OA
ATOM    106  H   UNL A   1      27.526  31.081  21.781  1.00  0.00     0.293 HD
ENDBRANCH 101 105
BRANCH 102 107
ATOM    107  O   UNL A   1      26.018  28.344  23.200  1.00  0.00    -0.502 OA
ATOM    108  H   UNL A   1      25.552  29.085  23.535  1.00  0.00     0.293 HD
ENDBRANCH 102 107
ENDBRANCH  87  97
BRANCH  93 109
ATOM    109  O   UNL A   1      35.460  28.915  27.533  1.00  0.00    -0.507 OA
ATOM    110  H   UNL A   1      35.590  28.674  28.428  1.00  0.00     0.293 HD
ENDBRANCH  93 109
BRANCH  96 111
ATOM    111  O   UNL A   1      33.179  33.080  28.136  1.00  0.00    -0.508 OA
ATOM    112  H   UNL A   1      33.835  33.381  28.734  1.00  0.00     0.293 HD
ENDBRANCH  96 111
ENDBRANCH  85  86
ENDBRANCH  80  85
BRANCH  81 113
ATOM    113  O   UNL A   1      29.903  22.789  26.220  1.00  0.00    -0.387 OA
ATOM    114  H   UNL A   1      29.581  22.828  27.134  1.00  0.00     0.211 HD
ENDBRANCH  81 113
BRANCH  82 115
ATOM    115  O   UNL A   1      30.879  25.624  26.700  1.00  0.00    -0.384 OA
ATOM    116  H   UNL A   1      29.938  25.847  26.618  1.00  0.00     0.211 HD
ENDBRANCH  82 115
ENDBRANCH  75  77
ENDBRANCH  74  75
ENDBRANCH  73  74
ENDBRANCH   1  73
TORSDOF 25
ENDMDL
