MODEL 1
REMARK VINA RESULT:     -11.3      0.000      0.000
REMARK SMILES COc1ccc(C(C)(C)C)cc1CC(=O)OCCOCCOC(=O)c1ccc(-c2c3nc(c(-c4c(F)c(F)c(F)c(F)c4F)c4ccc([nH]4)c(-c4c(F)c(F)c(F)c(F)c4F)c4nc(c(-c5c(F)c(F)c(F)c(F)c5F)c5ccc2[nH]5)C=C4)C=C3)cc1
REMARK SMILES IDX 19 1 18 2 17 3 16 4 14 5 15 6 13 7 12 8 3 9 4 10 5 11 11 12
REMARK SMILES IDX 6 13 2 14 1 15 7 16 8 17 9 18 10 19 20 20 21 21 22 22 23 23
REMARK SMILES IDX 24 24 25 25 26 26 87 27 27 28 86 29 28 30 29 31 30 32 80 33
REMARK SMILES IDX 31 34 85 35 79 36 81 37 32 38 84 39 78 40 77 41 33 43 65 44
REMARK SMILES IDX 45 45 64 46 46 47 49 48 63 49 82 50 47 51 48 52 62 54 83 55
REMARK SMILES IDX 50 56 34 57 35 58 43 59 36 60 37 61 41 62 44 63 38 64 39 65
REMARK SMILES IDX 42 66 40 67 66 68 67 69 75 70 68 71 69 72 73 73 76 74 70 75
REMARK SMILES IDX 71 76 74 77 72 78 51 79 52 80 60 81 53 82 54 83 58 84 61 85
REMARK SMILES IDX 55 86 56 87 59 88 57 89
REMARK H PARENT 81 42 49 53
REMARK Flexibility Score: inf
ROOT
ATOM      1  O   UNL A   1      35.084  19.997  24.793  1.00  0.00    -0.374 OA
ENDROOT
BRANCH   1   2
ATOM      2  C   UNL A   1      33.757  20.298  25.234  1.00  0.00     0.202 C 
BRANCH   2   3
ATOM      3  C   UNL A   1      33.387  21.784  25.281  1.00  0.00     0.261 C 
BRANCH   3   4
ATOM      4  O   UNL A   1      32.738  22.191  24.068  1.00  0.00    -0.463 OA
BRANCH   4   5
ATOM      5  C   UNL A   1      32.463  23.519  23.965  1.00  0.00     0.310 C 
ATOM      6  O   UNL A   1      31.336  23.988  23.836  1.00  0.00    -0.252 OA
BRANCH   5   7
ATOM      7  C   UNL A   1      33.673  24.388  24.230  1.00  0.00     0.162 C 
BRANCH   7   8
ATOM      8  C   UNL A   1      33.478  25.885  24.148  1.00  0.00     0.005 A 
ATOM      9  C   UNL A   1      33.507  26.552  22.921  1.00  0.00     0.122 A 
ATOM     10  C   UNL A   1      33.304  27.925  22.858  1.00  0.00     0.047 A 
ATOM     11  C   UNL A   1      33.047  28.649  24.027  1.00  0.00     0.008 A 
ATOM     12  C   UNL A   1      33.220  26.632  25.321  1.00  0.00     0.012 A 
ATOM     13  C   UNL A   1      33.008  28.024  25.289  1.00  0.00    -0.042 A 
BRANCH   9  14
ATOM     14  O   UNL A   1      33.822  25.896  21.763  1.00  0.00    -0.496 OA
ATOM     15  C   UNL A   1      32.681  25.718  20.922  1.00  0.00     0.278 C 
ENDBRANCH   9  14
BRANCH  13  16
ATOM     16  C   UNL A   1      32.753  28.870  26.554  1.00  0.00    -0.013 C 
ATOM     17  C   UNL A   1      34.105  29.212  27.221  1.00  0.00     0.016 C 
ATOM     18  C   UNL A   1      32.029  30.179  26.170  1.00  0.00     0.016 C 
ATOM     19  C   UNL A   1      31.872  28.187  27.625  1.00  0.00     0.016 C 
ENDBRANCH  13  16
ENDBRANCH   7   8
ENDBRANCH   5   7
ENDBRANCH   4   5
ENDBRANCH   3   4
ENDBRANCH   2   3
ENDBRANCH   1   2
BRANCH   1  20
ATOM     20  C   UNL A   1      36.118  20.914  25.151  1.00  0.00     0.202 C 
BRANCH  20  21
ATOM     21  C   UNL A   1      37.555  20.411  24.992  1.00  0.00     0.261 C 
BRANCH  21  22
ATOM     22  O   UNL A   1      38.530  21.443  25.180  1.00  0.00    -0.460 OA
BRANCH  22  23
ATOM     23  C   UNL A   1      39.465  21.148  26.108  1.00  0.00     0.338 C 
ATOM     24  O   UNL A   1      40.046  20.084  26.273  1.00  0.00    -0.246 OA
BRANCH  23  25
ATOM     25  C   UNL A   1      39.843  22.357  26.849  1.00  0.00     0.060 A 
ATOM     26  C   UNL A   1      39.188  23.545  26.511  1.00  0.00     0.016 A 
ATOM     27  C   UNL A   1      40.911  22.357  27.750  1.00  0.00     0.016 A 
ATOM     28  C   UNL A   1      39.645  24.755  27.020  1.00  0.00     0.010 A 
ATOM     29  C   UNL A   1      41.371  23.575  28.260  1.00  0.00     0.010 A 
ATOM     30  C   UNL A   1      40.769  24.781  27.859  1.00  0.00    -0.014 A 
BRANCH  30  31
ATOM     31  C   UNL A   1      41.383  26.092  28.177  1.00  0.00     0.031 A 
ATOM     32  C   UNL A   1      42.765  26.397  27.670  1.00  0.00     0.074 A 
ATOM     33  C   UNL A   1      40.679  27.029  28.835  1.00  0.00     0.049 A 
ATOM     34  N   UNL A   1      43.450  27.511  27.740  1.00  0.00    -0.248 NA
ATOM     35  C   UNL A   1      43.472  25.299  26.991  1.00  0.00     0.031 C 
ATOM     36  C   UNL A   1      39.324  26.854  29.354  1.00  0.00     0.029 A 
ATOM     37  N   UNL A   1      41.004  28.320  29.164  1.00  0.00    -0.354 N 
ATOM     38  C   UNL A   1      44.659  27.250  27.108  1.00  0.00     0.074 A 
ATOM     39  C   UNL A   1      44.633  25.864  26.695  1.00  0.00     0.031 C 
ATOM     40  C   UNL A   1      38.927  28.001  29.928  1.00  0.00     0.029 A 
ATOM     41  C   UNL A   1      40.003  28.985  29.828  1.00  0.00     0.049 A 
ATOM     42  H   UNL A   1      41.871  28.732  28.944  1.00  0.00     0.167 HD
ATOM     43  C   UNL A   1      45.692  28.096  26.882  1.00  0.00     0.037 A 
ATOM     44  C   UNL A   1      39.965  30.246  30.299  1.00  0.00     0.037 A 
ATOM     45  C   UNL A   1      45.716  29.476  27.292  1.00  0.00     0.049 A 
ATOM     46  C   UNL A   1      41.142  31.155  30.066  1.00  0.00     0.074 A 
ATOM     47  C   UNL A   1      46.705  30.421  27.093  1.00  0.00     0.029 A 
ATOM     48  N   UNL A   1      44.698  30.103  27.996  1.00  0.00    -0.354 N 
ATOM     49  N   UNL A   1      42.262  30.914  29.429  1.00  0.00    -0.248 NA
ATOM     50  C   UNL A   1      41.042  32.517  30.608  1.00  0.00     0.031 C 
ATOM     51  C   UNL A   1      46.304  31.611  27.712  1.00  0.00     0.029 A 
ATOM     52  C   UNL A   1      45.046  31.418  28.259  1.00  0.00     0.049 A 
ATOM     53  H   UNL A   1      43.853  29.677  28.268  1.00  0.00     0.167 HD
ATOM     54  C   UNL A   1      42.989  32.096  29.472  1.00  0.00     0.074 A 
ATOM     55  C   UNL A   1      42.176  33.060  30.184  1.00  0.00     0.031 C 
ATOM     56  C   UNL A   1      44.220  32.361  28.969  1.00  0.00     0.037 A 
BRANCH  43  57
ATOM     57  C   UNL A   1      46.893  27.545  26.170  1.00  0.00     0.064 A 
ATOM     58  C   UNL A   1      47.025  27.632  24.775  1.00  0.00     0.173 A 
ATOM     59  C   UNL A   1      47.936  26.950  26.893  1.00  0.00     0.173 A 
ATOM     60  F   UNL A   1      46.048  28.180  24.038  1.00  0.00    -0.203 F 
ATOM     61  C   UNL A   1      48.147  27.121  24.130  1.00  0.00     0.198 A 
ATOM     62  C   UNL A   1      49.069  26.463  26.246  1.00  0.00     0.198 A 
ATOM     63  F   UNL A   1      47.860  26.846  28.228  1.00  0.00    -0.203 F 
ATOM     64  F   UNL A   1      48.233  27.176  22.793  1.00  0.00    -0.200 F 
ATOM     65  C   UNL A   1      49.170  26.542  24.865  1.00  0.00     0.200 A 
ATOM     66  F   UNL A   1      50.061  25.911  26.960  1.00  0.00    -0.200 F 
ATOM     67  F   UNL A   1      50.253  26.054  24.243  1.00  0.00    -0.200 F 
ENDBRANCH  43  57
BRANCH  44  68
ATOM     68  C   UNL A   1      38.760  30.728  31.021  1.00  0.00     0.064 A 
ATOM     69  C   UNL A   1      38.690  30.690  32.420  1.00  0.00     0.173 A 
ATOM     70  C   UNL A   1      37.652  31.229  30.323  1.00  0.00     0.173 A 
ATOM     71  F   UNL A   1      39.715  30.196  33.128  1.00  0.00    -0.203 F 
ATOM     72  C   UNL A   1      37.549  31.123  33.095  1.00  0.00     0.198 A 
ATOM     73  C   UNL A   1      36.522  31.684  31.000  1.00  0.00     0.198 A 
ATOM     74  F   UNL A   1      37.669  31.284  28.984  1.00  0.00    -0.203 F 
ATOM     75  F   UNL A   1      37.492  31.037  34.431  1.00  0.00    -0.200 F 
ATOM     76  C   UNL A   1      36.469  31.625  32.384  1.00  0.00     0.200 A 
ATOM     77  F   UNL A   1      35.484  32.178  30.311  1.00  0.00    -0.200 F 
ATOM     78  F   UNL A   1      35.374  32.043  33.034  1.00  0.00    -0.200 F 
ENDBRANCH  44  68
BRANCH  56  79
ATOM     79  C   UNL A   1      44.747  33.754  29.151  1.00  0.00     0.064 A 
ATOM     80  C   UNL A   1      44.481  34.767  28.219  1.00  0.00     0.173 A 
ATOM     81  C   UNL A   1      45.504  34.085  30.286  1.00  0.00     0.173 A 
ATOM     82  F   UNL A   1      43.774  34.497  27.111  1.00  0.00    -0.203 F 
ATOM     83  C   UNL A   1      44.979  36.054  28.401  1.00  0.00     0.198 A 
ATOM     84  C   UNL A   1      45.979  35.379  30.478  1.00  0.00     0.198 A 
ATOM     85  F   UNL A   1      45.779  33.153  31.210  1.00  0.00    -0.203 F 
ATOM     86  F   UNL A   1      44.756  36.994  27.473  1.00  0.00    -0.200 F 
ATOM     87  C   UNL A   1      45.723  36.360  29.531  1.00  0.00     0.200 A 
ATOM     88  F   UNL A   1      46.686  35.677  31.576  1.00  0.00    -0.200 F 
ATOM     89  F   UNL A   1      46.200  37.600  29.705  1.00  0.00    -0.200 F 
ENDBRANCH  56  79
ENDBRANCH  30  31
ENDBRANCH  23  25
ENDBRANCH  22  23
ENDBRANCH  21  22
ENDBRANCH  20  21
ENDBRANCH   1  20
TORSDOF 17
ENDMDL
MODEL 2
REMARK VINA RESULT:     -11.2      4.229      9.674
REMARK SMILES COc1ccc(C(C)(C)C)cc1CC(=O)OCCOCCOC(=O)c1ccc(-c2c3nc(c(-c4c(F)c(F)c(F)c(F)c4F)c4ccc([nH]4)c(-c4c(F)c(F)c(F)c(F)c4F)c4nc(c(-c5c(F)c(F)c(F)c(F)c5F)c5ccc2[nH]5)C=C4)C=C3)cc1
REMARK SMILES IDX 19 1 18 2 17 3 16 4 14 5 15 6 13 7 12 8 3 9 4 10 5 11 11 12
REMARK SMILES IDX 6 13 2 14 1 15 7 16 8 17 9 18 10 19 20 20 21 21 22 22 23 23
REMARK SMILES IDX 24 24 25 25 26 26 87 27 27 28 86 29 28 30 29 31 30 32 80 33
REMARK SMILES IDX 31 34 85 35 79 36 81 37 32 38 84 39 78 40 77 41 33 43 65 44
REMARK SMILES IDX 45 45 64 46 46 47 49 48 63 49 82 50 47 51 48 52 62 54 83 55
REMARK SMILES IDX 50 56 34 57 35 58 43 59 36 60 37 61 41 62 44 63 38 64 39 65
REMARK SMILES IDX 42 66 40 67 66 68 67 69 75 70 68 71 69 72 73 73 76 74 70 75
REMARK SMILES IDX 71 76 74 77 72 78 51 79 52 80 60 81 53 82 54 83 58 84 61 85
REMARK SMILES IDX 55 86 56 87 59 88 57 89
REMARK H PARENT 81 42 49 53
REMARK Flexibility Score: inf
ROOT
ATOM      1  O   UNL A   1      31.644  28.290  25.083  1.00  0.00    -0.374 OA
ENDROOT
BRANCH   1   2
ATOM      2  C   UNL A   1      31.963  27.292  26.057  1.00  0.00     0.202 C 
BRANCH   2   3
ATOM      3  C   UNL A   1      30.862  26.268  26.353  1.00  0.00     0.261 C 
BRANCH   3   4
ATOM      4  O   UNL A   1      31.424  25.015  26.771  1.00  0.00    -0.463 OA
BRANCH   4   5
ATOM      5  C   UNL A   1      30.660  23.917  26.525  1.00  0.00     0.310 C 
ATOM      6  O   UNL A   1      29.748  23.528  27.249  1.00  0.00    -0.252 OA
BRANCH   5   7
ATOM      7  C   UNL A   1      30.910  23.326  25.155  1.00  0.00     0.162 C 
BRANCH   7   8
ATOM      8  C   UNL A   1      32.255  23.595  24.522  1.00  0.00     0.005 A 
ATOM      9  C   UNL A   1      32.392  24.516  23.480  1.00  0.00     0.122 A 
ATOM     10  C   UNL A   1      33.639  24.771  22.922  1.00  0.00     0.047 A 
ATOM     11  C   UNL A   1      34.773  24.121  23.416  1.00  0.00     0.008 A 
ATOM     12  C   UNL A   1      33.412  22.944  25.008  1.00  0.00     0.012 A 
ATOM     13  C   UNL A   1      34.689  23.183  24.465  1.00  0.00    -0.042 A 
BRANCH   9  14
ATOM     14  O   UNL A   1      31.302  25.123  22.921  1.00  0.00    -0.496 OA
ATOM     15  C   UNL A   1      31.665  26.269  22.148  1.00  0.00     0.278 C 
ENDBRANCH   9  14
BRANCH  13  16
ATOM     16  C   UNL A   1      35.965  22.467  24.955  1.00  0.00    -0.013 C 
ATOM     17  C   UNL A   1      36.633  23.316  26.062  1.00  0.00     0.016 C 
ATOM     18  C   UNL A   1      35.598  21.081  25.528  1.00  0.00     0.016 C 
ATOM     19  C   UNL A   1      37.029  22.217  23.863  1.00  0.00     0.016 C 
ENDBRANCH  13  16
ENDBRANCH   7   8
ENDBRANCH   5   7
ENDBRANCH   4   5
ENDBRANCH   3   4
ENDBRANCH   2   3
ENDBRANCH   1   2
BRANCH   1  20
ATOM     20  C   UNL A   1      32.375  29.515  25.135  1.00  0.00     0.202 C 
BRANCH  20  21
ATOM     21  C   UNL A   1      31.846  30.580  26.099  1.00  0.00     0.261 C 
BRANCH  21  22
ATOM     22  O   UNL A   1      32.548  30.598  27.347  1.00  0.00    -0.460 OA
BRANCH  22  23
ATOM     23  C   UNL A   1      33.304  31.702  27.533  1.00  0.00     0.338 C 
ATOM     24  O   UNL A   1      32.926  32.863  27.608  1.00  0.00    -0.246 OA
BRANCH  23  25
ATOM     25  C   UNL A   1      34.697  31.325  27.799  1.00  0.00     0.060 A 
ATOM     26  C   UNL A   1      34.965  29.965  27.989  1.00  0.00     0.016 A 
ATOM     27  C   UNL A   1      35.688  32.287  28.001  1.00  0.00     0.016 A 
ATOM     28  C   UNL A   1      36.214  29.566  28.452  1.00  0.00     0.010 A 
ATOM     29  C   UNL A   1      36.943  31.885  28.469  1.00  0.00     0.010 A 
ATOM     30  C   UNL A   1      37.193  30.528  28.741  1.00  0.00    -0.014 A 
BRANCH  30  31
ATOM     31  C   UNL A   1      38.412  30.100  29.468  1.00  0.00     0.031 A 
ATOM     32  C   UNL A   1      38.632  30.579  30.876  1.00  0.00     0.074 A 
ATOM     33  C   UNL A   1      39.264  29.224  28.908  1.00  0.00     0.049 A 
ATOM     34  N   UNL A   1      39.567  30.248  31.730  1.00  0.00    -0.248 NA
ATOM     35  C   UNL A   1      37.666  31.562  31.393  1.00  0.00     0.031 C 
ATOM     36  C   UNL A   1      39.140  28.676  27.559  1.00  0.00     0.029 A 
ATOM     37  N   UNL A   1      40.393  28.632  29.412  1.00  0.00    -0.354 N 
ATOM     38  C   UNL A   1      39.299  30.975  32.884  1.00  0.00     0.074 A 
ATOM     39  C   UNL A   1      38.136  31.791  32.611  1.00  0.00     0.031 C 
ATOM     40  C   UNL A   1      40.150  27.816  27.345  1.00  0.00     0.029 A 
ATOM     41  C   UNL A   1      40.996  27.765  28.535  1.00  0.00     0.049 A 
ATOM     42  H   UNL A   1      40.739  28.812  30.316  1.00  0.00     0.167 HD
ATOM     43  C   UNL A   1      39.955  30.950  34.068  1.00  0.00     0.037 A 
ATOM     44  C   UNL A   1      42.104  27.015  28.684  1.00  0.00     0.037 A 
ATOM     45  C   UNL A   1      41.110  30.135  34.338  1.00  0.00     0.049 A 
ATOM     46  C   UNL A   1      42.837  27.034  29.998  1.00  0.00     0.074 A 
ATOM     47  C   UNL A   1      41.835  30.022  35.511  1.00  0.00     0.029 A 
ATOM     48  N   UNL A   1      41.714  29.297  33.412  1.00  0.00    -0.354 N 
ATOM     49  N   UNL A   1      42.550  27.689  31.097  1.00  0.00    -0.248 NA
ATOM     50  C   UNL A   1      44.042  26.199  30.096  1.00  0.00     0.031 C 
ATOM     51  C   UNL A   1      42.902  29.146  35.283  1.00  0.00     0.029 A 
ATOM     52  C   UNL A   1      42.816  28.680  33.981  1.00  0.00     0.049 A 
ATOM     53  H   UNL A   1      41.404  29.159  32.488  1.00  0.00     0.167 HD
ATOM     54  C   UNL A   1      43.520  27.328  32.022  1.00  0.00     0.074 A 
ATOM     55  C   UNL A   1      44.396  26.384  31.360  1.00  0.00     0.031 C 
ATOM     56  C   UNL A   1      43.675  27.742  33.304  1.00  0.00     0.037 A 
BRANCH  43  57
ATOM     57  C   UNL A   1      39.446  31.846  35.159  1.00  0.00     0.064 A 
ATOM     58  C   UNL A   1      38.583  31.371  36.159  1.00  0.00     0.173 A 
ATOM     59  C   UNL A   1      39.848  33.188  35.220  1.00  0.00     0.173 A 
ATOM     60  F   UNL A   1      38.159  30.099  36.136  1.00  0.00    -0.203 F 
ATOM     61  C   UNL A   1      38.124  32.215  37.167  1.00  0.00     0.198 A 
ATOM     62  C   UNL A   1      39.406  34.022  36.244  1.00  0.00     0.198 A 
ATOM     63  F   UNL A   1      40.673  33.690  34.290  1.00  0.00    -0.203 F 
ATOM     64  F   UNL A   1      37.267  31.751  38.088  1.00  0.00    -0.200 F 
ATOM     65  C   UNL A   1      38.539  33.537  37.212  1.00  0.00     0.200 A 
ATOM     66  F   UNL A   1      39.815  35.298  36.291  1.00  0.00    -0.200 F 
ATOM     67  F   UNL A   1      38.100  34.347  38.185  1.00  0.00    -0.200 F 
ENDBRANCH  43  57
BRANCH  44  68
ATOM     68  C   UNL A   1      42.577  26.167  27.559  1.00  0.00     0.064 A 
ATOM     69  C   UNL A   1      42.065  24.878  27.360  1.00  0.00     0.173 A 
ATOM     70  C   UNL A   1      43.555  26.628  26.667  1.00  0.00     0.173 A 
ATOM     71  F   UNL A   1      41.147  24.384  28.203  1.00  0.00    -0.203 F 
ATOM     72  C   UNL A   1      42.526  24.075  26.318  1.00  0.00     0.198 A 
ATOM     73  C   UNL A   1      43.996  25.835  25.611  1.00  0.00     0.198 A 
ATOM     74  F   UNL A   1      44.076  27.854  26.816  1.00  0.00    -0.203 F 
ATOM     75  F   UNL A   1      42.051  22.830  26.174  1.00  0.00    -0.200 F 
ATOM     76  C   UNL A   1      43.486  24.556  25.441  1.00  0.00     0.200 A 
ATOM     77  F   UNL A   1      44.917  26.306  24.759  1.00  0.00    -0.200 F 
ATOM     78  F   UNL A   1      43.927  23.785  24.437  1.00  0.00    -0.200 F 
ENDBRANCH  44  68
BRANCH  56  79
ATOM     79  C   UNL A   1      44.819  27.155  34.078  1.00  0.00     0.064 A 
ATOM     80  C   UNL A   1      46.067  27.792  34.137  1.00  0.00     0.173 A 
ATOM     81  C   UNL A   1      44.655  25.957  34.790  1.00  0.00     0.173 A 
ATOM     82  F   UNL A   1      46.276  28.932  33.462  1.00  0.00    -0.203 F 
ATOM     83  C   UNL A   1      47.120  27.234  34.857  1.00  0.00     0.198 A 
ATOM     84  C   UNL A   1      45.703  25.416  35.531  1.00  0.00     0.198 A 
ATOM     85  F   UNL A   1      43.479  25.314  34.771  1.00  0.00    -0.203 F 
ATOM     86  F   UNL A   1      48.318  27.833  34.860  1.00  0.00    -0.200 F 
ATOM     87  C   UNL A   1      46.936  26.051  35.557  1.00  0.00     0.200 A 
ATOM     88  F   UNL A   1      45.520  24.279  36.216  1.00  0.00    -0.200 F 
ATOM     89  F   UNL A   1      47.950  25.517  36.250  1.00  0.00    -0.200 F 
ENDBRANCH  56  79
ENDBRANCH  30  31
ENDBRANCH  23  25
ENDBRANCH  22  23
ENDBRANCH  21  22
ENDBRANCH  20  21
ENDBRANCH   1  20
TORSDOF 17
ENDMDL
MODEL 3
REMARK VINA RESULT:     -11.2      4.457      7.472
REMARK SMILES COc1ccc(C(C)(C)C)cc1CC(=O)OCCOCCOC(=O)c1ccc(-c2c3nc(c(-c4c(F)c(F)c(F)c(F)c4F)c4ccc([nH]4)c(-c4c(F)c(F)c(F)c(F)c4F)c4nc(c(-c5c(F)c(F)c(F)c(F)c5F)c5ccc2[nH]5)C=C4)C=C3)cc1
REMARK SMILES IDX 19 1 18 2 17 3 16 4 14 5 15 6 13 7 12 8 3 9 4 10 5 11 11 12
REMARK SMILES IDX 6 13 2 14 1 15 7 16 8 17 9 18 10 19 20 20 21 21 22 22 23 23
REMARK SMILES IDX 24 24 25 25 26 26 87 27 27 28 86 29 28 30 29 31 30 32 80 33
REMARK SMILES IDX 31 34 85 35 79 36 81 37 32 38 84 39 78 40 77 41 33 43 65 44
REMARK SMILES IDX 45 45 64 46 46 47 49 48 63 49 82 50 47 51 48 52 62 54 83 55
REMARK SMILES IDX 50 56 34 57 35 58 43 59 36 60 37 61 41 62 44 63 38 64 39 65
REMARK SMILES IDX 42 66 40 67 66 68 67 69 75 70 68 71 69 72 73 73 76 74 70 75
REMARK SMILES IDX 71 76 74 77 72 78 51 79 52 80 60 81 53 82 54 83 58 84 61 85
REMARK SMILES IDX 55 86 56 87 59 88 57 89
REMARK H PARENT 81 42 49 53
REMARK Flexibility Score: inf
ROOT
ATOM      1  O   UNL A   1      41.601  21.427  25.673  1.00  0.00    -0.374 OA
ENDROOT
BRANCH   1   2
ATOM      2  C   UNL A   1      40.612  21.709  26.668  1.00  0.00     0.202 C 
BRANCH   2   3
ATOM      3  C   UNL A   1      39.362  22.450  26.180  1.00  0.00     0.261 C 
BRANCH   3   4
ATOM      4  O   UNL A   1      38.304  21.528  25.877  1.00  0.00    -0.463 OA
BRANCH   4   5
ATOM      5  C   UNL A   1      37.219  22.063  25.255  1.00  0.00     0.310 C 
ATOM      6  O   UNL A   1      37.225  22.515  24.114  1.00  0.00    -0.252 OA
BRANCH   5   7
ATOM      7  C   UNL A   1      35.940  21.864  26.038  1.00  0.00     0.162 C 
BRANCH   7   8
ATOM      8  C   UNL A   1      34.725  21.401  25.267  1.00  0.00     0.005 A 
ATOM      9  C   UNL A   1      33.790  22.315  24.775  1.00  0.00     0.122 A 
ATOM     10  C   UNL A   1      32.689  21.879  24.048  1.00  0.00     0.047 A 
ATOM     11  C   UNL A   1      32.520  20.516  23.786  1.00  0.00     0.008 A 
ATOM     12  C   UNL A   1      34.537  20.026  24.996  1.00  0.00     0.012 A 
ATOM     13  C   UNL A   1      33.433  19.553  24.260  1.00  0.00    -0.042 A 
BRANCH   9  14
ATOM     14  O   UNL A   1      33.880  23.649  25.065  1.00  0.00    -0.496 OA
ATOM     15  C   UNL A   1      33.940  24.450  23.884  1.00  0.00     0.278 C 
ENDBRANCH   9  14
BRANCH  13  16
ATOM     16  C   UNL A   1      33.186  18.057  23.973  1.00  0.00    -0.013 C 
ATOM     17  C   UNL A   1      34.545  17.327  23.869  1.00  0.00     0.016 C 
ATOM     18  C   UNL A   1      32.359  17.435  25.118  1.00  0.00     0.016 C 
ATOM     19  C   UNL A   1      32.408  17.767  22.669  1.00  0.00     0.016 C 
ENDBRANCH  13  16
ENDBRANCH   7   8
ENDBRANCH   5   7
ENDBRANCH   4   5
ENDBRANCH   3   4
ENDBRANCH   2   3
ENDBRANCH   1   2
BRANCH   1  20
ATOM     20  C   UNL A   1      42.970  21.521  26.064  1.00  0.00     0.202 C 
BRANCH  20  21
ATOM     21  C   UNL A   1      43.881  22.341  25.147  1.00  0.00     0.261 C 
BRANCH  21  22
ATOM     22  O   UNL A   1      43.276  23.563  24.711  1.00  0.00    -0.460 OA
BRANCH  22  23
ATOM     23  C   UNL A   1      43.977  24.669  25.043  1.00  0.00     0.338 C 
ATOM     24  O   UNL A   1      45.073  25.014  24.623  1.00  0.00    -0.246 OA
BRANCH  23  25
ATOM     25  C   UNL A   1      43.170  25.542  25.903  1.00  0.00     0.060 A 
ATOM     26  C   UNL A   1      43.765  26.727  26.349  1.00  0.00     0.016 A 
ATOM     27  C   UNL A   1      41.918  25.144  26.377  1.00  0.00     0.016 A 
ATOM     28  C   UNL A   1      43.137  27.487  27.330  1.00  0.00     0.010 A 
ATOM     29  C   UNL A   1      41.290  25.908  27.365  1.00  0.00     0.010 A 
ATOM     30  C   UNL A   1      41.920  27.056  27.878  1.00  0.00    -0.014 A 
BRANCH  30  31
ATOM     31  C   UNL A   1      41.408  27.741  29.088  1.00  0.00     0.031 A 
ATOM     32  C   UNL A   1      42.158  27.601  30.383  1.00  0.00     0.074 A 
ATOM     33  C   UNL A   1      40.336  28.548  29.008  1.00  0.00     0.049 A 
ATOM     34  N   UNL A   1      41.951  28.193  31.533  1.00  0.00    -0.248 NA
ATOM     35  C   UNL A   1      43.298  26.670  30.383  1.00  0.00     0.031 C 
ATOM     36  C   UNL A   1      39.543  28.777  27.802  1.00  0.00     0.029 A 
ATOM     37  N   UNL A   1      39.741  29.336  29.960  1.00  0.00    -0.354 N 
ATOM     38  C   UNL A   1      42.936  27.713  32.387  1.00  0.00     0.074 A 
ATOM     39  C   UNL A   1      43.718  26.754  31.637  1.00  0.00     0.031 C 
ATOM     40  C   UNL A   1      38.569  29.659  28.083  1.00  0.00     0.029 A 
ATOM     41  C   UNL A   1      38.663  30.044  29.489  1.00  0.00     0.049 A 
ATOM     42  H   UNL A   1      40.056  29.390  30.891  1.00  0.00     0.167 HD
ATOM     43  C   UNL A   1      43.174  28.054  33.675  1.00  0.00     0.037 A 
ATOM     44  C   UNL A   1      37.848  30.906  30.127  1.00  0.00     0.037 A 
ATOM     45  C   UNL A   1      42.396  29.010  34.419  1.00  0.00     0.049 A 
ATOM     46  C   UNL A   1      38.112  31.239  31.570  1.00  0.00     0.074 A 
ATOM     47  C   UNL A   1      42.568  29.440  35.722  1.00  0.00     0.029 A 
ATOM     48  N   UNL A   1      41.288  29.679  33.919  1.00  0.00    -0.354 N 
ATOM     49  N   UNL A   1      39.072  30.816  32.357  1.00  0.00    -0.248 NA
ATOM     50  C   UNL A   1      37.186  32.182  32.212  1.00  0.00     0.031 C 
ATOM     51  C   UNL A   1      41.539  30.339  36.025  1.00  0.00     0.029 A 
ATOM     52  C   UNL A   1      40.752  30.502  34.896  1.00  0.00     0.049 A 
ATOM     53  H   UNL A   1      40.936  29.584  33.005  1.00  0.00     0.167 HD
ATOM     54  C   UNL A   1      38.881  31.455  33.574  1.00  0.00     0.074 A 
ATOM     55  C   UNL A   1      37.721  32.309  33.418  1.00  0.00     0.031 C 
ATOM     56  C   UNL A   1      39.598  31.346  34.719  1.00  0.00     0.037 A 
BRANCH  43  57
ATOM     57  C   UNL A   1      44.317  27.373  34.370  1.00  0.00     0.064 A 
ATOM     58  C   UNL A   1      45.595  27.949  34.422  1.00  0.00     0.173 A 
ATOM     59  C   UNL A   1      44.123  26.143  35.017  1.00  0.00     0.173 A 
ATOM     60  F   UNL A   1      45.834  29.117  33.807  1.00  0.00    -0.203 F 
ATOM     61  C   UNL A   1      46.644  27.307  35.075  1.00  0.00     0.198 A 
ATOM     62  C   UNL A   1      45.168  25.516  35.690  1.00  0.00     0.198 A 
ATOM     63  F   UNL A   1      42.919  25.553  35.000  1.00  0.00    -0.203 F 
ATOM     64  F   UNL A   1      47.867  27.854  35.075  1.00  0.00    -0.200 F 
ATOM     65  C   UNL A   1      46.428  26.094  35.713  1.00  0.00     0.200 A 
ATOM     66  F   UNL A   1      44.956  24.348  36.314  1.00  0.00    -0.200 F 
ATOM     67  F   UNL A   1      47.437  25.479  36.345  1.00  0.00    -0.200 F 
ENDBRANCH  43  57
BRANCH  44  68
ATOM     68  C   UNL A   1      36.715  31.530  29.395  1.00  0.00     0.064 A 
ATOM     69  C   UNL A   1      35.589  30.780  29.030  1.00  0.00     0.173 A 
ATOM     70  C   UNL A   1      36.743  32.886  29.040  1.00  0.00     0.173 A 
ATOM     71  F   UNL A   1      35.529  29.474  29.325  1.00  0.00    -0.203 F 
ATOM     72  C   UNL A   1      34.537  31.362  28.324  1.00  0.00     0.198 A 
ATOM     73  C   UNL A   1      35.680  33.472  28.357  1.00  0.00     0.198 A 
ATOM     74  F   UNL A   1      37.799  33.644  29.366  1.00  0.00    -0.203 F 
ATOM     75  F   UNL A   1      33.490  30.614  27.950  1.00  0.00    -0.200 F 
ATOM     76  C   UNL A   1      34.581  32.708  27.994  1.00  0.00     0.200 A 
ATOM     77  F   UNL A   1      35.721  34.775  28.048  1.00  0.00    -0.200 F 
ATOM     78  F   UNL A   1      33.568  33.268  27.317  1.00  0.00    -0.200 F 
ENDBRANCH  44  68
BRANCH  56  79
ATOM     79  C   UNL A   1      39.162  32.188  35.882  1.00  0.00     0.064 A 
ATOM     80  C   UNL A   1      38.282  31.694  36.856  1.00  0.00     0.173 A 
ATOM     81  C   UNL A   1      39.651  33.494  36.037  1.00  0.00     0.173 A 
ATOM     82  F   UNL A   1      37.777  30.457  36.744  1.00  0.00    -0.203 F 
ATOM     83  C   UNL A   1      37.884  32.488  37.928  1.00  0.00     0.198 A 
ATOM     84  C   UNL A   1      39.272  34.276  37.124  1.00  0.00     0.198 A 
ATOM     85  F   UNL A   1      40.501  34.009  35.136  1.00  0.00    -0.203 F 
ATOM     86  F   UNL A   1      37.004  32.015  38.820  1.00  0.00    -0.200 F 
ATOM     87  C   UNL A   1      38.383  33.776  38.064  1.00  0.00     0.200 A 
ATOM     88  F   UNL A   1      39.764  35.516  37.261  1.00  0.00    -0.200 F 
ATOM     89  F   UNL A   1      38.000  34.538  39.097  1.00  0.00    -0.200 F 
ENDBRANCH  56  79
ENDBRANCH  30  31
ENDBRANCH  23  25
ENDBRANCH  22  23
ENDBRANCH  21  22
ENDBRANCH  20  21
ENDBRANCH   1  20
TORSDOF 17
ENDMDL
