MODEL 1
REMARK VINA RESULT:     -11.5      0.000      0.000
REMARK SMILES CC(C)n1ccc(C[C@@H](C(=O)OCCOCCOC(=O)c2ccc(-c3c4nc(c(-c5c(F)c(F)c(F)c(F)c5F)c5ccc([nH]5)c(-c5c(F)c(F)c(F)c(F)c5F)c5nc(c(-c6c(F)c(F)c(F)c(F)c6F)c6ccc3[nH]6)C=C5)C=C4)cc2)c2cccc(Cl)c2)n1
REMARK SMILES IDX 14 1 13 2 12 3 10 4 11 5 9 6 8 7 7 8 4 9 5 10 91 11 6 12
REMARK SMILES IDX 2 13 1 14 3 15 84 16 85 17 90 18 86 19 88 20 87 21 89 22
REMARK SMILES IDX 15 23 16 24 17 25 18 26 19 27 20 28 21 29 22 30 83 31 23 32
REMARK SMILES IDX 82 33 24 34 25 35 26 36 76 37 27 38 81 39 75 40 77 41 28 42
REMARK SMILES IDX 80 43 74 44 73 45 29 47 61 48 41 49 60 50 42 51 45 52 59 53
REMARK SMILES IDX 78 54 43 55 44 56 58 58 79 59 46 60 30 61 31 62 39 63 32 64
REMARK SMILES IDX 33 65 37 66 40 67 34 68 35 69 38 70 36 71 62 72 63 73 71 74
REMARK SMILES IDX 64 75 65 76 69 77 72 78 66 79 67 80 70 81 68 82 47 83 48 84
REMARK SMILES IDX 56 85 49 86 50 87 54 88 57 89 51 90 52 91 55 92 53 93
REMARK H PARENT 77 46 45 57
REMARK Flexibility Score: inf
ROOT
ATOM      1  C   UNL A   1      39.395  21.978  26.532  1.00  0.00     0.202 C 
ENDROOT
BRANCH   1   2
ATOM      2  C   UNL A   1      38.306  22.177  25.471  1.00  0.00     0.261 C 
BRANCH   2   3
ATOM      3  O   UNL A   1      37.029  21.859  26.056  1.00  0.00    -0.463 OA
BRANCH   3   4
ATOM      4  C   UNL A   1      35.962  22.639  25.783  1.00  0.00     0.313 C 
ATOM      5  O   UNL A   1      36.044  23.841  25.562  1.00  0.00    -0.252 OA
BRANCH   4   6
ATOM      6  C   UNL A   1      34.648  21.839  25.671  1.00  0.00     0.135 C 
BRANCH   6   7
ATOM      7  C   UNL A   1      34.474  20.851  24.481  1.00  0.00     0.078 C 
BRANCH   7   8
ATOM      8  C   UNL A   1      33.870  19.493  24.722  1.00  0.00     0.064 A 
ATOM      9  N   UNL A   1      33.724  17.372  24.893  1.00  0.00    -0.270 N 
ATOM     10  C   UNL A   1      32.633  17.842  25.558  1.00  0.00     0.109 A 
ATOM     11  N   UNL A   1      34.483  18.356  24.349  1.00  0.00    -0.178 NA
ATOM     12  C   UNL A   1      32.733  19.201  25.509  1.00  0.00     0.045 A 
BRANCH   9  13
ATOM     13  C   UNL A   1      34.109  15.965  24.802  1.00  0.00     0.101 C 
ATOM     14  C   UNL A   1      35.507  15.736  25.389  1.00  0.00     0.033 C 
ATOM     15  C   UNL A   1      33.083  15.083  25.513  1.00  0.00     0.033 C 
ENDBRANCH   9  13
ENDBRANCH   7   8
ENDBRANCH   6   7
BRANCH   6  16
ATOM     16  C   UNL A   1      33.420  22.787  25.691  1.00  0.00    -0.032 A 
ATOM     17  C   UNL A   1      32.759  23.049  26.904  1.00  0.00     0.005 A 
ATOM     18  C   UNL A   1      32.885  23.373  24.525  1.00  0.00     0.025 A 
ATOM     19  C   UNL A   1      31.604  23.842  26.942  1.00  0.00     0.002 A 
ATOM     20  C   UNL A   1      31.720  24.145  24.565  1.00  0.00     0.041 A 
ATOM     21  C   UNL A   1      31.076  24.382  25.771  1.00  0.00     0.020 A 
ATOM     22  Cl  UNL A   1      31.069  24.788  23.107  1.00  0.00    -0.084 Cl
ENDBRANCH   6  16
ENDBRANCH   4   6
ENDBRANCH   3   4
ENDBRANCH   2   3
ENDBRANCH   1   2
BRANCH   1  23
ATOM     23  O   UNL A   1      40.689  21.666  26.008  1.00  0.00    -0.374 OA
BRANCH  23  24
ATOM     24  C   UNL A   1      41.656  21.119  26.898  1.00  0.00     0.202 C 
BRANCH  24  25
ATOM     25  C   UNL A   1      42.599  20.085  26.314  1.00  0.00     0.261 C 
BRANCH  25  26
ATOM     26  O   UNL A   1      43.076  20.529  25.055  1.00  0.00    -0.460 OA
BRANCH  26  27
ATOM     27  C   UNL A   1      44.406  20.759  24.973  1.00  0.00     0.338 C 
ATOM     28  O   UNL A   1      45.299  19.955  24.847  1.00  0.00    -0.246 OA
BRANCH  27  29
ATOM     29  C   UNL A   1      44.592  22.195  25.224  1.00  0.00     0.060 A 
ATOM     30  C   UNL A   1      45.492  22.549  26.229  1.00  0.00     0.016 A 
ATOM     31  C   UNL A   1      43.702  23.124  24.661  1.00  0.00     0.016 A 
ATOM     32  C   UNL A   1      45.322  23.771  26.836  1.00  0.00     0.010 A 
ATOM     33  C   UNL A   1      43.556  24.350  25.241  1.00  0.00     0.010 A 
ATOM     34  C   UNL A   1      44.283  24.600  26.393  1.00  0.00    -0.014 A 
BRANCH  34  35
ATOM     35  C   UNL A   1      43.993  25.811  27.116  1.00  0.00     0.031 A 
ATOM     36  C   UNL A   1      44.976  26.865  26.810  1.00  0.00     0.074 A 
ATOM     37  C   UNL A   1      42.877  25.938  27.861  1.00  0.00     0.049 A 
ATOM     38  N   UNL A   1      45.923  27.289  27.574  1.00  0.00    -0.248 NA
ATOM     39  C   UNL A   1      45.081  27.319  25.413  1.00  0.00     0.031 C 
ATOM     40  C   UNL A   1      41.747  25.011  27.976  1.00  0.00     0.029 A 
ATOM     41  N   UNL A   1      42.483  26.991  28.622  1.00  0.00    -0.354 N 
ATOM     42  C   UNL A   1      46.586  28.253  26.826  1.00  0.00     0.074 A 
ATOM     43  C   UNL A   1      46.202  28.038  25.458  1.00  0.00     0.031 C 
ATOM     44  C   UNL A   1      40.708  25.638  28.576  1.00  0.00     0.029 A 
ATOM     45  C   UNL A   1      41.144  26.953  29.009  1.00  0.00     0.049 A 
ATOM     46  H   UNL A   1      43.091  27.722  28.879  1.00  0.00     0.167 HD
ATOM     47  C   UNL A   1      47.105  29.346  27.446  1.00  0.00     0.037 A 
ATOM     48  C   UNL A   1      40.466  27.982  29.581  1.00  0.00     0.037 A 
ATOM     49  C   UNL A   1      47.251  29.100  28.862  1.00  0.00     0.049 A 
ATOM     50  C   UNL A   1      41.482  28.922  30.126  1.00  0.00     0.074 A 
ATOM     51  C   UNL A   1      47.962  28.192  29.622  1.00  0.00     0.029 A 
ATOM     52  N   UNL A   1      46.267  29.592  29.684  1.00  0.00    -0.354 N 
ATOM     53  N   UNL A   1      42.260  28.634  31.132  1.00  0.00    -0.248 NA
ATOM     54  C   UNL A   1      41.970  29.968  29.239  1.00  0.00     0.031 C 
ATOM     55  C   UNL A   1      47.102  27.859  30.711  1.00  0.00     0.029 A 
ATOM     56  C   UNL A   1      45.948  28.637  30.613  1.00  0.00     0.049 A 
ATOM     57  H   UNL A   1      45.858  30.485  29.617  1.00  0.00     0.167 HD
ATOM     58  C   UNL A   1      43.505  29.124  30.766  1.00  0.00     0.074 A 
ATOM     59  C   UNL A   1      43.249  30.002  29.626  1.00  0.00     0.031 C 
ATOM     60  C   UNL A   1      44.645  28.529  31.227  1.00  0.00     0.037 A 
BRANCH  47  61
ATOM     61  C   UNL A   1      47.031  30.743  26.874  1.00  0.00     0.064 A 
ATOM     62  C   UNL A   1      48.192  31.541  26.912  1.00  0.00     0.173 A 
ATOM     63  C   UNL A   1      45.833  31.435  26.583  1.00  0.00     0.173 A 
ATOM     64  F   UNL A   1      49.386  30.994  27.187  1.00  0.00    -0.203 F 
ATOM     65  C   UNL A   1      48.138  32.929  26.773  1.00  0.00     0.198 A 
ATOM     66  C   UNL A   1      45.792  32.814  26.393  1.00  0.00     0.198 A 
ATOM     67  F   UNL A   1      44.635  30.845  26.578  1.00  0.00    -0.203 F 
ATOM     68  F   UNL A   1      49.249  33.657  26.955  1.00  0.00    -0.200 F 
ATOM     69  C   UNL A   1      46.937  33.566  26.524  1.00  0.00     0.200 A 
ATOM     70  F   UNL A   1      44.612  33.410  26.169  1.00  0.00    -0.200 F 
ATOM     71  F   UNL A   1      46.872  34.901  26.457  1.00  0.00    -0.200 F 
ENDBRANCH  47  61
BRANCH  48  72
ATOM     72  C   UNL A   1      39.052  28.389  29.388  1.00  0.00     0.064 A 
ATOM     73  C   UNL A   1      38.195  28.570  30.488  1.00  0.00     0.173 A 
ATOM     74  C   UNL A   1      38.602  28.900  28.155  1.00  0.00     0.173 A 
ATOM     75  F   UNL A   1      38.568  28.155  31.707  1.00  0.00    -0.203 F 
ATOM     76  C   UNL A   1      36.977  29.249  30.367  1.00  0.00     0.198 A 
ATOM     77  C   UNL A   1      37.385  29.575  28.036  1.00  0.00     0.198 A 
ATOM     78  F   UNL A   1      39.380  28.847  27.065  1.00  0.00    -0.203 F 
ATOM     79  F   UNL A   1      36.218  29.460  31.452  1.00  0.00    -0.200 F 
ATOM     80  C   UNL A   1      36.579  29.762  29.145  1.00  0.00     0.200 A 
ATOM     81  F   UNL A   1      37.032  30.103  26.857  1.00  0.00    -0.200 F 
ATOM     82  F   UNL A   1      35.447  30.472  29.042  1.00  0.00    -0.200 F 
ENDBRANCH  48  72
BRANCH  60  83
ATOM     83  C   UNL A   1      44.501  27.540  32.352  1.00  0.00     0.064 A 
ATOM     84  C   UNL A   1      44.360  27.888  33.708  1.00  0.00     0.173 A 
ATOM     85  C   UNL A   1      44.384  26.185  32.021  1.00  0.00     0.173 A 
ATOM     86  F   UNL A   1      44.360  29.171  34.095  1.00  0.00    -0.203 F 
ATOM     87  C   UNL A   1      44.163  26.915  34.687  1.00  0.00     0.198 A 
ATOM     88  C   UNL A   1      44.148  25.220  32.995  1.00  0.00     0.198 A 
ATOM     89  F   UNL A   1      44.456  25.800  30.738  1.00  0.00    -0.203 F 
ATOM     90  F   UNL A   1      44.051  27.269  35.977  1.00  0.00    -0.200 F 
ATOM     91  C   UNL A   1      44.051  25.582  34.329  1.00  0.00     0.200 A 
ATOM     92  F   UNL A   1      43.990  23.939  32.636  1.00  0.00    -0.200 F 
ATOM     93  F   UNL A   1      43.826  24.649  35.264  1.00  0.00    -0.200 F 
ENDBRANCH  60  83
ENDBRANCH  34  35
ENDBRANCH  27  29
ENDBRANCH  26  27
ENDBRANCH  25  26
ENDBRANCH  24  25
ENDBRANCH  23  24
ENDBRANCH   1  23
TORSDOF 18
ENDMDL
MODEL 2
REMARK VINA RESULT:     -11.4      3.508      5.798
REMARK SMILES CC(C)n1ccc(C[C@@H](C(=O)OCCOCCOC(=O)c2ccc(-c3c4nc(c(-c5c(F)c(F)c(F)c(F)c5F)c5ccc([nH]5)c(-c5c(F)c(F)c(F)c(F)c5F)c5nc(c(-c6c(F)c(F)c(F)c(F)c6F)c6ccc3[nH]6)C=C5)C=C4)cc2)c2cccc(Cl)c2)n1
REMARK SMILES IDX 14 1 13 2 12 3 10 4 11 5 9 6 8 7 7 8 4 9 5 10 91 11 6 12
REMARK SMILES IDX 2 13 1 14 3 15 84 16 85 17 90 18 86 19 88 20 87 21 89 22
REMARK SMILES IDX 15 23 16 24 17 25 18 26 19 27 20 28 21 29 22 30 83 31 23 32
REMARK SMILES IDX 82 33 24 34 25 35 26 36 76 37 27 38 81 39 75 40 77 41 28 42
REMARK SMILES IDX 80 43 74 44 73 45 29 47 61 48 41 49 60 50 42 51 45 52 59 53
REMARK SMILES IDX 78 54 43 55 44 56 58 58 79 59 46 60 30 61 31 62 39 63 32 64
REMARK SMILES IDX 33 65 37 66 40 67 34 68 35 69 38 70 36 71 62 72 63 73 71 74
REMARK SMILES IDX 64 75 65 76 69 77 72 78 66 79 67 80 70 81 68 82 47 83 48 84
REMARK SMILES IDX 56 85 49 86 50 87 54 88 57 89 51 90 52 91 55 92 53 93
REMARK H PARENT 77 46 45 57
REMARK Flexibility Score: inf
ROOT
ATOM      1  C   UNL A   1      34.617  22.081  24.372  1.00  0.00     0.202 C 
ENDROOT
BRANCH   1   2
ATOM      2  C   UNL A   1      33.439  22.830  23.738  1.00  0.00     0.261 C 
BRANCH   2   3
ATOM      3  O   UNL A   1      33.425  24.179  24.243  1.00  0.00    -0.463 OA
BRANCH   3   4
ATOM      4  C   UNL A   1      33.352  25.211  23.377  1.00  0.00     0.313 C 
ATOM      5  O   UNL A   1      34.084  25.326  22.401  1.00  0.00    -0.252 OA
BRANCH   4   6
ATOM      6  C   UNL A   1      32.183  26.170  23.683  1.00  0.00     0.135 C 
BRANCH   6   7
ATOM      7  C   UNL A   1      31.810  27.252  22.628  1.00  0.00     0.078 C 
BRANCH   7   8
ATOM      8  C   UNL A   1      30.568  28.082  22.819  1.00  0.00     0.064 A 
ATOM      9  N   UNL A   1      29.219  29.727  22.663  1.00  0.00    -0.270 N 
ATOM     10  C   UNL A   1      28.439  28.686  23.065  1.00  0.00     0.109 A 
ATOM     11  N   UNL A   1      30.528  29.395  22.531  1.00  0.00    -0.178 NA
ATOM     12  C   UNL A   1      29.272  27.607  23.120  1.00  0.00     0.045 A 
BRANCH   9  13
ATOM     13  C   UNL A   1      28.729  31.064  22.337  1.00  0.00     0.101 C 
ATOM     14  C   UNL A   1      28.102  31.097  20.938  1.00  0.00     0.033 C 
ATOM     15  C   UNL A   1      27.718  31.533  23.384  1.00  0.00     0.033 C 
ENDBRANCH   9  13
ENDBRANCH   7   8
ENDBRANCH   6   7
BRANCH   6  16
ATOM     16  C   UNL A   1      32.390  26.879  25.047  1.00  0.00    -0.032 A 
ATOM     17  C   UNL A   1      31.357  26.876  26.000  1.00  0.00     0.005 A 
ATOM     18  C   UNL A   1      33.565  27.587  25.370  1.00  0.00     0.025 A 
ATOM     19  C   UNL A   1      31.487  27.570  27.211  1.00  0.00     0.002 A 
ATOM     20  C   UNL A   1      33.682  28.296  26.570  1.00  0.00     0.041 A 
ATOM     21  C   UNL A   1      32.646  28.291  27.493  1.00  0.00     0.020 A 
ATOM     22  Cl  UNL A   1      35.112  29.199  26.895  1.00  0.00    -0.084 Cl
ENDBRANCH   6  16
ENDBRANCH   4   6
ENDBRANCH   3   4
ENDBRANCH   2   3
ENDBRANCH   1   2
BRANCH   1  23
ATOM     23  O   UNL A   1      35.501  22.901  25.143  1.00  0.00    -0.374 OA
BRANCH  23  24
ATOM     24  C   UNL A   1      36.843  23.044  24.689  1.00  0.00     0.202 C 
BRANCH  24  25
ATOM     25  C   UNL A   1      37.902  22.303  25.481  1.00  0.00     0.261 C 
BRANCH  25  26
ATOM     26  O   UNL A   1      38.498  23.180  26.423  1.00  0.00    -0.460 OA
BRANCH  26  27
ATOM     27  C   UNL A   1      39.755  22.867  26.811  1.00  0.00     0.338 C 
ATOM     28  O   UNL A   1      40.206  21.780  27.081  1.00  0.00    -0.246 OA
BRANCH  27  29
ATOM     29  C   UNL A   1      40.457  24.144  26.999  1.00  0.00     0.060 A 
ATOM     30  C   UNL A   1      41.449  24.180  27.977  1.00  0.00     0.016 A 
ATOM     31  C   UNL A   1      39.951  25.313  26.408  1.00  0.00     0.016 A 
ATOM     32  C   UNL A   1      41.753  25.401  28.534  1.00  0.00     0.010 A 
ATOM     33  C   UNL A   1      40.277  26.528  26.937  1.00  0.00     0.010 A 
ATOM     34  C   UNL A   1      41.075  26.535  28.069  1.00  0.00    -0.014 A 
BRANCH  34  35
ATOM     35  C   UNL A   1      41.265  27.793  28.744  1.00  0.00     0.031 A 
ATOM     36  C   UNL A   1      42.524  28.437  28.330  1.00  0.00     0.074 A 
ATOM     37  C   UNL A   1      40.314  28.317  29.541  1.00  0.00     0.049 A 
ATOM     38  N   UNL A   1      43.609  28.533  29.018  1.00  0.00    -0.248 NA
ATOM     39  C   UNL A   1      42.680  28.787  26.908  1.00  0.00     0.031 C 
ATOM     40  C   UNL A   1      38.946  27.838  29.765  1.00  0.00     0.029 A 
ATOM     41  N   UNL A   1      40.355  29.464  30.268  1.00  0.00    -0.354 N 
ATOM     42  C   UNL A   1      44.508  29.189  28.186  1.00  0.00     0.074 A 
ATOM     43  C   UNL A   1      43.980  29.079  26.855  1.00  0.00     0.031 C 
ATOM     44  C   UNL A   1      38.227  28.800  30.388  1.00  0.00     0.029 A 
ATOM     45  C   UNL A   1      39.113  29.898  30.729  1.00  0.00     0.049 A 
ATOM     46  H   UNL A   1      41.191  29.949  30.452  1.00  0.00     0.167 HD
ATOM     47  C   UNL A   1      45.409  30.056  28.719  1.00  0.00     0.037 A 
ATOM     48  C   UNL A   1      38.866  31.113  31.284  1.00  0.00     0.037 A 
ATOM     49  C   UNL A   1      45.560  29.817  30.136  1.00  0.00     0.049 A 
ATOM     50  C   UNL A   1      40.177  31.664  31.722  1.00  0.00     0.074 A 
ATOM     51  C   UNL A   1      45.971  28.743  30.902  1.00  0.00     0.029 A 
ATOM     52  N   UNL A   1      44.861  30.641  30.985  1.00  0.00    -0.354 N 
ATOM     53  N   UNL A   1      40.878  31.157  32.698  1.00  0.00    -0.248 NA
ATOM     54  C   UNL A   1      40.929  32.453  30.758  1.00  0.00     0.031 C 
ATOM     55  C   UNL A   1      45.127  28.757  32.052  1.00  0.00     0.029 A 
ATOM     56  C   UNL A   1      44.302  29.880  31.977  1.00  0.00     0.049 A 
ATOM     57  H   UNL A   1      44.777  31.617  30.895  1.00  0.00     0.167 HD
ATOM     58  C   UNL A   1      42.187  31.179  32.239  1.00  0.00     0.074 A 
ATOM     59  C   UNL A   1      42.166  32.058  31.071  1.00  0.00     0.031 C 
ATOM     60  C   UNL A   1      43.086  30.244  32.667  1.00  0.00     0.037 A 
BRANCH  47  61
ATOM     61  C   UNL A   1      45.775  31.376  28.081  1.00  0.00     0.064 A 
ATOM     62  C   UNL A   1      44.735  32.259  27.731  1.00  0.00     0.173 A 
ATOM     63  C   UNL A   1      47.038  31.681  27.523  1.00  0.00     0.173 A 
ATOM     64  F   UNL A   1      43.491  32.064  28.195  1.00  0.00    -0.203 F 
ATOM     65  C   UNL A   1      44.923  33.298  26.817  1.00  0.00     0.198 A 
ATOM     66  C   UNL A   1      47.234  32.750  26.651  1.00  0.00     0.198 A 
ATOM     67  F   UNL A   1      48.115  30.909  27.693  1.00  0.00    -0.203 F 
ATOM     68  F   UNL A   1      43.872  34.022  26.411  1.00  0.00    -0.200 F 
ATOM     69  C   UNL A   1      46.170  33.536  26.270  1.00  0.00     0.200 A 
ATOM     70  F   UNL A   1      48.448  32.950  26.121  1.00  0.00    -0.200 F 
ATOM     71  F   UNL A   1      46.340  34.486  25.343  1.00  0.00    -0.200 F 
ENDBRANCH  47  61
BRANCH  48  72
ATOM     72  C   UNL A   1      37.665  31.974  31.148  1.00  0.00     0.064 A 
ATOM     73  C   UNL A   1      37.317  32.539  29.908  1.00  0.00     0.173 A 
ATOM     74  C   UNL A   1      36.676  32.009  32.150  1.00  0.00     0.173 A 
ATOM     75  F   UNL A   1      38.183  32.504  28.886  1.00  0.00    -0.203 F 
ATOM     76  C   UNL A   1      36.046  33.078  29.677  1.00  0.00     0.198 A 
ATOM     77  C   UNL A   1      35.410  32.550  31.918  1.00  0.00     0.198 A 
ATOM     78  F   UNL A   1      36.883  31.427  33.339  1.00  0.00    -0.203 F 
ATOM     79  F   UNL A   1      35.729  33.548  28.462  1.00  0.00    -0.200 F 
ATOM     80  C   UNL A   1      35.090  33.071  30.677  1.00  0.00     0.200 A 
ATOM     81  F   UNL A   1      34.480  32.499  32.882  1.00  0.00    -0.200 F 
ATOM     82  F   UNL A   1      33.851  33.524  30.437  1.00  0.00    -0.200 F 
ENDBRANCH  48  72
BRANCH  60  83
ATOM     83  C   UNL A   1      42.692  29.398  33.848  1.00  0.00     0.064 A 
ATOM     84  C   UNL A   1      42.004  28.174  33.759  1.00  0.00     0.173 A 
ATOM     85  C   UNL A   1      43.139  29.793  35.115  1.00  0.00     0.173 A 
ATOM     86  F   UNL A   1      41.631  27.676  32.573  1.00  0.00    -0.203 F 
ATOM     87  C   UNL A   1      41.734  27.412  34.895  1.00  0.00     0.198 A 
ATOM     88  C   UNL A   1      42.903  29.013  36.242  1.00  0.00     0.198 A 
ATOM     89  F   UNL A   1      43.848  30.924  35.252  1.00  0.00    -0.203 F 
ATOM     90  F   UNL A   1      41.058  26.257  34.789  1.00  0.00    -0.200 F 
ATOM     91  C   UNL A   1      42.189  27.830  36.135  1.00  0.00     0.200 A 
ATOM     92  F   UNL A   1      43.389  29.397  37.429  1.00  0.00    -0.200 F 
ATOM     93  F   UNL A   1      41.961  27.083  37.224  1.00  0.00    -0.200 F 
ENDBRANCH  60  83
ENDBRANCH  34  35
ENDBRANCH  27  29
ENDBRANCH  26  27
ENDBRANCH  25  26
ENDBRANCH  24  25
ENDBRANCH  23  24
ENDBRANCH   1  23
TORSDOF 18
ENDMDL
MODEL 3
REMARK VINA RESULT:     -11.3      3.306      8.239
REMARK SMILES CC(C)n1ccc(C[C@@H](C(=O)OCCOCCOC(=O)c2ccc(-c3c4nc(c(-c5c(F)c(F)c(F)c(F)c5F)c5ccc([nH]5)c(-c5c(F)c(F)c(F)c(F)c5F)c5nc(c(-c6c(F)c(F)c(F)c(F)c6F)c6ccc3[nH]6)C=C5)C=C4)cc2)c2cccc(Cl)c2)n1
REMARK SMILES IDX 14 1 13 2 12 3 10 4 11 5 9 6 8 7 7 8 4 9 5 10 91 11 6 12
REMARK SMILES IDX 2 13 1 14 3 15 84 16 85 17 90 18 86 19 88 20 87 21 89 22
REMARK SMILES IDX 15 23 16 24 17 25 18 26 19 27 20 28 21 29 22 30 83 31 23 32
REMARK SMILES IDX 82 33 24 34 25 35 26 36 76 37 27 38 81 39 75 40 77 41 28 42
REMARK SMILES IDX 80 43 74 44 73 45 29 47 61 48 41 49 60 50 42 51 45 52 59 53
REMARK SMILES IDX 78 54 43 55 44 56 58 58 79 59 46 60 30 61 31 62 39 63 32 64
REMARK SMILES IDX 33 65 37 66 40 67 34 68 35 69 38 70 36 71 62 72 63 73 71 74
REMARK SMILES IDX 64 75 65 76 69 77 72 78 66 79 67 80 70 81 68 82 47 83 48 84
REMARK SMILES IDX 56 85 49 86 50 87 54 88 57 89 51 90 52 91 55 92 53 93
REMARK H PARENT 77 46 45 57
REMARK Flexibility Score: inf
ROOT
ATOM      1  C   UNL A   1      33.507  27.392  25.989  1.00  0.00     0.202 C 
ENDROOT
BRANCH   1   2
ATOM      2  C   UNL A   1      32.177  26.661  26.207  1.00  0.00     0.261 C 
BRANCH   2   3
ATOM      3  O   UNL A   1      32.199  25.430  25.459  1.00  0.00    -0.463 OA
BRANCH   3   4
ATOM      4  C   UNL A   1      32.149  24.254  26.118  1.00  0.00     0.313 C 
ATOM      5  O   UNL A   1      31.705  24.134  27.254  1.00  0.00    -0.252 OA
BRANCH   4   6
ATOM      6  C   UNL A   1      32.607  23.061  25.253  1.00  0.00     0.135 C 
BRANCH   6   7
ATOM      7  C   UNL A   1      32.415  21.620  25.807  1.00  0.00     0.078 C 
BRANCH   7   8
ATOM      8  C   UNL A   1      32.543  20.441  24.878  1.00  0.00     0.064 A 
ATOM      9  N   UNL A   1      32.717  18.417  24.229  1.00  0.00    -0.270 N 
ATOM     10  C   UNL A   1      32.323  19.097  23.117  1.00  0.00     0.109 A 
ATOM     11  N   UNL A   1      32.885  19.216  25.313  1.00  0.00    -0.178 NA
ATOM     12  C   UNL A   1      32.153  20.388  23.521  1.00  0.00     0.045 A 
BRANCH   9  13
ATOM     13  C   UNL A   1      32.891  16.968  24.309  1.00  0.00     0.101 C 
ATOM     14  C   UNL A   1      34.024  16.497  23.389  1.00  0.00     0.033 C 
ATOM     15  C   UNL A   1      33.165  16.541  25.751  1.00  0.00     0.033 C 
ENDBRANCH   9  13
ENDBRANCH   7   8
ENDBRANCH   6   7
BRANCH   6  16
ATOM     16  C   UNL A   1      34.092  23.221  24.832  1.00  0.00    -0.032 A 
ATOM     17  C   UNL A   1      34.479  22.925  23.514  1.00  0.00     0.005 A 
ATOM     18  C   UNL A   1      35.106  23.604  25.733  1.00  0.00     0.025 A 
ATOM     19  C   UNL A   1      35.824  22.989  23.123  1.00  0.00     0.002 A 
ATOM     20  C   UNL A   1      36.449  23.645  25.344  1.00  0.00     0.041 A 
ATOM     21  C   UNL A   1      36.813  23.338  24.041  1.00  0.00     0.020 A 
ATOM     22  Cl  UNL A   1      37.660  24.057  26.496  1.00  0.00    -0.084 Cl
ENDBRANCH   6  16
ENDBRANCH   4   6
ENDBRANCH   3   4
ENDBRANCH   2   3
ENDBRANCH   1   2
BRANCH   1  23
ATOM     23  O   UNL A   1      33.746  28.478  26.889  1.00  0.00    -0.374 OA
BRANCH  23  24
ATOM     24  C   UNL A   1      33.515  29.800  26.415  1.00  0.00     0.202 C 
BRANCH  24  25
ATOM     25  C   UNL A   1      33.696  30.917  27.425  1.00  0.00     0.261 C 
BRANCH  25  26
ATOM     26  O   UNL A   1      35.020  30.897  27.930  1.00  0.00    -0.460 OA
BRANCH  26  27
ATOM     27  C   UNL A   1      35.260  31.695  28.995  1.00  0.00     0.338 C 
ATOM     28  O   UNL A   1      34.748  32.755  29.267  1.00  0.00    -0.246 OA
BRANCH  27  29
ATOM     29  C   UNL A   1      36.399  31.099  29.708  1.00  0.00     0.060 A 
ATOM     30  C   UNL A   1      37.586  31.829  29.722  1.00  0.00     0.016 A 
ATOM     31  C   UNL A   1      36.347  29.753  30.106  1.00  0.00     0.016 A 
ATOM     32  C   UNL A   1      38.760  31.134  29.898  1.00  0.00     0.010 A 
ATOM     33  C   UNL A   1      37.509  29.070  30.314  1.00  0.00     0.010 A 
ATOM     34  C   UNL A   1      38.696  29.747  30.083  1.00  0.00    -0.014 A 
BRANCH  34  35
ATOM     35  C   UNL A   1      39.916  28.984  30.114  1.00  0.00     0.031 A 
ATOM     36  C   UNL A   1      40.438  28.864  31.487  1.00  0.00     0.074 A 
ATOM     37  C   UNL A   1      40.397  28.378  29.011  1.00  0.00     0.049 A 
ATOM     38  N   UNL A   1      41.455  29.476  31.987  1.00  0.00    -0.248 NA
ATOM     39  C   UNL A   1      39.590  28.190  32.485  1.00  0.00     0.031 C 
ATOM     40  C   UNL A   1      39.769  28.253  27.692  1.00  0.00     0.029 A 
ATOM     41  N   UNL A   1      41.542  27.660  28.870  1.00  0.00    -0.354 N 
ATOM     42  C   UNL A   1      41.516  29.055  33.310  1.00  0.00     0.074 A 
ATOM     43  C   UNL A   1      40.228  28.497  33.615  1.00  0.00     0.031 C 
ATOM     44  C   UNL A   1      40.431  27.323  26.963  1.00  0.00     0.029 A 
ATOM     45  C   UNL A   1      41.602  26.895  27.706  1.00  0.00     0.049 A 
ATOM     46  H   UNL A   1      42.267  27.676  29.535  1.00  0.00     0.167 HD
ATOM     47  C   UNL A   1      42.724  28.889  33.908  1.00  0.00     0.037 A 
ATOM     48  C   UNL A   1      42.531  25.939  27.446  1.00  0.00     0.037 A 
ATOM     49  C   UNL A   1      43.749  29.603  33.181  1.00  0.00     0.049 A 
ATOM     50  C   UNL A   1      43.678  26.188  28.361  1.00  0.00     0.074 A 
ATOM     51  C   UNL A   1      43.965  30.929  32.858  1.00  0.00     0.029 A 
ATOM     52  N   UNL A   1      44.522  28.871  32.314  1.00  0.00    -0.354 N 
ATOM     53  N   UNL A   1      44.457  27.231  28.267  1.00  0.00    -0.248 NA
ATOM     54  C   UNL A   1      43.644  25.550  29.668  1.00  0.00     0.031 C 
ATOM     55  C   UNL A   1      44.505  30.909  31.538  1.00  0.00     0.029 A 
ATOM     56  C   UNL A   1      44.671  29.579  31.150  1.00  0.00     0.049 A 
ATOM     57  H   UNL A   1      44.906  27.984  32.498  1.00  0.00     0.167 HD
ATOM     58  C   UNL A   1      44.654  27.641  29.578  1.00  0.00     0.074 A 
ATOM     59  C   UNL A   1      44.192  26.524  30.400  1.00  0.00     0.031 C 
ATOM     60  C   UNL A   1      44.882  28.957  29.864  1.00  0.00     0.037 A 
BRANCH  47  61
ATOM     61  C   UNL A   1      43.047  27.737  34.833  1.00  0.00     0.064 A 
ATOM     62  C   UNL A   1      43.440  28.032  36.153  1.00  0.00     0.173 A 
ATOM     63  C   UNL A   1      43.288  26.408  34.414  1.00  0.00     0.173 A 
ATOM     64  F   UNL A   1      43.267  29.264  36.656  1.00  0.00    -0.203 F 
ATOM     65  C   UNL A   1      44.111  27.102  36.949  1.00  0.00     0.198 A 
ATOM     66  C   UNL A   1      43.911  25.467  35.230  1.00  0.00     0.198 A 
ATOM     67  F   UNL A   1      43.043  25.980  33.173  1.00  0.00    -0.203 F 
ATOM     68  F   UNL A   1      44.587  27.473  38.145  1.00  0.00    -0.200 F 
ATOM     69  C   UNL A   1      44.356  25.824  36.483  1.00  0.00     0.200 A 
ATOM     70  F   UNL A   1      44.153  24.240  34.749  1.00  0.00    -0.200 F 
ATOM     71  F   UNL A   1      45.058  24.952  37.217  1.00  0.00    -0.200 F 
ENDBRANCH  47  61
BRANCH  48  72
ATOM     72  C   UNL A   1      42.366  24.645  26.739  1.00  0.00     0.064 A 
ATOM     73  C   UNL A   1      43.201  24.298  25.662  1.00  0.00     0.173 A 
ATOM     74  C   UNL A   1      41.597  23.604  27.293  1.00  0.00     0.173 A 
ATOM     75  F   UNL A   1      44.002  25.219  25.107  1.00  0.00    -0.203 F 
ATOM     76  C   UNL A   1      43.284  22.983  25.190  1.00  0.00     0.198 A 
ATOM     77  C   UNL A   1      41.678  22.293  26.820  1.00  0.00     0.198 A 
ATOM     78  F   UNL A   1      40.830  23.817  28.372  1.00  0.00    -0.203 F 
ATOM     79  F   UNL A   1      44.141  22.678  24.206  1.00  0.00    -0.200 F 
ATOM     80  C   UNL A   1      42.533  21.979  25.778  1.00  0.00     0.200 A 
ATOM     81  F   UNL A   1      40.978  21.324  27.424  1.00  0.00    -0.200 F 
ATOM     82  F   UNL A   1      42.662  20.708  25.373  1.00  0.00    -0.200 F 
ENDBRANCH  48  72
BRANCH  60  83
ATOM     83  C   UNL A   1      45.199  29.869  28.709  1.00  0.00     0.064 A 
ATOM     84  C   UNL A   1      44.236  30.534  27.928  1.00  0.00     0.173 A 
ATOM     85  C   UNL A   1      46.544  30.170  28.464  1.00  0.00     0.173 A 
ATOM     86  F   UNL A   1      42.927  30.377  28.166  1.00  0.00    -0.203 F 
ATOM     87  C   UNL A   1      44.610  31.418  26.917  1.00  0.00     0.198 A 
ATOM     88  C   UNL A   1      46.915  31.082  27.481  1.00  0.00     0.198 A 
ATOM     89  F   UNL A   1      47.505  29.608  29.214  1.00  0.00    -0.203 F 
ATOM     90  F   UNL A   1      43.674  32.025  26.171  1.00  0.00    -0.200 F 
ATOM     91  C   UNL A   1      45.950  31.695  26.698  1.00  0.00     0.200 A 
ATOM     92  F   UNL A   1      48.208  31.384  27.308  1.00  0.00    -0.200 F 
ATOM     93  F   UNL A   1      46.311  32.571  25.750  1.00  0.00    -0.200 F 
ENDBRANCH  60  83
ENDBRANCH  34  35
ENDBRANCH  27  29
ENDBRANCH  26  27
ENDBRANCH  25  26
ENDBRANCH  24  25
ENDBRANCH  23  24
ENDBRANCH   1  23
TORSDOF 18
ENDMDL
