MODEL 1
REMARK VINA RESULT:     -12.6      0.000      0.000
REMARK SMILES COc1ccc(-c2ccc3n(c2=O)C[C@H]2C[C@@H]3CN(C(=O)CCCC(=O)OCCOCCOC(=O)c3ccc(-c4c5nc(c(-c6c(F)c(F)c(F)c(F)c6F)c6ccc([nH]6)c(-c6c(F)c(F)c(F)c(F)c6F)c6nc(c(-c7c(F)c(F)c(F)c(F)c7F)c7ccc4[nH]7)C=C6)C=C5)cc3)C2)cc1
REMARK SMILES IDX 28 1 27 2 25 3 26 4 24 5 23 6 22 7 20 8 21 9 19 10 7 11 8 12
REMARK SMILES IDX 12 13 9 14 11 15 13 16 10 17 14 18 17 19 15 20 16 21 18 22
REMARK SMILES IDX 99 23 6 24 3 25 4 26 101 27 5 28 100 29 2 30 1 31 29 32
REMARK SMILES IDX 30 33 31 34 32 35 33 36 34 37 35 38 36 39 37 40 98 41 38 42
REMARK SMILES IDX 97 43 39 44 40 45 41 46 91 47 42 48 96 49 90 50 92 51 43 52
REMARK SMILES IDX 95 53 89 54 88 55 44 57 76 58 56 59 75 60 57 61 60 62 74 63
REMARK SMILES IDX 93 64 58 65 59 66 73 68 94 69 61 70 45 71 46 72 54 73 47 74
REMARK SMILES IDX 48 75 52 76 55 77 49 78 50 79 53 80 51 81 77 82 78 83 86 84
REMARK SMILES IDX 79 85 80 86 84 87 87 88 81 89 82 90 85 91 83 92 62 93 63 94
REMARK SMILES IDX 71 95 64 96 65 97 69 98 72 99 66 100 67 101 70 102 68 103
REMARK H PARENT 92 56 60 67
REMARK Flexibility Score: inf
ROOT
ATOM      1  C   UNL A   1      39.056  22.116  25.955  1.00  0.00     0.261 C 
ENDROOT
BRANCH   1   2
ATOM      2  O   UNL A   1      37.652  22.077  25.641  1.00  0.00    -0.463 OA
BRANCH   2   3
ATOM      3  C   UNL A   1      36.953  23.216  25.895  1.00  0.00     0.305 C 
ATOM      4  O   UNL A   1      37.411  24.185  26.487  1.00  0.00    -0.252 OA
BRANCH   3   5
ATOM      5  C   UNL A   1      35.513  23.155  25.430  1.00  0.00     0.123 C 
BRANCH   5   6
ATOM      6  C   UNL A   1      34.559  24.255  25.895  1.00  0.00     0.022 C 
BRANCH   6   7
ATOM      7  C   UNL A   1      34.705  25.620  25.219  1.00  0.00     0.101 C 
BRANCH   7   8
ATOM      8  C   UNL A   1      33.647  26.633  25.629  1.00  0.00     0.222 C 
ATOM      9  O   UNL A   1      33.951  27.513  26.439  1.00  0.00    -0.275 OA
BRANCH   8  10
ATOM     10  N   UNL A   1      32.381  26.559  25.059  1.00  0.00    -0.342 N 
ATOM     11  C   UNL A   1      32.172  21.448  24.446  1.00  0.00     0.047 A 
ATOM     12  C   UNL A   1      31.540  21.693  25.604  1.00  0.00     0.016 A 
ATOM     13  C   UNL A   1      32.210  22.530  23.400  1.00  0.00     0.258 A 
ATOM     14  C   UNL A   1      30.896  22.953  25.853  1.00  0.00     0.023 A 
ATOM     15  N   UNL A   1      31.538  23.726  23.708  1.00  0.00    -0.311 N 
ATOM     16  O   UNL A   1      32.787  22.344  22.330  1.00  0.00    -0.269 OA
ATOM     17  C   UNL A   1      30.897  23.927  24.930  1.00  0.00     0.026 A 
ATOM     18  C   UNL A   1      31.458  24.717  22.635  1.00  0.00     0.131 C 
ATOM     19  C   UNL A   1      30.244  25.267  25.220  1.00  0.00     0.056 C 
ATOM     20  C   UNL A   1      30.952  26.112  23.028  1.00  0.00     0.029 C 
ATOM     21  C   UNL A   1      29.749  25.942  23.941  1.00  0.00     0.019 C 
ATOM     22  C   UNL A   1      31.255  26.191  25.924  1.00  0.00     0.129 C 
ATOM     23  C   UNL A   1      32.025  26.982  23.708  1.00  0.00     0.125 C 
BRANCH  11  24
ATOM     24  C   UNL A   1      32.773  20.126  24.199  1.00  0.00    -0.013 A 
ATOM     25  C   UNL A   1      33.906  17.583  23.816  1.00  0.00     0.118 A 
ATOM     26  C   UNL A   1      32.710  17.923  23.185  1.00  0.00     0.047 A 
ATOM     27  C   UNL A   1      34.560  18.526  24.607  1.00  0.00     0.047 A 
ATOM     28  C   UNL A   1      32.137  19.184  23.384  1.00  0.00     0.013 A 
ATOM     29  C   UNL A   1      33.994  19.789  24.800  1.00  0.00     0.013 A 
BRANCH  25  30
ATOM     30  O   UNL A   1      34.375  16.322  23.570  1.00  0.00    -0.497 OA
ATOM     31  C   UNL A   1      34.533  15.515  24.734  1.00  0.00     0.278 C 
ENDBRANCH  25  30
ENDBRANCH  11  24
ENDBRANCH   8  10
ENDBRANCH   7   8
ENDBRANCH   6   7
ENDBRANCH   5   6
ENDBRANCH   3   5
ENDBRANCH   2   3
ENDBRANCH   1   2
BRANCH   1  32
ATOM     32  C   UNL A   1      39.651  20.720  26.135  1.00  0.00     0.202 C 
BRANCH  32  33
ATOM     33  O   UNL A   1      40.957  20.499  25.613  1.00  0.00    -0.374 OA
BRANCH  33  34
ATOM     34  C   UNL A   1      42.078  20.878  26.406  1.00  0.00     0.202 C 
BRANCH  34  35
ATOM     35  C   UNL A   1      43.151  21.753  25.748  1.00  0.00     0.261 C 
BRANCH  35  36
ATOM     36  O   UNL A   1      42.635  22.817  24.927  1.00  0.00    -0.460 OA
BRANCH  36  37
ATOM     37  C   UNL A   1      43.314  23.985  25.049  1.00  0.00     0.338 C 
ATOM     38  O   UNL A   1      44.403  24.260  24.574  1.00  0.00    -0.246 OA
BRANCH  37  39
ATOM     39  C   UNL A   1      42.519  24.993  25.772  1.00  0.00     0.060 A 
ATOM     40  C   UNL A   1      42.969  26.321  25.742  1.00  0.00     0.016 A 
ATOM     41  C   UNL A   1      41.474  24.617  26.617  1.00  0.00     0.016 A 
ATOM     42  C   UNL A   1      42.428  27.263  26.616  1.00  0.00     0.010 A 
ATOM     43  C   UNL A   1      40.940  25.560  27.501  1.00  0.00     0.010 A 
ATOM     44  C   UNL A   1      41.452  26.870  27.540  1.00  0.00    -0.014 A 
BRANCH  44  45
ATOM     45  C   UNL A   1      41.117  27.757  28.682  1.00  0.00     0.031 A 
ATOM     46  C   UNL A   1      41.944  27.658  29.935  1.00  0.00     0.074 A 
ATOM     47  C   UNL A   1      40.106  28.639  28.609  1.00  0.00     0.049 A 
ATOM     48  N   UNL A   1      41.775  28.241  31.095  1.00  0.00    -0.248 NA
ATOM     49  C   UNL A   1      43.125  26.780  29.872  1.00  0.00     0.031 C 
ATOM     50  C   UNL A   1      39.276  28.874  27.431  1.00  0.00     0.029 A 
ATOM     51  N   UNL A   1      39.600  29.491  29.559  1.00  0.00    -0.354 N 
ATOM     52  C   UNL A   1      42.811  27.786  31.900  1.00  0.00     0.074 A 
ATOM     53  C   UNL A   1      43.598  26.870  31.105  1.00  0.00     0.031 C 
ATOM     54  C   UNL A   1      38.345  29.796  27.735  1.00  0.00     0.029 A 
ATOM     55  C   UNL A   1      38.491  30.182  29.138  1.00  0.00     0.049 A 
ATOM     56  H   UNL A   1      39.993  29.597  30.455  1.00  0.00     0.167 HD
ATOM     57  C   UNL A   1      43.081  28.106  33.188  1.00  0.00     0.037 A 
ATOM     58  C   UNL A   1      37.669  31.003  29.821  1.00  0.00     0.037 A 
ATOM     59  C   UNL A   1      42.301  29.024  33.974  1.00  0.00     0.049 A 
ATOM     60  C   UNL A   1      37.946  31.287  31.275  1.00  0.00     0.074 A 
ATOM     61  C   UNL A   1      42.493  29.417  35.287  1.00  0.00     0.029 A 
ATOM     62  N   UNL A   1      41.175  29.691  33.517  1.00  0.00    -0.354 N 
ATOM     63  N   UNL A   1      38.925  30.853  32.032  1.00  0.00    -0.248 NA
ATOM     64  C   UNL A   1      37.000  32.172  31.973  1.00  0.00     0.031 C 
ATOM     65  C   UNL A   1      41.460  30.291  35.637  1.00  0.00     0.029 A 
ATOM     66  C   UNL A   1      40.652  30.479  34.527  1.00  0.00     0.049 A 
ATOM     67  H   UNL A   1      40.803  29.614  32.609  1.00  0.00     0.167 HD
ATOM     68  C   UNL A   1      38.736  31.439  33.277  1.00  0.00     0.074 A 
ATOM     69  C   UNL A   1      37.547  32.258  33.178  1.00  0.00     0.031 C 
ATOM     70  C   UNL A   1      39.484  31.312  34.401  1.00  0.00     0.037 A 
BRANCH  57  71
ATOM     71  C   UNL A   1      44.253  27.435  33.839  1.00  0.00     0.064 A 
ATOM     72  C   UNL A   1      44.130  26.193  34.480  1.00  0.00     0.173 A 
ATOM     73  C   UNL A   1      45.524  28.026  33.790  1.00  0.00     0.173 A 
ATOM     74  F   UNL A   1      42.932  25.595  34.565  1.00  0.00    -0.203 F 
ATOM     75  C   UNL A   1      45.233  25.578  35.066  1.00  0.00     0.198 A 
ATOM     76  C   UNL A   1      46.630  27.396  34.355  1.00  0.00     0.198 A 
ATOM     77  F   UNL A   1      45.696  29.212  33.187  1.00  0.00    -0.203 F 
ATOM     78  F   UNL A   1      45.085  24.410  35.707  1.00  0.00    -0.200 F 
ATOM     79  C   UNL A   1      46.482  26.176  34.997  1.00  0.00     0.200 A 
ATOM     80  F   UNL A   1      47.839  27.970  34.278  1.00  0.00    -0.200 F 
ATOM     81  F   UNL A   1      47.545  25.579  35.554  1.00  0.00    -0.200 F 
ENDBRANCH  57  71
BRANCH  58  82
ATOM     82  C   UNL A   1      36.490  31.601  29.143  1.00  0.00     0.064 A 
ATOM     83  C   UNL A   1      36.449  32.968  28.835  1.00  0.00     0.173 A 
ATOM     84  C   UNL A   1      35.377  30.820  28.797  1.00  0.00     0.173 A 
ATOM     85  F   UNL A   1      37.479  33.759  29.169  1.00  0.00    -0.203 F 
ATOM     86  C   UNL A   1      35.334  33.533  28.221  1.00  0.00     0.198 A 
ATOM     87  C   UNL A   1      34.274  31.382  28.160  1.00  0.00     0.198 A 
ATOM     88  F   UNL A   1      35.366  29.508  29.071  1.00  0.00    -0.203 F 
ATOM     89  F   UNL A   1      35.304  34.850  27.973  1.00  0.00    -0.200 F 
ATOM     90  C   UNL A   1      34.250  32.739  27.877  1.00  0.00     0.200 A 
ATOM     91  F   UNL A   1      33.235  30.608  27.817  1.00  0.00    -0.200 F 
ATOM     92  F   UNL A   1      33.181  33.283  27.279  1.00  0.00    -0.200 F 
ENDBRANCH  58  82
BRANCH  70  93
ATOM     93  C   UNL A   1      39.085  32.120  35.598  1.00  0.00     0.064 A 
ATOM     94  C   UNL A   1      38.335  31.567  36.646  1.00  0.00     0.173 A 
ATOM     95  C   UNL A   1      39.532  33.444  35.735  1.00  0.00     0.173 A 
ATOM     96  F   UNL A   1      37.875  30.310  36.555  1.00  0.00    -0.203 F 
ATOM     97  C   UNL A   1      38.039  32.314  37.782  1.00  0.00     0.198 A 
ATOM     98  C   UNL A   1      39.254  34.180  36.883  1.00  0.00     0.198 A 
ATOM     99  F   UNL A   1      40.259  34.015  34.762  1.00  0.00    -0.203 F 
ATOM    100  F   UNL A   1      37.298  31.775  38.761  1.00  0.00    -0.200 F 
ATOM    101  C   UNL A   1      38.506  33.615  37.905  1.00  0.00     0.200 A 
ATOM    102  F   UNL A   1      39.718  35.431  37.004  1.00  0.00    -0.200 F 
ATOM    103  F   UNL A   1      38.233  34.326  39.007  1.00  0.00    -0.200 F 
ENDBRANCH  70  93
ENDBRANCH  44  45
ENDBRANCH  37  39
ENDBRANCH  36  37
ENDBRANCH  35  36
ENDBRANCH  34  35
ENDBRANCH  33  34
ENDBRANCH  32  33
ENDBRANCH   1  32
TORSDOF 20
ENDMDL
MODEL 2
REMARK VINA RESULT:     -11.7      2.944      8.929
REMARK SMILES COc1ccc(-c2ccc3n(c2=O)C[C@H]2C[C@@H]3CN(C(=O)CCCC(=O)OCCOCCOC(=O)c3ccc(-c4c5nc(c(-c6c(F)c(F)c(F)c(F)c6F)c6ccc([nH]6)c(-c6c(F)c(F)c(F)c(F)c6F)c6nc(c(-c7c(F)c(F)c(F)c(F)c7F)c7ccc4[nH]7)C=C6)C=C5)cc3)C2)cc1
REMARK SMILES IDX 28 1 27 2 25 3 26 4 24 5 23 6 22 7 20 8 21 9 19 10 7 11 8 12
REMARK SMILES IDX 12 13 9 14 11 15 13 16 10 17 14 18 17 19 15 20 16 21 18 22
REMARK SMILES IDX 99 23 6 24 3 25 4 26 101 27 5 28 100 29 2 30 1 31 29 32
REMARK SMILES IDX 30 33 31 34 32 35 33 36 34 37 35 38 36 39 37 40 98 41 38 42
REMARK SMILES IDX 97 43 39 44 40 45 41 46 91 47 42 48 96 49 90 50 92 51 43 52
REMARK SMILES IDX 95 53 89 54 88 55 44 57 76 58 56 59 75 60 57 61 60 62 74 63
REMARK SMILES IDX 93 64 58 65 59 66 73 68 94 69 61 70 45 71 46 72 54 73 47 74
REMARK SMILES IDX 48 75 52 76 55 77 49 78 50 79 53 80 51 81 77 82 78 83 86 84
REMARK SMILES IDX 79 85 80 86 84 87 87 88 81 89 82 90 85 91 83 92 62 93 63 94
REMARK SMILES IDX 71 95 64 96 65 97 69 98 72 99 66 100 67 101 70 102 68 103
REMARK H PARENT 92 56 60 67
REMARK Flexibility Score: inf
ROOT
ATOM      1  C   UNL A   1      33.470  29.741  27.622  1.00  0.00     0.261 C 
ENDROOT
BRANCH   1   2
ATOM      2  O   UNL A   1      33.529  28.374  27.173  1.00  0.00    -0.463 OA
BRANCH   2   3
ATOM      3  C   UNL A   1      32.361  27.679  27.224  1.00  0.00     0.305 C 
ATOM      4  O   UNL A   1      31.444  27.933  27.994  1.00  0.00    -0.252 OA
BRANCH   3   5
ATOM      5  C   UNL A   1      32.319  26.502  26.271  1.00  0.00     0.123 C 
BRANCH   5   6
ATOM      6  C   UNL A   1      33.622  26.076  25.596  1.00  0.00     0.022 C 
BRANCH   6   7
ATOM      7  C   UNL A   1      34.325  24.846  26.176  1.00  0.00     0.101 C 
BRANCH   7   8
ATOM      8  C   UNL A   1      34.986  23.959  25.132  1.00  0.00     0.222 C 
ATOM      9  O   UNL A   1      36.217  23.958  25.048  1.00  0.00    -0.275 OA
BRANCH   8  10
ATOM     10  N   UNL A   1      34.191  23.152  24.326  1.00  0.00    -0.342 N 
ATOM     11  C   UNL A   1      30.804  26.741  22.845  1.00  0.00     0.047 A 
ATOM     12  C   UNL A   1      31.711  26.680  21.858  1.00  0.00     0.016 A 
ATOM     13  C   UNL A   1      30.584  25.522  23.700  1.00  0.00     0.258 A 
ATOM     14  C   UNL A   1      32.459  25.480  21.602  1.00  0.00     0.023 A 
ATOM     15  N   UNL A   1      31.336  24.380  23.374  1.00  0.00    -0.311 N 
ATOM     16  O   UNL A   1      29.766  25.544  24.619  1.00  0.00    -0.269 OA
ATOM     17  C   UNL A   1      32.268  24.373  22.336  1.00  0.00     0.026 A 
ATOM     18  C   UNL A   1      31.016  23.161  24.116  1.00  0.00     0.131 C 
ATOM     19  C   UNL A   1      33.091  23.123  22.079  1.00  0.00     0.056 C 
ATOM     20  C   UNL A   1      31.986  21.983  23.950  1.00  0.00     0.029 C 
ATOM     21  C   UNL A   1      32.332  21.857  22.475  1.00  0.00     0.019 C 
ATOM     22  C   UNL A   1      34.406  23.198  22.876  1.00  0.00     0.129 C 
ATOM     23  C   UNL A   1      33.267  22.122  24.793  1.00  0.00     0.125 C 
BRANCH  11  24
ATOM     24  C   UNL A   1      30.014  27.967  23.044  1.00  0.00    -0.013 A 
ATOM     25  C   UNL A   1      28.554  30.348  23.360  1.00  0.00     0.118 A 
ATOM     26  C   UNL A   1      27.923  29.190  22.905  1.00  0.00     0.047 A 
ATOM     27  C   UNL A   1      29.905  30.309  23.698  1.00  0.00     0.047 A 
ATOM     28  C   UNL A   1      28.650  28.007  22.735  1.00  0.00     0.013 A 
ATOM     29  C   UNL A   1      30.632  29.125  23.537  1.00  0.00     0.013 A 
BRANCH  25  30
ATOM     30  O   UNL A   1      27.759  31.455  23.477  1.00  0.00    -0.497 OA
ATOM     31  C   UNL A   1      28.359  32.662  23.011  1.00  0.00     0.278 C 
ENDBRANCH  25  30
ENDBRANCH  11  24
ENDBRANCH   8  10
ENDBRANCH   7   8
ENDBRANCH   6   7
ENDBRANCH   5   6
ENDBRANCH   3   5
ENDBRANCH   2   3
ENDBRANCH   1   2
BRANCH   1  32
ATOM     32  C   UNL A   1      33.198  30.717  26.479  1.00  0.00     0.202 C 
BRANCH  32  33
ATOM     33  O   UNL A   1      31.871  31.216  26.353  1.00  0.00    -0.374 OA
BRANCH  33  34
ATOM     34  C   UNL A   1      31.515  32.391  27.075  1.00  0.00     0.202 C 
BRANCH  34  35
ATOM     35  C   UNL A   1      32.568  33.500  27.191  1.00  0.00     0.261 C 
BRANCH  35  36
ATOM     36  O   UNL A   1      32.574  34.190  28.454  1.00  0.00    -0.460 OA
BRANCH  36  37
ATOM     37  C   UNL A   1      33.770  34.742  28.775  1.00  0.00     0.338 C 
ATOM     38  O   UNL A   1      33.999  35.912  29.032  1.00  0.00    -0.246 OA
BRANCH  37  39
ATOM     39  C   UNL A   1      34.820  33.714  28.889  1.00  0.00     0.060 A 
ATOM     40  C   UNL A   1      34.491  32.519  29.547  1.00  0.00     0.016 A 
ATOM     41  C   UNL A   1      36.142  33.991  28.538  1.00  0.00     0.016 A 
ATOM     42  C   UNL A   1      35.496  31.631  29.927  1.00  0.00     0.010 A 
ATOM     43  C   UNL A   1      37.150  33.104  28.929  1.00  0.00     0.010 A 
ATOM     44  C   UNL A   1      36.836  31.950  29.671  1.00  0.00    -0.014 A 
BRANCH  44  45
ATOM     45  C   UNL A   1      37.917  31.198  30.355  1.00  0.00     0.031 A 
ATOM     46  C   UNL A   1      38.217  31.522  31.794  1.00  0.00     0.074 A 
ATOM     47  C   UNL A   1      38.615  30.242  29.719  1.00  0.00     0.049 A 
ATOM     48  N   UNL A   1      39.183  31.085  32.563  1.00  0.00    -0.248 NA
ATOM     49  C   UNL A   1      37.304  32.469  32.456  1.00  0.00     0.031 C 
ATOM     50  C   UNL A   1      38.375  29.794  28.350  1.00  0.00     0.029 A 
ATOM     51  N   UNL A   1      39.680  29.487  30.144  1.00  0.00    -0.354 N 
ATOM     52  C   UNL A   1      39.004  31.717  33.787  1.00  0.00     0.074 A 
ATOM     53  C   UNL A   1      37.848  32.576  33.658  1.00  0.00     0.031 C 
ATOM     54  C   UNL A   1      39.285  28.854  28.037  1.00  0.00     0.029 A 
ATOM     55  C   UNL A   1      40.192  28.668  29.169  1.00  0.00     0.049 A 
ATOM     56  H   UNL A   1      40.041  29.530  31.058  1.00  0.00     0.167 HD
ATOM     57  C   UNL A   1      39.739  31.589  34.918  1.00  0.00     0.037 A 
ATOM     58  C   UNL A   1      41.289  27.885  29.182  1.00  0.00     0.037 A 
ATOM     59  C   UNL A   1      40.883  30.728  35.045  1.00  0.00     0.049 A 
ATOM     60  C   UNL A   1      42.136  27.815  30.427  1.00  0.00     0.074 A 
ATOM     61  C   UNL A   1      41.694  30.526  36.149  1.00  0.00     0.029 A 
ATOM     62  N   UNL A   1      41.381  29.926  34.030  1.00  0.00    -0.354 N 
ATOM     63  N   UNL A   1      41.963  28.416  31.580  1.00  0.00    -0.248 NA
ATOM     64  C   UNL A   1      43.333  26.962  30.372  1.00  0.00     0.031 C 
ATOM     65  C   UNL A   1      42.706  29.632  35.788  1.00  0.00     0.029 A 
ATOM     66  C   UNL A   1      42.498  29.241  34.476  1.00  0.00     0.049 A 
ATOM     67  H   UNL A   1      40.997  29.855  33.126  1.00  0.00     0.167 HD
ATOM     68  C   UNL A   1      43.003  27.987  32.396  1.00  0.00     0.074 A 
ATOM     69  C   UNL A   1      43.805  27.076  31.606  1.00  0.00     0.031 C 
ATOM     70  C   UNL A   1      43.266  28.314  33.684  1.00  0.00     0.037 A 
BRANCH  57  71
ATOM     71  C   UNL A   1      39.346  32.425  36.099  1.00  0.00     0.064 A 
ATOM     72  C   UNL A   1      39.898  33.695  36.321  1.00  0.00     0.173 A 
ATOM     73  C   UNL A   1      38.377  31.962  37.002  1.00  0.00     0.173 A 
ATOM     74  F   UNL A   1      40.838  34.175  35.493  1.00  0.00    -0.203 F 
ATOM     75  C   UNL A   1      39.509  34.463  37.415  1.00  0.00     0.198 A 
ATOM     76  C   UNL A   1      37.972  32.743  38.081  1.00  0.00     0.198 A 
ATOM     77  F   UNL A   1      37.816  30.755  36.833  1.00  0.00    -0.203 F 
ATOM     78  F   UNL A   1      40.079  35.657  37.630  1.00  0.00    -0.200 F 
ATOM     79  C   UNL A   1      38.543  33.989  38.290  1.00  0.00     0.200 A 
ATOM     80  F   UNL A   1      37.030  32.289  38.919  1.00  0.00    -0.200 F 
ATOM     81  F   UNL A   1      38.164  34.733  39.338  1.00  0.00    -0.200 F 
ENDBRANCH  57  71
BRANCH  58  82
ATOM     82  C   UNL A   1      41.665  27.118  27.966  1.00  0.00     0.064 A 
ATOM     83  C   UNL A   1      42.509  27.670  26.994  1.00  0.00     0.173 A 
ATOM     84  C   UNL A   1      41.180  25.820  27.749  1.00  0.00     0.173 A 
ATOM     85  F   UNL A   1      42.978  28.918  27.148  1.00  0.00    -0.203 F 
ATOM     86  C   UNL A   1      42.843  26.960  25.844  1.00  0.00     0.198 A 
ATOM     87  C   UNL A   1      41.535  25.100  26.610  1.00  0.00     0.198 A 
ATOM     88  F   UNL A   1      40.367  25.246  28.648  1.00  0.00    -0.203 F 
ATOM     89  F   UNL A   1      43.621  27.526  24.911  1.00  0.00    -0.200 F 
ATOM     90  C   UNL A   1      42.361  25.673  25.656  1.00  0.00     0.200 A 
ATOM     91  F   UNL A   1      41.078  23.852  26.439  1.00  0.00    -0.200 F 
ATOM     92  F   UNL A   1      42.689  24.987  24.552  1.00  0.00    -0.200 F 
ENDBRANCH  58  82
BRANCH  70  93
ATOM     93  C   UNL A   1      44.429  27.643  34.351  1.00  0.00     0.064 A 
ATOM     94  C   UNL A   1      45.695  28.242  34.403  1.00  0.00     0.173 A 
ATOM     95  C   UNL A   1      44.249  26.420  35.017  1.00  0.00     0.173 A 
ATOM     96  F   UNL A   1      45.919  29.404  33.771  1.00  0.00    -0.203 F 
ATOM     97  C   UNL A   1      46.742  27.635  35.091  1.00  0.00     0.198 A 
ATOM     98  C   UNL A   1      45.291  25.829  35.724  1.00  0.00     0.198 A 
ATOM     99  F   UNL A   1      43.052  25.813  35.002  1.00  0.00    -0.203 F 
ATOM    100  F   UNL A   1      47.952  28.210  35.108  1.00  0.00    -0.200 F 
ATOM    101  C   UNL A   1      46.538  26.436  35.759  1.00  0.00     0.200 A 
ATOM    102  F   UNL A   1      45.087  24.678  36.378  1.00  0.00    -0.200 F 
ATOM    103  F   UNL A   1      47.543  25.862  36.434  1.00  0.00    -0.200 F 
ENDBRANCH  70  93
ENDBRANCH  44  45
ENDBRANCH  37  39
ENDBRANCH  36  37
ENDBRANCH  35  36
ENDBRANCH  34  35
ENDBRANCH  33  34
ENDBRANCH  32  33
ENDBRANCH   1  32
TORSDOF 20
ENDMDL
MODEL 3
REMARK VINA RESULT:     -11.7      3.260      8.083
REMARK SMILES COc1ccc(-c2ccc3n(c2=O)C[C@H]2C[C@@H]3CN(C(=O)CCCC(=O)OCCOCCOC(=O)c3ccc(-c4c5nc(c(-c6c(F)c(F)c(F)c(F)c6F)c6ccc([nH]6)c(-c6c(F)c(F)c(F)c(F)c6F)c6nc(c(-c7c(F)c(F)c(F)c(F)c7F)c7ccc4[nH]7)C=C6)C=C5)cc3)C2)cc1
REMARK SMILES IDX 28 1 27 2 25 3 26 4 24 5 23 6 22 7 20 8 21 9 19 10 7 11 8 12
REMARK SMILES IDX 12 13 9 14 11 15 13 16 10 17 14 18 17 19 15 20 16 21 18 22
REMARK SMILES IDX 99 23 6 24 3 25 4 26 101 27 5 28 100 29 2 30 1 31 29 32
REMARK SMILES IDX 30 33 31 34 32 35 33 36 34 37 35 38 36 39 37 40 98 41 38 42
REMARK SMILES IDX 97 43 39 44 40 45 41 46 91 47 42 48 96 49 90 50 92 51 43 52
REMARK SMILES IDX 95 53 89 54 88 55 44 57 76 58 56 59 75 60 57 61 60 62 74 63
REMARK SMILES IDX 93 64 58 65 59 66 73 68 94 69 61 70 45 71 46 72 54 73 47 74
REMARK SMILES IDX 48 75 52 76 55 77 49 78 50 79 53 80 51 81 77 82 78 83 86 84
REMARK SMILES IDX 79 85 80 86 84 87 87 88 81 89 82 90 85 91 83 92 62 93 63 94
REMARK SMILES IDX 71 95 64 96 65 97 69 98 72 99 66 100 67 101 70 102 68 103
REMARK H PARENT 92 56 60 67
REMARK Flexibility Score: inf
ROOT
ATOM      1  C   UNL A   1      28.874  32.862  23.199  1.00  0.00     0.261 C 
ENDROOT
BRANCH   1   2
ATOM      2  O   UNL A   1      27.653  32.272  22.717  1.00  0.00    -0.463 OA
BRANCH   2   3
ATOM      3  C   UNL A   1      27.784  31.103  22.034  1.00  0.00     0.305 C 
ATOM      4  O   UNL A   1      28.029  31.032  20.836  1.00  0.00    -0.252 OA
BRANCH   3   5
ATOM      5  C   UNL A   1      27.534  29.876  22.886  1.00  0.00     0.123 C 
BRANCH   5   6
ATOM      6  C   UNL A   1      28.134  28.548  22.428  1.00  0.00     0.022 C 
BRANCH   6   7
ATOM      7  C   UNL A   1      28.882  27.732  23.485  1.00  0.00     0.101 C 
BRANCH   7   8
ATOM      8  C   UNL A   1      30.348  27.489  23.160  1.00  0.00     0.222 C 
ATOM      9  O   UNL A   1      30.654  27.159  22.011  1.00  0.00    -0.275 OA
BRANCH   8  10
ATOM     10  N   UNL A   1      31.303  27.677  24.153  1.00  0.00    -0.342 N 
ATOM     11  C   UNL A   1      33.262  22.912  24.166  1.00  0.00     0.047 A 
ATOM     12  C   UNL A   1      34.075  23.628  23.373  1.00  0.00     0.016 A 
ATOM     13  C   UNL A   1      32.492  23.625  25.244  1.00  0.00     0.258 A 
ATOM     14  C   UNL A   1      34.227  25.046  23.543  1.00  0.00     0.023 A 
ATOM     15  N   UNL A   1      32.711  25.009  25.363  1.00  0.00    -0.311 N 
ATOM     16  O   UNL A   1      31.732  23.003  25.984  1.00  0.00    -0.269 OA
ATOM     17  C   UNL A   1      33.567  25.704  24.510  1.00  0.00     0.026 A 
ATOM     18  C   UNL A   1      32.069  25.669  26.500  1.00  0.00     0.131 C 
ATOM     19  C   UNL A   1      33.709  27.209  24.656  1.00  0.00     0.056 C 
ATOM     20  C   UNL A   1      32.094  27.204  26.503  1.00  0.00     0.029 C 
ATOM     21  C   UNL A   1      33.487  27.658  26.100  1.00  0.00     0.019 C 
ATOM     22  C   UNL A   1      32.690  27.913  23.741  1.00  0.00     0.129 C 
ATOM     23  C   UNL A   1      31.034  27.834  25.580  1.00  0.00     0.125 C 
BRANCH  11  24
ATOM     24  C   UNL A   1      33.173  21.451  24.002  1.00  0.00    -0.013 A 
ATOM     25  C   UNL A   1      32.972  18.657  23.774  1.00  0.00     0.118 A 
ATOM     26  C   UNL A   1      32.154  19.487  23.006  1.00  0.00     0.047 A 
ATOM     27  C   UNL A   1      33.920  19.220  24.626  1.00  0.00     0.047 A 
ATOM     28  C   UNL A   1      32.243  20.878  23.127  1.00  0.00     0.013 A 
ATOM     29  C   UNL A   1      34.017  20.611  24.742  1.00  0.00     0.013 A 
BRANCH  25  30
ATOM     30  O   UNL A   1      32.797  17.312  23.594  1.00  0.00    -0.497 OA
ATOM     31  C   UNL A   1      34.007  16.579  23.425  1.00  0.00     0.278 C 
ENDBRANCH  25  30
ENDBRANCH  11  24
ENDBRANCH   8  10
ENDBRANCH   7   8
ENDBRANCH   6   7
ENDBRANCH   5   6
ENDBRANCH   3   5
ENDBRANCH   2   3
ENDBRANCH   1   2
BRANCH   1  32
ATOM     32  C   UNL A   1      29.620  31.948  24.169  1.00  0.00     0.202 C 
BRANCH  32  33
ATOM     33  O   UNL A   1      30.456  32.572  25.137  1.00  0.00    -0.374 OA
BRANCH  33  34
ATOM     34  C   UNL A   1      30.835  31.826  26.289  1.00  0.00     0.202 C 
BRANCH  34  35
ATOM     35  C   UNL A   1      32.192  31.112  26.259  1.00  0.00     0.261 C 
BRANCH  35  36
ATOM     36  O   UNL A   1      32.874  31.069  27.526  1.00  0.00    -0.460 OA
BRANCH  36  37
ATOM     37  C   UNL A   1      33.776  32.067  27.700  1.00  0.00     0.338 C 
ATOM     38  O   UNL A   1      33.556  33.267  27.719  1.00  0.00    -0.246 OA
BRANCH  37  39
ATOM     39  C   UNL A   1      35.119  31.531  27.981  1.00  0.00     0.060 A 
ATOM     40  C   UNL A   1      35.214  30.188  28.375  1.00  0.00     0.016 A 
ATOM     41  C   UNL A   1      36.232  32.371  28.049  1.00  0.00     0.016 A 
ATOM     42  C   UNL A   1      36.404  29.699  28.913  1.00  0.00     0.010 A 
ATOM     43  C   UNL A   1      37.421  31.883  28.598  1.00  0.00     0.010 A 
ATOM     44  C   UNL A   1      37.494  30.562  29.081  1.00  0.00    -0.014 A 
BRANCH  44  45
ATOM     45  C   UNL A   1      38.629  30.158  29.947  1.00  0.00     0.031 A 
ATOM     46  C   UNL A   1      39.629  29.171  29.407  1.00  0.00     0.074 A 
ATOM     47  C   UNL A   1      38.778  30.660  31.185  1.00  0.00     0.049 A 
ATOM     48  N   UNL A   1      40.631  28.584  30.011  1.00  0.00    -0.248 NA
ATOM     49  C   UNL A   1      39.476  28.794  27.992  1.00  0.00     0.031 C 
ATOM     50  C   UNL A   1      37.916  31.668  31.795  1.00  0.00     0.029 A 
ATOM     51  N   UNL A   1      39.706  30.373  32.155  1.00  0.00    -0.354 N 
ATOM     52  C   UNL A   1      41.214  27.758  29.058  1.00  0.00     0.074 A 
ATOM     53  C   UNL A   1      40.448  27.908  27.840  1.00  0.00     0.031 C 
ATOM     54  C   UNL A   1      38.341  31.900  33.049  1.00  0.00     0.029 A 
ATOM     55  C   UNL A   1      39.479  31.028  33.340  1.00  0.00     0.049 A 
ATOM     56  H   UNL A   1      40.460  29.756  32.015  1.00  0.00     0.167 HD
ATOM     57  C   UNL A   1      42.291  26.948  29.188  1.00  0.00     0.037 A 
ATOM     58  C   UNL A   1      40.098  30.908  34.530  1.00  0.00     0.037 A 
ATOM     59  C   UNL A   1      43.055  26.807  30.399  1.00  0.00     0.049 A 
ATOM     60  C   UNL A   1      41.249  29.945  34.673  1.00  0.00     0.074 A 
ATOM     61  C   UNL A   1      44.165  26.015  30.632  1.00  0.00     0.029 A 
ATOM     62  N   UNL A   1      42.783  27.477  31.582  1.00  0.00    -0.354 N 
ATOM     63  N   UNL A   1      41.794  29.165  33.770  1.00  0.00    -0.248 NA
ATOM     64  C   UNL A   1      41.870  29.841  36.003  1.00  0.00     0.031 C 
ATOM     65  C   UNL A   1      44.541  26.174  31.969  1.00  0.00     0.029 A 
ATOM     66  C   UNL A   1      43.694  27.102  32.555  1.00  0.00     0.049 A 
ATOM     67  H   UNL A   1      42.051  28.122  31.711  1.00  0.00     0.167 HD
ATOM     68  C   UNL A   1      42.839  28.510  34.409  1.00  0.00     0.074 A 
ATOM     69  C   UNL A   1      42.853  28.980  35.778  1.00  0.00     0.031 C 
ATOM     70  C   UNL A   1      43.711  27.604  33.904  1.00  0.00     0.037 A 
BRANCH  57  71
ATOM     71  C   UNL A   1      42.690  26.127  28.000  1.00  0.00     0.064 A 
ATOM     72  C   UNL A   1      42.199  24.828  27.802  1.00  0.00     0.173 A 
ATOM     73  C   UNL A   1      43.548  26.660  27.026  1.00  0.00     0.173 A 
ATOM     74  F   UNL A   1      41.388  24.268  28.712  1.00  0.00    -0.203 F 
ATOM     75  C   UNL A   1      42.569  24.086  26.683  1.00  0.00     0.198 A 
ATOM     76  C   UNL A   1      43.896  25.925  25.896  1.00  0.00     0.198 A 
ATOM     77  F   UNL A   1      44.043  27.900  27.166  1.00  0.00    -0.203 F 
ATOM     78  F   UNL A   1      42.119  22.832  26.535  1.00  0.00    -0.200 F 
ATOM     79  C   UNL A   1      43.411  24.637  25.729  1.00  0.00     0.200 A 
ATOM     80  F   UNL A   1      44.700  26.463  24.969  1.00  0.00    -0.200 F 
ATOM     81  F   UNL A   1      43.760  23.924  24.649  1.00  0.00    -0.200 F 
ENDBRANCH  57  71
BRANCH  58  82
ATOM     82  C   UNL A   1      39.630  31.706  35.692  1.00  0.00     0.064 A 
ATOM     83  C   UNL A   1      40.221  32.937  36.010  1.00  0.00     0.173 A 
ATOM     84  C   UNL A   1      38.588  31.251  36.513  1.00  0.00     0.173 A 
ATOM     85  F   UNL A   1      41.238  33.401  35.268  1.00  0.00    -0.203 F 
ATOM     86  C   UNL A   1      39.798  33.674  37.113  1.00  0.00     0.198 A 
ATOM     87  C   UNL A   1      38.148  32.002  37.600  1.00  0.00     0.198 A 
ATOM     88  F   UNL A   1      37.990  30.080  36.253  1.00  0.00    -0.203 F 
ATOM     89  F   UNL A   1      40.406  34.828  37.418  1.00  0.00    -0.200 F 
ATOM     90  C   UNL A   1      38.757  33.210  37.903  1.00  0.00     0.200 A 
ATOM     91  F   UNL A   1      37.132  31.556  38.353  1.00  0.00    -0.200 F 
ATOM     92  F   UNL A   1      38.345  33.924  38.960  1.00  0.00    -0.200 F 
ENDBRANCH  58  82
BRANCH  70  93
ATOM     93  C   UNL A   1      44.796  27.102  34.809  1.00  0.00     0.064 A 
ATOM     94  C   UNL A   1      44.645  25.931  35.565  1.00  0.00     0.173 A 
ATOM     95  C   UNL A   1      46.036  27.760  34.854  1.00  0.00     0.173 A 
ATOM     96  F   UNL A   1      43.475  25.274  35.564  1.00  0.00    -0.203 F 
ATOM     97  C   UNL A   1      45.692  25.443  36.341  1.00  0.00     0.198 A 
ATOM     98  C   UNL A   1      47.088  27.256  35.612  1.00  0.00     0.198 A 
ATOM     99  F   UNL A   1      46.231  28.881  34.141  1.00  0.00    -0.203 F 
ATOM    100  F   UNL A   1      45.518  24.337  37.077  1.00  0.00    -0.200 F 
ATOM    101  C   UNL A   1      46.914  26.100  36.357  1.00  0.00     0.200 A 
ATOM    102  F   UNL A   1      48.271  27.885  35.615  1.00  0.00    -0.200 F 
ATOM    103  F   UNL A   1      47.926  25.618  37.092  1.00  0.00    -0.200 F 
ENDBRANCH  70  93
ENDBRANCH  44  45
ENDBRANCH  37  39
ENDBRANCH  36  37
ENDBRANCH  35  36
ENDBRANCH  34  35
ENDBRANCH  33  34
ENDBRANCH  32  33
ENDBRANCH   1  32
TORSDOF 20
ENDMDL
