MODEL 1
REMARK VINA RESULT:     -11.8      0.000      0.000
REMARK SMILES NS(=O)(=O)c1ccc(-n2nc(NC(=O)NCCCC(=O)OCCOCCOC(=O)c3ccc(-c4c5nc(c(-c6c(F)c(F)c(F)c(F)c6F)c6ccc([nH]6)c(-c6c(F)c(F)c(F)c(F)c6F)c6nc(c(-c7c(F)c(F)c(F)c(F)c7F)c7ccc4[nH]7)C=C6)C=C5)cc3)cc2-c2ccccc2)cc1
REMARK SMILES IDX 22 1 21 2 19 3 20 4 18 5 17 6 16 7 15 8 12 9 13 10 14 12
REMARK SMILES IDX 11 14 9 15 10 16 94 17 93 18 8 19 5 20 6 21 102 22 7 23
REMARK SMILES IDX 101 24 2 25 3 26 4 27 1 28 95 31 96 32 100 33 97 34 99 35
REMARK SMILES IDX 98 36 23 37 24 38 25 39 26 40 27 41 28 42 29 43 30 44 31 45
REMARK SMILES IDX 92 46 32 47 91 48 33 49 34 50 35 51 85 52 36 53 90 54 84 55
REMARK SMILES IDX 86 56 37 57 89 58 83 59 82 60 38 62 70 63 50 64 69 65 51 66
REMARK SMILES IDX 54 67 68 68 87 69 52 70 53 71 67 73 88 74 55 75 39 76 40 77
REMARK SMILES IDX 48 78 41 79 42 80 46 81 49 82 43 83 44 84 47 85 45 86 71 87
REMARK SMILES IDX 72 88 80 89 73 90 74 91 78 92 81 93 75 94 76 95 79 96 77 97
REMARK SMILES IDX 56 98 57 99 65 100 58 101 59 102 63 103 66 104 60 105 61 106
REMARK SMILES IDX 64 107 62 108
REMARK H PARENT 12 11 15 13 1 29 1 30 86 61 54 72
REMARK Flexibility Score: inf
ROOT
ATOM      1  C   UNL A   1      38.270  23.204  26.233  1.00  0.00     0.261 C 
ENDROOT
BRANCH   1   2
ATOM      2  O   UNL A   1      37.233  22.227  26.039  1.00  0.00    -0.463 OA
BRANCH   2   3
ATOM      3  C   UNL A   1      37.112  21.776  24.763  1.00  0.00     0.305 C 
ATOM      4  O   UNL A   1      37.351  20.630  24.401  1.00  0.00    -0.252 OA
BRANCH   3   5
ATOM      5  C   UNL A   1      36.714  22.842  23.770  1.00  0.00     0.124 C 
BRANCH   5   6
ATOM      6  C   UNL A   1      35.345  22.807  23.122  1.00  0.00     0.033 C 
BRANCH   6   7
ATOM      7  C   UNL A   1      34.101  22.726  23.989  1.00  0.00     0.118 C 
BRANCH   7   8
ATOM      8  N   UNL A   1      33.544  21.430  24.281  1.00  0.00    -0.338 N 
ATOM      9  N   UNL A   1      31.680  21.946  25.705  1.00  0.00    -0.291 N 
ATOM     10  C   UNL A   1      32.452  21.091  24.999  1.00  0.00     0.320 C 
ATOM     11  H   UNL A   1      31.044  21.482  26.297  1.00  0.00     0.173 HD
ATOM     12  O   UNL A   1      32.187  19.886  25.083  1.00  0.00    -0.248 OA
ATOM     13  H   UNL A   1      34.039  20.670  23.896  1.00  0.00     0.165 HD
BRANCH   9  14
ATOM     14  C   UNL A   1      31.580  23.319  25.788  1.00  0.00     0.157 A 
ATOM     15  N   UNL A   1      31.085  25.309  25.238  1.00  0.00    -0.231 N 
ATOM     16  N   UNL A   1      30.568  24.064  25.340  1.00  0.00    -0.149 NA
ATOM     17  C   UNL A   1      32.149  25.447  26.136  1.00  0.00     0.076 A 
ATOM     18  C   UNL A   1      32.520  24.152  26.451  1.00  0.00     0.078 A 
BRANCH  15  19
ATOM     19  C   UNL A   1      30.346  26.348  24.577  1.00  0.00     0.065 A 
ATOM     20  C   UNL A   1      29.159  28.426  23.090  1.00  0.00     0.082 A 
ATOM     21  C   UNL A   1      28.371  27.407  23.652  1.00  0.00     0.024 A 
ATOM     22  C   UNL A   1      30.534  28.357  23.186  1.00  0.00     0.024 A 
ATOM     23  C   UNL A   1      28.970  26.334  24.361  1.00  0.00     0.030 A 
ATOM     24  C   UNL A   1      31.083  27.350  23.961  1.00  0.00     0.030 A 
BRANCH  20  25
ATOM     25  S   UNL A   1      28.486  29.937  22.460  1.00  0.00     0.238 S 
ATOM     26  O   UNL A   1      27.243  30.217  23.119  1.00  0.00    -0.207 OA
ATOM     27  O   UNL A   1      28.604  29.905  21.012  1.00  0.00    -0.207 OA
BRANCH  25  28
ATOM     28  N   UNL A   1      29.544  31.113  23.005  1.00  0.00    -0.225 NA
ATOM     29  H   UNL A   1      29.121  31.616  23.785  1.00  0.00     0.137 HD
ATOM     30  H   UNL A   1      29.745  31.766  22.249  1.00  0.00     0.137 HD
ENDBRANCH  25  28
ENDBRANCH  20  25
ENDBRANCH  15  19
BRANCH  17  31
ATOM     31  C   UNL A   1      32.610  26.764  26.541  1.00  0.00     0.000 A 
ATOM     32  C   UNL A   1      31.728  27.499  27.324  1.00  0.00     0.010 A 
ATOM     33  C   UNL A   1      33.699  27.412  25.973  1.00  0.00     0.010 A 
ATOM     34  C   UNL A   1      31.701  28.877  27.234  1.00  0.00     0.001 A 
ATOM     35  C   UNL A   1      33.785  28.807  26.068  1.00  0.00     0.001 A 
ATOM     36  C   UNL A   1      32.754  29.544  26.647  1.00  0.00     0.000 A 
ENDBRANCH  17  31
ENDBRANCH   9  14
ENDBRANCH   7   8
ENDBRANCH   6   7
ENDBRANCH   5   6
ENDBRANCH   3   5
ENDBRANCH   2   3
ENDBRANCH   1   2
BRANCH   1  37
ATOM     37  C   UNL A   1      39.664  22.644  26.541  1.00  0.00     0.202 C 
BRANCH  37  38
ATOM     38  O   UNL A   1      39.806  21.252  26.771  1.00  0.00    -0.374 OA
BRANCH  38  39
ATOM     39  C   UNL A   1      41.065  20.662  26.505  1.00  0.00     0.202 C 
BRANCH  39  40
ATOM     40  C   UNL A   1      42.130  21.478  25.779  1.00  0.00     0.261 C 
BRANCH  40  41
ATOM     41  O   UNL A   1      43.357  20.820  25.404  1.00  0.00    -0.460 OA
BRANCH  41  42
ATOM     42  C   UNL A   1      44.230  21.610  24.707  1.00  0.00     0.338 C 
ATOM     43  O   UNL A   1      44.751  21.315  23.642  1.00  0.00    -0.246 OA
BRANCH  42  44
ATOM     44  C   UNL A   1      44.734  22.736  25.539  1.00  0.00     0.060 A 
ATOM     45  C   UNL A   1      45.191  22.385  26.820  1.00  0.00     0.016 A 
ATOM     46  C   UNL A   1      44.367  24.048  25.277  1.00  0.00     0.016 A 
ATOM     47  C   UNL A   1      44.946  23.223  27.909  1.00  0.00     0.010 A 
ATOM     48  C   UNL A   1      44.099  24.867  26.374  1.00  0.00     0.010 A 
ATOM     49  C   UNL A   1      44.254  24.411  27.704  1.00  0.00    -0.014 A 
BRANCH  49  50
ATOM     50  C   UNL A   1      43.913  25.346  28.795  1.00  0.00     0.031 A 
ATOM     51  C   UNL A   1      42.579  25.902  28.521  1.00  0.00     0.074 A 
ATOM     52  C   UNL A   1      44.595  25.776  29.887  1.00  0.00     0.049 A 
ATOM     53  N   UNL A   1      42.420  26.972  27.812  1.00  0.00    -0.248 NA
ATOM     54  C   UNL A   1      41.363  25.110  28.715  1.00  0.00     0.031 C 
ATOM     55  C   UNL A   1      45.988  25.548  30.270  1.00  0.00     0.029 A 
ATOM     56  N   UNL A   1      44.122  26.526  30.953  1.00  0.00    -0.354 N 
ATOM     57  C   UNL A   1      41.054  27.097  27.674  1.00  0.00     0.074 A 
ATOM     58  C   UNL A   1      40.523  25.789  27.929  1.00  0.00     0.031 C 
ATOM     59  C   UNL A   1      46.199  26.019  31.529  1.00  0.00     0.029 A 
ATOM     60  C   UNL A   1      44.952  26.541  32.082  1.00  0.00     0.049 A 
ATOM     61  H   UNL A   1      43.267  27.012  30.918  1.00  0.00     0.167 HD
ATOM     62  C   UNL A   1      40.488  28.329  27.787  1.00  0.00     0.037 A 
ATOM     63  C   UNL A   1      44.889  27.295  33.221  1.00  0.00     0.037 A 
ATOM     64  C   UNL A   1      41.512  29.355  27.736  1.00  0.00     0.049 A 
ATOM     65  C   UNL A   1      44.229  28.547  32.826  1.00  0.00     0.074 A 
ATOM     66  C   UNL A   1      42.354  29.899  26.788  1.00  0.00     0.029 A 
ATOM     67  N   UNL A   1      42.048  29.652  28.963  1.00  0.00    -0.354 N 
ATOM     68  N   UNL A   1      44.838  29.450  32.118  1.00  0.00    -0.248 NA
ATOM     69  C   UNL A   1      42.775  28.637  32.868  1.00  0.00     0.031 C 
ATOM     70  C   UNL A   1      43.494  30.392  27.493  1.00  0.00     0.029 A 
ATOM     71  C   UNL A   1      43.303  30.181  28.854  1.00  0.00     0.049 A 
ATOM     72  H   UNL A   1      41.585  29.504  29.818  1.00  0.00     0.167 HD
ATOM     73  C   UNL A   1      43.858  29.893  31.257  1.00  0.00     0.074 A 
ATOM     74  C   UNL A   1      42.591  29.508  31.872  1.00  0.00     0.031 C 
ATOM     75  C   UNL A   1      44.192  30.233  29.982  1.00  0.00     0.037 A 
BRANCH  62  76
ATOM     76  C   UNL A   1      39.165  28.587  28.487  1.00  0.00     0.064 A 
ATOM     77  C   UNL A   1      38.247  29.456  27.862  1.00  0.00     0.173 A 
ATOM     78  C   UNL A   1      38.869  28.281  29.837  1.00  0.00     0.173 A 
ATOM     79  F   UNL A   1      38.417  29.824  26.583  1.00  0.00    -0.203 F 
ATOM     80  C   UNL A   1      37.187  30.042  28.558  1.00  0.00     0.198 A 
ATOM     81  C   UNL A   1      37.786  28.833  30.514  1.00  0.00     0.198 A 
ATOM     82  F   UNL A   1      39.650  27.525  30.611  1.00  0.00    -0.203 F 
ATOM     83  F   UNL A   1      36.420  30.956  27.952  1.00  0.00    -0.200 F 
ATOM     84  C   UNL A   1      36.964  29.738  29.887  1.00  0.00     0.200 A 
ATOM     85  F   UNL A   1      37.607  28.537  31.809  1.00  0.00    -0.200 F 
ATOM     86  F   UNL A   1      35.990  30.345  30.577  1.00  0.00    -0.200 F 
ENDBRANCH  62  76
BRANCH  63  87
ATOM     87  C   UNL A   1      44.730  26.828  34.636  1.00  0.00     0.064 A 
ATOM     88  C   UNL A   1      45.336  27.522  35.704  1.00  0.00     0.173 A 
ATOM     89  C   UNL A   1      43.802  25.842  35.004  1.00  0.00     0.173 A 
ATOM     90  F   UNL A   1      46.158  28.551  35.452  1.00  0.00    -0.203 F 
ATOM     91  C   UNL A   1      45.061  27.218  37.048  1.00  0.00     0.198 A 
ATOM     92  C   UNL A   1      43.554  25.509  36.343  1.00  0.00     0.198 A 
ATOM     93  F   UNL A   1      43.038  25.267  34.067  1.00  0.00    -0.203 F 
ATOM     94  F   UNL A   1      45.615  27.943  38.031  1.00  0.00    -0.200 F 
ATOM     95  C   UNL A   1      44.182  26.198  37.366  1.00  0.00     0.200 A 
ATOM     96  F   UNL A   1      42.663  24.552  36.644  1.00  0.00    -0.200 F 
ATOM     97  F   UNL A   1      43.904  25.913  38.647  1.00  0.00    -0.200 F 
ENDBRANCH  63  87
BRANCH  75  98
ATOM     98  C   UNL A   1      45.636  30.541  29.743  1.00  0.00     0.064 A 
ATOM     99  C   UNL A   1      46.561  29.620  29.230  1.00  0.00     0.173 A 
ATOM    100  C   UNL A   1      46.087  31.835  30.005  1.00  0.00     0.173 A 
ATOM    101  F   UNL A   1      46.173  28.395  28.870  1.00  0.00    -0.203 F 
ATOM    102  C   UNL A   1      47.896  29.967  29.035  1.00  0.00     0.198 A 
ATOM    103  C   UNL A   1      47.410  32.196  29.769  1.00  0.00     0.198 A 
ATOM    104  F   UNL A   1      45.229  32.763  30.456  1.00  0.00    -0.203 F 
ATOM    105  F   UNL A   1      48.766  29.059  28.566  1.00  0.00    -0.200 F 
ATOM    106  C   UNL A   1      48.318  31.258  29.299  1.00  0.00     0.200 A 
ATOM    107  F   UNL A   1      47.800  33.460  29.977  1.00  0.00    -0.200 F 
ATOM    108  F   UNL A   1      49.592  31.609  29.076  1.00  0.00    -0.200 F 
ENDBRANCH  75  98
ENDBRANCH  49  50
ENDBRANCH  42  44
ENDBRANCH  41  42
ENDBRANCH  40  41
ENDBRANCH  39  40
ENDBRANCH  38  39
ENDBRANCH  37  38
ENDBRANCH   1  37
TORSDOF 22
ENDMDL
MODEL 2
REMARK VINA RESULT:     -11.5      5.682     10.481
REMARK SMILES NS(=O)(=O)c1ccc(-n2nc(NC(=O)NCCCC(=O)OCCOCCOC(=O)c3ccc(-c4c5nc(c(-c6c(F)c(F)c(F)c(F)c6F)c6ccc([nH]6)c(-c6c(F)c(F)c(F)c(F)c6F)c6nc(c(-c7c(F)c(F)c(F)c(F)c7F)c7ccc4[nH]7)C=C6)C=C5)cc3)cc2-c2ccccc2)cc1
REMARK SMILES IDX 22 1 21 2 19 3 20 4 18 5 17 6 16 7 15 8 12 9 13 10 14 12
REMARK SMILES IDX 11 14 9 15 10 16 94 17 93 18 8 19 5 20 6 21 102 22 7 23
REMARK SMILES IDX 101 24 2 25 3 26 4 27 1 28 95 31 96 32 100 33 97 34 99 35
REMARK SMILES IDX 98 36 23 37 24 38 25 39 26 40 27 41 28 42 29 43 30 44 31 45
REMARK SMILES IDX 92 46 32 47 91 48 33 49 34 50 35 51 85 52 36 53 90 54 84 55
REMARK SMILES IDX 86 56 37 57 89 58 83 59 82 60 38 62 70 63 50 64 69 65 51 66
REMARK SMILES IDX 54 67 68 68 87 69 52 70 53 71 67 73 88 74 55 75 39 76 40 77
REMARK SMILES IDX 48 78 41 79 42 80 46 81 49 82 43 83 44 84 47 85 45 86 71 87
REMARK SMILES IDX 72 88 80 89 73 90 74 91 78 92 81 93 75 94 76 95 79 96 77 97
REMARK SMILES IDX 56 98 57 99 65 100 58 101 59 102 63 103 66 104 60 105 61 106
REMARK SMILES IDX 64 107 62 108
REMARK H PARENT 12 11 15 13 1 29 1 30 86 61 54 72
REMARK Flexibility Score: inf
ROOT
ATOM      1  C   UNL A   1      45.785  25.688  31.521  1.00  0.00     0.261 C 
ENDROOT
BRANCH   1   2
ATOM      2  O   UNL A   1      44.967  25.466  30.360  1.00  0.00    -0.463 OA
BRANCH   2   3
ATOM      3  C   UNL A   1      45.618  24.905  29.308  1.00  0.00     0.305 C 
ATOM      4  O   UNL A   1      46.667  25.324  28.832  1.00  0.00    -0.252 OA
BRANCH   3   5
ATOM      5  C   UNL A   1      44.899  23.726  28.697  1.00  0.00     0.124 C 
BRANCH   5   6
ATOM      6  C   UNL A   1      43.882  22.950  29.508  1.00  0.00     0.033 C 
BRANCH   6   7
ATOM      7  C   UNL A   1      42.416  22.980  29.108  1.00  0.00     0.118 C 
BRANCH   7   8
ATOM      8  N   UNL A   1      41.876  21.861  28.378  1.00  0.00    -0.338 N 
ATOM      9  N   UNL A   1      40.075  22.844  27.129  1.00  0.00    -0.291 N 
ATOM     10  C   UNL A   1      40.875  21.811  27.473  1.00  0.00     0.320 C 
ATOM     11  H   UNL A   1      39.301  22.561  26.590  1.00  0.00     0.173 HD
ATOM     12  O   UNL A   1      40.617  20.705  26.982  1.00  0.00    -0.248 OA
ATOM     13  H   UNL A   1      42.304  20.996  28.571  1.00  0.00     0.165 HD
BRANCH   9  14
ATOM     14  C   UNL A   1      40.095  24.203  27.360  1.00  0.00     0.157 A 
ATOM     15  N   UNL A   1      40.860  26.177  27.529  1.00  0.00    -0.231 N 
ATOM     16  N   UNL A   1      40.832  25.103  26.708  1.00  0.00    -0.149 NA
ATOM     17  C   UNL A   1      39.721  26.171  28.343  1.00  0.00     0.076 A 
ATOM     18  C   UNL A   1      39.253  24.871  28.289  1.00  0.00     0.078 A 
BRANCH  15  19
ATOM     19  C   UNL A   1      41.747  27.273  27.258  1.00  0.00     0.065 A 
ATOM     20  C   UNL A   1      43.729  29.227  26.823  1.00  0.00     0.082 A 
ATOM     21  C   UNL A   1      42.557  29.210  26.046  1.00  0.00     0.024 A 
ATOM     22  C   UNL A   1      43.954  28.223  27.742  1.00  0.00     0.024 A 
ATOM     23  C   UNL A   1      41.579  28.199  26.231  1.00  0.00     0.030 A 
ATOM     24  C   UNL A   1      42.941  27.305  27.964  1.00  0.00     0.030 A 
BRANCH  20  25
ATOM     25  S   UNL A   1      44.843  30.603  26.867  1.00  0.00     0.238 S 
ATOM     26  O   UNL A   1      45.544  30.609  28.117  1.00  0.00    -0.207 OA
ATOM     27  O   UNL A   1      44.127  31.768  26.374  1.00  0.00    -0.207 OA
BRANCH  25  28
ATOM     28  N   UNL A   1      46.000  30.226  25.718  1.00  0.00    -0.225 NA
ATOM     29  H   UNL A   1      45.585  30.275  24.788  1.00  0.00     0.137 HD
ATOM     30  H   UNL A   1      46.351  29.284  25.885  1.00  0.00     0.137 HD
ENDBRANCH  25  28
ENDBRANCH  20  25
ENDBRANCH  15  19
BRANCH  17  31
ATOM     31  C   UNL A   1      39.279  27.385  29.008  1.00  0.00     0.000 A 
ATOM     32  C   UNL A   1      39.563  27.469  30.365  1.00  0.00     0.010 A 
ATOM     33  C   UNL A   1      38.377  28.284  28.457  1.00  0.00     0.010 A 
ATOM     34  C   UNL A   1      38.711  28.149  31.213  1.00  0.00     0.001 A 
ATOM     35  C   UNL A   1      37.660  29.135  29.308  1.00  0.00     0.001 A 
ATOM     36  C   UNL A   1      37.784  29.024  30.691  1.00  0.00     0.000 A 
ENDBRANCH  17  31
ENDBRANCH   9  14
ENDBRANCH   7   8
ENDBRANCH   6   7
ENDBRANCH   5   6
ENDBRANCH   3   5
ENDBRANCH   2   3
ENDBRANCH   1   2
BRANCH   1  37
ATOM     37  C   UNL A   1      45.300  25.023  32.815  1.00  0.00     0.202 C 
BRANCH  37  38
ATOM     38  O   UNL A   1      44.984  23.641  32.797  1.00  0.00    -0.374 OA
BRANCH  38  39
ATOM     39  C   UNL A   1      43.784  23.228  33.423  1.00  0.00     0.202 C 
BRANCH  39  40
ATOM     40  C   UNL A   1      43.770  23.008  34.932  1.00  0.00     0.261 C 
BRANCH  40  41
ATOM     41  O   UNL A   1      42.895  23.825  35.734  1.00  0.00    -0.460 OA
BRANCH  41  42
ATOM     42  C   UNL A   1      43.335  25.107  35.924  1.00  0.00     0.338 C 
ATOM     43  O   UNL A   1      44.394  25.419  36.446  1.00  0.00    -0.246 OA
BRANCH  42  44
ATOM     44  C   UNL A   1      42.244  26.097  35.716  1.00  0.00     0.060 A 
ATOM     45  C   UNL A   1      41.577  26.012  34.482  1.00  0.00     0.016 A 
ATOM     46  C   UNL A   1      42.188  27.275  36.446  1.00  0.00     0.016 A 
ATOM     47  C   UNL A   1      41.173  27.172  33.819  1.00  0.00     0.010 A 
ATOM     48  C   UNL A   1      41.810  28.432  35.763  1.00  0.00     0.010 A 
ATOM     49  C   UNL A   1      41.432  28.407  34.401  1.00  0.00    -0.014 A 
BRANCH  49  50
ATOM     50  C   UNL A   1      41.079  29.692  33.762  1.00  0.00     0.031 A 
ATOM     51  C   UNL A   1      42.267  30.191  33.053  1.00  0.00     0.074 A 
ATOM     52  C   UNL A   1      39.949  30.443  33.768  1.00  0.00     0.049 A 
ATOM     53  N   UNL A   1      43.144  30.941  33.636  1.00  0.00    -0.248 NA
ATOM     54  C   UNL A   1      42.713  29.597  31.791  1.00  0.00     0.031 C 
ATOM     55  C   UNL A   1      38.724  30.285  34.549  1.00  0.00     0.029 A 
ATOM     56  N   UNL A   1      39.655  31.554  32.992  1.00  0.00    -0.354 N 
ATOM     57  C   UNL A   1      44.149  31.091  32.706  1.00  0.00     0.074 A 
ATOM     58  C   UNL A   1      43.988  29.997  31.791  1.00  0.00     0.031 C 
ATOM     59  C   UNL A   1      37.784  31.164  34.108  1.00  0.00     0.029 A 
ATOM     60  C   UNL A   1      38.305  31.925  32.975  1.00  0.00     0.049 A 
ATOM     61  H   UNL A   1      40.345  32.045  32.490  1.00  0.00     0.167 HD
ATOM     62  C   UNL A   1      44.726  32.312  32.545  1.00  0.00     0.037 A 
ATOM     63  C   UNL A   1      37.695  33.041  32.472  1.00  0.00     0.037 A 
ATOM     64  C   UNL A   1      44.354  33.187  33.640  1.00  0.00     0.049 A 
ATOM     65  C   UNL A   1      38.707  34.104  32.540  1.00  0.00     0.074 A 
ATOM     66  C   UNL A   1      44.638  33.301  34.986  1.00  0.00     0.029 A 
ATOM     67  N   UNL A   1      43.187  33.873  33.420  1.00  0.00    -0.354 N 
ATOM     68  N   UNL A   1      39.051  34.653  33.667  1.00  0.00    -0.248 NA
ATOM     69  C   UNL A   1      39.629  34.290  31.427  1.00  0.00     0.031 C 
ATOM     70  C   UNL A   1      43.512  33.945  35.585  1.00  0.00     0.029 A 
ATOM     71  C   UNL A   1      42.591  34.250  34.589  1.00  0.00     0.049 A 
ATOM     72  H   UNL A   1      42.824  34.071  32.527  1.00  0.00     0.167 HD
ATOM     73  C   UNL A   1      40.413  34.814  33.538  1.00  0.00     0.074 A 
ATOM     74  C   UNL A   1      40.683  34.754  32.104  1.00  0.00     0.031 C 
ATOM     75  C   UNL A   1      41.211  34.651  34.628  1.00  0.00     0.037 A 
BRANCH  62  76
ATOM     76  C   UNL A   1      45.124  32.885  31.195  1.00  0.00     0.064 A 
ATOM     77  C   UNL A   1      46.428  33.402  31.058  1.00  0.00     0.173 A 
ATOM     78  C   UNL A   1      44.238  33.221  30.145  1.00  0.00     0.173 A 
ATOM     79  F   UNL A   1      47.363  33.154  31.989  1.00  0.00    -0.203 F 
ATOM     80  C   UNL A   1      46.781  34.260  30.013  1.00  0.00     0.198 A 
ATOM     81  C   UNL A   1      44.606  34.041  29.082  1.00  0.00     0.198 A 
ATOM     82  F   UNL A   1      42.949  32.875  30.126  1.00  0.00    -0.203 F 
ATOM     83  F   UNL A   1      47.996  34.822  29.998  1.00  0.00    -0.200 F 
ATOM     84  C   UNL A   1      45.866  34.588  29.032  1.00  0.00     0.200 A 
ATOM     85  F   UNL A   1      43.691  34.360  28.156  1.00  0.00    -0.200 F 
ATOM     86  F   UNL A   1      46.178  35.460  28.066  1.00  0.00    -0.200 F 
ENDBRANCH  62  76
BRANCH  63  87
ATOM     87  C   UNL A   1      36.652  33.125  31.399  1.00  0.00     0.064 A 
ATOM     88  C   UNL A   1      35.476  33.882  31.585  1.00  0.00     0.173 A 
ATOM     89  C   UNL A   1      36.878  32.668  30.092  1.00  0.00     0.173 A 
ATOM     90  F   UNL A   1      35.227  34.448  32.775  1.00  0.00    -0.203 F 
ATOM     91  C   UNL A   1      34.570  34.127  30.540  1.00  0.00     0.198 A 
ATOM     92  C   UNL A   1      35.956  32.878  29.055  1.00  0.00     0.198 A 
ATOM     93  F   UNL A   1      38.053  32.111  29.777  1.00  0.00    -0.203 F 
ATOM     94  F   UNL A   1      33.495  34.902  30.747  1.00  0.00    -0.200 F 
ATOM     95  C   UNL A   1      34.803  33.609  29.279  1.00  0.00     0.200 A 
ATOM     96  F   UNL A   1      36.214  32.414  27.823  1.00  0.00    -0.200 F 
ATOM     97  F   UNL A   1      33.948  33.852  28.274  1.00  0.00    -0.200 F 
ENDBRANCH  63  87
BRANCH  75  98
ATOM     98  C   UNL A   1      40.535  34.765  35.958  1.00  0.00     0.064 A 
ATOM     99  C   UNL A   1      40.046  33.670  36.686  1.00  0.00     0.173 A 
ATOM    100  C   UNL A   1      40.419  36.030  36.534  1.00  0.00     0.173 A 
ATOM    101  F   UNL A   1      40.211  32.424  36.235  1.00  0.00    -0.203 F 
ATOM    102  C   UNL A   1      39.420  33.841  37.919  1.00  0.00     0.198 A 
ATOM    103  C   UNL A   1      39.833  36.199  37.784  1.00  0.00     0.198 A 
ATOM    104  F   UNL A   1      40.910  37.102  35.894  1.00  0.00    -0.203 F 
ATOM    105  F   UNL A   1      38.939  32.780  38.584  1.00  0.00    -0.200 F 
ATOM    106  C   UNL A   1      39.320  35.107  38.470  1.00  0.00     0.200 A 
ATOM    107  F   UNL A   1      39.786  37.418  38.336  1.00  0.00    -0.200 F 
ATOM    108  F   UNL A   1      38.755  35.274  39.673  1.00  0.00    -0.200 F 
ENDBRANCH  75  98
ENDBRANCH  49  50
ENDBRANCH  42  44
ENDBRANCH  41  42
ENDBRANCH  40  41
ENDBRANCH  39  40
ENDBRANCH  38  39
ENDBRANCH  37  38
ENDBRANCH   1  37
TORSDOF 22
ENDMDL
MODEL 3
REMARK VINA RESULT:     -11.5      3.876      8.405
REMARK SMILES NS(=O)(=O)c1ccc(-n2nc(NC(=O)NCCCC(=O)OCCOCCOC(=O)c3ccc(-c4c5nc(c(-c6c(F)c(F)c(F)c(F)c6F)c6ccc([nH]6)c(-c6c(F)c(F)c(F)c(F)c6F)c6nc(c(-c7c(F)c(F)c(F)c(F)c7F)c7ccc4[nH]7)C=C6)C=C5)cc3)cc2-c2ccccc2)cc1
REMARK SMILES IDX 22 1 21 2 19 3 20 4 18 5 17 6 16 7 15 8 12 9 13 10 14 12
REMARK SMILES IDX 11 14 9 15 10 16 94 17 93 18 8 19 5 20 6 21 102 22 7 23
REMARK SMILES IDX 101 24 2 25 3 26 4 27 1 28 95 31 96 32 100 33 97 34 99 35
REMARK SMILES IDX 98 36 23 37 24 38 25 39 26 40 27 41 28 42 29 43 30 44 31 45
REMARK SMILES IDX 92 46 32 47 91 48 33 49 34 50 35 51 85 52 36 53 90 54 84 55
REMARK SMILES IDX 86 56 37 57 89 58 83 59 82 60 38 62 70 63 50 64 69 65 51 66
REMARK SMILES IDX 54 67 68 68 87 69 52 70 53 71 67 73 88 74 55 75 39 76 40 77
REMARK SMILES IDX 48 78 41 79 42 80 46 81 49 82 43 83 44 84 47 85 45 86 71 87
REMARK SMILES IDX 72 88 80 89 73 90 74 91 78 92 81 93 75 94 76 95 79 96 77 97
REMARK SMILES IDX 56 98 57 99 65 100 58 101 59 102 63 103 66 104 60 105 61 106
REMARK SMILES IDX 64 107 62 108
REMARK H PARENT 12 11 15 13 1 29 1 30 86 61 54 72
REMARK Flexibility Score: inf
ROOT
ATOM      1  C   UNL A   1      44.099  24.954  26.420  1.00  0.00     0.261 C 
ENDROOT
BRANCH   1   2
ATOM      2  O   UNL A   1      42.763  25.172  25.938  1.00  0.00    -0.463 OA
BRANCH   2   3
ATOM      3  C   UNL A   1      41.783  24.841  26.819  1.00  0.00     0.305 C 
ATOM      4  O   UNL A   1      41.888  23.988  27.693  1.00  0.00    -0.252 OA
BRANCH   3   5
ATOM      5  C   UNL A   1      40.482  25.574  26.596  1.00  0.00     0.124 C 
BRANCH   5   6
ATOM      6  C   UNL A   1      39.192  25.033  27.177  1.00  0.00     0.033 C 
BRANCH   6   7
ATOM      7  C   UNL A   1      38.590  23.756  26.617  1.00  0.00     0.118 C 
BRANCH   7   8
ATOM      8  N   UNL A   1      39.463  22.643  26.341  1.00  0.00    -0.338 N 
ATOM      9  N   UNL A   1      37.969  20.986  25.451  1.00  0.00    -0.291 N 
ATOM     10  C   UNL A   1      39.196  21.442  25.785  1.00  0.00     0.320 C 
ATOM     11  H   UNL A   1      37.968  20.027  25.227  1.00  0.00     0.173 HD
ATOM     12  O   UNL A   1      40.147  20.662  25.650  1.00  0.00    -0.248 OA
ATOM     13  H   UNL A   1      40.403  22.780  26.599  1.00  0.00     0.165 HD
BRANCH   9  14
ATOM     14  C   UNL A   1      36.717  21.557  25.352  1.00  0.00     0.157 A 
ATOM     15  N   UNL A   1      35.234  23.056  25.103  1.00  0.00    -0.231 N 
ATOM     16  N   UNL A   1      36.376  22.576  24.562  1.00  0.00    -0.149 NA
ATOM     17  C   UNL A   1      34.586  22.033  25.806  1.00  0.00     0.076 A 
ATOM     18  C   UNL A   1      35.563  21.080  26.028  1.00  0.00     0.078 A 
BRANCH  15  19
ATOM     19  C   UNL A   1      34.683  24.301  24.647  1.00  0.00     0.065 A 
ATOM     20  C   UNL A   1      33.437  26.567  23.529  1.00  0.00     0.082 A 
ATOM     21  C   UNL A   1      33.795  26.543  24.888  1.00  0.00     0.024 A 
ATOM     22  C   UNL A   1      33.611  25.436  22.758  1.00  0.00     0.024 A 
ATOM     23  C   UNL A   1      34.379  25.386  25.465  1.00  0.00     0.030 A 
ATOM     24  C   UNL A   1      34.267  24.356  23.323  1.00  0.00     0.030 A 
BRANCH  20  25
ATOM     25  S   UNL A   1      32.989  28.049  22.670  1.00  0.00     0.238 S 
ATOM     26  O   UNL A   1      33.985  28.347  21.682  1.00  0.00    -0.207 OA
ATOM     27  O   UNL A   1      32.564  29.024  23.661  1.00  0.00    -0.207 OA
BRANCH  25  28
ATOM     28  N   UNL A   1      31.626  27.619  21.800  1.00  0.00    -0.225 NA
ATOM     29  H   UNL A   1      31.299  26.705  22.111  1.00  0.00     0.137 HD
ATOM     30  H   UNL A   1      31.855  27.580  20.808  1.00  0.00     0.137 HD
ENDBRANCH  25  28
ENDBRANCH  20  25
ENDBRANCH  15  19
BRANCH  17  31
ATOM     31  C   UNL A   1      33.172  22.135  26.127  1.00  0.00     0.000 A 
ATOM     32  C   UNL A   1      32.296  21.900  25.075  1.00  0.00     0.010 A 
ATOM     33  C   UNL A   1      32.682  22.715  27.289  1.00  0.00     0.010 A 
ATOM     34  C   UNL A   1      31.082  22.557  25.021  1.00  0.00     0.001 A 
ATOM     35  C   UNL A   1      31.366  23.193  27.306  1.00  0.00     0.001 A 
ATOM     36  C   UNL A   1      30.586  23.168  26.151  1.00  0.00     0.000 A 
ENDBRANCH  17  31
ENDBRANCH   9  14
ENDBRANCH   7   8
ENDBRANCH   6   7
ENDBRANCH   5   6
ENDBRANCH   3   5
ENDBRANCH   2   3
ENDBRANCH   1   2
BRANCH   1  37
ATOM     37  C   UNL A   1      45.107  26.070  26.118  1.00  0.00     0.202 C 
BRANCH  37  38
ATOM     38  O   UNL A   1      45.651  26.811  27.197  1.00  0.00    -0.374 OA
BRANCH  38  39
ATOM     39  C   UNL A   1      46.920  26.428  27.690  1.00  0.00     0.202 C 
BRANCH  39  40
ATOM     40  C   UNL A   1      47.002  25.400  28.814  1.00  0.00     0.261 C 
BRANCH  40  41
ATOM     41  O   UNL A   1      45.810  25.127  29.579  1.00  0.00    -0.460 OA
BRANCH  41  42
ATOM     42  C   UNL A   1      45.724  25.819  30.756  1.00  0.00     0.338 C 
ATOM     43  O   UNL A   1      46.555  25.792  31.652  1.00  0.00    -0.246 OA
BRANCH  42  44
ATOM     44  C   UNL A   1      44.356  26.361  30.974  1.00  0.00     0.060 A 
ATOM     45  C   UNL A   1      43.497  26.299  29.864  1.00  0.00     0.016 A 
ATOM     46  C   UNL A   1      44.088  27.255  32.000  1.00  0.00     0.016 A 
ATOM     47  C   UNL A   1      42.607  27.342  29.604  1.00  0.00     0.010 A 
ATOM     48  C   UNL A   1      43.218  28.310  31.717  1.00  0.00     0.010 A 
ATOM     49  C   UNL A   1      42.578  28.435  30.462  1.00  0.00    -0.014 A 
BRANCH  49  50
ATOM     50  C   UNL A   1      41.700  29.604  30.252  1.00  0.00     0.031 A 
ATOM     51  C   UNL A   1      42.522  30.702  29.720  1.00  0.00     0.074 A 
ATOM     52  C   UNL A   1      40.384  29.824  30.498  1.00  0.00     0.049 A 
ATOM     53  N   UNL A   1      43.129  31.538  30.499  1.00  0.00    -0.248 NA
ATOM     54  C   UNL A   1      42.991  30.708  28.334  1.00  0.00     0.031 C 
ATOM     55  C   UNL A   1      39.412  28.991  31.204  1.00  0.00     0.029 A 
ATOM     56  N   UNL A   1      39.607  30.903  30.104  1.00  0.00    -0.354 N 
ATOM     57  C   UNL A   1      43.882  32.320  29.650  1.00  0.00     0.074 A 
ATOM     58  C   UNL A   1      44.019  31.554  28.445  1.00  0.00     0.031 C 
ATOM     59  C   UNL A   1      38.167  29.521  31.062  1.00  0.00     0.029 A 
ATOM     60  C   UNL A   1      38.224  30.709  30.213  1.00  0.00     0.049 A 
ATOM     61  H   UNL A   1      39.999  31.742  29.772  1.00  0.00     0.167 HD
ATOM     62  C   UNL A   1      43.945  33.661  29.868  1.00  0.00     0.037 A 
ATOM     63  C   UNL A   1      37.189  31.593  30.083  1.00  0.00     0.037 A 
ATOM     64  C   UNL A   1      43.420  33.978  31.182  1.00  0.00     0.049 A 
ATOM     65  C   UNL A   1      37.740  32.900  30.466  1.00  0.00     0.074 A 
ATOM     66  C   UNL A   1      43.811  33.812  32.496  1.00  0.00     0.029 A 
ATOM     67  N   UNL A   1      42.065  34.190  31.194  1.00  0.00    -0.354 N 
ATOM     68  N   UNL A   1      37.998  33.200  31.703  1.00  0.00    -0.248 NA
ATOM     69  C   UNL A   1      38.380  33.733  29.456  1.00  0.00     0.031 C 
ATOM     70  C   UNL A   1      42.613  33.773  33.273  1.00  0.00     0.029 A 
ATOM     71  C   UNL A   1      41.526  33.962  32.427  1.00  0.00     0.049 A 
ATOM     72  H   UNL A   1      41.545  34.473  30.408  1.00  0.00     0.167 HD
ATOM     73  C   UNL A   1      39.178  33.906  31.619  1.00  0.00     0.074 A 
ATOM     74  C   UNL A   1      39.267  34.359  30.234  1.00  0.00     0.031 C 
ATOM     75  C   UNL A   1      40.112  33.767  32.600  1.00  0.00     0.037 A 
BRANCH  62  76
ATOM     76  C   UNL A   1      43.930  34.697  28.756  1.00  0.00     0.064 A 
ATOM     77  C   UNL A   1      45.144  35.343  28.442  1.00  0.00     0.173 A 
ATOM     78  C   UNL A   1      42.777  35.295  28.197  1.00  0.00     0.173 A 
ATOM     79  F   UNL A   1      46.310  34.873  28.912  1.00  0.00    -0.203 F 
ATOM     80  C   UNL A   1      45.184  36.536  27.716  1.00  0.00     0.198 A 
ATOM     81  C   UNL A   1      42.826  36.460  27.437  1.00  0.00     0.198 A 
ATOM     82  F   UNL A   1      41.535  34.864  28.429  1.00  0.00    -0.203 F 
ATOM     83  F   UNL A   1      46.349  37.174  27.552  1.00  0.00    -0.200 F 
ATOM     84  C   UNL A   1      44.023  37.099  27.224  1.00  0.00     0.200 A 
ATOM     85  F   UNL A   1      41.681  36.996  26.991  1.00  0.00    -0.200 F 
ATOM     86  F   UNL A   1      44.047  38.275  26.584  1.00  0.00    -0.200 F 
ENDBRANCH  62  76
BRANCH  63  87
ATOM     87  C   UNL A   1      36.061  31.563  29.097  1.00  0.00     0.064 A 
ATOM     88  C   UNL A   1      35.820  30.423  28.301  1.00  0.00     0.173 A 
ATOM     89  C   UNL A   1      35.057  32.543  29.071  1.00  0.00     0.173 A 
ATOM     90  F   UNL A   1      36.671  29.388  28.340  1.00  0.00    -0.203 F 
ATOM     91  C   UNL A   1      34.671  30.296  27.503  1.00  0.00     0.198 A 
ATOM     92  C   UNL A   1      33.928  32.437  28.246  1.00  0.00     0.198 A 
ATOM     93  F   UNL A   1      35.104  33.564  29.934  1.00  0.00    -0.203 F 
ATOM     94  F   UNL A   1      34.453  29.169  26.808  1.00  0.00    -0.200 F 
ATOM     95  C   UNL A   1      33.733  31.313  27.463  1.00  0.00     0.200 A 
ATOM     96  F   UNL A   1      32.999  33.405  28.251  1.00  0.00    -0.200 F 
ATOM     97  F   UNL A   1      32.627  31.190  26.714  1.00  0.00    -0.200 F 
ENDBRANCH  63  87
BRANCH  75  98
ATOM     98  C   UNL A   1      39.615  33.232  33.905  1.00  0.00     0.064 A 
ATOM     99  C   UNL A   1      39.624  31.873  34.250  1.00  0.00     0.173 A 
ATOM    100  C   UNL A   1      39.156  34.140  34.859  1.00  0.00     0.173 A 
ATOM    101  F   UNL A   1      40.139  30.963  33.420  1.00  0.00    -0.203 F 
ATOM    102  C   UNL A   1      39.142  31.435  35.482  1.00  0.00     0.198 A 
ATOM    103  C   UNL A   1      38.715  33.710  36.107  1.00  0.00     0.198 A 
ATOM    104  F   UNL A   1      39.169  35.455  34.591  1.00  0.00    -0.203 F 
ATOM    105  F   UNL A   1      39.137  30.126  35.778  1.00  0.00    -0.200 F 
ATOM    106  C   UNL A   1      38.694  32.357  36.413  1.00  0.00     0.200 A 
ATOM    107  F   UNL A   1      38.332  34.609  37.022  1.00  0.00    -0.200 F 
ATOM    108  F   UNL A   1      38.266  31.946  37.615  1.00  0.00    -0.200 F 
ENDBRANCH  75  98
ENDBRANCH  49  50
ENDBRANCH  42  44
ENDBRANCH  41  42
ENDBRANCH  40  41
ENDBRANCH  39  40
ENDBRANCH  38  39
ENDBRANCH  37  38
ENDBRANCH   1  37
TORSDOF 22
ENDMDL
