MODEL 1
REMARK VINA RESULT:     -11.9      0.000      0.000
REMARK SMILES O=C(Cc1ccccc1-c1ccn(C(F)F)c(=O)c1)OCCOCCOC(=O)c1ccc(-c2c3nc(c(-c4c(F)c(F)c(F)c(F)c4F)c4ccc([nH]4)c(-c4c(F)c(F)c(F)c(F)c4F)c4nc(c(-c5c(F)c(F)c(F)c(F)c5F)c5ccc2[nH]5)C=C4)C=C3)cc1
REMARK SMILES IDX 22 1 21 2 20 3 2 4 1 5 3 6 4 7 5 8 9 9 6 10 8 11 7 12 10 13
REMARK SMILES IDX 11 14 19 15 12 16 17 17 13 18 18 19 14 20 15 21 16 22 23 23
REMARK SMILES IDX 24 24 25 25 26 26 27 27 28 28 29 29 30 30 91 31 31 32 90 33
REMARK SMILES IDX 32 34 33 35 34 36 84 37 35 38 89 39 83 40 85 41 36 42 88 43
REMARK SMILES IDX 82 44 81 45 37 47 69 48 49 49 68 50 50 51 53 52 67 53 86 54
REMARK SMILES IDX 51 55 52 56 66 58 87 59 54 60 38 61 39 62 47 63 40 64 41 65
REMARK SMILES IDX 45 66 48 67 42 68 43 69 46 70 44 71 70 72 71 73 79 74 72 75
REMARK SMILES IDX 73 76 77 77 80 78 74 79 75 80 78 81 76 82 55 83 56 84 64 85
REMARK SMILES IDX 57 86 58 87 62 88 65 89 59 90 60 91 63 92 61 93
REMARK H PARENT 85 46 53 57
REMARK Flexibility Score: inf
ROOT
ATOM      1  C   UNL A   1      31.408  27.786  26.178  1.00  0.00     0.202 C 
ENDROOT
BRANCH   1   2
ATOM      2  C   UNL A   1      30.763  26.455  25.804  1.00  0.00     0.261 C 
BRANCH   2   3
ATOM      3  O   UNL A   1      31.203  25.343  26.592  1.00  0.00    -0.463 OA
BRANCH   3   4
ATOM      4  C   UNL A   1      30.929  24.045  26.328  1.00  0.00     0.310 C 
ATOM      5  O   UNL A   1      30.551  23.336  27.264  1.00  0.00    -0.252 OA
BRANCH   4   6
ATOM      6  C   UNL A   1      31.135  23.465  24.938  1.00  0.00     0.158 C 
BRANCH   6   7
ATOM      7  C   UNL A   1      32.199  22.397  24.835  1.00  0.00    -0.029 A 
ATOM      8  C   UNL A   1      31.835  21.055  25.029  1.00  0.00     0.005 A 
ATOM      9  C   UNL A   1      33.547  22.709  24.561  1.00  0.00    -0.014 A 
ATOM     10  C   UNL A   1      32.804  20.065  25.143  1.00  0.00     0.000 A 
ATOM     11  C   UNL A   1      34.516  21.705  24.669  1.00  0.00     0.009 A 
ATOM     12  C   UNL A   1      34.146  20.397  24.995  1.00  0.00     0.001 A 
BRANCH   9  13
ATOM     13  C   UNL A   1      33.881  24.032  23.992  1.00  0.00    -0.011 A 
ATOM     14  C   UNL A   1      34.197  25.203  24.780  1.00  0.00     0.027 A 
ATOM     15  C   UNL A   1      33.604  24.176  22.684  1.00  0.00     0.080 A 
ATOM     16  C   UNL A   1      34.028  26.426  24.261  1.00  0.00     0.095 A 
ATOM     17  C   UNL A   1      33.516  25.527  22.066  1.00  0.00     0.255 A 
ATOM     18  N   UNL A   1      33.656  26.594  22.939  1.00  0.00    -0.258 N 
ATOM     19  O   UNL A   1      33.266  25.607  20.868  1.00  0.00    -0.269 OA
BRANCH  18  20
ATOM     20  C   UNL A   1      33.406  27.908  22.408  1.00  0.00     0.451 C 
ATOM     21  F   UNL A   1      32.094  28.229  22.505  1.00  0.00    -0.185 F 
ATOM     22  F   UNL A   1      34.117  28.849  23.079  1.00  0.00    -0.185 F 
ENDBRANCH  18  20
ENDBRANCH   9  13
ENDBRANCH   6   7
ENDBRANCH   4   6
ENDBRANCH   3   4
ENDBRANCH   2   3
ENDBRANCH   1   2
BRANCH   1  23
ATOM     23  O   UNL A   1      31.127  28.907  25.345  1.00  0.00    -0.374 OA
BRANCH  23  24
ATOM     24  C   UNL A   1      32.081  29.978  25.401  1.00  0.00     0.202 C 
BRANCH  24  25
ATOM     25  C   UNL A   1      31.818  31.038  26.473  1.00  0.00     0.261 C 
BRANCH  25  26
ATOM     26  O   UNL A   1      32.779  30.939  27.531  1.00  0.00    -0.460 OA
BRANCH  26  27
ATOM     27  C   UNL A   1      33.598  32.011  27.642  1.00  0.00     0.338 C 
ATOM     28  O   UNL A   1      33.282  33.190  27.626  1.00  0.00    -0.246 OA
BRANCH  27  29
ATOM     29  C   UNL A   1      34.945  31.545  28.025  1.00  0.00     0.060 A 
ATOM     30  C   UNL A   1      35.147  30.160  28.106  1.00  0.00     0.016 A 
ATOM     31  C   UNL A   1      35.995  32.434  28.274  1.00  0.00     0.016 A 
ATOM     32  C   UNL A   1      36.376  29.660  28.514  1.00  0.00     0.010 A 
ATOM     33  C   UNL A   1      37.227  31.931  28.692  1.00  0.00     0.010 A 
ATOM     34  C   UNL A   1      37.399  30.548  28.866  1.00  0.00    -0.014 A 
BRANCH  34  35
ATOM     35  C   UNL A   1      38.550  30.038  29.641  1.00  0.00     0.031 A 
ATOM     36  C   UNL A   1      38.725  30.539  31.048  1.00  0.00     0.074 A 
ATOM     37  C   UNL A   1      39.378  29.115  29.126  1.00  0.00     0.049 A 
ATOM     38  N   UNL A   1      39.660  30.265  31.920  1.00  0.00    -0.248 NA
ATOM     39  C   UNL A   1      37.706  31.486  31.536  1.00  0.00     0.031 C 
ATOM     40  C   UNL A   1      39.269  28.534  27.790  1.00  0.00     0.029 A 
ATOM     41  N   UNL A   1      40.479  28.509  29.671  1.00  0.00    -0.354 N 
ATOM     42  C   UNL A   1      39.340  31.000  33.054  1.00  0.00     0.074 A 
ATOM     43  C   UNL A   1      38.157  31.772  32.747  1.00  0.00     0.031 C 
ATOM     44  C   UNL A   1      40.276  27.659  27.614  1.00  0.00     0.029 A 
ATOM     45  C   UNL A   1      41.112  27.647  28.812  1.00  0.00     0.049 A 
ATOM     46  H   UNL A   1      40.786  28.675  30.592  1.00  0.00     0.167 HD
ATOM     47  C   UNL A   1      39.967  31.014  34.253  1.00  0.00     0.037 A 
ATOM     48  C   UNL A   1      42.252  26.950  28.976  1.00  0.00     0.037 A 
ATOM     49  C   UNL A   1      41.149  30.248  34.543  1.00  0.00     0.049 A 
ATOM     50  C   UNL A   1      42.978  27.046  30.295  1.00  0.00     0.074 A 
ATOM     51  C   UNL A   1      41.877  30.193  35.717  1.00  0.00     0.029 A 
ATOM     52  N   UNL A   1      41.780  29.405  33.638  1.00  0.00    -0.354 N 
ATOM     53  N   UNL A   1      42.663  27.728  31.370  1.00  0.00    -0.248 NA
ATOM     54  C   UNL A   1      44.216  26.265  30.425  1.00  0.00     0.031 C 
ATOM     55  C   UNL A   1      42.978  29.356  35.507  1.00  0.00     0.029 A 
ATOM     56  C   UNL A   1      42.900  28.838  34.223  1.00  0.00     0.049 A 
ATOM     57  H   UNL A   1      41.476  29.235  32.718  1.00  0.00     0.167 HD
ATOM     58  C   UNL A   1      43.641  27.433  32.312  1.00  0.00     0.074 A 
ATOM     59  C   UNL A   1      44.548  26.493  31.687  1.00  0.00     0.031 C 
ATOM     60  C   UNL A   1      43.781  27.897  33.580  1.00  0.00     0.037 A 
BRANCH  47  61
ATOM     61  C   UNL A   1      39.396  31.896  35.326  1.00  0.00     0.064 A 
ATOM     62  C   UNL A   1      39.716  33.262  35.405  1.00  0.00     0.173 A 
ATOM     63  C   UNL A   1      38.501  31.378  36.273  1.00  0.00     0.173 A 
ATOM     64  F   UNL A   1      40.583  33.803  34.536  1.00  0.00    -0.203 F 
ATOM     65  C   UNL A   1      39.181  34.066  36.407  1.00  0.00     0.198 A 
ATOM     66  C   UNL A   1      37.942  32.194  37.254  1.00  0.00     0.198 A 
ATOM     67  F   UNL A   1      38.163  30.080  36.246  1.00  0.00    -0.203 F 
ATOM     68  F   UNL A   1      39.541  35.354  36.494  1.00  0.00    -0.200 F 
ATOM     69  C   UNL A   1      38.287  33.535  37.324  1.00  0.00     0.200 A 
ATOM     70  F   UNL A   1      37.070  31.681  38.132  1.00  0.00    -0.200 F 
ATOM     71  F   UNL A   1      37.765  34.313  38.282  1.00  0.00    -0.200 F 
ENDBRANCH  47  61
BRANCH  48  72
ATOM     72  C   UNL A   1      42.788  26.116  27.868  1.00  0.00     0.064 A 
ATOM     73  C   UNL A   1      42.464  24.756  27.756  1.00  0.00     0.173 A 
ATOM     74  C   UNL A   1      43.666  26.654  26.914  1.00  0.00     0.173 A 
ATOM     75  F   UNL A   1      41.645  24.188  28.653  1.00  0.00    -0.203 F 
ATOM     76  C   UNL A   1      43.023  23.961  26.757  1.00  0.00     0.198 A 
ATOM     77  C   UNL A   1      44.197  25.867  25.895  1.00  0.00     0.198 A 
ATOM     78  F   UNL A   1      44.007  27.950  26.971  1.00  0.00    -0.203 F 
ATOM     79  F   UNL A   1      42.745  22.651  26.713  1.00  0.00    -0.200 F 
ATOM     80  C   UNL A   1      43.885  24.518  25.824  1.00  0.00     0.200 A 
ATOM     81  F   UNL A   1      45.015  26.413  24.986  1.00  0.00    -0.200 F 
ATOM     82  F   UNL A   1      44.423  23.753  24.865  1.00  0.00    -0.200 F 
ENDBRANCH  48  72
BRANCH  60  83
ATOM     83  C   UNL A   1      44.928  27.354  34.385  1.00  0.00     0.064 A 
ATOM     84  C   UNL A   1      44.814  26.175  35.135  1.00  0.00     0.173 A 
ATOM     85  C   UNL A   1      46.169  28.013  34.381  1.00  0.00     0.173 A 
ATOM     86  F   UNL A   1      43.648  25.514  35.181  1.00  0.00    -0.203 F 
ATOM     87  C   UNL A   1      45.886  25.698  35.886  1.00  0.00     0.198 A 
ATOM     88  C   UNL A   1      47.249  27.512  35.102  1.00  0.00     0.198 A 
ATOM     89  F   UNL A   1      46.336  29.138  33.670  1.00  0.00    -0.203 F 
ATOM     90  F   UNL A   1      45.733  24.607  36.648  1.00  0.00    -0.200 F 
ATOM     91  C   UNL A   1      47.103  26.362  35.863  1.00  0.00     0.200 A 
ATOM     92  F   UNL A   1      48.429  28.145  35.062  1.00  0.00    -0.200 F 
ATOM     93  F   UNL A   1      48.134  25.900  36.583  1.00  0.00    -0.200 F 
ENDBRANCH  60  83
ENDBRANCH  34  35
ENDBRANCH  27  29
ENDBRANCH  26  27
ENDBRANCH  25  26
ENDBRANCH  24  25
ENDBRANCH  23  24
ENDBRANCH   1  23
TORSDOF 17
ENDMDL
MODEL 2
REMARK VINA RESULT:     -11.8      4.257      9.561
REMARK SMILES O=C(Cc1ccccc1-c1ccn(C(F)F)c(=O)c1)OCCOCCOC(=O)c1ccc(-c2c3nc(c(-c4c(F)c(F)c(F)c(F)c4F)c4ccc([nH]4)c(-c4c(F)c(F)c(F)c(F)c4F)c4nc(c(-c5c(F)c(F)c(F)c(F)c5F)c5ccc2[nH]5)C=C4)C=C3)cc1
REMARK SMILES IDX 22 1 21 2 20 3 2 4 1 5 3 6 4 7 5 8 9 9 6 10 8 11 7 12 10 13
REMARK SMILES IDX 11 14 19 15 12 16 17 17 13 18 18 19 14 20 15 21 16 22 23 23
REMARK SMILES IDX 24 24 25 25 26 26 27 27 28 28 29 29 30 30 91 31 31 32 90 33
REMARK SMILES IDX 32 34 33 35 34 36 84 37 35 38 89 39 83 40 85 41 36 42 88 43
REMARK SMILES IDX 82 44 81 45 37 47 69 48 49 49 68 50 50 51 53 52 67 53 86 54
REMARK SMILES IDX 51 55 52 56 66 58 87 59 54 60 38 61 39 62 47 63 40 64 41 65
REMARK SMILES IDX 45 66 48 67 42 68 43 69 46 70 44 71 70 72 71 73 79 74 72 75
REMARK SMILES IDX 73 76 77 77 80 78 74 79 75 80 78 81 76 82 55 83 56 84 64 85
REMARK SMILES IDX 57 86 58 87 62 88 65 89 59 90 60 91 63 92 61 93
REMARK H PARENT 85 46 53 57
REMARK Flexibility Score: inf
ROOT
ATOM      1  C   UNL A   1      34.600  22.459  25.497  1.00  0.00     0.202 C 
ENDROOT
BRANCH   1   2
ATOM      2  C   UNL A   1      33.651  22.856  26.624  1.00  0.00     0.261 C 
BRANCH   2   3
ATOM      3  O   UNL A   1      33.137  24.188  26.521  1.00  0.00    -0.463 OA
BRANCH   3   4
ATOM      4  C   UNL A   1      31.833  24.529  26.626  1.00  0.00     0.310 C 
ATOM      5  O   UNL A   1      31.088  23.771  27.251  1.00  0.00    -0.252 OA
BRANCH   4   6
ATOM      6  C   UNL A   1      31.290  25.776  25.945  1.00  0.00     0.158 C 
BRANCH   6   7
ATOM      7  C   UNL A   1      31.965  26.150  24.647  1.00  0.00    -0.029 A 
ATOM      8  C   UNL A   1      31.678  25.405  23.492  1.00  0.00     0.005 A 
ATOM      9  C   UNL A   1      32.884  27.217  24.563  1.00  0.00    -0.014 A 
ATOM     10  C   UNL A   1      32.418  25.580  22.329  1.00  0.00     0.000 A 
ATOM     11  C   UNL A   1      33.621  27.393  23.385  1.00  0.00     0.009 A 
ATOM     12  C   UNL A   1      33.412  26.552  22.288  1.00  0.00     0.001 A 
BRANCH   9  13
ATOM     13  C   UNL A   1      32.918  28.228  25.640  1.00  0.00    -0.011 A 
ATOM     14  C   UNL A   1      32.012  29.351  25.734  1.00  0.00     0.027 A 
ATOM     15  C   UNL A   1      34.028  28.215  26.400  1.00  0.00     0.080 A 
ATOM     16  C   UNL A   1      32.369  30.445  26.419  1.00  0.00     0.095 A 
ATOM     17  C   UNL A   1      34.386  29.383  27.249  1.00  0.00     0.255 A 
ATOM     18  N   UNL A   1      33.552  30.483  27.135  1.00  0.00    -0.258 N 
ATOM     19  O   UNL A   1      35.405  29.322  27.928  1.00  0.00    -0.269 OA
BRANCH  18  20
ATOM     20  C   UNL A   1      33.963  31.686  27.809  1.00  0.00     0.451 C 
ATOM     21  F   UNL A   1      35.156  32.123  27.338  1.00  0.00    -0.185 F 
ATOM     22  F   UNL A   1      33.056  32.680  27.634  1.00  0.00    -0.185 F 
ENDBRANCH  18  20
ENDBRANCH   9  13
ENDBRANCH   6   7
ENDBRANCH   4   6
ENDBRANCH   3   4
ENDBRANCH   2   3
ENDBRANCH   1   2
BRANCH   1  23
ATOM     23  O   UNL A   1      35.808  21.797  25.860  1.00  0.00    -0.374 OA
BRANCH  23  24
ATOM     24  C   UNL A   1      36.186  20.690  25.029  1.00  0.00     0.202 C 
BRANCH  24  25
ATOM     25  C   UNL A   1      37.682  20.369  25.001  1.00  0.00     0.261 C 
BRANCH  25  26
ATOM     26  O   UNL A   1      38.457  21.534  25.311  1.00  0.00    -0.460 OA
BRANCH  26  27
ATOM     27  C   UNL A   1      39.500  21.304  26.142  1.00  0.00     0.338 C 
ATOM     28  O   UNL A   1      40.167  20.286  26.231  1.00  0.00    -0.246 OA
BRANCH  27  29
ATOM     29  C   UNL A   1      39.880  22.573  26.793  1.00  0.00     0.060 A 
ATOM     30  C   UNL A   1      39.170  23.723  26.422  1.00  0.00     0.016 A 
ATOM     31  C   UNL A   1      40.887  22.638  27.761  1.00  0.00     0.016 A 
ATOM     32  C   UNL A   1      39.516  24.957  26.958  1.00  0.00     0.010 A 
ATOM     33  C   UNL A   1      41.240  23.878  28.292  1.00  0.00     0.010 A 
ATOM     34  C   UNL A   1      40.593  25.044  27.848  1.00  0.00    -0.014 A 
BRANCH  34  35
ATOM     35  C   UNL A   1      41.188  26.369  28.118  1.00  0.00     0.031 A 
ATOM     36  C   UNL A   1      42.590  26.620  27.634  1.00  0.00     0.074 A 
ATOM     37  C   UNL A   1      40.482  27.336  28.725  1.00  0.00     0.049 A 
ATOM     38  N   UNL A   1      43.339  27.684  27.765  1.00  0.00    -0.248 NA
ATOM     39  C   UNL A   1      43.237  25.515  26.905  1.00  0.00     0.031 C 
ATOM     40  C   UNL A   1      39.103  27.207  29.193  1.00  0.00     0.029 A 
ATOM     41  N   UNL A   1      40.833  28.619  29.053  1.00  0.00    -0.354 N 
ATOM     42  C   UNL A   1      44.538  27.375  27.135  1.00  0.00     0.074 A 
ATOM     43  C   UNL A   1      44.440  26.012  26.667  1.00  0.00     0.031 C 
ATOM     44  C   UNL A   1      38.729  28.367  29.763  1.00  0.00     0.029 A 
ATOM     45  C   UNL A   1      39.852  29.301  29.725  1.00  0.00     0.049 A 
ATOM     46  H   UNL A   1      41.707  29.013  28.828  1.00  0.00     0.167 HD
ATOM     47  C   UNL A   1      45.618  28.169  26.946  1.00  0.00     0.037 A 
ATOM     48  C   UNL A   1      39.875  30.535  30.266  1.00  0.00     0.037 A 
ATOM     49  C   UNL A   1      45.706  29.522  27.426  1.00  0.00     0.049 A 
ATOM     50  C   UNL A   1      41.122  31.370  30.112  1.00  0.00     0.074 A 
ATOM     51  C   UNL A   1      46.754  30.415  27.304  1.00  0.00     0.029 A 
ATOM     52  N   UNL A   1      44.701  30.174  28.127  1.00  0.00    -0.354 N 
ATOM     53  N   UNL A   1      42.247  31.082  29.502  1.00  0.00    -0.248 NA
ATOM     54  C   UNL A   1      41.098  32.708  30.718  1.00  0.00     0.031 C 
ATOM     55  C   UNL A   1      46.403  31.590  27.977  1.00  0.00     0.029 A 
ATOM     56  C   UNL A   1      45.112  31.454  28.461  1.00  0.00     0.049 A 
ATOM     57  H   UNL A   1      43.825  29.784  28.353  1.00  0.00     0.167 HD
ATOM     58  C   UNL A   1      43.048  32.210  29.620  1.00  0.00     0.074 A 
ATOM     59  C   UNL A   1      42.271  33.196  30.342  1.00  0.00     0.031 C 
ATOM     60  C   UNL A   1      44.313  32.418  29.174  1.00  0.00     0.037 A 
BRANCH  47  61
ATOM     61  C   UNL A   1      46.788  27.585  26.210  1.00  0.00     0.064 A 
ATOM     62  C   UNL A   1      47.763  26.816  26.867  1.00  0.00     0.173 A 
ATOM     63  C   UNL A   1      46.928  27.776  24.827  1.00  0.00     0.173 A 
ATOM     64  F   UNL A   1      47.688  26.619  28.192  1.00  0.00    -0.203 F 
ATOM     65  C   UNL A   1      48.845  26.283  26.170  1.00  0.00     0.198 A 
ATOM     66  C   UNL A   1      47.994  27.214  24.129  1.00  0.00     0.198 A 
ATOM     67  F   UNL A   1      46.028  28.505  24.151  1.00  0.00    -0.203 F 
ATOM     68  F   UNL A   1      49.790  25.596  26.828  1.00  0.00    -0.200 F 
ATOM     69  C   UNL A   1      48.954  26.474  24.801  1.00  0.00     0.200 A 
ATOM     70  F   UNL A   1      48.092  27.390  22.805  1.00  0.00    -0.200 F 
ATOM     71  F   UNL A   1      49.991  25.953  24.131  1.00  0.00    -0.200 F 
ENDBRANCH  47  61
BRANCH  48  72
ATOM     72  C   UNL A   1      38.697  31.049  31.011  1.00  0.00     0.064 A 
ATOM     73  C   UNL A   1      38.615  30.945  32.407  1.00  0.00     0.173 A 
ATOM     74  C   UNL A   1      37.608  31.625  30.339  1.00  0.00     0.173 A 
ATOM     75  F   UNL A   1      39.620  30.384  33.096  1.00  0.00    -0.203 F 
ATOM     76  C   UNL A   1      37.479  31.365  33.097  1.00  0.00     0.198 A 
ATOM     77  C   UNL A   1      36.487  32.077  31.032  1.00  0.00     0.198 A 
ATOM     78  F   UNL A   1      37.633  31.753  29.004  1.00  0.00    -0.203 F 
ATOM     79  F   UNL A   1      37.403  31.196  34.424  1.00  0.00    -0.200 F 
ATOM     80  C   UNL A   1      36.418  31.936  32.409  1.00  0.00     0.200 A 
ATOM     81  F   UNL A   1      35.472  32.643  30.366  1.00  0.00    -0.200 F 
ATOM     82  F   UNL A   1      35.326  32.338  33.073  1.00  0.00    -0.200 F 
ENDBRANCH  48  72
BRANCH  60  83
ATOM     83  C   UNL A   1      44.910  33.776  29.414  1.00  0.00     0.064 A 
ATOM     84  C   UNL A   1      44.749  34.827  28.500  1.00  0.00     0.173 A 
ATOM     85  C   UNL A   1      45.632  34.033  30.591  1.00  0.00     0.173 A 
ATOM     86  F   UNL A   1      44.078  34.631  27.355  1.00  0.00    -0.203 F 
ATOM     87  C   UNL A   1      45.324  36.074  28.736  1.00  0.00     0.198 A 
ATOM     88  C   UNL A   1      46.171  35.292  30.840  1.00  0.00     0.198 A 
ATOM     89  F   UNL A   1      45.804  33.066  31.504  1.00  0.00    -0.203 F 
ATOM     90  F   UNL A   1      45.213  37.043  27.817  1.00  0.00    -0.200 F 
ATOM     91  C   UNL A   1      46.028  36.307  29.907  1.00  0.00     0.200 A 
ATOM     92  F   UNL A   1      46.834  35.519  31.982  1.00  0.00    -0.200 F 
ATOM     93  F   UNL A   1      46.576  37.508  30.134  1.00  0.00    -0.200 F 
ENDBRANCH  60  83
ENDBRANCH  34  35
ENDBRANCH  27  29
ENDBRANCH  26  27
ENDBRANCH  25  26
ENDBRANCH  24  25
ENDBRANCH  23  24
ENDBRANCH   1  23
TORSDOF 17
ENDMDL
MODEL 3
REMARK VINA RESULT:     -11.7      2.613      7.977
REMARK SMILES O=C(Cc1ccccc1-c1ccn(C(F)F)c(=O)c1)OCCOCCOC(=O)c1ccc(-c2c3nc(c(-c4c(F)c(F)c(F)c(F)c4F)c4ccc([nH]4)c(-c4c(F)c(F)c(F)c(F)c4F)c4nc(c(-c5c(F)c(F)c(F)c(F)c5F)c5ccc2[nH]5)C=C4)C=C3)cc1
REMARK SMILES IDX 22 1 21 2 20 3 2 4 1 5 3 6 4 7 5 8 9 9 6 10 8 11 7 12 10 13
REMARK SMILES IDX 11 14 19 15 12 16 17 17 13 18 18 19 14 20 15 21 16 22 23 23
REMARK SMILES IDX 24 24 25 25 26 26 27 27 28 28 29 29 30 30 91 31 31 32 90 33
REMARK SMILES IDX 32 34 33 35 34 36 84 37 35 38 89 39 83 40 85 41 36 42 88 43
REMARK SMILES IDX 82 44 81 45 37 47 69 48 49 49 68 50 50 51 53 52 67 53 86 54
REMARK SMILES IDX 51 55 52 56 66 58 87 59 54 60 38 61 39 62 47 63 40 64 41 65
REMARK SMILES IDX 45 66 48 67 42 68 43 69 46 70 44 71 70 72 71 73 79 74 72 75
REMARK SMILES IDX 73 76 77 77 80 78 74 79 75 80 78 81 76 82 55 83 56 84 64 85
REMARK SMILES IDX 57 86 58 87 62 88 65 89 59 90 60 91 63 92 61 93
REMARK H PARENT 85 46 53 57
REMARK Flexibility Score: inf
ROOT
ATOM      1  C   UNL A   1      34.901  29.854  27.475  1.00  0.00     0.202 C 
ENDROOT
BRANCH   1   2
ATOM      2  C   UNL A   1      34.101  28.886  26.608  1.00  0.00     0.261 C 
BRANCH   2   3
ATOM      3  O   UNL A   1      33.202  28.045  27.338  1.00  0.00    -0.463 OA
BRANCH   3   4
ATOM      4  C   UNL A   1      31.876  27.929  27.097  1.00  0.00     0.310 C 
ATOM      5  O   UNL A   1      31.119  27.860  28.068  1.00  0.00    -0.252 OA
BRANCH   4   6
ATOM      6  C   UNL A   1      31.341  27.826  25.677  1.00  0.00     0.158 C 
BRANCH   6   7
ATOM      7  C   UNL A   1      31.065  26.423  25.190  1.00  0.00    -0.029 A 
ATOM      8  C   UNL A   1      31.422  25.338  26.007  1.00  0.00     0.005 A 
ATOM      9  C   UNL A   1      30.472  26.171  23.936  1.00  0.00    -0.014 A 
ATOM     10  C   UNL A   1      31.373  24.036  25.522  1.00  0.00     0.000 A 
ATOM     11  C   UNL A   1      30.419  24.856  23.457  1.00  0.00     0.009 A 
ATOM     12  C   UNL A   1      30.903  23.800  24.235  1.00  0.00     0.001 A 
BRANCH   9  13
ATOM     13  C   UNL A   1      29.760  27.263  23.240  1.00  0.00    -0.011 A 
ATOM     14  C   UNL A   1      30.413  28.363  22.563  1.00  0.00     0.027 A 
ATOM     15  C   UNL A   1      28.444  27.344  23.503  1.00  0.00     0.080 A 
ATOM     16  C   UNL A   1      29.761  29.517  22.376  1.00  0.00     0.095 A 
ATOM     17  C   UNL A   1      27.679  28.585  23.204  1.00  0.00     0.255 A 
ATOM     18  N   UNL A   1      28.428  29.647  22.724  1.00  0.00    -0.258 N 
ATOM     19  O   UNL A   1      26.480  28.608  23.456  1.00  0.00    -0.269 OA
BRANCH  18  20
ATOM     20  C   UNL A   1      27.754  30.911  22.586  1.00  0.00     0.451 C 
ATOM     21  F   UNL A   1      28.095  31.754  23.590  1.00  0.00    -0.185 F 
ATOM     22  F   UNL A   1      28.072  31.510  21.411  1.00  0.00    -0.185 F 
ENDBRANCH  18  20
ENDBRANCH   9  13
ENDBRANCH   6   7
ENDBRANCH   4   6
ENDBRANCH   3   4
ENDBRANCH   2   3
ENDBRANCH   1   2
BRANCH   1  23
ATOM     23  O   UNL A   1      34.318  31.126  27.743  1.00  0.00    -0.374 OA
BRANCH  23  24
ATOM     24  C   UNL A   1      32.981  31.314  27.256  1.00  0.00     0.202 C 
BRANCH  24  25
ATOM     25  C   UNL A   1      32.424  32.733  27.391  1.00  0.00     0.261 C 
BRANCH  25  26
ATOM     26  O   UNL A   1      33.488  33.691  27.460  1.00  0.00    -0.460 OA
BRANCH  26  27
ATOM     27  C   UNL A   1      33.421  34.524  28.524  1.00  0.00     0.338 C 
ATOM     28  O   UNL A   1      32.527  35.311  28.795  1.00  0.00    -0.246 OA
BRANCH  27  29
ATOM     29  C   UNL A   1      34.502  34.180  29.469  1.00  0.00     0.060 A 
ATOM     30  C   UNL A   1      35.819  34.423  29.054  1.00  0.00     0.016 A 
ATOM     31  C   UNL A   1      34.239  33.659  30.739  1.00  0.00     0.016 A 
ATOM     32  C   UNL A   1      36.882  34.071  29.875  1.00  0.00     0.010 A 
ATOM     33  C   UNL A   1      35.307  33.297  31.559  1.00  0.00     0.010 A 
ATOM     34  C   UNL A   1      36.628  33.451  31.104  1.00  0.00    -0.014 A 
BRANCH  34  35
ATOM     35  C   UNL A   1      37.733  32.750  31.790  1.00  0.00     0.031 A 
ATOM     36  C   UNL A   1      38.362  31.577  31.091  1.00  0.00     0.074 A 
ATOM     37  C   UNL A   1      38.198  33.182  32.973  1.00  0.00     0.049 A 
ATOM     38  N   UNL A   1      39.325  30.787  31.489  1.00  0.00    -0.248 NA
ATOM     39  C   UNL A   1      37.826  31.246  29.758  1.00  0.00     0.031 C 
ATOM     40  C   UNL A   1      37.687  34.335  33.712  1.00  0.00     0.029 A 
ATOM     41  N   UNL A   1      39.208  32.695  33.761  1.00  0.00    -0.354 N 
ATOM     42  C   UNL A   1      39.508  29.873  30.460  1.00  0.00     0.074 A 
ATOM     43  C   UNL A   1      38.527  30.170  29.441  1.00  0.00     0.031 C 
ATOM     44  C   UNL A   1      38.381  34.458  34.858  1.00  0.00     0.029 A 
ATOM     45  C   UNL A   1      39.359  33.376  34.942  1.00  0.00     0.049 A 
ATOM     46  H   UNL A   1      39.771  31.929  33.504  1.00  0.00     0.167 HD
ATOM     47  C   UNL A   1      40.428  28.886  30.364  1.00  0.00     0.037 A 
ATOM     48  C   UNL A   1      40.183  33.130  35.979  1.00  0.00     0.037 A 
ATOM     49  C   UNL A   1      41.394  28.595  31.390  1.00  0.00     0.049 A 
ATOM     50  C   UNL A   1      41.145  31.972  35.882  1.00  0.00     0.074 A 
ATOM     51  C   UNL A   1      42.366  27.612  31.408  1.00  0.00     0.029 A 
ATOM     52  N   UNL A   1      41.502  29.290  32.587  1.00  0.00    -0.354 N 
ATOM     53  N   UNL A   1      41.328  31.121  34.900  1.00  0.00    -0.248 NA
ATOM     54  C   UNL A   1      42.023  31.746  37.038  1.00  0.00     0.031 C 
ATOM     55  C   UNL A   1      43.028  27.678  32.638  1.00  0.00     0.029 A 
ATOM     56  C   UNL A   1      42.513  28.744  33.360  1.00  0.00     0.049 A 
ATOM     57  H   UNL A   1      40.942  30.057  32.848  1.00  0.00     0.167 HD
ATOM     58  C   UNL A   1      42.360  30.284  35.304  1.00  0.00     0.074 A 
ATOM     59  C   UNL A   1      42.778  30.744  36.612  1.00  0.00     0.031 C 
ATOM     60  C   UNL A   1      42.915  29.228  34.656  1.00  0.00     0.037 A 
BRANCH  47  61
ATOM     61  C   UNL A   1      40.418  28.045  29.121  1.00  0.00     0.064 A 
ATOM     62  C   UNL A   1      41.183  28.387  27.993  1.00  0.00     0.173 A 
ATOM     63  C   UNL A   1      39.654  26.870  29.061  1.00  0.00     0.173 A 
ATOM     64  F   UNL A   1      41.916  29.511  27.990  1.00  0.00    -0.203 F 
ATOM     65  C   UNL A   1      41.162  27.597  26.846  1.00  0.00     0.198 A 
ATOM     66  C   UNL A   1      39.662  26.065  27.925  1.00  0.00     0.198 A 
ATOM     67  F   UNL A   1      38.903  26.498  30.108  1.00  0.00    -0.203 F 
ATOM     68  F   UNL A   1      41.859  27.972  25.764  1.00  0.00    -0.200 F 
ATOM     69  C   UNL A   1      40.409  26.433  26.816  1.00  0.00     0.200 A 
ATOM     70  F   UNL A   1      38.944  24.935  27.901  1.00  0.00    -0.200 F 
ATOM     71  F   UNL A   1      40.398  25.669  25.716  1.00  0.00    -0.200 F 
ENDBRANCH  47  61
BRANCH  48  72
ATOM     72  C   UNL A   1      40.128  33.978  37.198  1.00  0.00     0.064 A 
ATOM     73  C   UNL A   1      39.249  33.686  38.250  1.00  0.00     0.173 A 
ATOM     74  C   UNL A   1      40.929  35.124  37.321  1.00  0.00     0.173 A 
ATOM     75  F   UNL A   1      38.447  32.614  38.174  1.00  0.00    -0.203 F 
ATOM     76  C   UNL A   1      39.150  34.522  39.361  1.00  0.00     0.198 A 
ATOM     77  C   UNL A   1      40.854  35.941  38.448  1.00  0.00     0.198 A 
ATOM     78  F   UNL A   1      41.790  35.451  36.346  1.00  0.00    -0.203 F 
ATOM     79  F   UNL A   1      38.256  34.252  40.322  1.00  0.00    -0.200 F 
ATOM     80  C   UNL A   1      39.956  35.646  39.461  1.00  0.00     0.200 A 
ATOM     81  F   UNL A   1      41.647  37.015  38.548  1.00  0.00    -0.200 F 
ATOM     82  F   UNL A   1      39.858  36.450  40.528  1.00  0.00    -0.200 F 
ENDBRANCH  48  72
BRANCH  60  83
ATOM     83  C   UNL A   1      44.063  28.535  35.333  1.00  0.00     0.064 A 
ATOM     84  C   UNL A   1      45.393  28.921  35.115  1.00  0.00     0.173 A 
ATOM     85  C   UNL A   1      43.823  27.486  36.235  1.00  0.00     0.173 A 
ATOM     86  F   UNL A   1      45.678  29.910  34.255  1.00  0.00    -0.203 F 
ATOM     87  C   UNL A   1      46.443  28.255  35.743  1.00  0.00     0.198 A 
ATOM     88  C   UNL A   1      44.873  26.848  36.890  1.00  0.00     0.198 A 
ATOM     89  F   UNL A   1      42.568  27.086  36.490  1.00  0.00    -0.203 F 
ATOM     90  F   UNL A   1      47.709  28.597  35.468  1.00  0.00    -0.200 F 
ATOM     91  C   UNL A   1      46.183  27.225  36.633  1.00  0.00     0.200 A 
ATOM     92  F   UNL A   1      44.616  25.867  37.765  1.00  0.00    -0.200 F 
ATOM     93  F   UNL A   1      47.194  26.588  37.239  1.00  0.00    -0.200 F 
ENDBRANCH  60  83
ENDBRANCH  34  35
ENDBRANCH  27  29
ENDBRANCH  26  27
ENDBRANCH  25  26
ENDBRANCH  24  25
ENDBRANCH  23  24
ENDBRANCH   1  23
TORSDOF 17
ENDMDL
