MODEL 1
REMARK VINA RESULT:     -10.1      0.000      0.000
REMARK SMILES CN(CC(C)(C)O)S(=O)(=O)CCCC(=O)OCCOCCOC(=O)c1ccc(-c2c3nc(c(-c4c(F)c(F)c(F)c(F)c4F)c4ccc([nH]4)c(-c4c(F)c(F)c(F)c(F)c4F)c4nc(c(-c5c(F)c(F)c(F)c(F)c5F)c5ccc2[nH]5)C=C4)C=C3)cc1
REMARK SMILES IDX 17 1 16 2 14 3 15 4 13 5 12 6 11 7 8 8 9 9 10 10 2 11 1 12
REMARK SMILES IDX 3 13 4 14 5 15 6 16 7 17 18 19 19 20 20 21 21 22 22 23 23 24
REMARK SMILES IDX 24 25 25 26 26 27 87 28 27 29 86 30 28 31 29 32 30 33 80 34
REMARK SMILES IDX 31 35 85 36 79 37 81 38 32 39 84 40 78 41 77 42 33 44 65 45
REMARK SMILES IDX 45 46 64 47 46 48 49 49 63 50 82 51 47 52 48 53 62 55 83 56
REMARK SMILES IDX 50 57 34 58 35 59 43 60 36 61 37 62 41 63 44 64 38 65 39 66
REMARK SMILES IDX 42 67 40 68 66 69 67 70 75 71 68 72 69 73 73 74 76 75 70 76
REMARK SMILES IDX 71 77 74 78 72 79 51 80 52 81 60 82 53 83 54 84 58 85 61 86
REMARK SMILES IDX 55 87 56 88 59 89 57 90
REMARK H PARENT 7 18 81 43 49 54
REMARK Flexibility Score: inf
ROOT
ATOM      1  C   UNL A   1      32.574  27.608  24.014  1.00  0.00     0.261 C 
ENDROOT
BRANCH   1   2
ATOM      2  O   UNL A   1      32.280  26.911  22.790  1.00  0.00    -0.463 OA
BRANCH   2   3
ATOM      3  C   UNL A   1      33.244  26.058  22.353  1.00  0.00     0.305 C 
ATOM      4  O   UNL A   1      33.650  26.004  21.199  1.00  0.00    -0.252 OA
BRANCH   3   5
ATOM      5  C   UNL A   1      33.796  25.160  23.439  1.00  0.00     0.124 C 
BRANCH   5   6
ATOM      6  C   UNL A   1      33.662  23.644  23.299  1.00  0.00     0.029 C 
BRANCH   6   7
ATOM      7  C   UNL A   1      34.603  22.757  24.106  1.00  0.00     0.155 C 
BRANCH   7   8
ATOM      8  S   UNL A   1      34.054  22.332  25.755  1.00  0.00     0.213 S 
ATOM      9  O   UNL A   1      33.641  23.552  26.405  1.00  0.00    -0.212 OA
ATOM     10  O   UNL A   1      35.084  21.508  26.359  1.00  0.00    -0.212 OA
BRANCH   8  11
ATOM     11  N   UNL A   1      32.698  21.368  25.523  1.00  0.00    -0.202 NA
ATOM     12  C   UNL A   1      31.393  22.019  25.766  1.00  0.00     0.124 C 
BRANCH  11  13
ATOM     13  C   UNL A   1      32.647  20.250  24.545  1.00  0.00     0.136 C 
BRANCH  13  14
ATOM     14  C   UNL A   1      33.000  18.813  24.989  1.00  0.00     0.073 C 
ATOM     15  C   UNL A   1      32.164  17.735  24.301  1.00  0.00     0.043 C 
ATOM     16  C   UNL A   1      34.479  18.575  24.628  1.00  0.00     0.043 C 
BRANCH  14  17
ATOM     17  O   UNL A   1      32.902  18.689  26.408  1.00  0.00    -0.389 OA
ATOM     18  H   UNL A   1      33.754  18.397  26.766  1.00  0.00     0.211 HD
ENDBRANCH  14  17
ENDBRANCH  13  14
ENDBRANCH  11  13
ENDBRANCH   8  11
ENDBRANCH   7   8
ENDBRANCH   6   7
ENDBRANCH   5   6
ENDBRANCH   3   5
ENDBRANCH   2   3
ENDBRANCH   1   2
BRANCH   1  19
ATOM     19  C   UNL A   1      31.317  28.118  24.725  1.00  0.00     0.202 C 
BRANCH  19  20
ATOM     20  O   UNL A   1      31.483  29.141  25.698  1.00  0.00    -0.374 OA
BRANCH  20  21
ATOM     21  C   UNL A   1      31.063  30.462  25.370  1.00  0.00     0.202 C 
BRANCH  21  22
ATOM     22  C   UNL A   1      31.488  31.613  26.298  1.00  0.00     0.261 C 
BRANCH  22  23
ATOM     23  O   UNL A   1      32.498  31.272  27.271  1.00  0.00    -0.460 OA
BRANCH  23  24
ATOM     24  C   UNL A   1      33.367  32.282  27.536  1.00  0.00     0.338 C 
ATOM     25  O   UNL A   1      33.106  33.470  27.647  1.00  0.00    -0.246 OA
BRANCH  24  26
ATOM     26  C   UNL A   1      34.727  31.785  27.815  1.00  0.00     0.060 A 
ATOM     27  C   UNL A   1      34.876  30.416  28.062  1.00  0.00     0.016 A 
ATOM     28  C   UNL A   1      35.780  32.667  28.062  1.00  0.00     0.016 A 
ATOM     29  C   UNL A   1      36.057  29.934  28.624  1.00  0.00     0.010 A 
ATOM     30  C   UNL A   1      36.970  32.178  28.620  1.00  0.00     0.010 A 
ATOM     31  C   UNL A   1      37.099  30.815  28.950  1.00  0.00    -0.014 A 
BRANCH  31  32
ATOM     32  C   UNL A   1      38.256  30.310  29.739  1.00  0.00     0.031 A 
ATOM     33  C   UNL A   1      38.448  30.757  31.166  1.00  0.00     0.074 A 
ATOM     34  C   UNL A   1      39.092  29.399  29.208  1.00  0.00     0.049 A 
ATOM     35  N   UNL A   1      39.373  30.410  32.028  1.00  0.00    -0.248 NA
ATOM     36  C   UNL A   1      37.470  31.719  31.694  1.00  0.00     0.031 C 
ATOM     37  C   UNL A   1      38.997  28.861  27.853  1.00  0.00     0.029 A 
ATOM     38  N   UNL A   1      40.182  28.763  29.747  1.00  0.00    -0.354 N 
ATOM     39  C   UNL A   1      39.083  31.101  33.198  1.00  0.00     0.074 A 
ATOM     40  C   UNL A   1      37.926  31.925  32.922  1.00  0.00     0.031 C 
ATOM     41  C   UNL A   1      39.991  27.978  27.663  1.00  0.00     0.029 A 
ATOM     42  C   UNL A   1      40.810  27.911  28.872  1.00  0.00     0.049 A 
ATOM     43  H   UNL A   1      40.486  28.904  30.673  1.00  0.00     0.167 HD
ATOM     44  C   UNL A   1      39.710  31.041  34.399  1.00  0.00     0.037 A 
ATOM     45  C   UNL A   1      41.927  27.173  29.022  1.00  0.00     0.037 A 
ATOM     46  C   UNL A   1      40.867  30.228  34.676  1.00  0.00     0.049 A 
ATOM     47  C   UNL A   1      42.647  27.179  30.346  1.00  0.00     0.074 A 
ATOM     48  C   UNL A   1      41.574  30.103  35.860  1.00  0.00     0.029 A 
ATOM     49  N   UNL A   1      41.493  29.402  33.754  1.00  0.00    -0.354 N 
ATOM     50  N   UNL A   1      42.347  27.816  31.451  1.00  0.00    -0.248 NA
ATOM     51  C   UNL A   1      43.856  26.348  30.445  1.00  0.00     0.031 C 
ATOM     52  C   UNL A   1      42.655  29.243  35.641  1.00  0.00     0.029 A 
ATOM     53  C   UNL A   1      42.587  28.781  34.337  1.00  0.00     0.049 A 
ATOM     54  H   UNL A   1      41.203  29.276  32.821  1.00  0.00     0.167 HD
ATOM     55  C   UNL A   1      43.308  27.443  32.381  1.00  0.00     0.074 A 
ATOM     56  C   UNL A   1      44.187  26.503  31.718  1.00  0.00     0.031 C 
ATOM     57  C   UNL A   1      43.454  27.843  33.670  1.00  0.00     0.037 A 
BRANCH  44  58
ATOM     58  C   UNL A   1      39.163  31.889  35.515  1.00  0.00     0.064 A 
ATOM     59  C   UNL A   1      38.315  31.354  36.496  1.00  0.00     0.173 A 
ATOM     60  C   UNL A   1      39.535  33.237  35.637  1.00  0.00     0.173 A 
ATOM     61  F   UNL A   1      37.922  30.073  36.423  1.00  0.00    -0.203 F 
ATOM     62  C   UNL A   1      37.840  32.142  37.543  1.00  0.00     0.198 A 
ATOM     63  C   UNL A   1      39.084  34.014  36.702  1.00  0.00     0.198 A 
ATOM     64  F   UNL A   1      40.352  33.799  34.733  1.00  0.00    -0.203 F 
ATOM     65  F   UNL A   1      36.996  31.619  38.443  1.00  0.00    -0.200 F 
ATOM     66  C   UNL A   1      38.231  33.468  37.649  1.00  0.00     0.200 A 
ATOM     67  F   UNL A   1      39.477  35.290  36.812  1.00  0.00    -0.200 F 
ATOM     68  F   UNL A   1      37.784  34.221  38.662  1.00  0.00    -0.200 F 
ENDBRANCH  44  58
BRANCH  45  69
ATOM     69  C   UNL A   1      42.450  26.376  27.880  1.00  0.00     0.064 A 
ATOM     70  C   UNL A   1      43.388  26.909  26.985  1.00  0.00     0.173 A 
ATOM     71  C   UNL A   1      41.990  25.071  27.640  1.00  0.00     0.173 A 
ATOM     72  F   UNL A   1      43.843  28.158  27.158  1.00  0.00    -0.203 F 
ATOM     73  C   UNL A   1      43.821  26.181  25.878  1.00  0.00     0.198 A 
ATOM     74  C   UNL A   1      42.451  24.332  26.553  1.00  0.00     0.198 A 
ATOM     75  F   UNL A   1      41.096  24.511  28.468  1.00  0.00    -0.203 F 
ATOM     76  F   UNL A   1      44.672  26.738  25.005  1.00  0.00    -0.200 F 
ATOM     77  C   UNL A   1      43.356  24.892  25.666  1.00  0.00     0.200 A 
ATOM     78  F   UNL A   1      42.013  23.080  26.365  1.00  0.00    -0.200 F 
ATOM     79  F   UNL A   1      43.774  24.193  24.602  1.00  0.00    -0.200 F 
ENDBRANCH  45  69
BRANCH  57  80
ATOM     80  C   UNL A   1      44.581  27.234  34.457  1.00  0.00     0.064 A 
ATOM     81  C   UNL A   1      45.821  27.876  34.594  1.00  0.00     0.173 A 
ATOM     82  C   UNL A   1      44.414  25.994  35.096  1.00  0.00     0.173 A 
ATOM     83  F   UNL A   1      46.040  29.056  33.994  1.00  0.00    -0.203 F 
ATOM     84  C   UNL A   1      46.864  27.281  35.302  1.00  0.00     0.198 A 
ATOM     85  C   UNL A   1      45.446  25.420  35.833  1.00  0.00     0.198 A 
ATOM     86  F   UNL A   1      43.246  25.340  35.007  1.00  0.00    -0.203 F 
ATOM     87  F   UNL A   1      48.060  27.883  35.361  1.00  0.00    -0.200 F 
ATOM     88  C   UNL A   1      46.674  26.058  35.925  1.00  0.00     0.200 A 
ATOM     89  F   UNL A   1      45.255  24.245  36.448  1.00  0.00    -0.200 F 
ATOM     90  F   UNL A   1      47.677  25.487  36.605  1.00  0.00    -0.200 F 
ENDBRANCH  57  80
ENDBRANCH  31  32
ENDBRANCH  24  26
ENDBRANCH  23  24
ENDBRANCH  22  23
ENDBRANCH  21  22
ENDBRANCH  20  21
ENDBRANCH  19  20
ENDBRANCH   1  19
TORSDOF 21
ENDMDL
MODEL 2
REMARK VINA RESULT:      -9.9      0.963      2.014
REMARK SMILES CN(CC(C)(C)O)S(=O)(=O)CCCC(=O)OCCOCCOC(=O)c1ccc(-c2c3nc(c(-c4c(F)c(F)c(F)c(F)c4F)c4ccc([nH]4)c(-c4c(F)c(F)c(F)c(F)c4F)c4nc(c(-c5c(F)c(F)c(F)c(F)c5F)c5ccc2[nH]5)C=C4)C=C3)cc1
REMARK SMILES IDX 17 1 16 2 14 3 15 4 13 5 12 6 11 7 8 8 9 9 10 10 2 11 1 12
REMARK SMILES IDX 3 13 4 14 5 15 6 16 7 17 18 19 19 20 20 21 21 22 22 23 23 24
REMARK SMILES IDX 24 25 25 26 26 27 87 28 27 29 86 30 28 31 29 32 30 33 80 34
REMARK SMILES IDX 31 35 85 36 79 37 81 38 32 39 84 40 78 41 77 42 33 44 65 45
REMARK SMILES IDX 45 46 64 47 46 48 49 49 63 50 82 51 47 52 48 53 62 55 83 56
REMARK SMILES IDX 50 57 34 58 35 59 43 60 36 61 37 62 41 63 44 64 38 65 39 66
REMARK SMILES IDX 42 67 40 68 66 69 67 70 75 71 68 72 69 73 73 74 76 75 70 76
REMARK SMILES IDX 71 77 74 78 72 79 51 80 52 81 60 82 53 83 54 84 58 85 61 86
REMARK SMILES IDX 55 87 56 88 59 89 57 90
REMARK H PARENT 7 18 81 43 49 54
REMARK Flexibility Score: inf
ROOT
ATOM      1  C   UNL A   1      33.726  28.153  22.220  1.00  0.00     0.261 C 
ENDROOT
BRANCH   1   2
ATOM      2  O   UNL A   1      34.240  26.809  22.259  1.00  0.00    -0.463 OA
BRANCH   2   3
ATOM      3  C   UNL A   1      33.358  25.832  21.917  1.00  0.00     0.305 C 
ATOM      4  O   UNL A   1      33.155  25.452  20.770  1.00  0.00    -0.252 OA
BRANCH   3   5
ATOM      5  C   UNL A   1      32.633  25.229  23.100  1.00  0.00     0.124 C 
BRANCH   5   6
ATOM      6  C   UNL A   1      33.400  24.961  24.394  1.00  0.00     0.029 C 
BRANCH   6   7
ATOM      7  C   UNL A   1      34.740  24.241  24.303  1.00  0.00     0.155 C 
BRANCH   7   8
ATOM      8  S   UNL A   1      35.255  23.361  25.773  1.00  0.00     0.213 S 
ATOM      9  O   UNL A   1      34.348  23.718  26.836  1.00  0.00    -0.212 OA
ATOM     10  O   UNL A   1      36.680  23.583  25.939  1.00  0.00    -0.212 OA
BRANCH   8  11
ATOM     11  N   UNL A   1      35.030  21.737  25.405  1.00  0.00    -0.202 NA
ATOM     12  C   UNL A   1      36.257  20.963  25.120  1.00  0.00     0.124 C 
BRANCH  11  13
ATOM     13  C   UNL A   1      33.910  20.924  25.946  1.00  0.00     0.136 C 
BRANCH  13  14
ATOM     14  C   UNL A   1      32.552  20.886  25.210  1.00  0.00     0.073 C 
ATOM     15  C   UNL A   1      31.590  21.992  25.639  1.00  0.00     0.043 C 
ATOM     16  C   UNL A   1      32.843  21.059  23.708  1.00  0.00     0.043 C 
BRANCH  14  17
ATOM     17  O   UNL A   1      31.938  19.606  25.360  1.00  0.00    -0.389 OA
ATOM     18  H   UNL A   1      32.602  18.911  25.231  1.00  0.00     0.211 HD
ENDBRANCH  14  17
ENDBRANCH  13  14
ENDBRANCH  11  13
ENDBRANCH   8  11
ENDBRANCH   7   8
ENDBRANCH   6   7
ENDBRANCH   5   6
ENDBRANCH   3   5
ENDBRANCH   2   3
ENDBRANCH   1   2
BRANCH   1  19
ATOM     19  C   UNL A   1      32.568  28.374  23.197  1.00  0.00     0.202 C 
BRANCH  19  20
ATOM     20  O   UNL A   1      32.618  29.530  24.023  1.00  0.00    -0.374 OA
BRANCH  20  21
ATOM     21  C   UNL A   1      32.188  29.415  25.376  1.00  0.00     0.202 C 
BRANCH  21  22
ATOM     22  C   UNL A   1      31.931  30.706  26.171  1.00  0.00     0.261 C 
BRANCH  22  23
ATOM     23  O   UNL A   1      32.615  30.791  27.439  1.00  0.00    -0.460 OA
BRANCH  23  24
ATOM     24  C   UNL A   1      33.478  31.836  27.528  1.00  0.00     0.338 C 
ATOM     25  O   UNL A   1      33.199  33.025  27.523  1.00  0.00    -0.246 OA
BRANCH  24  26
ATOM     26  C   UNL A   1      34.864  31.393  27.765  1.00  0.00     0.060 A 
ATOM     27  C   UNL A   1      35.072  30.033  28.018  1.00  0.00     0.016 A 
ATOM     28  C   UNL A   1      35.891  32.316  27.971  1.00  0.00     0.016 A 
ATOM     29  C   UNL A   1      36.289  29.600  28.544  1.00  0.00     0.010 A 
ATOM     30  C   UNL A   1      37.116  31.876  28.493  1.00  0.00     0.010 A 
ATOM     31  C   UNL A   1      37.307  30.523  28.829  1.00  0.00    -0.014 A 
BRANCH  31  32
ATOM     32  C   UNL A   1      38.507  30.069  29.583  1.00  0.00     0.031 A 
ATOM     33  C   UNL A   1      38.751  30.567  30.985  1.00  0.00     0.074 A 
ATOM     34  C   UNL A   1      39.338  29.156  29.047  1.00  0.00     0.049 A 
ATOM     35  N   UNL A   1      39.719  30.269  31.817  1.00  0.00    -0.248 NA
ATOM     36  C   UNL A   1      37.775  31.527  31.523  1.00  0.00     0.031 C 
ATOM     37  C   UNL A   1      39.197  28.570  27.716  1.00  0.00     0.029 A 
ATOM     38  N   UNL A   1      40.465  28.561  29.559  1.00  0.00    -0.354 N 
ATOM     39  C   UNL A   1      39.464  30.994  32.975  1.00  0.00     0.074 A 
ATOM     40  C   UNL A   1      38.279  31.784  32.722  1.00  0.00     0.031 C 
ATOM     41  C   UNL A   1      40.201  27.702  27.513  1.00  0.00     0.029 A 
ATOM     42  C   UNL A   1      41.072  27.692  28.686  1.00  0.00     0.049 A 
ATOM     43  H   UNL A   1      40.804  28.740  30.466  1.00  0.00     0.167 HD
ATOM     44  C   UNL A   1      40.143  30.988  34.149  1.00  0.00     0.037 A 
ATOM     45  C   UNL A   1      42.211  26.983  28.812  1.00  0.00     0.037 A 
ATOM     46  C   UNL A   1      41.329  30.208  34.402  1.00  0.00     0.049 A 
ATOM     47  C   UNL A   1      42.986  27.049  30.102  1.00  0.00     0.074 A 
ATOM     48  C   UNL A   1      42.088  30.138  35.558  1.00  0.00     0.029 A 
ATOM     49  N   UNL A   1      41.932  29.363  33.481  1.00  0.00    -0.354 N 
ATOM     50  N   UNL A   1      42.720  27.717  31.198  1.00  0.00    -0.248 NA
ATOM     51  C   UNL A   1      44.216  26.245  30.177  1.00  0.00     0.031 C 
ATOM     52  C   UNL A   1      43.177  29.292  35.321  1.00  0.00     0.029 A 
ATOM     53  C   UNL A   1      43.063  28.785  34.036  1.00  0.00     0.049 A 
ATOM     54  H   UNL A   1      41.605  29.200  32.567  1.00  0.00     0.167 HD
ATOM     55  C   UNL A   1      43.729  27.395  32.097  1.00  0.00     0.074 A 
ATOM     56  C   UNL A   1      44.598  26.451  31.428  1.00  0.00     0.031 C 
ATOM     57  C   UNL A   1      43.920  27.842  33.364  1.00  0.00     0.037 A 
BRANCH  44  58
ATOM     58  C   UNL A   1      39.627  31.862  35.258  1.00  0.00     0.064 A 
ATOM     59  C   UNL A   1      40.009  33.208  35.370  1.00  0.00     0.173 A 
ATOM     60  C   UNL A   1      38.698  31.367  36.186  1.00  0.00     0.173 A 
ATOM     61  F   UNL A   1      40.901  33.730  34.514  1.00  0.00    -0.203 F 
ATOM     62  C   UNL A   1      39.499  34.017  36.384  1.00  0.00     0.198 A 
ATOM     63  C   UNL A   1      38.166  32.188  37.179  1.00  0.00     0.198 A 
ATOM     64  F   UNL A   1      38.290  30.091  36.121  1.00  0.00    -0.203 F 
ATOM     65  F   UNL A   1      39.913  35.287  36.496  1.00  0.00    -0.200 F 
ATOM     66  C   UNL A   1      38.573  33.509  37.282  1.00  0.00     0.200 A 
ATOM     67  F   UNL A   1      37.259  31.699  38.035  1.00  0.00    -0.200 F 
ATOM     68  F   UNL A   1      38.075  34.291  38.248  1.00  0.00    -0.200 F 
ENDBRANCH  44  58
BRANCH  45  69
ATOM     69  C   UNL A   1      42.701  26.157  27.675  1.00  0.00     0.064 A 
ATOM     70  C   UNL A   1      43.637  26.657  26.760  1.00  0.00     0.173 A 
ATOM     71  C   UNL A   1      42.210  24.859  27.462  1.00  0.00     0.173 A 
ATOM     72  F   UNL A   1      44.120  27.899  26.907  1.00  0.00    -0.203 F 
ATOM     73  C   UNL A   1      44.040  25.904  25.658  1.00  0.00     0.198 A 
ATOM     74  C   UNL A   1      42.641  24.094  26.381  1.00  0.00     0.198 A 
ATOM     75  F   UNL A   1      41.317  24.331  28.311  1.00  0.00    -0.203 F 
ATOM     76  F   UNL A   1      44.890  26.429  24.766  1.00  0.00    -0.200 F 
ATOM     77  C   UNL A   1      43.545  24.621  25.473  1.00  0.00     0.200 A 
ATOM     78  F   UNL A   1      42.175  22.849  26.218  1.00  0.00    -0.200 F 
ATOM     79  F   UNL A   1      43.934  23.898  24.414  1.00  0.00    -0.200 F 
ENDBRANCH  45  69
BRANCH  57  80
ATOM     80  C   UNL A   1      45.093  27.283  34.122  1.00  0.00     0.064 A 
ATOM     81  C   UNL A   1      44.991  26.110  34.886  1.00  0.00     0.173 A 
ATOM     82  C   UNL A   1      46.342  27.923  34.072  1.00  0.00     0.173 A 
ATOM     83  F   UNL A   1      43.818  25.466  34.979  1.00  0.00    -0.203 F 
ATOM     84  C   UNL A   1      46.081  25.625  35.606  1.00  0.00     0.198 A 
ATOM     85  C   UNL A   1      47.439  27.415  34.764  1.00  0.00     0.198 A 
ATOM     86  F   UNL A   1      46.500  29.042  33.350  1.00  0.00    -0.203 F 
ATOM     87  F   UNL A   1      45.939  24.541  36.382  1.00  0.00    -0.200 F 
ATOM     88  C   UNL A   1      47.304  26.274  35.540  1.00  0.00     0.200 A 
ATOM     89  F   UNL A   1      48.624  28.035  34.685  1.00  0.00    -0.200 F 
ATOM     90  F   UNL A   1      48.351  25.806  36.233  1.00  0.00    -0.200 F 
ENDBRANCH  57  80
ENDBRANCH  31  32
ENDBRANCH  24  26
ENDBRANCH  23  24
ENDBRANCH  22  23
ENDBRANCH  21  22
ENDBRANCH  20  21
ENDBRANCH  19  20
ENDBRANCH   1  19
TORSDOF 21
ENDMDL
MODEL 3
REMARK VINA RESULT:      -9.8      4.391     10.385
REMARK SMILES CN(CC(C)(C)O)S(=O)(=O)CCCC(=O)OCCOCCOC(=O)c1ccc(-c2c3nc(c(-c4c(F)c(F)c(F)c(F)c4F)c4ccc([nH]4)c(-c4c(F)c(F)c(F)c(F)c4F)c4nc(c(-c5c(F)c(F)c(F)c(F)c5F)c5ccc2[nH]5)C=C4)C=C3)cc1
REMARK SMILES IDX 17 1 16 2 14 3 15 4 13 5 12 6 11 7 8 8 9 9 10 10 2 11 1 12
REMARK SMILES IDX 3 13 4 14 5 15 6 16 7 17 18 19 19 20 20 21 21 22 22 23 23 24
REMARK SMILES IDX 24 25 25 26 26 27 87 28 27 29 86 30 28 31 29 32 30 33 80 34
REMARK SMILES IDX 31 35 85 36 79 37 81 38 32 39 84 40 78 41 77 42 33 44 65 45
REMARK SMILES IDX 45 46 64 47 46 48 49 49 63 50 82 51 47 52 48 53 62 55 83 56
REMARK SMILES IDX 50 57 34 58 35 59 43 60 36 61 37 62 41 63 44 64 38 65 39 66
REMARK SMILES IDX 42 67 40 68 66 69 67 70 75 71 68 72 69 73 73 74 76 75 70 76
REMARK SMILES IDX 71 77 74 78 72 79 51 80 52 81 60 82 53 83 54 84 58 85 61 86
REMARK SMILES IDX 55 87 56 88 59 89 57 90
REMARK H PARENT 7 18 81 43 49 54
REMARK Flexibility Score: inf
ROOT
ATOM      1  C   UNL A   1      34.993  22.435  24.719  1.00  0.00     0.261 C 
ENDROOT
BRANCH   1   2
ATOM      2  O   UNL A   1      33.755  22.756  25.379  1.00  0.00    -0.463 OA
BRANCH   2   3
ATOM      3  C   UNL A   1      32.624  22.441  24.693  1.00  0.00     0.305 C 
ATOM      4  O   UNL A   1      32.504  21.461  23.967  1.00  0.00    -0.252 OA
BRANCH   3   5
ATOM      5  C   UNL A   1      31.491  23.420  24.909  1.00  0.00     0.124 C 
BRANCH   5   6
ATOM      6  C   UNL A   1      31.150  24.428  23.811  1.00  0.00     0.029 C 
BRANCH   6   7
ATOM      7  C   UNL A   1      32.287  24.982  22.961  1.00  0.00     0.155 C 
BRANCH   7   8
ATOM      8  S   UNL A   1      33.140  26.406  23.629  1.00  0.00     0.213 S 
ATOM      9  O   UNL A   1      33.666  27.159  22.517  1.00  0.00    -0.212 OA
ATOM     10  O   UNL A   1      34.038  25.931  24.665  1.00  0.00    -0.212 OA
BRANCH   8  11
ATOM     11  N   UNL A   1      31.940  27.319  24.370  1.00  0.00    -0.202 NA
ATOM     12  C   UNL A   1      31.959  27.332  25.848  1.00  0.00     0.124 C 
BRANCH  11  13
ATOM     13  C   UNL A   1      31.343  28.535  23.758  1.00  0.00     0.136 C 
BRANCH  13  14
ATOM     14  C   UNL A   1      30.221  28.403  22.705  1.00  0.00     0.073 C 
ATOM     15  C   UNL A   1      28.941  27.768  23.247  1.00  0.00     0.043 C 
ATOM     16  C   UNL A   1      29.881  29.825  22.220  1.00  0.00     0.043 C 
BRANCH  14  17
ATOM     17  O   UNL A   1      30.687  27.684  21.563  1.00  0.00    -0.389 OA
ATOM     18  H   UNL A   1      31.360  28.210  21.103  1.00  0.00     0.211 HD
ENDBRANCH  14  17
ENDBRANCH  13  14
ENDBRANCH  11  13
ENDBRANCH   8  11
ENDBRANCH   7   8
ENDBRANCH   6   7
ENDBRANCH   5   6
ENDBRANCH   3   5
ENDBRANCH   2   3
ENDBRANCH   1   2
BRANCH   1  19
ATOM     19  C   UNL A   1      35.609  21.125  25.218  1.00  0.00     0.202 C 
BRANCH  19  20
ATOM     20  O   UNL A   1      37.026  21.009  25.176  1.00  0.00    -0.374 OA
BRANCH  20  21
ATOM     21  C   UNL A   1      37.592  19.733  24.895  1.00  0.00     0.202 C 
BRANCH  21  22
ATOM     22  C   UNL A   1      39.060  19.487  25.281  1.00  0.00     0.261 C 
BRANCH  22  23
ATOM     23  O   UNL A   1      39.451  20.013  26.567  1.00  0.00    -0.460 OA
BRANCH  23  24
ATOM     24  C   UNL A   1      40.742  20.433  26.619  1.00  0.00     0.338 C 
ATOM     25  O   UNL A   1      41.721  19.867  26.159  1.00  0.00    -0.246 OA
BRANCH  24  26
ATOM     26  C   UNL A   1      40.864  21.777  27.211  1.00  0.00     0.060 A 
ATOM     27  C   UNL A   1      40.290  22.845  26.512  1.00  0.00     0.016 A 
ATOM     28  C   UNL A   1      41.719  22.015  28.289  1.00  0.00     0.016 A 
ATOM     29  C   UNL A   1      40.624  24.157  26.847  1.00  0.00     0.010 A 
ATOM     30  C   UNL A   1      42.046  23.337  28.628  1.00  0.00     0.010 A 
ATOM     31  C   UNL A   1      41.539  24.415  27.878  1.00  0.00    -0.014 A 
BRANCH  31  32
ATOM     32  C   UNL A   1      42.040  25.803  28.074  1.00  0.00     0.031 A 
ATOM     33  C   UNL A   1      43.382  26.207  27.518  1.00  0.00     0.074 A 
ATOM     34  C   UNL A   1      41.267  26.722  28.682  1.00  0.00     0.049 A 
ATOM     35  N   UNL A   1      43.980  27.373  27.556  1.00  0.00    -0.248 NA
ATOM     36  C   UNL A   1      44.151  25.163  26.825  1.00  0.00     0.031 C 
ATOM     37  C   UNL A   1      39.938  26.469  29.235  1.00  0.00     0.029 A 
ATOM     38  N   UNL A   1      41.488  28.053  28.933  1.00  0.00    -0.354 N 
ATOM     39  C   UNL A   1      45.187  27.204  26.887  1.00  0.00     0.074 A 
ATOM     40  C   UNL A   1      45.258  25.813  26.495  1.00  0.00     0.031 C 
ATOM     41  C   UNL A   1      39.462  27.608  29.765  1.00  0.00     0.029 A 
ATOM     42  C   UNL A   1      40.464  28.662  29.616  1.00  0.00     0.049 A 
ATOM     43  H   UNL A   1      42.304  28.527  28.651  1.00  0.00     0.167 HD
ATOM     44  C   UNL A   1      46.140  28.128  26.606  1.00  0.00     0.037 A 
ATOM     45  C   UNL A   1      40.353  29.921  30.083  1.00  0.00     0.037 A 
ATOM     46  C   UNL A   1      46.076  29.512  27.001  1.00  0.00     0.049 A 
ATOM     47  C   UNL A   1      41.459  30.909  29.819  1.00  0.00     0.074 A 
ATOM     48  C   UNL A   1      46.994  30.522  26.765  1.00  0.00     0.029 A 
ATOM     49  N   UNL A   1      45.036  30.084  27.719  1.00  0.00    -0.354 N 
ATOM     50  N   UNL A   1      42.582  30.744  29.163  1.00  0.00    -0.248 NA
ATOM     51  C   UNL A   1      41.273  32.268  30.350  1.00  0.00     0.031 C 
ATOM     52  C   UNL A   1      46.535  31.690  27.383  1.00  0.00     0.029 A 
ATOM     53  C   UNL A   1      45.299  31.425  27.952  1.00  0.00     0.049 A 
ATOM     54  H   UNL A   1      44.229  29.606  28.020  1.00  0.00     0.167 HD
ATOM     55  C   UNL A   1      43.219  31.978  29.178  1.00  0.00     0.074 A 
ATOM     56  C   UNL A   1      42.346  32.889  29.886  1.00  0.00     0.031 C 
ATOM     57  C   UNL A   1      44.421  32.326  28.654  1.00  0.00     0.037 A 
BRANCH  44  58
ATOM     58  C   UNL A   1      47.349  27.670  25.837  1.00  0.00     0.064 A 
ATOM     59  C   UNL A   1      47.363  27.650  24.434  1.00  0.00     0.173 A 
ATOM     60  C   UNL A   1      48.526  27.302  26.508  1.00  0.00     0.173 A 
ATOM     61  F   UNL A   1      46.263  27.985  23.743  1.00  0.00    -0.203 F 
ATOM     62  C   UNL A   1      48.501  27.255  23.733  1.00  0.00     0.198 A 
ATOM     63  C   UNL A   1      49.671  26.936  25.803  1.00  0.00     0.198 A 
ATOM     64  F   UNL A   1      48.572  27.311  27.849  1.00  0.00    -0.203 F 
ATOM     65  F   UNL A   1      48.475  27.201  22.394  1.00  0.00    -0.200 F 
ATOM     66  C   UNL A   1      49.655  26.906  24.417  1.00  0.00     0.200 A 
ATOM     67  F   UNL A   1      50.790  26.617  26.466  1.00  0.00    -0.200 F 
ATOM     68  F   UNL A   1      50.751  26.537  23.742  1.00  0.00    -0.200 F 
ENDBRANCH  44  58
BRANCH  45  69
ATOM     69  C   UNL A   1      39.153  30.319  30.867  1.00  0.00     0.064 A 
ATOM     70  C   UNL A   1      38.045  30.919  30.253  1.00  0.00     0.173 A 
ATOM     71  C   UNL A   1      39.108  30.138  32.259  1.00  0.00     0.173 A 
ATOM     72  F   UNL A   1      38.048  31.133  28.930  1.00  0.00    -0.203 F 
ATOM     73  C   UNL A   1      36.953  31.353  31.004  1.00  0.00     0.198 A 
ATOM     74  C   UNL A   1      38.000  30.539  33.003  1.00  0.00     0.198 A 
ATOM     75  F   UNL A   1      40.138  29.563  32.895  1.00  0.00    -0.203 F 
ATOM     76  F   UNL A   1      35.935  31.978  30.399  1.00  0.00    -0.200 F 
ATOM     77  C   UNL A   1      36.930  31.157  32.377  1.00  0.00     0.200 A 
ATOM     78  F   UNL A   1      37.975  30.330  34.325  1.00  0.00    -0.200 F 
ATOM     79  F   UNL A   1      35.879  31.573  33.097  1.00  0.00    -0.200 F 
ENDBRANCH  45  69
BRANCH  57  80
ATOM     80  C   UNL A   1      44.843  33.763  28.793  1.00  0.00     0.064 A 
ATOM     81  C   UNL A   1      45.621  34.206  29.874  1.00  0.00     0.173 A 
ATOM     82  C   UNL A   1      44.474  34.710  27.823  1.00  0.00     0.173 A 
ATOM     83  F   UNL A   1      45.991  33.347  30.836  1.00  0.00    -0.203 F 
ATOM     84  C   UNL A   1      45.976  35.548  30.001  1.00  0.00     0.198 A 
ATOM     85  C   UNL A   1      44.860  36.042  27.935  1.00  0.00     0.198 A 
ATOM     86  F   UNL A   1      43.738  34.340  26.764  1.00  0.00    -0.203 F 
ATOM     87  F   UNL A   1      46.662  35.958  31.078  1.00  0.00    -0.200 F 
ATOM     88  C   UNL A   1      45.600  36.463  29.030  1.00  0.00     0.200 A 
ATOM     89  F   UNL A   1      44.510  36.922  26.987  1.00  0.00    -0.200 F 
ATOM     90  F   UNL A   1      45.942  37.752  29.154  1.00  0.00    -0.200 F 
ENDBRANCH  57  80
ENDBRANCH  31  32
ENDBRANCH  24  26
ENDBRANCH  23  24
ENDBRANCH  22  23
ENDBRANCH  21  22
ENDBRANCH  20  21
ENDBRANCH  19  20
ENDBRANCH   1  19
TORSDOF 21
ENDMDL
