MODEL 1
REMARK VINA RESULT:     -11.5      0.000      0.000
REMARK SMILES COc1c(N)cc(-c2ccccc2)cc1C(=O)OCCOCCOC(=O)c1ccc(-c2c3nc(c(-c4c(F)c(F)c(F)c(F)c4F)c4ccc([nH]4)c(-c4c(F)c(F)c(F)c(F)c4F)c4nc(c(-c5c(F)c(F)c(F)c(F)c5F)c5ccc2[nH]5)C=C4)C=C3)cc1
REMARK SMILES IDX 22 1 21 2 20 3 19 4 18 5 16 6 17 7 15 8 3 9 4 10 6 11 14 12
REMARK SMILES IDX 7 13 2 14 1 15 5 16 8 19 9 20 13 21 10 22 12 23 11 24 23 25
REMARK SMILES IDX 24 26 25 27 26 28 27 29 28 30 89 31 29 32 88 33 30 34 31 35
REMARK SMILES IDX 32 36 82 37 33 38 87 39 81 40 83 41 34 42 86 43 80 44 79 45
REMARK SMILES IDX 35 47 67 48 47 49 66 50 48 51 51 52 65 53 84 54 49 55 50 56
REMARK SMILES IDX 64 58 85 59 52 60 36 61 37 62 45 63 38 64 39 65 43 66 46 67
REMARK SMILES IDX 40 68 41 69 44 70 42 71 68 72 69 73 77 74 70 75 71 76 75 77
REMARK SMILES IDX 78 78 72 79 73 80 76 81 74 82 53 83 54 84 62 85 55 86 56 87
REMARK SMILES IDX 60 88 63 89 57 90 58 91 61 92 59 93
REMARK H PARENT 5 17 5 18 83 46 51 57
REMARK Flexibility Score: inf
ROOT
ATOM      1  C   UNL A   1      31.404  31.891  26.537  1.00  0.00     0.202 C 
ENDROOT
BRANCH   1   2
ATOM      2  O   UNL A   1      32.316  30.814  26.318  1.00  0.00    -0.374 OA
BRANCH   2   3
ATOM      3  C   UNL A   1      32.198  29.673  27.167  1.00  0.00     0.202 C 
BRANCH   3   4
ATOM      4  C   UNL A   1      33.017  28.447  26.756  1.00  0.00     0.261 C 
BRANCH   4   5
ATOM      5  O   UNL A   1      32.194  27.498  26.056  1.00  0.00    -0.460 OA
BRANCH   5   6
ATOM      6  C   UNL A   1      32.208  27.614  24.706  1.00  0.00     0.342 C 
ATOM      7  O   UNL A   1      33.175  27.464  23.974  1.00  0.00    -0.246 OA
BRANCH   6   8
ATOM      8  C   UNL A   1      30.839  27.746  24.170  1.00  0.00     0.104 A 
ATOM      9  C   UNL A   1      29.875  26.732  24.228  1.00  0.00     0.156 A 
ATOM     10  C   UNL A   1      28.547  27.014  23.855  1.00  0.00     0.076 A 
ATOM     11  C   UNL A   1      28.256  28.250  23.260  1.00  0.00     0.038 A 
ATOM     12  C   UNL A   1      30.513  28.997  23.619  1.00  0.00     0.028 A 
ATOM     13  C   UNL A   1      29.225  29.257  23.141  1.00  0.00    -0.015 A 
BRANCH   9  14
ATOM     14  O   UNL A   1      30.205  25.502  24.747  1.00  0.00    -0.494 OA
ATOM     15  C   UNL A   1      30.587  24.591  23.711  1.00  0.00     0.278 C 
ENDBRANCH   9  14
BRANCH  10  16
ATOM     16  N   UNL A   1      27.534  26.061  23.964  1.00  0.00    -0.396 N 
ATOM     17  H   UNL A   1      27.133  25.867  24.842  1.00  0.00     0.156 HD
ATOM     18  H   UNL A   1      27.220  25.583  23.162  1.00  0.00     0.156 HD
ENDBRANCH  10  16
BRANCH  13  19
ATOM     19  C   UNL A   1      28.871  30.569  22.591  1.00  0.00    -0.018 A 
ATOM     20  C   UNL A   1      29.053  31.728  23.361  1.00  0.00     0.009 A 
ATOM     21  C   UNL A   1      28.337  30.701  21.300  1.00  0.00     0.009 A 
ATOM     22  C   UNL A   1      28.702  32.984  22.862  1.00  0.00     0.001 A 
ATOM     23  C   UNL A   1      27.982  31.957  20.801  1.00  0.00     0.001 A 
ATOM     24  C   UNL A   1      28.164  33.097  21.582  1.00  0.00     0.000 A 
ENDBRANCH  13  19
ENDBRANCH   6   8
ENDBRANCH   5   6
ENDBRANCH   4   5
ENDBRANCH   3   4
ENDBRANCH   2   3
ENDBRANCH   1   2
BRANCH   1  25
ATOM     25  C   UNL A   1      32.033  33.259  26.820  1.00  0.00     0.261 C 
BRANCH  25  26
ATOM     26  O   UNL A   1      32.862  33.246  27.997  1.00  0.00    -0.460 OA
BRANCH  26  27
ATOM     27  C   UNL A   1      34.004  33.964  27.900  1.00  0.00     0.338 C 
ATOM     28  O   UNL A   1      34.116  35.154  27.630  1.00  0.00    -0.246 OA
BRANCH  27  29
ATOM     29  C   UNL A   1      35.150  33.147  28.335  1.00  0.00     0.060 A 
ATOM     30  C   UNL A   1      34.887  31.856  28.812  1.00  0.00     0.016 A 
ATOM     31  C   UNL A   1      36.450  33.657  28.344  1.00  0.00     0.016 A 
ATOM     32  C   UNL A   1      35.919  31.081  29.337  1.00  0.00     0.010 A 
ATOM     33  C   UNL A   1      37.483  32.882  28.881  1.00  0.00     0.010 A 
ATOM     34  C   UNL A   1      37.217  31.604  29.407  1.00  0.00    -0.014 A 
BRANCH  34  35
ATOM     35  C   UNL A   1      38.271  30.867  30.145  1.00  0.00     0.031 A 
ATOM     36  C   UNL A   1      38.498  31.175  31.598  1.00  0.00     0.074 A 
ATOM     37  C   UNL A   1      39.015  29.933  29.529  1.00  0.00     0.049 A 
ATOM     38  N   UNL A   1      39.402  30.701  32.419  1.00  0.00    -0.248 NA
ATOM     39  C   UNL A   1      37.587  32.157  32.208  1.00  0.00     0.031 C 
ATOM     40  C   UNL A   1      38.870  29.525  28.133  1.00  0.00     0.029 A 
ATOM     41  N   UNL A   1      40.054  29.169  29.998  1.00  0.00    -0.354 N 
ATOM     42  C   UNL A   1      39.175  31.333  33.634  1.00  0.00     0.074 A 
ATOM     43  C   UNL A   1      38.067  32.243  33.439  1.00  0.00     0.031 C 
ATOM     44  C   UNL A   1      39.802  28.599  27.852  1.00  0.00     0.029 A 
ATOM     45  C   UNL A   1      40.625  28.371  29.038  1.00  0.00     0.049 A 
ATOM     46  H   UNL A   1      40.360  29.191  30.933  1.00  0.00     0.167 HD
ATOM     47  C   UNL A   1      39.832  31.165  34.807  1.00  0.00     0.037 A 
ATOM     48  C   UNL A   1      41.706  27.571  29.105  1.00  0.00     0.037 A 
ATOM     49  C   UNL A   1      40.930  30.254  34.999  1.00  0.00     0.049 A 
ATOM     50  C   UNL A   1      42.450  27.437  30.408  1.00  0.00     0.074 A 
ATOM     51  C   UNL A   1      41.635  29.984  36.159  1.00  0.00     0.029 A 
ATOM     52  N   UNL A   1      41.487  29.469  34.000  1.00  0.00    -0.354 N 
ATOM     53  N   UNL A   1      42.209  28.009  31.561  1.00  0.00    -0.248 NA
ATOM     54  C   UNL A   1      43.614  26.539  30.417  1.00  0.00     0.031 C 
ATOM     55  C   UNL A   1      42.651  29.074  35.850  1.00  0.00     0.029 A 
ATOM     56  C   UNL A   1      42.547  28.737  34.510  1.00  0.00     0.049 A 
ATOM     57  H   UNL A   1      41.176  29.438  33.067  1.00  0.00     0.167 HD
ATOM     58  C   UNL A   1      43.171  27.525  32.439  1.00  0.00     0.074 A 
ATOM     59  C   UNL A   1      43.994  26.602  31.686  1.00  0.00     0.031 C 
ATOM     60  C   UNL A   1      43.355  27.817  33.750  1.00  0.00     0.037 A 
BRANCH  47  61
ATOM     61  C   UNL A   1      39.398  32.008  35.970  1.00  0.00     0.064 A 
ATOM     62  C   UNL A   1      38.397  31.585  36.858  1.00  0.00     0.173 A 
ATOM     63  C   UNL A   1      40.015  33.243  36.217  1.00  0.00     0.173 A 
ATOM     64  F   UNL A   1      37.767  30.417  36.657  1.00  0.00    -0.203 F 
ATOM     65  C   UNL A   1      38.012  32.380  37.934  1.00  0.00     0.198 A 
ATOM     66  C   UNL A   1      39.647  34.023  37.310  1.00  0.00     0.198 A 
ATOM     67  F   UNL A   1      40.981  33.692  35.401  1.00  0.00    -0.203 F 
ATOM     68  F   UNL A   1      37.023  31.977  38.742  1.00  0.00    -0.200 F 
ATOM     69  C   UNL A   1      38.642  33.595  38.163  1.00  0.00     0.200 A 
ATOM     70  F   UNL A   1      40.265  35.190  37.536  1.00  0.00    -0.200 F 
ATOM     71  F   UNL A   1      38.274  34.356  39.203  1.00  0.00    -0.200 F 
ENDBRANCH  47  61
BRANCH  48  72
ATOM     72  C   UNL A   1      42.159  26.843  27.891  1.00  0.00     0.064 A 
ATOM     73  C   UNL A   1      43.046  27.432  26.980  1.00  0.00     0.173 A 
ATOM     74  C   UNL A   1      41.706  25.544  27.615  1.00  0.00     0.173 A 
ATOM     75  F   UNL A   1      43.485  28.682  27.188  1.00  0.00    -0.203 F 
ATOM     76  C   UNL A   1      43.453  26.754  25.833  1.00  0.00     0.198 A 
ATOM     77  C   UNL A   1      42.134  24.858  26.481  1.00  0.00     0.198 A 
ATOM     78  F   UNL A   1      40.854  24.938  28.455  1.00  0.00    -0.203 F 
ATOM     79  F   UNL A   1      44.268  27.356  24.956  1.00  0.00    -0.200 F 
ATOM     80  C   UNL A   1      43.002  25.465  25.587  1.00  0.00     0.200 A 
ATOM     81  F   UNL A   1      41.703  23.609  26.254  1.00  0.00    -0.200 F 
ATOM     82  F   UNL A   1      43.397  24.814  24.486  1.00  0.00    -0.200 F 
ENDBRANCH  48  72
BRANCH  60  83
ATOM     83  C   UNL A   1      44.467  27.109  34.467  1.00  0.00     0.064 A 
ATOM     84  C   UNL A   1      44.278  25.853  35.061  1.00  0.00     0.173 A 
ATOM     85  C   UNL A   1      45.750  27.676  34.522  1.00  0.00     0.173 A 
ATOM     86  F   UNL A   1      43.068  25.275  35.049  1.00  0.00    -0.203 F 
ATOM     87  C   UNL A   1      45.329  25.199  35.700  1.00  0.00     0.198 A 
ATOM     88  C   UNL A   1      46.804  27.006  35.136  1.00  0.00     0.198 A 
ATOM     89  F   UNL A   1      45.983  28.873  33.964  1.00  0.00    -0.203 F 
ATOM     90  F   UNL A   1      45.117  24.017  36.296  1.00  0.00    -0.200 F 
ATOM     91  C   UNL A   1      46.592  25.772  35.730  1.00  0.00     0.200 A 
ATOM     92  F   UNL A   1      48.027  27.556  35.153  1.00  0.00    -0.200 F 
ATOM     93  F   UNL A   1      47.603  25.137  36.337  1.00  0.00    -0.200 F 
ENDBRANCH  60  83
ENDBRANCH  34  35
ENDBRANCH  27  29
ENDBRANCH  26  27
ENDBRANCH  25  26
ENDBRANCH   1  25
TORSDOF 17
ENDMDL
MODEL 2
REMARK VINA RESULT:     -11.4      0.227      1.688
REMARK SMILES COc1c(N)cc(-c2ccccc2)cc1C(=O)OCCOCCOC(=O)c1ccc(-c2c3nc(c(-c4c(F)c(F)c(F)c(F)c4F)c4ccc([nH]4)c(-c4c(F)c(F)c(F)c(F)c4F)c4nc(c(-c5c(F)c(F)c(F)c(F)c5F)c5ccc2[nH]5)C=C4)C=C3)cc1
REMARK SMILES IDX 22 1 21 2 20 3 19 4 18 5 16 6 17 7 15 8 3 9 4 10 6 11 14 12
REMARK SMILES IDX 7 13 2 14 1 15 5 16 8 19 9 20 13 21 10 22 12 23 11 24 23 25
REMARK SMILES IDX 24 26 25 27 26 28 27 29 28 30 89 31 29 32 88 33 30 34 31 35
REMARK SMILES IDX 32 36 82 37 33 38 87 39 81 40 83 41 34 42 86 43 80 44 79 45
REMARK SMILES IDX 35 47 67 48 47 49 66 50 48 51 51 52 65 53 84 54 49 55 50 56
REMARK SMILES IDX 64 58 85 59 52 60 36 61 37 62 45 63 38 64 39 65 43 66 46 67
REMARK SMILES IDX 40 68 41 69 44 70 42 71 68 72 69 73 77 74 70 75 71 76 75 77
REMARK SMILES IDX 78 78 72 79 73 80 76 81 74 82 53 83 54 84 62 85 55 86 56 87
REMARK SMILES IDX 60 88 63 89 57 90 58 91 61 92 59 93
REMARK H PARENT 5 17 5 18 83 46 51 57
REMARK Flexibility Score: inf
ROOT
ATOM      1  C   UNL A   1      31.684  31.588  26.738  1.00  0.00     0.202 C 
ENDROOT
BRANCH   1   2
ATOM      2  O   UNL A   1      32.679  30.668  26.287  1.00  0.00    -0.374 OA
BRANCH   2   3
ATOM      3  C   UNL A   1      32.976  29.557  27.134  1.00  0.00     0.202 C 
BRANCH   3   4
ATOM      4  C   UNL A   1      33.423  28.278  26.425  1.00  0.00     0.261 C 
BRANCH   4   5
ATOM      5  O   UNL A   1      32.298  27.603  25.836  1.00  0.00    -0.460 OA
BRANCH   5   6
ATOM      6  C   UNL A   1      32.240  27.659  24.483  1.00  0.00     0.342 C 
ATOM      7  O   UNL A   1      33.165  27.468  23.708  1.00  0.00    -0.246 OA
BRANCH   6   8
ATOM      8  C   UNL A   1      30.845  27.780  24.015  1.00  0.00     0.104 A 
ATOM      9  C   UNL A   1      29.890  26.764  24.135  1.00  0.00     0.156 A 
ATOM     10  C   UNL A   1      28.543  27.036  23.826  1.00  0.00     0.076 A 
ATOM     11  C   UNL A   1      28.217  28.263  23.232  1.00  0.00     0.038 A 
ATOM     12  C   UNL A   1      30.486  29.023  23.467  1.00  0.00     0.028 A 
ATOM     13  C   UNL A   1      29.175  29.273  23.052  1.00  0.00    -0.015 A 
BRANCH   9  14
ATOM     14  O   UNL A   1      30.250  25.541  24.652  1.00  0.00    -0.494 OA
ATOM     15  C   UNL A   1      30.691  24.654  23.617  1.00  0.00     0.278 C 
ENDBRANCH   9  14
BRANCH  10  16
ATOM     16  N   UNL A   1      27.540  26.081  23.999  1.00  0.00    -0.396 N 
ATOM     17  H   UNL A   1      26.663  26.347  24.357  1.00  0.00     0.156 HD
ATOM     18  H   UNL A   1      27.711  25.140  23.761  1.00  0.00     0.156 HD
ENDBRANCH  10  16
BRANCH  13  19
ATOM     19  C   UNL A   1      28.787  30.576  22.505  1.00  0.00    -0.018 A 
ATOM     20  C   UNL A   1      28.330  30.677  21.181  1.00  0.00     0.009 A 
ATOM     21  C   UNL A   1      28.872  31.746  23.274  1.00  0.00     0.009 A 
ATOM     22  C   UNL A   1      27.976  31.912  20.636  1.00  0.00     0.001 A 
ATOM     23  C   UNL A   1      28.521  32.984  22.727  1.00  0.00     0.001 A 
ATOM     24  C   UNL A   1      28.075  33.066  21.409  1.00  0.00     0.000 A 
ENDBRANCH  13  19
ENDBRANCH   6   8
ENDBRANCH   5   6
ENDBRANCH   4   5
ENDBRANCH   3   4
ENDBRANCH   2   3
ENDBRANCH   1   2
BRANCH   1  25
ATOM     25  C   UNL A   1      32.110  33.059  26.807  1.00  0.00     0.261 C 
BRANCH  25  26
ATOM     26  O   UNL A   1      32.681  33.402  28.083  1.00  0.00    -0.460 OA
BRANCH  26  27
ATOM     27  C   UNL A   1      33.836  34.103  28.022  1.00  0.00     0.338 C 
ATOM     28  O   UNL A   1      33.973  35.299  27.796  1.00  0.00    -0.246 OA
BRANCH  27  29
ATOM     29  C   UNL A   1      34.964  33.250  28.436  1.00  0.00     0.060 A 
ATOM     30  C   UNL A   1      34.666  32.051  29.098  1.00  0.00     0.016 A 
ATOM     31  C   UNL A   1      36.289  33.645  28.245  1.00  0.00     0.016 A 
ATOM     32  C   UNL A   1      35.693  31.260  29.609  1.00  0.00     0.010 A 
ATOM     33  C   UNL A   1      37.319  32.855  28.767  1.00  0.00     0.010 A 
ATOM     34  C   UNL A   1      37.024  31.676  29.476  1.00  0.00    -0.014 A 
BRANCH  34  35
ATOM     35  C   UNL A   1      38.100  30.946  30.189  1.00  0.00     0.031 A 
ATOM     36  C   UNL A   1      38.367  31.263  31.634  1.00  0.00     0.074 A 
ATOM     37  C   UNL A   1      38.829  30.010  29.558  1.00  0.00     0.049 A 
ATOM     38  N   UNL A   1      39.294  30.796  32.431  1.00  0.00    -0.248 NA
ATOM     39  C   UNL A   1      37.470  32.246  32.263  1.00  0.00     0.031 C 
ATOM     40  C   UNL A   1      38.646  29.594  28.169  1.00  0.00     0.029 A 
ATOM     41  N   UNL A   1      39.883  29.251  30.003  1.00  0.00    -0.354 N 
ATOM     42  C   UNL A   1      39.099  31.435  33.649  1.00  0.00     0.074 A 
ATOM     43  C   UNL A   1      37.983  32.340  33.480  1.00  0.00     0.031 C 
ATOM     44  C   UNL A   1      39.572  28.669  27.867  1.00  0.00     0.029 A 
ATOM     45  C   UNL A   1      40.429  28.450  29.032  1.00  0.00     0.049 A 
ATOM     46  H   UNL A   1      40.215  29.279  30.929  1.00  0.00     0.167 HD
ATOM     47  C   UNL A   1      39.789  31.275  34.805  1.00  0.00     0.037 A 
ATOM     48  C   UNL A   1      41.514  27.652  29.073  1.00  0.00     0.037 A 
ATOM     49  C   UNL A   1      40.894  30.367  34.971  1.00  0.00     0.049 A 
ATOM     50  C   UNL A   1      42.293  27.527  30.355  1.00  0.00     0.074 A 
ATOM     51  C   UNL A   1      41.631  30.106  36.113  1.00  0.00     0.029 A 
ATOM     52  N   UNL A   1      41.425  29.579  33.961  1.00  0.00    -0.354 N 
ATOM     53  N   UNL A   1      42.083  28.106  31.512  1.00  0.00    -0.248 NA
ATOM     54  C   UNL A   1      43.460  26.633  30.338  1.00  0.00     0.031 C 
ATOM     55  C   UNL A   1      42.641  29.197  35.781  1.00  0.00     0.029 A 
ATOM     56  C   UNL A   1      42.501  28.852  34.446  1.00  0.00     0.049 A 
ATOM     57  H   UNL A   1      41.089  29.541  33.037  1.00  0.00     0.167 HD
ATOM     58  C   UNL A   1      43.070  27.630  32.365  1.00  0.00     0.074 A 
ATOM     59  C   UNL A   1      43.874  26.704  31.595  1.00  0.00     0.031 C 
ATOM     60  C   UNL A   1      43.289  27.930  33.669  1.00  0.00     0.037 A 
BRANCH  47  61
ATOM     61  C   UNL A   1      39.385  32.123  35.974  1.00  0.00     0.064 A 
ATOM     62  C   UNL A   1      39.989  33.362  36.233  1.00  0.00     0.173 A 
ATOM     63  C   UNL A   1      38.354  31.704  36.829  1.00  0.00     0.173 A 
ATOM     64  F   UNL A   1      40.989  33.802  35.452  1.00  0.00    -0.203 F 
ATOM     65  C   UNL A   1      39.596  34.138  37.320  1.00  0.00     0.198 A 
ATOM     66  C   UNL A   1      37.945  32.495  37.899  1.00  0.00     0.198 A 
ATOM     67  F   UNL A   1      37.740  30.530  36.623  1.00  0.00    -0.203 F 
ATOM     68  F   UNL A   1      40.219  35.296  37.575  1.00  0.00    -0.200 F 
ATOM     69  C   UNL A   1      38.570  33.707  38.149  1.00  0.00     0.200 A 
ATOM     70  F   UNL A   1      36.945  32.082  38.691  1.00  0.00    -0.200 F 
ATOM     71  F   UNL A   1      38.189  34.457  39.191  1.00  0.00    -0.200 F 
ENDBRANCH  47  61
BRANCH  48  72
ATOM     72  C   UNL A   1      41.934  26.919  27.851  1.00  0.00     0.064 A 
ATOM     73  C   UNL A   1      42.800  27.503  26.916  1.00  0.00     0.173 A 
ATOM     74  C   UNL A   1      41.473  25.620  27.592  1.00  0.00     0.173 A 
ATOM     75  F   UNL A   1      43.246  28.752  27.107  1.00  0.00    -0.203 F 
ATOM     76  C   UNL A   1      43.176  26.819  25.762  1.00  0.00     0.198 A 
ATOM     77  C   UNL A   1      41.871  24.928  26.451  1.00  0.00     0.198 A 
ATOM     78  F   UNL A   1      40.640  25.018  28.455  1.00  0.00    -0.203 F 
ATOM     79  F   UNL A   1      43.971  27.416  24.863  1.00  0.00    -0.200 F 
ATOM     80  C   UNL A   1      42.717  25.530  25.533  1.00  0.00     0.200 A 
ATOM     81  F   UNL A   1      41.432  23.679  26.240  1.00  0.00    -0.200 F 
ATOM     82  F   UNL A   1      43.083  24.873  24.425  1.00  0.00    -0.200 F 
ENDBRANCH  48  72
BRANCH  60  83
ATOM     83  C   UNL A   1      44.423  27.229  34.360  1.00  0.00     0.064 A 
ATOM     84  C   UNL A   1      45.700  27.802  34.447  1.00  0.00     0.173 A 
ATOM     85  C   UNL A   1      44.215  25.987  34.982  1.00  0.00     0.173 A 
ATOM     86  F   UNL A   1      45.953  28.979  33.856  1.00  0.00    -0.203 F 
ATOM     87  C   UNL A   1      46.733  27.148  35.114  1.00  0.00     0.198 A 
ATOM     88  C   UNL A   1      45.243  25.352  35.673  1.00  0.00     0.198 A 
ATOM     89  F   UNL A   1      43.010  25.400  34.933  1.00  0.00    -0.203 F 
ATOM     90  F   UNL A   1      47.956  27.694  35.150  1.00  0.00    -0.200 F 
ATOM     91  C   UNL A   1      46.502  25.928  35.733  1.00  0.00     0.200 A 
ATOM     92  F   UNL A   1      45.014  24.179  36.281  1.00  0.00    -0.200 F 
ATOM     93  F   UNL A   1      47.495  25.306  36.382  1.00  0.00    -0.200 F 
ENDBRANCH  60  83
ENDBRANCH  34  35
ENDBRANCH  27  29
ENDBRANCH  26  27
ENDBRANCH  25  26
ENDBRANCH   1  25
TORSDOF 17
ENDMDL
MODEL 3
REMARK VINA RESULT:     -11.4      5.376     11.148
REMARK SMILES COc1c(N)cc(-c2ccccc2)cc1C(=O)OCCOCCOC(=O)c1ccc(-c2c3nc(c(-c4c(F)c(F)c(F)c(F)c4F)c4ccc([nH]4)c(-c4c(F)c(F)c(F)c(F)c4F)c4nc(c(-c5c(F)c(F)c(F)c(F)c5F)c5ccc2[nH]5)C=C4)C=C3)cc1
REMARK SMILES IDX 22 1 21 2 20 3 19 4 18 5 16 6 17 7 15 8 3 9 4 10 6 11 14 12
REMARK SMILES IDX 7 13 2 14 1 15 5 16 8 19 9 20 13 21 10 22 12 23 11 24 23 25
REMARK SMILES IDX 24 26 25 27 26 28 27 29 28 30 89 31 29 32 88 33 30 34 31 35
REMARK SMILES IDX 32 36 82 37 33 38 87 39 81 40 83 41 34 42 86 43 80 44 79 45
REMARK SMILES IDX 35 47 67 48 47 49 66 50 48 51 51 52 65 53 84 54 49 55 50 56
REMARK SMILES IDX 64 58 85 59 52 60 36 61 37 62 45 63 38 64 39 65 43 66 46 67
REMARK SMILES IDX 40 68 41 69 44 70 42 71 68 72 69 73 77 74 70 75 71 76 75 77
REMARK SMILES IDX 78 78 72 79 73 80 76 81 74 82 53 83 54 84 62 85 55 86 56 87
REMARK SMILES IDX 60 88 63 89 57 90 58 91 61 92 59 93
REMARK H PARENT 5 17 5 18 83 46 51 57
REMARK Flexibility Score: inf
ROOT
ATOM      1  C   UNL A   1      38.045  20.044  24.952  1.00  0.00     0.202 C 
ENDROOT
BRANCH   1   2
ATOM      2  O   UNL A   1      37.379  21.111  25.628  1.00  0.00    -0.374 OA
BRANCH   2   3
ATOM      3  C   UNL A   1      37.340  22.379  24.972  1.00  0.00     0.202 C 
BRANCH   3   4
ATOM      4  C   UNL A   1      36.797  23.543  25.803  1.00  0.00     0.261 C 
BRANCH   4   5
ATOM      5  O   UNL A   1      35.417  23.794  25.485  1.00  0.00    -0.460 OA
BRANCH   5   6
ATOM      6  C   UNL A   1      34.525  23.057  26.191  1.00  0.00     0.342 C 
ATOM      7  O   UNL A   1      34.242  23.195  27.371  1.00  0.00    -0.246 OA
BRANCH   6   8
ATOM      8  C   UNL A   1      33.749  22.168  25.302  1.00  0.00     0.104 A 
ATOM      9  C   UNL A   1      32.918  22.625  24.272  1.00  0.00     0.156 A 
ATOM     10  C   UNL A   1      32.364  21.700  23.366  1.00  0.00     0.076 A 
ATOM     11  C   UNL A   1      32.507  20.329  23.621  1.00  0.00     0.038 A 
ATOM     12  C   UNL A   1      33.923  20.789  25.509  1.00  0.00     0.028 A 
ATOM     13  C   UNL A   1      33.290  19.855  24.684  1.00  0.00    -0.015 A 
BRANCH   9  14
ATOM     14  O   UNL A   1      32.733  23.975  24.088  1.00  0.00    -0.494 OA
ATOM     15  C   UNL A   1      31.591  24.442  24.814  1.00  0.00     0.278 C 
ENDBRANCH   9  14
BRANCH  10  16
ATOM     16  N   UNL A   1      31.590  22.108  22.279  1.00  0.00    -0.396 N 
ATOM     17  H   UNL A   1      30.746  22.593  22.430  1.00  0.00     0.156 HD
ATOM     18  H   UNL A   1      31.887  21.912  21.361  1.00  0.00     0.156 HD
ENDBRANCH  10  16
BRANCH  13  19
ATOM     19  C   UNL A   1      33.489  18.415  24.877  1.00  0.00    -0.018 A 
ATOM     20  C   UNL A   1      34.591  17.772  24.292  1.00  0.00     0.009 A 
ATOM     21  C   UNL A   1      32.591  17.648  25.633  1.00  0.00     0.009 A 
ATOM     22  C   UNL A   1      34.786  16.399  24.447  1.00  0.00     0.001 A 
ATOM     23  C   UNL A   1      32.784  16.272  25.786  1.00  0.00     0.001 A 
ATOM     24  C   UNL A   1      33.880  15.649  25.192  1.00  0.00     0.000 A 
ENDBRANCH  13  19
ENDBRANCH   6   8
ENDBRANCH   5   6
ENDBRANCH   4   5
ENDBRANCH   3   4
ENDBRANCH   2   3
ENDBRANCH   1   2
BRANCH   1  25
ATOM     25  C   UNL A   1      39.279  19.468  25.655  1.00  0.00     0.261 C 
BRANCH  25  26
ATOM     26  O   UNL A   1      40.291  20.465  25.886  1.00  0.00    -0.460 OA
BRANCH  26  27
ATOM     27  C   UNL A   1      40.735  20.545  27.161  1.00  0.00     0.338 C 
ATOM     28  O   UNL A   1      41.036  19.620  27.906  1.00  0.00    -0.246 OA
BRANCH  27  29
ATOM     29  C   UNL A   1      40.979  21.953  27.520  1.00  0.00     0.060 A 
ATOM     30  C   UNL A   1      40.305  22.939  26.789  1.00  0.00     0.016 A 
ATOM     31  C   UNL A   1      41.903  22.306  28.506  1.00  0.00     0.016 A 
ATOM     32  C   UNL A   1      40.580  24.287  27.013  1.00  0.00     0.010 A 
ATOM     33  C   UNL A   1      42.186  23.659  28.722  1.00  0.00     0.010 A 
ATOM     34  C   UNL A   1      41.549  24.653  27.957  1.00  0.00    -0.014 A 
BRANCH  34  35
ATOM     35  C   UNL A   1      41.988  26.065  28.054  1.00  0.00     0.031 A 
ATOM     36  C   UNL A   1      43.319  26.459  27.477  1.00  0.00     0.074 A 
ATOM     37  C   UNL A   1      41.211  26.987  28.647  1.00  0.00     0.049 A 
ATOM     38  N   UNL A   1      43.928  27.618  27.504  1.00  0.00    -0.248 NA
ATOM     39  C   UNL A   1      44.068  25.401  26.780  1.00  0.00     0.031 C 
ATOM     40  C   UNL A   1      39.889  26.733  29.217  1.00  0.00     0.029 A 
ATOM     41  N   UNL A   1      41.430  28.321  28.881  1.00  0.00    -0.354 N 
ATOM     42  C   UNL A   1      45.133  27.425  26.841  1.00  0.00     0.074 A 
ATOM     43  C   UNL A   1      45.181  26.034  26.444  1.00  0.00     0.031 C 
ATOM     44  C   UNL A   1      39.423  27.872  29.756  1.00  0.00     0.029 A 
ATOM     45  C   UNL A   1      40.424  28.925  29.593  1.00  0.00     0.049 A 
ATOM     46  H   UNL A   1      42.231  28.799  28.568  1.00  0.00     0.167 HD
ATOM     47  C   UNL A   1      46.108  28.330  26.583  1.00  0.00     0.037 A 
ATOM     48  C   UNL A   1      40.337  30.177  30.082  1.00  0.00     0.037 A 
ATOM     49  C   UNL A   1      46.052  29.715  26.973  1.00  0.00     0.049 A 
ATOM     50  C   UNL A   1      41.455  31.153  29.824  1.00  0.00     0.074 A 
ATOM     51  C   UNL A   1      46.972  30.719  26.724  1.00  0.00     0.029 A 
ATOM     52  N   UNL A   1      45.021  30.288  27.703  1.00  0.00    -0.354 N 
ATOM     53  N   UNL A   1      42.575  30.974  29.166  1.00  0.00    -0.248 NA
ATOM     54  C   UNL A   1      41.294  32.507  30.374  1.00  0.00     0.031 C 
ATOM     55  C   UNL A   1      46.522  31.887  27.347  1.00  0.00     0.029 A 
ATOM     56  C   UNL A   1      45.297  31.626  27.939  1.00  0.00     0.049 A 
ATOM     57  H   UNL A   1      44.214  29.815  28.008  1.00  0.00     0.167 HD
ATOM     58  C   UNL A   1      43.239  32.194  29.200  1.00  0.00     0.074 A 
ATOM     59  C   UNL A   1      42.390  33.109  29.934  1.00  0.00     0.031 C 
ATOM     60  C   UNL A   1      44.441  32.527  28.668  1.00  0.00     0.037 A 
BRANCH  47  61
ATOM     61  C   UNL A   1      47.333  27.842  25.869  1.00  0.00     0.064 A 
ATOM     62  C   UNL A   1      48.481  27.432  26.564  1.00  0.00     0.173 A 
ATOM     63  C   UNL A   1      47.347  27.754  24.469  1.00  0.00     0.173 A 
ATOM     64  F   UNL A   1      48.522  27.509  27.903  1.00  0.00    -0.203 F 
ATOM     65  C   UNL A   1      49.606  26.976  25.882  1.00  0.00     0.198 A 
ATOM     66  C   UNL A   1      48.464  27.272  23.792  1.00  0.00     0.198 A 
ATOM     67  F   UNL A   1      46.274  28.129  23.757  1.00  0.00    -0.203 F 
ATOM     68  F   UNL A   1      50.707  26.633  26.565  1.00  0.00    -0.200 F 
ATOM     69  C   UNL A   1      49.595  26.890  24.497  1.00  0.00     0.200 A 
ATOM     70  F   UNL A   1      48.446  27.179  22.455  1.00  0.00    -0.200 F 
ATOM     71  F   UNL A   1      50.677  26.447  23.843  1.00  0.00    -0.200 F 
ENDBRANCH  47  61
BRANCH  48  72
ATOM     72  C   UNL A   1      39.148  30.575  30.879  1.00  0.00     0.064 A 
ATOM     73  C   UNL A   1      39.101  30.371  32.264  1.00  0.00     0.173 A 
ATOM     74  C   UNL A   1      38.031  31.163  30.267  1.00  0.00     0.173 A 
ATOM     75  F   UNL A   1      40.135  29.788  32.889  1.00  0.00    -0.203 F 
ATOM     76  C   UNL A   1      37.976  30.727  33.005  1.00  0.00     0.198 A 
ATOM     77  C   UNL A   1      36.918  31.543  31.013  1.00  0.00     0.198 A 
ATOM     78  F   UNL A   1      38.025  31.377  28.943  1.00  0.00    -0.203 F 
ATOM     79  F   UNL A   1      37.940  30.482  34.322  1.00  0.00    -0.200 F 
ATOM     80  C   UNL A   1      36.888  31.319  32.381  1.00  0.00     0.200 A 
ATOM     81  F   UNL A   1      35.873  32.123  30.406  1.00  0.00    -0.200 F 
ATOM     82  F   UNL A   1      35.809  31.664  33.095  1.00  0.00    -0.200 F 
ENDBRANCH  48  72
BRANCH  60  83
ATOM     83  C   UNL A   1      44.900  33.946  28.830  1.00  0.00     0.064 A 
ATOM     84  C   UNL A   1      45.689  34.345  29.918  1.00  0.00     0.173 A 
ATOM     85  C   UNL A   1      44.584  34.909  27.858  1.00  0.00     0.173 A 
ATOM     86  F   UNL A   1      46.007  33.466  30.880  1.00  0.00    -0.203 F 
ATOM     87  C   UNL A   1      46.129  35.662  30.038  1.00  0.00     0.198 A 
ATOM     88  C   UNL A   1      45.049  36.217  27.968  1.00  0.00     0.198 A 
ATOM     89  F   UNL A   1      43.837  34.576  26.795  1.00  0.00    -0.203 F 
ATOM     90  F   UNL A   1      46.847  36.031  31.108  1.00  0.00    -0.200 F 
ATOM     91  C   UNL A   1      45.815  36.594  29.059  1.00  0.00     0.200 A 
ATOM     92  F   UNL A   1      44.756  37.113  27.014  1.00  0.00    -0.200 F 
ATOM     93  F   UNL A   1      46.246  37.857  29.173  1.00  0.00    -0.200 F 
ENDBRANCH  60  83
ENDBRANCH  34  35
ENDBRANCH  27  29
ENDBRANCH  26  27
ENDBRANCH  25  26
ENDBRANCH   1  25
TORSDOF 17
ENDMDL
