MODEL 1
REMARK VINA RESULT:     -11.7      0.000      0.000
REMARK SMILES CO[C@@H]1C[C@@H](C(=O)OCCOCCOC(=O)c2ccc(-c3c4nc(c(-c5c(F)c(F)c(F)c(F)c5F)c5ccc([nH]5)c(-c5c(F)c(F)c(F)c(F)c5F)c5nc(c(-c6c(F)c(F)c(F)c(F)c6F)c6ccc3[nH]6)C=C5)C=C4)cc2)N(S(=O)(=O)c2ccc(Cl)cc2F)C1
REMARK SMILES IDX 11 1 10 2 9 3 8 4 6 5 7 6 5 7 3 8 4 9 92 10 80 11 2 12 1 13
REMARK SMILES IDX 81 14 82 15 83 16 84 17 85 18 90 19 86 20 89 21 91 22 87 23
REMARK SMILES IDX 88 24 12 25 13 26 14 27 15 28 16 29 17 30 18 31 79 32 19 33
REMARK SMILES IDX 78 34 20 35 21 36 22 37 72 38 23 39 77 40 71 41 73 42 24 43
REMARK SMILES IDX 76 44 70 45 69 46 25 48 57 49 37 50 56 51 38 52 41 53 55 54
REMARK SMILES IDX 74 55 39 56 40 57 54 59 75 60 42 61 26 62 27 63 35 64 28 65
REMARK SMILES IDX 29 66 33 67 36 68 30 69 31 70 34 71 32 72 58 73 59 74 67 75
REMARK SMILES IDX 60 76 61 77 65 78 68 79 62 80 63 81 66 82 64 83 43 84 44 85
REMARK SMILES IDX 52 86 45 87 46 88 50 89 53 90 47 91 48 92 51 93 49 94
REMARK H PARENT 73 47 41 58
REMARK Flexibility Score: inf
ROOT
ATOM      1  O   UNL A   1      32.322  30.523  26.647  1.00  0.00    -0.374 OA
ENDROOT
BRANCH   1   2
ATOM      2  C   UNL A   1      31.780  29.245  26.316  1.00  0.00     0.202 C 
BRANCH   2   3
ATOM      3  C   UNL A   1      32.004  28.033  27.237  1.00  0.00     0.261 C 
BRANCH   3   4
ATOM      4  O   UNL A   1      32.636  26.895  26.622  1.00  0.00    -0.462 OA
BRANCH   4   5
ATOM      5  C   UNL A   1      31.724  25.950  26.305  1.00  0.00     0.324 C 
ATOM      6  O   UNL A   1      30.538  26.092  26.503  1.00  0.00    -0.250 OA
BRANCH   5   7
ATOM      7  C   UNL A   1      32.245  24.735  25.636  1.00  0.00     0.185 C 
ATOM      8  C   UNL A   1      34.288  23.597  25.066  1.00  0.00     0.135 C 
ATOM      9  C   UNL A   1      33.670  24.486  26.126  1.00  0.00     0.065 C 
ATOM     10  C   UNL A   1      33.414  23.763  23.806  1.00  0.00     0.135 C 
ATOM     11  N   UNL A   1      32.327  24.784  24.131  1.00  0.00    -0.181 NA
BRANCH   8  12
ATOM     12  O   UNL A   1      34.518  22.269  25.540  1.00  0.00    -0.380 OA
ATOM     13  C   UNL A   1      33.811  21.206  24.927  1.00  0.00     0.195 C 
ENDBRANCH   8  12
BRANCH  11  14
ATOM     14  S   UNL A   1      32.626  26.286  23.265  1.00  0.00     0.246 S 
ATOM     15  O   UNL A   1      33.677  26.967  23.988  1.00  0.00    -0.207 OA
ATOM     16  O   UNL A   1      32.867  25.870  21.893  1.00  0.00    -0.207 OA
BRANCH  14  17
ATOM     17  C   UNL A   1      31.149  27.293  23.170  1.00  0.00     0.118 A 
ATOM     18  C   UNL A   1      29.891  26.717  23.383  1.00  0.00     0.026 A 
ATOM     19  C   UNL A   1      31.204  28.635  22.774  1.00  0.00     0.144 A 
ATOM     20  C   UNL A   1      28.737  27.517  23.338  1.00  0.00     0.022 A 
ATOM     21  C   UNL A   1      30.076  29.456  22.838  1.00  0.00     0.061 A 
ATOM     22  F   UNL A   1      32.349  29.209  22.377  1.00  0.00    -0.205 F 
ATOM     23  C   UNL A   1      28.843  28.892  23.126  1.00  0.00     0.044 A 
ATOM     24  Cl  UNL A   1      27.443  29.890  23.209  1.00  0.00    -0.084 Cl
ENDBRANCH  14  17
ENDBRANCH  11  14
ENDBRANCH   5   7
ENDBRANCH   4   5
ENDBRANCH   3   4
ENDBRANCH   2   3
ENDBRANCH   1   2
BRANCH   1  25
ATOM     25  C   UNL A   1      31.481  31.666  26.437  1.00  0.00     0.202 C 
BRANCH  25  26
ATOM     26  C   UNL A   1      32.023  33.001  26.942  1.00  0.00     0.261 C 
BRANCH  26  27
ATOM     27  O   UNL A   1      32.951  32.781  28.013  1.00  0.00    -0.460 OA
BRANCH  27  28
ATOM     28  C   UNL A   1      34.008  33.627  28.001  1.00  0.00     0.338 C 
ATOM     29  O   UNL A   1      33.986  34.842  27.928  1.00  0.00    -0.246 OA
BRANCH  28  30
ATOM     30  C   UNL A   1      35.231  32.865  28.328  1.00  0.00     0.060 A 
ATOM     31  C   UNL A   1      35.083  31.487  28.538  1.00  0.00     0.016 A 
ATOM     32  C   UNL A   1      36.492  33.464  28.387  1.00  0.00     0.016 A 
ATOM     33  C   UNL A   1      36.181  30.713  28.891  1.00  0.00     0.010 A 
ATOM     34  C   UNL A   1      37.592  32.693  28.759  1.00  0.00     0.010 A 
ATOM     35  C   UNL A   1      37.424  31.330  29.068  1.00  0.00    -0.014 A 
BRANCH  35  36
ATOM     36  C   UNL A   1      38.473  30.616  29.825  1.00  0.00     0.031 A 
ATOM     37  C   UNL A   1      38.646  30.970  31.276  1.00  0.00     0.074 A 
ATOM     38  C   UNL A   1      39.218  29.659  29.253  1.00  0.00     0.049 A 
ATOM     39  N   UNL A   1      39.528  30.541  32.139  1.00  0.00    -0.248 NA
ATOM     40  C   UNL A   1      37.694  31.952  31.826  1.00  0.00     0.031 C 
ATOM     41  C   UNL A   1      39.091  29.199  27.873  1.00  0.00     0.029 A 
ATOM     42  N   UNL A   1      40.241  28.906  29.770  1.00  0.00    -0.354 N 
ATOM     43  C   UNL A   1      39.246  31.208  33.324  1.00  0.00     0.074 A 
ATOM     44  C   UNL A   1      38.137  32.097  33.064  1.00  0.00     0.031 C 
ATOM     45  C   UNL A   1      40.015  28.250  27.645  1.00  0.00     0.029 A 
ATOM     46  C   UNL A   1      40.820  28.067  28.852  1.00  0.00     0.049 A 
ATOM     47  H   UNL A   1      40.531  28.962  30.709  1.00  0.00     0.167 HD
ATOM     48  C   UNL A   1      39.856  31.082  34.525  1.00  0.00     0.037 A 
ATOM     49  C   UNL A   1      41.896  27.267  28.975  1.00  0.00     0.037 A 
ATOM     50  C   UNL A   1      40.957  30.190  34.769  1.00  0.00     0.049 A 
ATOM     51  C   UNL A   1      42.609  27.202  30.302  1.00  0.00     0.074 A 
ATOM     52  C   UNL A   1      41.643  29.968  35.950  1.00  0.00     0.029 A 
ATOM     53  N   UNL A   1      41.540  29.377  33.807  1.00  0.00    -0.354 N 
ATOM     54  N   UNL A   1      42.333  27.822  31.425  1.00  0.00    -0.248 NA
ATOM     55  C   UNL A   1      43.785  26.324  30.380  1.00  0.00     0.031 C 
ATOM     56  C   UNL A   1      42.681  29.071  35.686  1.00  0.00     0.029 A 
ATOM     57  C   UNL A   1      42.598  28.676  34.360  1.00  0.00     0.049 A 
ATOM     58  H   UNL A   1      41.245  29.309  32.871  1.00  0.00     0.167 HD
ATOM     59  C   UNL A   1      43.273  27.383  32.349  1.00  0.00     0.074 A 
ATOM     60  C   UNL A   1      44.122  26.436  31.656  1.00  0.00     0.031 C 
ATOM     61  C   UNL A   1      43.424  27.730  33.652  1.00  0.00     0.037 A 
BRANCH  48  62
ATOM     62  C   UNL A   1      39.371  31.952  35.648  1.00  0.00     0.064 A 
ATOM     63  C   UNL A   1      38.418  31.506  36.577  1.00  0.00     0.173 A 
ATOM     64  C   UNL A   1      39.883  33.248  35.808  1.00  0.00     0.173 A 
ATOM     65  F   UNL A   1      37.879  30.282  36.458  1.00  0.00    -0.203 F 
ATOM     66  C   UNL A   1      37.978  32.334  37.606  1.00  0.00     0.198 A 
ATOM     67  C   UNL A   1      39.468  34.061  36.860  1.00  0.00     0.198 A 
ATOM     68  F   UNL A   1      40.795  33.727  34.948  1.00  0.00    -0.203 F 
ATOM     69  F   UNL A   1      37.027  31.906  38.449  1.00  0.00    -0.200 F 
ATOM     70  C   UNL A   1      38.510  33.606  37.753  1.00  0.00     0.200 A 
ATOM     71  F   UNL A   1      39.994  35.284  37.006  1.00  0.00    -0.200 F 
ATOM     72  F   UNL A   1      38.094  34.398  38.750  1.00  0.00    -0.200 F 
ENDBRANCH  48  62
BRANCH  49  73
ATOM     73  C   UNL A   1      42.373  26.478  27.809  1.00  0.00     0.064 A 
ATOM     74  C   UNL A   1      43.354  26.983  26.945  1.00  0.00     0.173 A 
ATOM     75  C   UNL A   1      41.848  25.208  27.526  1.00  0.00     0.173 A 
ATOM     76  F   UNL A   1      43.872  28.201  27.160  1.00  0.00    -0.203 F 
ATOM     77  C   UNL A   1      43.775  26.259  25.831  1.00  0.00     0.198 A 
ATOM     78  C   UNL A   1      42.293  24.471  26.431  1.00  0.00     0.198 A 
ATOM     79  F   UNL A   1      40.907  24.677  28.321  1.00  0.00    -0.203 F 
ATOM     80  F   UNL A   1      44.678  26.788  24.994  1.00  0.00    -0.200 F 
ATOM     81  C   UNL A   1      43.249  25.001  25.579  1.00  0.00     0.200 A 
ATOM     82  F   UNL A   1      41.794  23.249  26.201  1.00  0.00    -0.200 F 
ATOM     83  F   UNL A   1      43.659  24.303  24.511  1.00  0.00    -0.200 F 
ENDBRANCH  49  73
BRANCH  61  84
ATOM     84  C   UNL A   1      44.514  27.047  34.428  1.00  0.00     0.064 A 
ATOM     85  C   UNL A   1      45.786  27.618  34.579  1.00  0.00     0.173 A 
ATOM     86  C   UNL A   1      44.263  25.825  35.072  1.00  0.00     0.173 A 
ATOM     87  F   UNL A   1      46.082  28.779  33.975  1.00  0.00    -0.203 F 
ATOM     88  C   UNL A   1      46.775  26.976  35.319  1.00  0.00     0.198 A 
ATOM     89  C   UNL A   1      45.243  25.204  35.841  1.00  0.00     0.198 A 
ATOM     90  F   UNL A   1      43.060  25.240  34.969  1.00  0.00    -0.203 F 
ATOM     91  F   UNL A   1      48.000  27.513  35.402  1.00  0.00    -0.200 F 
ATOM     92  C   UNL A   1      46.501  25.775  35.956  1.00  0.00     0.200 A 
ATOM     93  F   UNL A   1      44.968  24.054  36.472  1.00  0.00    -0.200 F 
ATOM     94  F   UNL A   1      47.452  25.164  36.676  1.00  0.00    -0.200 F 
ENDBRANCH  61  84
ENDBRANCH  35  36
ENDBRANCH  28  30
ENDBRANCH  27  28
ENDBRANCH  26  27
ENDBRANCH  25  26
ENDBRANCH   1  25
TORSDOF 17
ENDMDL
MODEL 2
REMARK VINA RESULT:     -11.7      2.009      7.929
REMARK SMILES CO[C@@H]1C[C@@H](C(=O)OCCOCCOC(=O)c2ccc(-c3c4nc(c(-c5c(F)c(F)c(F)c(F)c5F)c5ccc([nH]5)c(-c5c(F)c(F)c(F)c(F)c5F)c5nc(c(-c6c(F)c(F)c(F)c(F)c6F)c6ccc3[nH]6)C=C5)C=C4)cc2)N(S(=O)(=O)c2ccc(Cl)cc2F)C1
REMARK SMILES IDX 11 1 10 2 9 3 8 4 6 5 7 6 5 7 3 8 4 9 92 10 80 11 2 12 1 13
REMARK SMILES IDX 81 14 82 15 83 16 84 17 85 18 90 19 86 20 89 21 91 22 87 23
REMARK SMILES IDX 88 24 12 25 13 26 14 27 15 28 16 29 17 30 18 31 79 32 19 33
REMARK SMILES IDX 78 34 20 35 21 36 22 37 72 38 23 39 77 40 71 41 73 42 24 43
REMARK SMILES IDX 76 44 70 45 69 46 25 48 57 49 37 50 56 51 38 52 41 53 55 54
REMARK SMILES IDX 74 55 39 56 40 57 54 59 75 60 42 61 26 62 27 63 35 64 28 65
REMARK SMILES IDX 29 66 33 67 36 68 30 69 31 70 34 71 32 72 58 73 59 74 67 75
REMARK SMILES IDX 60 76 61 77 65 78 68 79 62 80 63 81 66 82 64 83 43 84 44 85
REMARK SMILES IDX 52 86 45 87 46 88 50 89 53 90 47 91 48 92 51 93 49 94
REMARK H PARENT 73 47 41 58
REMARK Flexibility Score: inf
ROOT
ATOM      1  O   UNL A   1      30.406  30.264  24.385  1.00  0.00    -0.374 OA
ENDROOT
BRANCH   1   2
ATOM      2  C   UNL A   1      30.354  29.359  23.281  1.00  0.00     0.202 C 
BRANCH   2   3
ATOM      3  C   UNL A   1      30.001  27.877  23.495  1.00  0.00     0.261 C 
BRANCH   3   4
ATOM      4  O   UNL A   1      31.062  27.057  24.019  1.00  0.00    -0.462 OA
BRANCH   4   5
ATOM      5  C   UNL A   1      31.066  25.840  23.430  1.00  0.00     0.324 C 
ATOM      6  O   UNL A   1      31.008  25.694  22.230  1.00  0.00    -0.250 OA
BRANCH   5   7
ATOM      7  C   UNL A   1      31.210  24.675  24.335  1.00  0.00     0.185 C 
ATOM      8  C   UNL A   1      31.993  24.041  26.521  1.00  0.00     0.135 C 
ATOM      9  C   UNL A   1      31.355  25.189  25.765  1.00  0.00     0.065 C 
ATOM     10  C   UNL A   1      32.632  23.130  25.453  1.00  0.00     0.135 C 
ATOM     11  N   UNL A   1      32.401  23.784  24.093  1.00  0.00    -0.181 NA
BRANCH   8  12
ATOM     12  O   UNL A   1      31.093  23.436  27.450  1.00  0.00    -0.380 OA
ATOM     13  C   UNL A   1      29.964  22.749  26.942  1.00  0.00     0.195 C 
ENDBRANCH   8  12
BRANCH  11  14
ATOM     14  S   UNL A   1      33.917  24.410  23.454  1.00  0.00     0.246 S 
ATOM     15  O   UNL A   1      33.895  24.148  22.032  1.00  0.00    -0.207 OA
ATOM     16  O   UNL A   1      33.963  25.787  23.918  1.00  0.00    -0.207 OA
BRANCH  14  17
ATOM     17  C   UNL A   1      35.328  23.631  24.233  1.00  0.00     0.118 A 
ATOM     18  C   UNL A   1      35.876  22.464  23.688  1.00  0.00     0.026 A 
ATOM     19  C   UNL A   1      35.837  24.096  25.452  1.00  0.00     0.144 A 
ATOM     20  C   UNL A   1      37.002  21.873  24.286  1.00  0.00     0.022 A 
ATOM     21  C   UNL A   1      37.021  23.581  25.986  1.00  0.00     0.061 A 
ATOM     22  F   UNL A   1      35.254  25.095  26.129  1.00  0.00    -0.205 F 
ATOM     23  C   UNL A   1      37.604  22.470  25.395  1.00  0.00     0.044 A 
ATOM     24  Cl  UNL A   1      39.061  21.822  26.040  1.00  0.00    -0.084 Cl
ENDBRANCH  14  17
ENDBRANCH  11  14
ENDBRANCH   5   7
ENDBRANCH   4   5
ENDBRANCH   3   4
ENDBRANCH   2   3
ENDBRANCH   1   2
BRANCH   1  25
ATOM     25  C   UNL A   1      31.471  30.085  25.329  1.00  0.00     0.202 C 
BRANCH  25  26
ATOM     26  C   UNL A   1      31.643  31.192  26.366  1.00  0.00     0.261 C 
BRANCH  26  27
ATOM     27  O   UNL A   1      32.788  30.923  27.186  1.00  0.00    -0.460 OA
BRANCH  27  28
ATOM     28  C   UNL A   1      33.510  32.027  27.491  1.00  0.00     0.338 C 
ATOM     29  O   UNL A   1      33.115  33.177  27.568  1.00  0.00    -0.246 OA
BRANCH  28  30
ATOM     30  C   UNL A   1      34.847  31.607  27.961  1.00  0.00     0.060 A 
ATOM     31  C   UNL A   1      35.012  30.250  28.272  1.00  0.00     0.016 A 
ATOM     32  C   UNL A   1      35.920  32.496  28.053  1.00  0.00     0.016 A 
ATOM     33  C   UNL A   1      36.228  29.789  28.759  1.00  0.00     0.010 A 
ATOM     34  C   UNL A   1      37.136  32.039  28.560  1.00  0.00     0.010 A 
ATOM     35  C   UNL A   1      37.270  30.699  28.967  1.00  0.00    -0.014 A 
BRANCH  35  36
ATOM     36  C   UNL A   1      38.391  30.309  29.848  1.00  0.00     0.031 A 
ATOM     37  C   UNL A   1      39.409  29.351  29.296  1.00  0.00     0.074 A 
ATOM     38  C   UNL A   1      38.520  30.821  31.082  1.00  0.00     0.049 A 
ATOM     39  N   UNL A   1      40.443  28.806  29.880  1.00  0.00    -0.248 NA
ATOM     40  C   UNL A   1      39.229  28.946  27.890  1.00  0.00     0.031 C 
ATOM     41  C   UNL A   1      37.624  31.800  31.689  1.00  0.00     0.029 A 
ATOM     42  N   UNL A   1      39.461  30.575  32.048  1.00  0.00    -0.354 N 
ATOM     43  C   UNL A   1      41.025  27.987  28.920  1.00  0.00     0.074 A 
ATOM     44  C   UNL A   1      40.212  28.076  27.729  1.00  0.00     0.031 C 
ATOM     45  C   UNL A   1      38.050  32.062  32.937  1.00  0.00     0.029 A 
ATOM     46  C   UNL A   1      39.224  31.239  33.224  1.00  0.00     0.049 A 
ATOM     47  H   UNL A   1      40.233  29.978  31.910  1.00  0.00     0.167 HD
ATOM     48  C   UNL A   1      42.144  27.234  29.024  1.00  0.00     0.037 A 
ATOM     49  C   UNL A   1      39.871  31.162  34.402  1.00  0.00     0.037 A 
ATOM     50  C   UNL A   1      42.945  27.158  30.217  1.00  0.00     0.049 A 
ATOM     51  C   UNL A   1      41.070  30.255  34.519  1.00  0.00     0.074 A 
ATOM     52  C   UNL A   1      44.107  26.441  30.431  1.00  0.00     0.029 A 
ATOM     53  N   UNL A   1      42.656  27.820  31.402  1.00  0.00    -0.354 N 
ATOM     54  N   UNL A   1      41.627  29.493  33.607  1.00  0.00    -0.248 NA
ATOM     55  C   UNL A   1      41.732  30.198  35.829  1.00  0.00     0.031 C 
ATOM     56  C   UNL A   1      44.485  26.617  31.765  1.00  0.00     0.029 A 
ATOM     57  C   UNL A   1      43.602  27.502  32.362  1.00  0.00     0.049 A 
ATOM     58  H   UNL A   1      41.893  28.426  31.539  1.00  0.00     0.167 HD
ATOM     59  C   UNL A   1      42.722  28.897  34.221  1.00  0.00     0.074 A 
ATOM     60  C   UNL A   1      42.756  29.394  35.580  1.00  0.00     0.031 C 
ATOM     61  C   UNL A   1      43.620  28.018  33.708  1.00  0.00     0.037 A 
BRANCH  48  62
ATOM     62  C   UNL A   1      42.543  26.410  27.835  1.00  0.00     0.064 A 
ATOM     63  C   UNL A   1      42.029  25.122  27.617  1.00  0.00     0.173 A 
ATOM     64  C   UNL A   1      43.439  26.926  26.888  1.00  0.00     0.173 A 
ATOM     65  F   UNL A   1      41.184  24.572  28.502  1.00  0.00    -0.203 F 
ATOM     66  C   UNL A   1      42.420  24.373  26.510  1.00  0.00     0.198 A 
ATOM     67  C   UNL A   1      43.800  26.188  25.762  1.00  0.00     0.198 A 
ATOM     68  F   UNL A   1      43.963  28.151  27.048  1.00  0.00    -0.203 F 
ATOM     69  F   UNL A   1      41.958  23.124  26.350  1.00  0.00    -0.200 F 
ATOM     70  C   UNL A   1      43.296  24.910  25.578  1.00  0.00     0.200 A 
ATOM     71  F   UNL A   1      44.637  26.716  24.859  1.00  0.00    -0.200 F 
ATOM     72  F   UNL A   1      43.662  24.193  24.508  1.00  0.00    -0.200 F 
ENDBRANCH  48  62
BRANCH  49  73
ATOM     73  C   UNL A   1      39.391  31.951  35.567  1.00  0.00     0.064 A 
ATOM     74  C   UNL A   1      38.480  31.409  36.484  1.00  0.00     0.173 A 
ATOM     75  C   UNL A   1      39.821  33.269  35.780  1.00  0.00     0.173 A 
ATOM     76  F   UNL A   1      38.021  30.160  36.313  1.00  0.00    -0.203 F 
ATOM     77  C   UNL A   1      38.003  32.161  37.556  1.00  0.00     0.198 A 
ATOM     78  C   UNL A   1      39.369  34.009  36.870  1.00  0.00     0.198 A 
ATOM     79  F   UNL A   1      40.693  33.837  34.934  1.00  0.00    -0.203 F 
ATOM     80  F   UNL A   1      37.093  31.635  38.388  1.00  0.00    -0.200 F 
ATOM     81  C   UNL A   1      38.451  33.458  37.751  1.00  0.00     0.200 A 
ATOM     82  F   UNL A   1      39.819  35.257  37.064  1.00  0.00    -0.200 F 
ATOM     83  F   UNL A   1      37.996  34.179  38.785  1.00  0.00    -0.200 F 
ENDBRANCH  49  73
BRANCH  61  84
ATOM     84  C   UNL A   1      44.743  27.575  34.603  1.00  0.00     0.064 A 
ATOM     85  C   UNL A   1      44.650  26.419  35.392  1.00  0.00     0.173 A 
ATOM     86  C   UNL A   1      45.948  28.294  34.631  1.00  0.00     0.173 A 
ATOM     87  F   UNL A   1      43.515  25.703  35.410  1.00  0.00    -0.203 F 
ATOM     88  C   UNL A   1      45.710  26.018  36.199  1.00  0.00     0.198 A 
ATOM     89  C   UNL A   1      47.020  27.869  35.411  1.00  0.00     0.198 A 
ATOM     90  F   UNL A   1      46.094  29.401  33.888  1.00  0.00    -0.203 F 
ATOM     91  F   UNL A   1      45.579  24.942  36.988  1.00  0.00    -0.200 F 
ATOM     92  C   UNL A   1      46.897  26.737  36.202  1.00  0.00     0.200 A 
ATOM     93  F   UNL A   1      48.171  28.554  35.396  1.00  0.00    -0.200 F 
ATOM     94  F   UNL A   1      47.919  26.343  36.973  1.00  0.00    -0.200 F 
ENDBRANCH  61  84
ENDBRANCH  35  36
ENDBRANCH  28  30
ENDBRANCH  27  28
ENDBRANCH  26  27
ENDBRANCH  25  26
ENDBRANCH   1  25
TORSDOF 17
ENDMDL
MODEL 3
REMARK VINA RESULT:     -11.7      2.249      7.962
REMARK SMILES CO[C@@H]1C[C@@H](C(=O)OCCOCCOC(=O)c2ccc(-c3c4nc(c(-c5c(F)c(F)c(F)c(F)c5F)c5ccc([nH]5)c(-c5c(F)c(F)c(F)c(F)c5F)c5nc(c(-c6c(F)c(F)c(F)c(F)c6F)c6ccc3[nH]6)C=C5)C=C4)cc2)N(S(=O)(=O)c2ccc(Cl)cc2F)C1
REMARK SMILES IDX 11 1 10 2 9 3 8 4 6 5 7 6 5 7 3 8 4 9 92 10 80 11 2 12 1 13
REMARK SMILES IDX 81 14 82 15 83 16 84 17 85 18 90 19 86 20 89 21 91 22 87 23
REMARK SMILES IDX 88 24 12 25 13 26 14 27 15 28 16 29 17 30 18 31 79 32 19 33
REMARK SMILES IDX 78 34 20 35 21 36 22 37 72 38 23 39 77 40 71 41 73 42 24 43
REMARK SMILES IDX 76 44 70 45 69 46 25 48 57 49 37 50 56 51 38 52 41 53 55 54
REMARK SMILES IDX 74 55 39 56 40 57 54 59 75 60 42 61 26 62 27 63 35 64 28 65
REMARK SMILES IDX 29 66 33 67 36 68 30 69 31 70 34 71 32 72 58 73 59 74 67 75
REMARK SMILES IDX 60 76 61 77 65 78 68 79 62 80 63 81 66 82 64 83 43 84 44 85
REMARK SMILES IDX 52 86 45 87 46 88 50 89 53 90 47 91 48 92 51 93 49 94
REMARK H PARENT 73 47 41 58
REMARK Flexibility Score: inf
ROOT
ATOM      1  O   UNL A   1      31.758  29.161  25.292  1.00  0.00    -0.374 OA
ENDROOT
BRANCH   1   2
ATOM      2  C   UNL A   1      31.194  28.211  24.388  1.00  0.00     0.202 C 
BRANCH   2   3
ATOM      3  C   UNL A   1      30.912  26.766  24.838  1.00  0.00     0.261 C 
BRANCH   3   4
ATOM      4  O   UNL A   1      32.038  25.870  24.787  1.00  0.00    -0.462 OA
BRANCH   4   5
ATOM      5  C   UNL A   1      32.232  25.272  25.983  1.00  0.00     0.324 C 
ATOM      6  O   UNL A   1      31.424  25.329  26.882  1.00  0.00    -0.250 OA
BRANCH   5   7
ATOM      7  C   UNL A   1      33.474  24.474  26.122  1.00  0.00     0.185 C 
ATOM      8  C   UNL A   1      35.441  23.779  24.922  1.00  0.00     0.135 C 
ATOM      9  C   UNL A   1      34.463  24.929  25.052  1.00  0.00     0.065 C 
ATOM     10  C   UNL A   1      34.733  22.548  25.523  1.00  0.00     0.135 C 
ATOM     11  N   UNL A   1      33.333  22.983  25.950  1.00  0.00    -0.181 NA
BRANCH   8  12
ATOM     12  O   UNL A   1      36.735  24.108  25.428  1.00  0.00    -0.380 OA
ATOM     13  C   UNL A   1      37.674  23.062  25.601  1.00  0.00     0.195 C 
ENDBRANCH   8  12
BRANCH  11  14
ATOM     14  S   UNL A   1      32.125  22.280  24.881  1.00  0.00     0.246 S 
ATOM     15  O   UNL A   1      30.861  22.385  25.576  1.00  0.00    -0.207 OA
ATOM     16  O   UNL A   1      32.300  22.987  23.623  1.00  0.00    -0.207 OA
BRANCH  14  17
ATOM     17  C   UNL A   1      32.508  20.576  24.491  1.00  0.00     0.118 A 
ATOM     18  C   UNL A   1      32.248  20.072  23.211  1.00  0.00     0.026 A 
ATOM     19  C   UNL A   1      32.962  19.686  25.473  1.00  0.00     0.144 A 
ATOM     20  C   UNL A   1      32.578  18.742  22.900  1.00  0.00     0.022 A 
ATOM     21  C   UNL A   1      33.396  18.401  25.141  1.00  0.00     0.061 A 
ATOM     22  F   UNL A   1      33.062  20.044  26.761  1.00  0.00    -0.205 F 
ATOM     23  C   UNL A   1      33.206  17.934  23.849  1.00  0.00     0.044 A 
ATOM     24  Cl  UNL A   1      33.734  16.352  23.424  1.00  0.00    -0.084 Cl
ENDBRANCH  14  17
ENDBRANCH  11  14
ENDBRANCH   5   7
ENDBRANCH   4   5
ENDBRANCH   3   4
ENDBRANCH   2   3
ENDBRANCH   1   2
BRANCH   1  25
ATOM     25  C   UNL A   1      31.167  30.467  25.323  1.00  0.00     0.202 C 
BRANCH  25  26
ATOM     26  C   UNL A   1      31.561  31.356  26.500  1.00  0.00     0.261 C 
BRANCH  26  27
ATOM     27  O   UNL A   1      32.906  31.066  26.905  1.00  0.00    -0.460 OA
BRANCH  27  28
ATOM     28  C   UNL A   1      33.536  32.113  27.489  1.00  0.00     0.338 C 
ATOM     29  O   UNL A   1      33.064  33.198  27.777  1.00  0.00    -0.246 OA
BRANCH  28  30
ATOM     30  C   UNL A   1      34.866  31.669  27.956  1.00  0.00     0.060 A 
ATOM     31  C   UNL A   1      34.998  30.315  28.299  1.00  0.00     0.016 A 
ATOM     32  C   UNL A   1      35.964  32.530  28.016  1.00  0.00     0.016 A 
ATOM     33  C   UNL A   1      36.206  29.834  28.786  1.00  0.00     0.010 A 
ATOM     34  C   UNL A   1      37.172  32.052  28.523  1.00  0.00     0.010 A 
ATOM     35  C   UNL A   1      37.273  30.720  28.962  1.00  0.00    -0.014 A 
BRANCH  35  36
ATOM     36  C   UNL A   1      38.392  30.322  29.842  1.00  0.00     0.031 A 
ATOM     37  C   UNL A   1      39.396  29.347  29.293  1.00  0.00     0.074 A 
ATOM     38  C   UNL A   1      38.532  30.840  31.072  1.00  0.00     0.049 A 
ATOM     39  N   UNL A   1      40.425  28.792  29.877  1.00  0.00    -0.248 NA
ATOM     40  C   UNL A   1      39.205  28.935  27.890  1.00  0.00     0.031 C 
ATOM     41  C   UNL A   1      37.651  31.835  31.675  1.00  0.00     0.029 A 
ATOM     42  N   UNL A   1      39.473  30.588  32.036  1.00  0.00    -0.354 N 
ATOM     43  C   UNL A   1      40.993  27.960  28.921  1.00  0.00     0.074 A 
ATOM     44  C   UNL A   1      40.177  28.051  27.732  1.00  0.00     0.031 C 
ATOM     45  C   UNL A   1      38.084  32.099  32.920  1.00  0.00     0.029 A 
ATOM     46  C   UNL A   1      39.249  31.263  33.209  1.00  0.00     0.049 A 
ATOM     47  H   UNL A   1      40.237  29.981  31.900  1.00  0.00     0.167 HD
ATOM     48  C   UNL A   1      42.102  27.193  29.026  1.00  0.00     0.037 A 
ATOM     49  C   UNL A   1      39.899  31.186  34.385  1.00  0.00     0.037 A 
ATOM     50  C   UNL A   1      42.906  27.115  30.217  1.00  0.00     0.049 A 
ATOM     51  C   UNL A   1      41.086  30.264  34.504  1.00  0.00     0.074 A 
ATOM     52  C   UNL A   1      44.060  26.384  30.432  1.00  0.00     0.029 A 
ATOM     53  N   UNL A   1      42.630  27.789  31.398  1.00  0.00    -0.354 N 
ATOM     54  N   UNL A   1      41.631  29.490  33.596  1.00  0.00    -0.248 NA
ATOM     55  C   UNL A   1      41.752  30.208  35.812  1.00  0.00     0.031 C 
ATOM     56  C   UNL A   1      44.445  26.564  31.763  1.00  0.00     0.029 A 
ATOM     57  C   UNL A   1      43.575  27.465  32.357  1.00  0.00     0.049 A 
ATOM     58  H   UNL A   1      41.875  28.405  31.534  1.00  0.00     0.167 HD
ATOM     59  C   UNL A   1      42.719  28.884  34.209  1.00  0.00     0.074 A 
ATOM     60  C   UNL A   1      42.765  29.390  35.565  1.00  0.00     0.031 C 
ATOM     61  C   UNL A   1      43.604  27.989  33.700  1.00  0.00     0.037 A 
BRANCH  48  62
ATOM     62  C   UNL A   1      42.486  26.356  27.842  1.00  0.00     0.064 A 
ATOM     63  C   UNL A   1      43.432  26.788  26.899  1.00  0.00     0.173 A 
ATOM     64  C   UNL A   1      41.911  25.089  27.657  1.00  0.00     0.173 A 
ATOM     65  F   UNL A   1      43.998  27.999  27.016  1.00  0.00    -0.203 F 
ATOM     66  C   UNL A   1      43.767  25.996  25.804  1.00  0.00     0.198 A 
ATOM     67  C   UNL A   1      42.275  24.284  26.581  1.00  0.00     0.198 A 
ATOM     68  F   UNL A   1      41.000  24.626  28.526  1.00  0.00    -0.203 F 
ATOM     69  F   UNL A   1      44.632  26.452  24.888  1.00  0.00    -0.200 F 
ATOM     70  C   UNL A   1      43.196  24.741  25.650  1.00  0.00     0.200 A 
ATOM     71  F   UNL A   1      41.731  23.067  26.443  1.00  0.00    -0.200 F 
ATOM     72  F   UNL A   1      43.527  23.976  24.603  1.00  0.00    -0.200 F 
ENDBRANCH  48  62
BRANCH  49  73
ATOM     73  C   UNL A   1      39.433  31.989  35.546  1.00  0.00     0.064 A 
ATOM     74  C   UNL A   1      39.918  33.284  35.774  1.00  0.00     0.173 A 
ATOM     75  C   UNL A   1      38.503  31.473  36.461  1.00  0.00     0.173 A 
ATOM     76  F   UNL A   1      40.825  33.815  34.941  1.00  0.00    -0.203 F 
ATOM     77  C   UNL A   1      39.509  34.022  36.883  1.00  0.00     0.198 A 
ATOM     78  C   UNL A   1      38.069  32.224  37.551  1.00  0.00     0.198 A 
ATOM     79  F   UNL A   1      38.005  30.239  36.291  1.00  0.00    -0.203 F 
ATOM     80  F   UNL A   1      40.028  35.238  37.104  1.00  0.00    -0.200 F 
ATOM     81  C   UNL A   1      38.580  33.494  37.767  1.00  0.00     0.200 A 
ATOM     82  F   UNL A   1      37.158  31.716  38.393  1.00  0.00    -0.200 F 
ATOM     83  F   UNL A   1      38.183  34.207  38.829  1.00  0.00    -0.200 F 
ENDBRANCH  49  73
BRANCH  61  84
ATOM     84  C   UNL A   1      44.724  27.538  34.594  1.00  0.00     0.064 A 
ATOM     85  C   UNL A   1      45.930  28.249  34.688  1.00  0.00     0.173 A 
ATOM     86  C   UNL A   1      44.567  26.404  35.405  1.00  0.00     0.173 A 
ATOM     87  F   UNL A   1      46.136  29.334  33.925  1.00  0.00    -0.203 F 
ATOM     88  C   UNL A   1      46.947  27.823  35.537  1.00  0.00     0.198 A 
ATOM     89  C   UNL A   1      45.571  26.002  36.281  1.00  0.00     0.198 A 
ATOM     90  F   UNL A   1      43.430  25.693  35.363  1.00  0.00    -0.203 F 
ATOM     91  F   UNL A   1      48.111  28.486  35.569  1.00  0.00    -0.200 F 
ATOM     92  C   UNL A   1      46.764  26.706  36.340  1.00  0.00     0.200 A 
ATOM     93  F   UNL A   1      45.384  24.935  37.069  1.00  0.00    -0.200 F 
ATOM     94  F   UNL A   1      47.741  26.304  37.163  1.00  0.00    -0.200 F 
ENDBRANCH  61  84
ENDBRANCH  35  36
ENDBRANCH  28  30
ENDBRANCH  27  28
ENDBRANCH  26  27
ENDBRANCH  25  26
ENDBRANCH   1  25
TORSDOF 17
ENDMDL
