MODEL 1
REMARK VINA RESULT:     -12.2      0.000      0.000
REMARK SMILES O=C(OCCOCCOC(=O)[C@H]1[C@H]2CC[C@H](C2)[C@H]1NC(=O)c1ccncc1Cl)c1ccc(-c2c3nc(c(-c4c(F)c(F)c(F)c(F)c4F)c4ccc([nH]4)c(-c4c(F)c(F)c(F)c(F)c4F)c4nc(c(-c5c(F)c(F)c(F)c(F)c5F)c5ccc2[nH]5)C=C4)C=C3)cc1
REMARK SMILES IDX 6 1 5 2 4 3 3 4 2 5 1 6 29 7 30 8 91 9 31 10 90 11 32 12
REMARK SMILES IDX 33 13 34 14 84 15 35 16 89 17 83 18 85 19 36 20 88 21 82 22
REMARK SMILES IDX 81 23 37 25 69 26 49 27 68 28 50 29 53 30 67 31 86 32 51 33
REMARK SMILES IDX 52 34 66 36 87 37 54 38 38 39 39 40 47 41 40 42 41 43 45 44
REMARK SMILES IDX 48 45 42 46 43 47 46 48 44 49 70 50 71 51 79 52 72 53 73 54
REMARK SMILES IDX 77 55 80 56 74 57 75 58 78 59 76 60 55 61 56 62 64 63 57 64
REMARK SMILES IDX 58 65 62 66 65 67 59 68 60 69 63 70 61 71 7 72 8 73 9 74
REMARK SMILES IDX 10 75 11 76 12 77 13 78 18 79 14 80 17 81 16 82 15 83 19 84
REMARK SMILES IDX 20 85 21 87 22 88 23 89 27 90 24 91 26 92 28 93 25 94
REMARK H PARENT 85 24 53 35 19 86
REMARK Flexibility Score: inf
ROOT
ATOM      1  O   UNL A   1      33.628  29.105  23.315  1.00  0.00    -0.374 OA
ENDROOT
BRANCH   1   2
ATOM      2  C   UNL A   1      32.281  29.022  23.761  1.00  0.00     0.202 C 
BRANCH   2   3
ATOM      3  C   UNL A   1      31.928  29.587  25.143  1.00  0.00     0.261 C 
BRANCH   3   4
ATOM      4  O   UNL A   1      32.977  29.552  26.129  1.00  0.00    -0.460 OA
BRANCH   4   5
ATOM      5  C   UNL A   1      33.349  30.649  26.834  1.00  0.00     0.338 C 
ATOM      6  O   UNL A   1      32.673  31.679  26.835  1.00  0.00    -0.246 OA
BRANCH   5   7
ATOM      7  C   UNL A   1      34.626  30.582  27.572  1.00  0.00     0.060 A 
ATOM      8  C   UNL A   1      35.069  29.362  28.050  1.00  0.00     0.016 A 
ATOM      9  C   UNL A   1      35.427  31.701  27.770  1.00  0.00     0.016 A 
ATOM     10  C   UNL A   1      36.091  29.255  28.952  1.00  0.00     0.010 A 
ATOM     11  C   UNL A   1      36.631  31.554  28.467  1.00  0.00     0.010 A 
ATOM     12  C   UNL A   1      36.954  30.326  29.075  1.00  0.00    -0.014 A 
BRANCH  12  13
ATOM     13  C   UNL A   1      38.197  30.104  29.832  1.00  0.00     0.031 A 
ATOM     14  C   UNL A   1      39.266  29.286  29.202  1.00  0.00     0.074 A 
ATOM     15  C   UNL A   1      38.361  30.698  31.033  1.00  0.00     0.049 A 
ATOM     16  N   UNL A   1      40.307  28.729  29.752  1.00  0.00    -0.248 NA
ATOM     17  C   UNL A   1      39.132  29.038  27.757  1.00  0.00     0.031 C 
ATOM     18  C   UNL A   1      37.421  31.636  31.664  1.00  0.00     0.029 A 
ATOM     19  N   UNL A   1      39.390  30.625  31.932  1.00  0.00    -0.354 N 
ATOM     20  C   UNL A   1      40.904  27.993  28.741  1.00  0.00     0.074 A 
ATOM     21  C   UNL A   1      40.122  28.186  27.541  1.00  0.00     0.031 C 
ATOM     22  C   UNL A   1      37.940  32.087  32.812  1.00  0.00     0.029 A 
ATOM     23  C   UNL A   1      39.169  31.361  33.072  1.00  0.00     0.049 A 
ATOM     24  H   UNL A   1      40.208  30.100  31.778  1.00  0.00     0.167 HD
ATOM     25  C   UNL A   1      41.998  27.206  28.843  1.00  0.00     0.037 A 
ATOM     26  C   UNL A   1      39.847  31.377  34.232  1.00  0.00     0.037 A 
ATOM     27  C   UNL A   1      42.751  27.086  30.063  1.00  0.00     0.049 A 
ATOM     28  C   UNL A   1      41.021  30.449  34.343  1.00  0.00     0.074 A 
ATOM     29  C   UNL A   1      43.844  26.288  30.338  1.00  0.00     0.029 A 
ATOM     30  N   UNL A   1      42.480  27.815  31.218  1.00  0.00    -0.354 N 
ATOM     31  N   UNL A   1      41.521  29.642  33.436  1.00  0.00    -0.248 NA
ATOM     32  C   UNL A   1      41.704  30.401  35.639  1.00  0.00     0.031 C 
ATOM     33  C   UNL A   1      44.208  26.507  31.673  1.00  0.00     0.029 A 
ATOM     34  C   UNL A   1      43.380  27.481  32.213  1.00  0.00     0.049 A 
ATOM     35  H   UNL A   1      41.753  28.472  31.313  1.00  0.00     0.167 HD
ATOM     36  C   UNL A   1      42.588  29.000  34.040  1.00  0.00     0.074 A 
ATOM     37  C   UNL A   1      42.671  29.529  35.391  1.00  0.00     0.031 C 
ATOM     38  C   UNL A   1      43.421  28.058  33.535  1.00  0.00     0.037 A 
BRANCH  25  39
ATOM     39  C   UNL A   1      42.349  26.373  27.647  1.00  0.00     0.064 A 
ATOM     40  C   UNL A   1      41.764  25.122  27.405  1.00  0.00     0.173 A 
ATOM     41  C   UNL A   1      43.355  26.804  26.768  1.00  0.00     0.173 A 
ATOM     42  F   UNL A   1      40.822  24.645  28.233  1.00  0.00    -0.203 F 
ATOM     43  C   UNL A   1      42.203  24.314  26.356  1.00  0.00     0.198 A 
ATOM     44  C   UNL A   1      43.769  26.010  25.702  1.00  0.00     0.198 A 
ATOM     45  F   UNL A   1      43.958  27.988  26.958  1.00  0.00    -0.203 F 
ATOM     46  F   UNL A   1      41.686  23.089  26.194  1.00  0.00    -0.200 F 
ATOM     47  C   UNL A   1      43.203  24.761  25.506  1.00  0.00     0.200 A 
ATOM     48  F   UNL A   1      44.735  26.445  24.880  1.00  0.00    -0.200 F 
ATOM     49  F   UNL A   1      43.637  23.977  24.509  1.00  0.00    -0.200 F 
ENDBRANCH  25  39
BRANCH  26  50
ATOM     50  C   UNL A   1      39.385  32.219  35.369  1.00  0.00     0.064 A 
ATOM     51  C   UNL A   1      38.511  31.709  36.338  1.00  0.00     0.173 A 
ATOM     52  C   UNL A   1      39.820  33.546  35.527  1.00  0.00     0.173 A 
ATOM     53  F   UNL A   1      38.050  30.454  36.229  1.00  0.00    -0.203 F 
ATOM     54  C   UNL A   1      38.080  32.493  37.407  1.00  0.00     0.198 A 
ATOM     55  C   UNL A   1      39.416  34.319  36.615  1.00  0.00     0.198 A 
ATOM     56  F   UNL A   1      40.660  34.090  34.634  1.00  0.00    -0.203 F 
ATOM     57  F   UNL A   1      37.210  31.991  38.294  1.00  0.00    -0.200 F 
ATOM     58  C   UNL A   1      38.539  33.794  37.550  1.00  0.00     0.200 A 
ATOM     59  F   UNL A   1      39.880  35.567  36.757  1.00  0.00    -0.200 F 
ATOM     60  F   UNL A   1      38.131  34.544  38.583  1.00  0.00    -0.200 F 
ENDBRANCH  26  50
BRANCH  38  61
ATOM     61  C   UNL A   1      44.521  27.591  34.438  1.00  0.00     0.064 A 
ATOM     62  C   UNL A   1      45.748  28.262  34.511  1.00  0.00     0.173 A 
ATOM     63  C   UNL A   1      44.313  26.486  35.277  1.00  0.00     0.173 A 
ATOM     64  F   UNL A   1      45.994  29.310  33.710  1.00  0.00    -0.203 F 
ATOM     65  C   UNL A   1      46.740  27.832  35.384  1.00  0.00     0.198 A 
ATOM     66  C   UNL A   1      45.295  26.080  36.172  1.00  0.00     0.198 A 
ATOM     67  F   UNL A   1      43.151  25.817  35.239  1.00  0.00    -0.203 F 
ATOM     68  F   UNL A   1      47.923  28.460  35.412  1.00  0.00    -0.200 F 
ATOM     69  C   UNL A   1      46.509  26.749  36.221  1.00  0.00     0.200 A 
ATOM     70  F   UNL A   1      45.065  25.042  36.988  1.00  0.00    -0.200 F 
ATOM     71  F   UNL A   1      47.461  26.346  37.074  1.00  0.00    -0.200 F 
ENDBRANCH  38  61
ENDBRANCH  12  13
ENDBRANCH   5   7
ENDBRANCH   4   5
ENDBRANCH   3   4
ENDBRANCH   2   3
ENDBRANCH   1   2
BRANCH   1  72
ATOM     72  C   UNL A   1      34.021  28.192  22.301  1.00  0.00     0.202 C 
BRANCH  72  73
ATOM     73  C   UNL A   1      33.150  26.946  22.317  1.00  0.00     0.261 C 
BRANCH  73  74
ATOM     74  O   UNL A   1      33.968  25.762  22.368  1.00  0.00    -0.463 OA
BRANCH  74  75
ATOM     75  C   UNL A   1      33.950  25.062  23.542  1.00  0.00     0.311 C 
ATOM     76  O   UNL A   1      33.368  25.415  24.564  1.00  0.00    -0.252 OA
BRANCH  75  77
ATOM     77  C   UNL A   1      34.770  23.804  23.391  1.00  0.00     0.125 C 
ATOM     78  C   UNL A   1      36.158  23.974  24.055  1.00  0.00     0.006 C 
ATOM     79  C   UNL A   1      34.314  22.382  23.855  1.00  0.00     0.100 C 
ATOM     80  C   UNL A   1      36.055  24.138  25.582  1.00  0.00     0.005 C 
ATOM     81  C   UNL A   1      36.696  22.547  23.955  1.00  0.00     0.010 C 
ATOM     82  C   UNL A   1      35.523  21.954  24.736  1.00  0.00     0.013 C 
ATOM     83  C   UNL A   1      35.577  22.763  26.046  1.00  0.00     0.006 C 
BRANCH  79  84
ATOM     84  N   UNL A   1      33.055  22.133  24.546  1.00  0.00    -0.348 N 
ATOM     85  C   UNL A   1      32.380  20.954  24.819  1.00  0.00     0.253 C 
ATOM     86  H   UNL A   1      32.604  22.944  24.875  1.00  0.00     0.164 HD
ATOM     87  O   UNL A   1      31.400  20.996  25.564  1.00  0.00    -0.269 OA
BRANCH  85  88
ATOM     88  C   UNL A   1      32.634  19.685  24.089  1.00  0.00     0.061 A 
ATOM     89  C   UNL A   1      33.346  18.708  24.804  1.00  0.00     0.035 A 
ATOM     90  C   UNL A   1      32.274  19.397  22.779  1.00  0.00     0.072 A 
ATOM     91  C   UNL A   1      33.473  17.435  24.280  1.00  0.00     0.112 A 
ATOM     92  C   UNL A   1      32.445  18.090  22.336  1.00  0.00     0.132 A 
ATOM     93  Cl  UNL A   1      31.780  20.572  21.632  1.00  0.00    -0.082 Cl
ATOM     94  N   UNL A   1      32.995  17.094  23.072  1.00  0.00    -0.263 NA
ENDBRANCH  85  88
ENDBRANCH  79  84
ENDBRANCH  75  77
ENDBRANCH  74  75
ENDBRANCH  73  74
ENDBRANCH  72  73
ENDBRANCH   1  72
TORSDOF 16
ENDMDL
MODEL 2
REMARK VINA RESULT:     -11.8      4.478      9.943
REMARK SMILES O=C(OCCOCCOC(=O)[C@H]1[C@H]2CC[C@H](C2)[C@H]1NC(=O)c1ccncc1Cl)c1ccc(-c2c3nc(c(-c4c(F)c(F)c(F)c(F)c4F)c4ccc([nH]4)c(-c4c(F)c(F)c(F)c(F)c4F)c4nc(c(-c5c(F)c(F)c(F)c(F)c5F)c5ccc2[nH]5)C=C4)C=C3)cc1
REMARK SMILES IDX 6 1 5 2 4 3 3 4 2 5 1 6 29 7 30 8 91 9 31 10 90 11 32 12
REMARK SMILES IDX 33 13 34 14 84 15 35 16 89 17 83 18 85 19 36 20 88 21 82 22
REMARK SMILES IDX 81 23 37 25 69 26 49 27 68 28 50 29 53 30 67 31 86 32 51 33
REMARK SMILES IDX 52 34 66 36 87 37 54 38 38 39 39 40 47 41 40 42 41 43 45 44
REMARK SMILES IDX 48 45 42 46 43 47 46 48 44 49 70 50 71 51 79 52 72 53 73 54
REMARK SMILES IDX 77 55 80 56 74 57 75 58 78 59 76 60 55 61 56 62 64 63 57 64
REMARK SMILES IDX 58 65 62 66 65 67 59 68 60 69 63 70 61 71 7 72 8 73 9 74
REMARK SMILES IDX 10 75 11 76 12 77 13 78 18 79 14 80 17 81 16 82 15 83 19 84
REMARK SMILES IDX 20 85 21 87 22 88 23 89 27 90 24 91 26 92 28 93 25 94
REMARK H PARENT 85 24 53 35 19 86
REMARK Flexibility Score: inf
ROOT
ATOM      1  O   UNL A   1      33.809  21.413  25.086  1.00  0.00    -0.374 OA
ENDROOT
BRANCH   1   2
ATOM      2  C   UNL A   1      35.109  20.842  25.001  1.00  0.00     0.202 C 
BRANCH   2   3
ATOM      3  C   UNL A   1      36.313  21.778  24.835  1.00  0.00     0.261 C 
BRANCH   3   4
ATOM      4  O   UNL A   1      37.106  22.006  26.014  1.00  0.00    -0.460 OA
BRANCH   4   5
ATOM      5  C   UNL A   1      38.444  21.789  26.045  1.00  0.00     0.338 C 
ATOM      6  O   UNL A   1      38.932  20.708  25.712  1.00  0.00    -0.246 OA
BRANCH   5   7
ATOM      7  C   UNL A   1      39.301  22.885  26.539  1.00  0.00     0.060 A 
ATOM      8  C   UNL A   1      39.022  24.186  26.158  1.00  0.00     0.016 A 
ATOM      9  C   UNL A   1      40.361  22.663  27.410  1.00  0.00     0.016 A 
ATOM     10  C   UNL A   1      39.904  25.212  26.355  1.00  0.00     0.010 A 
ATOM     11  C   UNL A   1      41.117  23.756  27.845  1.00  0.00     0.010 A 
ATOM     12  C   UNL A   1      40.896  25.035  27.299  1.00  0.00    -0.014 A 
BRANCH  12  13
ATOM     13  C   UNL A   1      41.662  26.226  27.701  1.00  0.00     0.031 A 
ATOM     14  C   UNL A   1      41.011  27.205  28.612  1.00  0.00     0.074 A 
ATOM     15  C   UNL A   1      42.941  26.365  27.296  1.00  0.00     0.049 A 
ATOM     16  N   UNL A   1      41.355  28.431  28.883  1.00  0.00    -0.248 NA
ATOM     17  C   UNL A   1      39.788  26.749  29.293  1.00  0.00     0.031 C 
ATOM     18  C   UNL A   1      43.708  25.380  26.518  1.00  0.00     0.029 A 
ATOM     19  N   UNL A   1      43.840  27.376  27.502  1.00  0.00    -0.354 N 
ATOM     20  C   UNL A   1      40.346  28.923  29.695  1.00  0.00     0.074 A 
ATOM     21  C   UNL A   1      39.385  27.860  29.888  1.00  0.00     0.031 C 
ATOM     22  C   UNL A   1      44.965  25.811  26.363  1.00  0.00     0.029 A 
ATOM     23  C   UNL A   1      45.052  27.159  26.892  1.00  0.00     0.049 A 
ATOM     24  H   UNL A   1      43.638  28.179  28.035  1.00  0.00     0.167 HD
ATOM     25  C   UNL A   1      40.242  30.172  30.199  1.00  0.00     0.037 A 
ATOM     26  C   UNL A   1      46.087  27.998  26.710  1.00  0.00     0.037 A 
ATOM     27  C   UNL A   1      41.254  31.173  29.995  1.00  0.00     0.049 A 
ATOM     28  C   UNL A   1      45.923  29.398  27.224  1.00  0.00     0.074 A 
ATOM     29  C   UNL A   1      41.266  32.496  30.391  1.00  0.00     0.029 A 
ATOM     30  N   UNL A   1      42.458  30.938  29.337  1.00  0.00    -0.354 N 
ATOM     31  N   UNL A   1      44.913  29.921  27.881  1.00  0.00    -0.248 NA
ATOM     32  C   UNL A   1      47.014  30.335  26.946  1.00  0.00     0.031 C 
ATOM     33  C   UNL A   1      42.461  33.069  29.938  1.00  0.00     0.029 A 
ATOM     34  C   UNL A   1      43.219  32.091  29.308  1.00  0.00     0.049 A 
ATOM     35  H   UNL A   1      42.729  30.075  28.947  1.00  0.00     0.167 HD
ATOM     36  C   UNL A   1      45.249  31.243  28.113  1.00  0.00     0.074 A 
ATOM     37  C   UNL A   1      46.570  31.435  27.537  1.00  0.00     0.031 C 
ATOM     38  C   UNL A   1      44.538  32.214  28.734  1.00  0.00     0.037 A 
BRANCH  25  39
ATOM     39  C   UNL A   1      38.966  30.514  30.909  1.00  0.00     0.064 A 
ATOM     40  C   UNL A   1      37.841  31.011  30.234  1.00  0.00     0.173 A 
ATOM     41  C   UNL A   1      38.899  30.418  32.307  1.00  0.00     0.173 A 
ATOM     42  F   UNL A   1      37.863  31.157  28.901  1.00  0.00    -0.203 F 
ATOM     43  C   UNL A   1      36.715  31.440  30.936  1.00  0.00     0.198 A 
ATOM     44  C   UNL A   1      37.761  30.816  33.002  1.00  0.00     0.198 A 
ATOM     45  F   UNL A   1      39.950  29.960  33.005  1.00  0.00    -0.203 F 
ATOM     46  F   UNL A   1      35.685  31.987  30.276  1.00  0.00    -0.200 F 
ATOM     47  C   UNL A   1      36.676  31.340  32.318  1.00  0.00     0.200 A 
ATOM     48  F   UNL A   1      37.725  30.717  34.339  1.00  0.00    -0.200 F 
ATOM     49  F   UNL A   1      35.600  31.770  32.993  1.00  0.00    -0.200 F 
ENDBRANCH  25  39
BRANCH  26  50
ATOM     50  C   UNL A   1      47.294  27.560  25.956  1.00  0.00     0.064 A 
ATOM     51  C   UNL A   1      47.371  27.710  24.566  1.00  0.00     0.173 A 
ATOM     52  C   UNL A   1      48.406  27.000  26.608  1.00  0.00     0.173 A 
ATOM     53  F   UNL A   1      46.332  28.223  23.890  1.00  0.00    -0.203 F 
ATOM     54  C   UNL A   1      48.502  27.306  23.857  1.00  0.00     0.198 A 
ATOM     55  C   UNL A   1      49.550  26.629  25.903  1.00  0.00     0.198 A 
ATOM     56  F   UNL A   1      48.394  26.835  27.939  1.00  0.00    -0.203 F 
ATOM     57  F   UNL A   1      48.529  27.423  22.522  1.00  0.00    -0.200 F 
ATOM     58  C   UNL A   1      49.593  26.774  24.526  1.00  0.00     0.200 A 
ATOM     59  F   UNL A   1      50.608  26.135  26.559  1.00  0.00    -0.200 F 
ATOM     60  F   UNL A   1      50.683  26.394  23.844  1.00  0.00    -0.200 F 
ENDBRANCH  26  50
BRANCH  38  61
ATOM     61  C   UNL A   1      45.207  33.547  28.867  1.00  0.00     0.064 A 
ATOM     62  C   UNL A   1      46.064  33.837  29.937  1.00  0.00     0.173 A 
ATOM     63  C   UNL A   1      45.024  34.521  27.875  1.00  0.00     0.173 A 
ATOM     64  F   UNL A   1      46.249  32.939  30.917  1.00  0.00    -0.203 F 
ATOM     65  C   UNL A   1      46.704  35.068  30.019  1.00  0.00     0.198 A 
ATOM     66  C   UNL A   1      45.692  35.738  27.944  1.00  0.00     0.198 A 
ATOM     67  F   UNL A   1      44.214  34.283  26.833  1.00  0.00    -0.203 F 
ATOM     68  F   UNL A   1      47.487  35.345  31.070  1.00  0.00    -0.200 F 
ATOM     69  C   UNL A   1      46.526  36.013  29.018  1.00  0.00     0.200 A 
ATOM     70  F   UNL A   1      45.529  36.643  26.969  1.00  0.00    -0.200 F 
ATOM     71  F   UNL A   1      47.156  37.193  29.090  1.00  0.00    -0.200 F 
ENDBRANCH  38  61
ENDBRANCH  12  13
ENDBRANCH   5   7
ENDBRANCH   4   5
ENDBRANCH   3   4
ENDBRANCH   2   3
ENDBRANCH   1   2
BRANCH   1  72
ATOM     72  C   UNL A   1      33.392  21.862  26.367  1.00  0.00     0.202 C 
BRANCH  72  73
ATOM     73  C   UNL A   1      32.572  23.138  26.261  1.00  0.00     0.261 C 
BRANCH  73  74
ATOM     74  O   UNL A   1      33.398  24.288  26.523  1.00  0.00    -0.463 OA
BRANCH  74  75
ATOM     75  C   UNL A   1      33.331  25.305  25.613  1.00  0.00     0.311 C 
ATOM     76  O   UNL A   1      34.000  25.376  24.586  1.00  0.00    -0.252 OA
BRANCH  75  77
ATOM     77  C   UNL A   1      32.328  26.332  26.078  1.00  0.00     0.125 C 
ATOM     78  C   UNL A   1      33.028  27.457  26.879  1.00  0.00     0.006 C 
ATOM     79  C   UNL A   1      31.347  27.109  25.139  1.00  0.00     0.100 C 
ATOM     80  C   UNL A   1      33.987  28.283  26.003  1.00  0.00     0.005 C 
ATOM     81  C   UNL A   1      31.874  28.444  27.050  1.00  0.00     0.010 C 
ATOM     82  C   UNL A   1      31.649  28.580  25.543  1.00  0.00     0.013 C 
ATOM     83  C   UNL A   1      33.042  29.021  25.056  1.00  0.00     0.006 C 
BRANCH  79  84
ATOM     84  N   UNL A   1      31.344  26.959  23.689  1.00  0.00    -0.348 N 
ATOM     85  C   UNL A   1      30.635  27.628  22.704  1.00  0.00     0.253 C 
ATOM     86  H   UNL A   1      31.950  26.260  23.351  1.00  0.00     0.164 HD
ATOM     87  O   UNL A   1      30.930  27.421  21.526  1.00  0.00    -0.269 OA
BRANCH  85  88
ATOM     88  C   UNL A   1      29.398  28.404  22.976  1.00  0.00     0.061 A 
ATOM     89  C   UNL A   1      29.522  29.798  22.862  1.00  0.00     0.035 A 
ATOM     90  C   UNL A   1      28.168  27.891  23.365  1.00  0.00     0.072 A 
ATOM     91  C   UNL A   1      28.390  30.591  22.918  1.00  0.00     0.112 A 
ATOM     92  C   UNL A   1      27.087  28.765  23.400  1.00  0.00     0.132 A 
ATOM     93  Cl  UNL A   1      27.926  26.297  23.948  1.00  0.00    -0.082 Cl
ATOM     94  N   UNL A   1      27.163  30.093  23.142  1.00  0.00    -0.263 NA
ENDBRANCH  85  88
ENDBRANCH  79  84
ENDBRANCH  75  77
ENDBRANCH  74  75
ENDBRANCH  73  74
ENDBRANCH  72  73
ENDBRANCH   1  72
TORSDOF 16
ENDMDL
MODEL 3
REMARK VINA RESULT:     -11.7      1.639      2.907
REMARK SMILES O=C(OCCOCCOC(=O)[C@H]1[C@H]2CC[C@H](C2)[C@H]1NC(=O)c1ccncc1Cl)c1ccc(-c2c3nc(c(-c4c(F)c(F)c(F)c(F)c4F)c4ccc([nH]4)c(-c4c(F)c(F)c(F)c(F)c4F)c4nc(c(-c5c(F)c(F)c(F)c(F)c5F)c5ccc2[nH]5)C=C4)C=C3)cc1
REMARK SMILES IDX 6 1 5 2 4 3 3 4 2 5 1 6 29 7 30 8 91 9 31 10 90 11 32 12
REMARK SMILES IDX 33 13 34 14 84 15 35 16 89 17 83 18 85 19 36 20 88 21 82 22
REMARK SMILES IDX 81 23 37 25 69 26 49 27 68 28 50 29 53 30 67 31 86 32 51 33
REMARK SMILES IDX 52 34 66 36 87 37 54 38 38 39 39 40 47 41 40 42 41 43 45 44
REMARK SMILES IDX 48 45 42 46 43 47 46 48 44 49 70 50 71 51 79 52 72 53 73 54
REMARK SMILES IDX 77 55 80 56 74 57 75 58 78 59 76 60 55 61 56 62 64 63 57 64
REMARK SMILES IDX 58 65 62 66 65 67 59 68 60 69 63 70 61 71 7 72 8 73 9 74
REMARK SMILES IDX 10 75 11 76 12 77 13 78 18 79 14 80 17 81 16 82 15 83 19 84
REMARK SMILES IDX 20 85 21 87 22 88 23 89 27 90 24 91 26 92 28 93 25 94
REMARK H PARENT 85 24 53 35 19 86
REMARK Flexibility Score: inf
ROOT
ATOM      1  O   UNL A   1      30.840  28.119  24.310  1.00  0.00    -0.374 OA
ENDROOT
BRANCH   1   2
ATOM      2  C   UNL A   1      31.641  29.268  24.553  1.00  0.00     0.202 C 
BRANCH   2   3
ATOM      3  C   UNL A   1      32.075  29.570  25.993  1.00  0.00     0.261 C 
BRANCH   3   4
ATOM      4  O   UNL A   1      33.396  30.118  26.156  1.00  0.00    -0.460 OA
BRANCH   4   5
ATOM      5  C   UNL A   1      33.682  31.067  27.081  1.00  0.00     0.338 C 
ATOM      6  O   UNL A   1      32.936  32.028  27.274  1.00  0.00    -0.246 OA
BRANCH   5   7
ATOM      7  C   UNL A   1      34.951  30.935  27.823  1.00  0.00     0.060 A 
ATOM      8  C   UNL A   1      35.299  29.705  28.355  1.00  0.00     0.016 A 
ATOM      9  C   UNL A   1      35.836  31.996  27.975  1.00  0.00     0.016 A 
ATOM     10  C   UNL A   1      36.311  29.559  29.262  1.00  0.00     0.010 A 
ATOM     11  C   UNL A   1      37.026  31.787  28.680  1.00  0.00     0.010 A 
ATOM     12  C   UNL A   1      37.254  30.565  29.341  1.00  0.00    -0.014 A 
BRANCH  12  13
ATOM     13  C   UNL A   1      38.477  30.281  30.110  1.00  0.00     0.031 A 
ATOM     14  C   UNL A   1      39.552  29.492  29.452  1.00  0.00     0.074 A 
ATOM     15  C   UNL A   1      38.621  30.796  31.349  1.00  0.00     0.049 A 
ATOM     16  N   UNL A   1      40.575  28.889  29.988  1.00  0.00    -0.248 NA
ATOM     17  C   UNL A   1      39.448  29.337  27.992  1.00  0.00     0.031 C 
ATOM     18  C   UNL A   1      37.676  31.703  32.017  1.00  0.00     0.029 A 
ATOM     19  N   UNL A   1      39.628  30.655  32.264  1.00  0.00    -0.354 N 
ATOM     20  C   UNL A   1      41.186  28.211  28.946  1.00  0.00     0.074 A 
ATOM     21  C   UNL A   1      40.433  28.489  27.744  1.00  0.00     0.031 C 
ATOM     22  C   UNL A   1      38.174  32.075  33.203  1.00  0.00     0.029 A 
ATOM     23  C   UNL A   1      39.389  31.320  33.443  1.00  0.00     0.049 A 
ATOM     24  H   UNL A   1      40.443  30.130  32.095  1.00  0.00     0.167 HD
ATOM     25  C   UNL A   1      42.270  27.407  29.022  1.00  0.00     0.037 A 
ATOM     26  C   UNL A   1      40.041  31.254  34.617  1.00  0.00     0.037 A 
ATOM     27  C   UNL A   1      42.993  27.201  30.248  1.00  0.00     0.049 A 
ATOM     28  C   UNL A   1      41.202  30.307  34.694  1.00  0.00     0.074 A 
ATOM     29  C   UNL A   1      44.071  26.374  30.496  1.00  0.00     0.029 A 
ATOM     30  N   UNL A   1      42.704  27.858  31.440  1.00  0.00    -0.354 N 
ATOM     31  N   UNL A   1      41.715  29.553  33.749  1.00  0.00    -0.248 NA
ATOM     32  C   UNL A   1      41.855  30.169  35.999  1.00  0.00     0.031 C 
ATOM     33  C   UNL A   1      44.407  26.504  31.849  1.00  0.00     0.029 A 
ATOM     34  C   UNL A   1      43.578  27.452  32.432  1.00  0.00     0.049 A 
ATOM     35  H   UNL A   1      41.982  28.517  31.561  1.00  0.00     0.167 HD
ATOM     36  C   UNL A   1      42.761  28.862  34.334  1.00  0.00     0.074 A 
ATOM     37  C   UNL A   1      42.819  29.303  35.717  1.00  0.00     0.031 C 
ATOM     38  C   UNL A   1      43.595  27.943  33.789  1.00  0.00     0.037 A 
BRANCH  25  39
ATOM     39  C   UNL A   1      42.639  26.647  27.783  1.00  0.00     0.064 A 
ATOM     40  C   UNL A   1      42.218  25.328  27.558  1.00  0.00     0.173 A 
ATOM     41  C   UNL A   1      43.502  27.228  26.841  1.00  0.00     0.173 A 
ATOM     42  F   UNL A   1      41.421  24.713  28.444  1.00  0.00    -0.203 F 
ATOM     43  C   UNL A   1      42.683  24.605  26.460  1.00  0.00     0.198 A 
ATOM     44  C   UNL A   1      43.938  26.514  25.728  1.00  0.00     0.198 A 
ATOM     45  F   UNL A   1      43.946  28.482  27.012  1.00  0.00    -0.203 F 
ATOM     46  F   UNL A   1      42.332  23.320  26.310  1.00  0.00    -0.200 F 
ATOM     47  C   UNL A   1      43.540  25.199  25.546  1.00  0.00     0.200 A 
ATOM     48  F   UNL A   1      44.765  27.091  24.845  1.00  0.00    -0.200 F 
ATOM     49  F   UNL A   1      44.000  24.497  24.501  1.00  0.00    -0.200 F 
ENDBRANCH  25  39
BRANCH  26  50
ATOM     50  C   UNL A   1      39.561  32.028  35.794  1.00  0.00     0.064 A 
ATOM     51  C   UNL A   1      40.102  33.283  36.103  1.00  0.00     0.173 A 
ATOM     52  C   UNL A   1      38.538  31.543  36.627  1.00  0.00     0.173 A 
ATOM     53  F   UNL A   1      41.092  33.787  35.351  1.00  0.00    -0.203 F 
ATOM     54  C   UNL A   1      39.651  34.014  37.201  1.00  0.00     0.198 A 
ATOM     55  C   UNL A   1      38.065  32.289  37.705  1.00  0.00     0.198 A 
ATOM     56  F   UNL A   1      37.978  30.350  36.381  1.00  0.00    -0.203 F 
ATOM     57  F   UNL A   1      40.218  35.192  37.496  1.00  0.00    -0.200 F 
ATOM     58  C   UNL A   1      38.628  33.521  37.996  1.00  0.00     0.200 A 
ATOM     59  F   UNL A   1      37.061  31.816  38.456  1.00  0.00    -0.200 F 
ATOM     60  F   UNL A   1      38.190  34.228  39.047  1.00  0.00    -0.200 F 
ENDBRANCH  26  50
BRANCH  38  61
ATOM     61  C   UNL A   1      44.669  27.407  34.684  1.00  0.00     0.064 A 
ATOM     62  C   UNL A   1      45.902  28.057  34.825  1.00  0.00     0.173 A 
ATOM     63  C   UNL A   1      44.430  26.256  35.448  1.00  0.00     0.173 A 
ATOM     64  F   UNL A   1      46.177  29.150  34.097  1.00  0.00    -0.203 F 
ATOM     65  C   UNL A   1      46.869  27.561  35.691  1.00  0.00     0.198 A 
ATOM     66  C   UNL A   1      45.387  25.782  36.336  1.00  0.00     0.198 A 
ATOM     67  F   UNL A   1      43.262  25.605  35.344  1.00  0.00    -0.203 F 
ATOM     68  F   UNL A   1      48.059  28.171  35.783  1.00  0.00    -0.200 F 
ATOM     69  C   UNL A   1      46.608  26.431  36.453  1.00  0.00     0.200 A 
ATOM     70  F   UNL A   1      45.127  24.699  37.082  1.00  0.00    -0.200 F 
ATOM     71  F   UNL A   1      47.536  25.964  37.300  1.00  0.00    -0.200 F 
ENDBRANCH  38  61
ENDBRANCH  12  13
ENDBRANCH   5   7
ENDBRANCH   4   5
ENDBRANCH   3   4
ENDBRANCH   2   3
ENDBRANCH   1   2
BRANCH   1  72
ATOM     72  C   UNL A   1      30.785  27.149  25.346  1.00  0.00     0.202 C 
BRANCH  72  73
ATOM     73  C   UNL A   1      30.060  25.894  24.885  1.00  0.00     0.261 C 
BRANCH  73  74
ATOM     74  O   UNL A   1      30.717  24.719  25.395  1.00  0.00    -0.463 OA
BRANCH  74  75
ATOM     75  C   UNL A   1      31.935  24.419  24.852  1.00  0.00     0.311 C 
ATOM     76  O   UNL A   1      32.236  24.573  23.672  1.00  0.00    -0.252 OA
BRANCH  75  77
ATOM     77  C   UNL A   1      32.838  23.853  25.920  1.00  0.00     0.125 C 
ATOM     78  C   UNL A   1      32.172  22.640  26.613  1.00  0.00     0.006 C 
ATOM     79  C   UNL A   1      34.308  23.377  25.684  1.00  0.00     0.100 C 
ATOM     80  C   UNL A   1      31.988  21.451  25.652  1.00  0.00     0.005 C 
ATOM     81  C   UNL A   1      33.328  22.135  27.474  1.00  0.00     0.010 C 
ATOM     82  C   UNL A   1      34.256  21.939  26.274  1.00  0.00     0.013 C 
ATOM     83  C   UNL A   1      33.422  20.997  25.384  1.00  0.00     0.006 C 
BRANCH  79  84
ATOM     84  N   UNL A   1      34.946  23.376  24.373  1.00  0.00    -0.348 N 
ATOM     85  C   UNL A   1      36.211  22.976  23.972  1.00  0.00     0.253 C 
ATOM     86  H   UNL A   1      34.380  23.722  23.645  1.00  0.00     0.164 HD
ATOM     87  O   UNL A   1      36.457  22.928  22.766  1.00  0.00    -0.269 OA
BRANCH  85  88
ATOM     88  C   UNL A   1      37.350  22.818  24.913  1.00  0.00     0.061 A 
ATOM     89  C   UNL A   1      37.868  24.012  25.440  1.00  0.00     0.035 A 
ATOM     90  C   UNL A   1      37.962  21.627  25.280  1.00  0.00     0.072 A 
ATOM     91  C   UNL A   1      38.804  23.961  26.457  1.00  0.00     0.112 A 
ATOM     92  C   UNL A   1      38.897  21.673  26.309  1.00  0.00     0.132 A 
ATOM     93  Cl  UNL A   1      37.755  20.139  24.454  1.00  0.00    -0.082 Cl
ATOM     94  N   UNL A   1      39.298  22.807  26.934  1.00  0.00    -0.263 NA
ENDBRANCH  85  88
ENDBRANCH  79  84
ENDBRANCH  75  77
ENDBRANCH  74  75
ENDBRANCH  73  74
ENDBRANCH  72  73
ENDBRANCH   1  72
TORSDOF 16
ENDMDL
