MODEL 1
REMARK VINA RESULT:     -11.2      0.000      0.000
REMARK SMILES CCc1nc(COC)cc(N2CCCC[C@H]2C(=O)OCCOCCOC(=O)c2ccc(-c3c4nc(c(-c5c(F)c(F)c(F)c(F)c5F)c5ccc([nH]5)c(-c5c(F)c(F)c(F)c(F)c5F)c5nc(c(-c6c(F)c(F)c(F)c(F)c6F)c6ccc3[nH]6)C=C5)C=C4)cc2)n1
REMARK SMILES IDX 21 1 20 2 19 3 17 4 18 5 16 6 11 7 12 8 13 9 15 10 14 11
REMARK SMILES IDX 10 12 3 13 4 14 91 15 5 16 9 17 2 18 1 19 6 20 7 21 8 22
REMARK SMILES IDX 22 23 23 24 24 25 25 26 26 27 27 28 28 29 29 30 90 31 30 32
REMARK SMILES IDX 89 33 31 34 32 35 33 36 83 37 34 38 88 39 82 40 84 41 35 42
REMARK SMILES IDX 87 43 81 44 80 45 36 47 68 48 48 49 67 50 49 51 52 52 66 53
REMARK SMILES IDX 85 54 50 55 51 56 65 58 86 59 53 60 37 61 38 62 46 63 39 64
REMARK SMILES IDX 40 65 44 66 47 67 41 68 42 69 45 70 43 71 69 72 70 73 78 74
REMARK SMILES IDX 71 75 72 76 76 77 79 78 73 79 74 80 77 81 75 82 54 83 55 84
REMARK SMILES IDX 63 85 56 86 57 87 61 88 64 89 58 90 59 91 62 92 60 93
REMARK H PARENT 84 46 52 57
REMARK Flexibility Score: inf
ROOT
ATOM      1  C   UNL A   1      34.088  20.983  25.694  1.00  0.00     0.202 C 
ENDROOT
BRANCH   1   2
ATOM      2  C   UNL A   1      33.565  22.085  26.620  1.00  0.00     0.261 C 
BRANCH   2   3
ATOM      3  O   UNL A   1      32.427  22.767  26.081  1.00  0.00    -0.462 OA
BRANCH   3   4
ATOM      4  C   UNL A   1      32.670  24.049  25.664  1.00  0.00     0.328 C 
ATOM      5  O   UNL A   1      33.550  24.769  26.119  1.00  0.00    -0.250 OA
BRANCH   4   6
ATOM      6  C   UNL A   1      31.687  24.449  24.548  1.00  0.00     0.193 C 
ATOM      7  N   UNL A   1      32.196  25.565  23.749  1.00  0.00    -0.343 N 
ATOM      8  C   UNL A   1      33.369  25.340  22.909  1.00  0.00     0.119 C 
ATOM      9  C   UNL A   1      33.173  24.119  22.011  1.00  0.00     0.022 C 
ATOM     10  C   UNL A   1      31.401  23.269  23.604  1.00  0.00     0.037 C 
ATOM     11  C   UNL A   1      32.603  22.902  22.736  1.00  0.00     0.005 C 
BRANCH   7  12
ATOM     12  C   UNL A   1      31.812  26.865  23.987  1.00  0.00     0.133 A 
ATOM     13  C   UNL A   1      32.153  28.831  25.140  1.00  0.00     0.130 A 
ATOM     14  N   UNL A   1      31.121  29.459  24.555  1.00  0.00    -0.235 NA
ATOM     15  N   UNL A   1      32.499  27.552  24.912  1.00  0.00    -0.216 NA
ATOM     16  C   UNL A   1      30.404  28.741  23.670  1.00  0.00     0.072 A 
ATOM     17  C   UNL A   1      30.749  27.447  23.325  1.00  0.00     0.073 A 
BRANCH  13  18
ATOM     18  C   UNL A   1      32.967  29.605  26.139  1.00  0.00     0.074 C 
ATOM     19  C   UNL A   1      34.131  28.788  26.679  1.00  0.00     0.012 C 
ENDBRANCH  13  18
BRANCH  16  20
ATOM     20  C   UNL A   1      29.131  29.351  23.126  1.00  0.00     0.216 C 
BRANCH  20  21
ATOM     21  O   UNL A   1      29.117  29.479  21.698  1.00  0.00    -0.378 OA
ATOM     22  C   UNL A   1      28.222  30.473  21.219  1.00  0.00     0.195 C 
ENDBRANCH  20  21
ENDBRANCH  16  20
ENDBRANCH   7  12
ENDBRANCH   4   6
ENDBRANCH   3   4
ENDBRANCH   2   3
ENDBRANCH   1   2
BRANCH   1  23
ATOM     23  O   UNL A   1      35.369  21.180  25.105  1.00  0.00    -0.374 OA
BRANCH  23  24
ATOM     24  C   UNL A   1      36.246  20.059  24.991  1.00  0.00     0.202 C 
BRANCH  24  25
ATOM     25  C   UNL A   1      37.720  20.333  24.684  1.00  0.00     0.261 C 
BRANCH  25  26
ATOM     26  O   UNL A   1      38.201  21.502  25.376  1.00  0.00    -0.460 OA
BRANCH  26  27
ATOM     27  C   UNL A   1      39.316  21.301  26.112  1.00  0.00     0.338 C 
ATOM     28  O   UNL A   1      40.050  20.319  26.100  1.00  0.00    -0.246 OA
BRANCH  27  29
ATOM     29  C   UNL A   1      39.675  22.524  26.842  1.00  0.00     0.060 A 
ATOM     30  C   UNL A   1      38.991  23.701  26.511  1.00  0.00     0.016 A 
ATOM     31  C   UNL A   1      40.749  22.549  27.734  1.00  0.00     0.016 A 
ATOM     32  C   UNL A   1      39.421  24.921  27.021  1.00  0.00     0.010 A 
ATOM     33  C   UNL A   1      41.187  23.778  28.238  1.00  0.00     0.010 A 
ATOM     34  C   UNL A   1      40.553  24.971  27.846  1.00  0.00    -0.014 A 
BRANCH  34  35
ATOM     35  C   UNL A   1      41.167  26.287  28.139  1.00  0.00     0.031 A 
ATOM     36  C   UNL A   1      42.579  26.544  27.691  1.00  0.00     0.074 A 
ATOM     37  C   UNL A   1      40.458  27.256  28.741  1.00  0.00     0.049 A 
ATOM     38  N   UNL A   1      43.310  27.623  27.816  1.00  0.00    -0.248 NA
ATOM     39  C   UNL A   1      43.260  25.434  27.005  1.00  0.00     0.031 C 
ATOM     40  C   UNL A   1      39.070  27.137  29.179  1.00  0.00     0.029 A 
ATOM     41  N   UNL A   1      40.813  28.537  29.082  1.00  0.00    -0.354 N 
ATOM     42  C   UNL A   1      44.530  27.324  27.225  1.00  0.00     0.074 A 
ATOM     43  C   UNL A   1      44.456  25.953  26.770  1.00  0.00     0.031 C 
ATOM     44  C   UNL A   1      38.689  28.300  29.736  1.00  0.00     0.029 A 
ATOM     45  C   UNL A   1      39.813  29.234  29.712  1.00  0.00     0.049 A 
ATOM     46  H   UNL A   1      41.701  28.919  28.893  1.00  0.00     0.167 HD
ATOM     47  C   UNL A   1      45.611  28.125  27.066  1.00  0.00     0.037 A 
ATOM     48  C   UNL A   1      39.814  30.482  30.220  1.00  0.00     0.037 A 
ATOM     49  C   UNL A   1      45.683  29.487  27.523  1.00  0.00     0.049 A 
ATOM     50  C   UNL A   1      41.055  31.326  30.096  1.00  0.00     0.074 A 
ATOM     51  C   UNL A   1      46.727  30.387  27.402  1.00  0.00     0.029 A 
ATOM     52  N   UNL A   1      44.664  30.145  28.197  1.00  0.00    -0.354 N 
ATOM     53  N   UNL A   1      42.196  31.046  29.512  1.00  0.00    -0.248 NA
ATOM     54  C   UNL A   1      41.006  32.666  30.700  1.00  0.00     0.031 C 
ATOM     55  C   UNL A   1      46.358  31.574  28.042  1.00  0.00     0.029 A 
ATOM     56  C   UNL A   1      45.064  31.431  28.521  1.00  0.00     0.049 A 
ATOM     57  H   UNL A   1      43.786  29.755  28.415  1.00  0.00     0.167 HD
ATOM     58  C   UNL A   1      42.986  32.179  29.653  1.00  0.00     0.074 A 
ATOM     59  C   UNL A   1      42.193  33.156  30.368  1.00  0.00     0.031 C 
ATOM     60  C   UNL A   1      44.256  32.392  29.225  1.00  0.00     0.037 A 
BRANCH  47  61
ATOM     61  C   UNL A   1      46.811  27.535  26.388  1.00  0.00     0.064 A 
ATOM     62  C   UNL A   1      47.832  26.904  27.117  1.00  0.00     0.173 A 
ATOM     63  C   UNL A   1      46.934  27.582  24.992  1.00  0.00     0.173 A 
ATOM     64  F   UNL A   1      47.769  26.847  28.455  1.00  0.00    -0.203 F 
ATOM     65  C   UNL A   1      48.942  26.365  26.472  1.00  0.00     0.198 A 
ATOM     66  C   UNL A   1      48.034  27.020  24.349  1.00  0.00     0.198 A 
ATOM     67  F   UNL A   1      45.986  28.173  24.249  1.00  0.00    -0.203 F 
ATOM     68  F   UNL A   1      49.928  25.808  27.191  1.00  0.00    -0.200 F 
ATOM     69  C   UNL A   1      49.040  26.418  25.090  1.00  0.00     0.200 A 
ATOM     70  F   UNL A   1      48.121  27.064  23.013  1.00  0.00    -0.200 F 
ATOM     71  F   UNL A   1      50.108  25.897  24.471  1.00  0.00    -0.200 F 
ENDBRANCH  47  61
BRANCH  48  72
ATOM     72  C   UNL A   1      38.599  31.010  30.889  1.00  0.00     0.064 A 
ATOM     73  C   UNL A   1      37.581  31.629  30.151  1.00  0.00     0.173 A 
ATOM     74  C   UNL A   1      38.437  30.919  32.278  1.00  0.00     0.173 A 
ATOM     75  F   UNL A   1      37.703  31.761  28.822  1.00  0.00    -0.203 F 
ATOM     76  C   UNL A   1      36.452  32.149  30.780  1.00  0.00     0.198 A 
ATOM     77  C   UNL A   1      37.297  31.417  32.904  1.00  0.00     0.198 A 
ATOM     78  F   UNL A   1      39.386  30.340  33.028  1.00  0.00    -0.203 F 
ATOM     79  F   UNL A   1      35.512  32.773  30.057  1.00  0.00    -0.200 F 
ATOM     80  C   UNL A   1      36.308  32.039  32.156  1.00  0.00     0.200 A 
ATOM     81  F   UNL A   1      37.159  31.302  34.232  1.00  0.00    -0.200 F 
ATOM     82  F   UNL A   1      35.222  32.537  32.760  1.00  0.00    -0.200 F 
ENDBRANCH  48  72
BRANCH  60  83
ATOM     83  C   UNL A   1      44.852  33.744  29.488  1.00  0.00     0.064 A 
ATOM     84  C   UNL A   1      45.601  34.006  30.644  1.00  0.00     0.173 A 
ATOM     85  C   UNL A   1      44.707  34.777  28.550  1.00  0.00     0.173 A 
ATOM     86  F   UNL A   1      45.756  33.055  31.577  1.00  0.00    -0.203 F 
ATOM     87  C   UNL A   1      46.164  35.261  30.862  1.00  0.00     0.198 A 
ATOM     88  C   UNL A   1      45.293  36.021  28.757  1.00  0.00     0.198 A 
ATOM     89  F   UNL A   1      44.005  34.575  27.424  1.00  0.00    -0.203 F 
ATOM     90  F   UNL A   1      46.839  35.503  31.994  1.00  0.00    -0.200 F 
ATOM     91  C   UNL A   1      46.016  36.265  29.916  1.00  0.00     0.200 A 
ATOM     92  F   UNL A   1      45.160  36.986  27.837  1.00  0.00    -0.200 F 
ATOM     93  F   UNL A   1      46.563  37.469  30.125  1.00  0.00    -0.200 F 
ENDBRANCH  60  83
ENDBRANCH  34  35
ENDBRANCH  27  29
ENDBRANCH  26  27
ENDBRANCH  25  26
ENDBRANCH  24  25
ENDBRANCH  23  24
ENDBRANCH   1  23
TORSDOF 18
ENDMDL
MODEL 2
REMARK VINA RESULT:     -11.1      0.766      2.098
REMARK SMILES CCc1nc(COC)cc(N2CCCC[C@H]2C(=O)OCCOCCOC(=O)c2ccc(-c3c4nc(c(-c5c(F)c(F)c(F)c(F)c5F)c5ccc([nH]5)c(-c5c(F)c(F)c(F)c(F)c5F)c5nc(c(-c6c(F)c(F)c(F)c(F)c6F)c6ccc3[nH]6)C=C5)C=C4)cc2)n1
REMARK SMILES IDX 21 1 20 2 19 3 17 4 18 5 16 6 11 7 12 8 13 9 15 10 14 11
REMARK SMILES IDX 10 12 3 13 4 14 91 15 5 16 9 17 2 18 1 19 6 20 7 21 8 22
REMARK SMILES IDX 22 23 23 24 24 25 25 26 26 27 27 28 28 29 29 30 90 31 30 32
REMARK SMILES IDX 89 33 31 34 32 35 33 36 83 37 34 38 88 39 82 40 84 41 35 42
REMARK SMILES IDX 87 43 81 44 80 45 36 47 68 48 48 49 67 50 49 51 52 52 66 53
REMARK SMILES IDX 85 54 50 55 51 56 65 58 86 59 53 60 37 61 38 62 46 63 39 64
REMARK SMILES IDX 40 65 44 66 47 67 41 68 42 69 45 70 43 71 69 72 70 73 78 74
REMARK SMILES IDX 71 75 72 76 76 77 79 78 73 79 74 80 77 81 75 82 54 83 55 84
REMARK SMILES IDX 63 85 56 86 57 87 61 88 64 89 58 90 59 91 62 92 60 93
REMARK H PARENT 84 46 52 57
REMARK Flexibility Score: inf
ROOT
ATOM      1  C   UNL A   1      34.563  22.086  24.654  1.00  0.00     0.202 C 
ENDROOT
BRANCH   1   2
ATOM      2  C   UNL A   1      34.865  22.988  25.855  1.00  0.00     0.261 C 
BRANCH   2   3
ATOM      3  O   UNL A   1      33.700  23.655  26.353  1.00  0.00    -0.462 OA
BRANCH   3   4
ATOM      4  C   UNL A   1      33.469  24.891  25.809  1.00  0.00     0.328 C 
ATOM      5  O   UNL A   1      34.331  25.590  25.291  1.00  0.00    -0.250 OA
BRANCH   4   6
ATOM      6  C   UNL A   1      31.983  25.269  25.939  1.00  0.00     0.193 C 
ATOM      7  N   UNL A   1      31.532  26.097  24.819  1.00  0.00    -0.343 N 
ATOM      8  C   UNL A   1      31.467  25.494  23.491  1.00  0.00     0.119 C 
ATOM      9  C   UNL A   1      30.665  24.194  23.519  1.00  0.00     0.022 C 
ATOM     10  C   UNL A   1      31.090  24.018  26.006  1.00  0.00     0.037 C 
ATOM     11  C   UNL A   1      31.025  23.267  24.677  1.00  0.00     0.005 C 
BRANCH   7  12
ATOM     12  C   UNL A   1      31.463  27.468  24.910  1.00  0.00     0.133 A 
ATOM     13  C   UNL A   1      32.125  29.399  25.981  1.00  0.00     0.130 A 
ATOM     14  N   UNL A   1      31.384  30.196  25.196  1.00  0.00    -0.235 NA
ATOM     15  N   UNL A   1      32.161  28.057  25.892  1.00  0.00    -0.216 NA
ATOM     16  C   UNL A   1      30.644  29.588  24.249  1.00  0.00     0.072 A 
ATOM     17  C   UNL A   1      30.692  28.221  24.046  1.00  0.00     0.073 A 
BRANCH  13  18
ATOM     18  C   UNL A   1      32.956  30.049  27.052  1.00  0.00     0.074 C 
ATOM     19  C   UNL A   1      34.280  29.328  27.259  1.00  0.00     0.012 C 
ENDBRANCH  13  18
BRANCH  16  20
ATOM     20  C   UNL A   1      29.662  30.431  23.465  1.00  0.00     0.216 C 
BRANCH  20  21
ATOM     21  O   UNL A   1      28.593  29.676  22.880  1.00  0.00    -0.378 OA
ATOM     22  C   UNL A   1      27.854  30.391  21.899  1.00  0.00     0.195 C 
ENDBRANCH  20  21
ENDBRANCH  16  20
ENDBRANCH   7  12
ENDBRANCH   4   6
ENDBRANCH   3   4
ENDBRANCH   2   3
ENDBRANCH   1   2
BRANCH   1  23
ATOM     23  O   UNL A   1      35.525  21.087  24.332  1.00  0.00    -0.374 OA
BRANCH  23  24
ATOM     24  C   UNL A   1      36.366  20.591  25.373  1.00  0.00     0.202 C 
BRANCH  24  25
ATOM     25  C   UNL A   1      37.785  20.156  25.000  1.00  0.00     0.261 C 
BRANCH  25  26
ATOM     26  O   UNL A   1      38.735  21.225  25.182  1.00  0.00    -0.460 OA
BRANCH  26  27
ATOM     27  C   UNL A   1      39.667  20.994  26.132  1.00  0.00     0.338 C 
ATOM     28  O   UNL A   1      40.291  19.956  26.328  1.00  0.00    -0.246 OA
BRANCH  27  29
ATOM     29  C   UNL A   1      40.000  22.239  26.837  1.00  0.00     0.060 A 
ATOM     30  C   UNL A   1      39.261  23.384  26.513  1.00  0.00     0.016 A 
ATOM     31  C   UNL A   1      41.099  22.317  27.695  1.00  0.00     0.016 A 
ATOM     32  C   UNL A   1      39.658  24.627  26.996  1.00  0.00     0.010 A 
ATOM     33  C   UNL A   1      41.503  23.569  28.171  1.00  0.00     0.010 A 
ATOM     34  C   UNL A   1      40.811  24.731  27.784  1.00  0.00    -0.014 A 
BRANCH  34  35
ATOM     35  C   UNL A   1      41.383  26.074  28.044  1.00  0.00     0.031 A 
ATOM     36  C   UNL A   1      42.774  26.375  27.559  1.00  0.00     0.074 A 
ATOM     37  C   UNL A   1      40.652  27.025  28.647  1.00  0.00     0.049 A 
ATOM     38  N   UNL A   1      43.466  27.482  27.651  1.00  0.00    -0.248 NA
ATOM     39  C   UNL A   1      43.481  25.280  26.875  1.00  0.00     0.031 C 
ATOM     40  C   UNL A   1      39.278  26.862  29.118  1.00  0.00     0.029 A 
ATOM     41  N   UNL A   1      40.965  28.323  28.960  1.00  0.00    -0.354 N 
ATOM     42  C   UNL A   1      44.683  27.219  27.037  1.00  0.00     0.074 A 
ATOM     43  C   UNL A   1      44.651  25.839  26.605  1.00  0.00     0.031 C 
ATOM     44  C   UNL A   1      38.867  28.019  29.665  1.00  0.00     0.029 A 
ATOM     45  C   UNL A   1      39.954  28.993  29.601  1.00  0.00     0.049 A 
ATOM     46  H   UNL A   1      41.834  28.735  28.745  1.00  0.00     0.167 HD
ATOM     47  C   UNL A   1      45.729  28.057  26.842  1.00  0.00     0.037 A 
ATOM     48  C   UNL A   1      39.920  30.248  30.089  1.00  0.00     0.037 A 
ATOM     49  C   UNL A   1      45.760  29.428  27.275  1.00  0.00     0.049 A 
ATOM     50  C   UNL A   1      41.126  31.136  29.925  1.00  0.00     0.074 A 
ATOM     51  C   UNL A   1      46.768  30.363  27.117  1.00  0.00     0.029 A 
ATOM     52  N   UNL A   1      44.733  30.058  27.963  1.00  0.00    -0.354 N 
ATOM     53  N   UNL A   1      42.263  30.889  29.319  1.00  0.00    -0.248 NA
ATOM     54  C   UNL A   1      41.040  32.482  30.509  1.00  0.00     0.031 C 
ATOM     55  C   UNL A   1      46.368  31.546  27.747  1.00  0.00     0.029 A 
ATOM     56  C   UNL A   1      45.092  31.363  28.258  1.00  0.00     0.049 A 
ATOM     57  H   UNL A   1      43.875  29.640  28.206  1.00  0.00     0.167 HD
ATOM     58  C   UNL A   1      43.013  32.052  29.424  1.00  0.00     0.074 A 
ATOM     59  C   UNL A   1      42.200  33.010  30.143  1.00  0.00     0.031 C 
ATOM     60  C   UNL A   1      44.264  32.305  28.965  1.00  0.00     0.037 A 
BRANCH  47  61
ATOM     61  C   UNL A   1      46.936  27.501  26.146  1.00  0.00     0.064 A 
ATOM     62  C   UNL A   1      47.079  27.571  24.751  1.00  0.00     0.173 A 
ATOM     63  C   UNL A   1      47.973  26.909  26.884  1.00  0.00     0.173 A 
ATOM     64  F   UNL A   1      46.109  28.112  24.000  1.00  0.00    -0.203 F 
ATOM     65  C   UNL A   1      48.204  27.045  24.120  1.00  0.00     0.198 A 
ATOM     66  C   UNL A   1      49.107  26.408  26.251  1.00  0.00     0.198 A 
ATOM     67  F   UNL A   1      47.885  26.819  28.219  1.00  0.00    -0.203 F 
ATOM     68  F   UNL A   1      48.298  27.081  22.784  1.00  0.00    -0.200 F 
ATOM     69  C   UNL A   1      49.219  26.470  24.871  1.00  0.00     0.200 A 
ATOM     70  F   UNL A   1      50.090  25.860  26.978  1.00  0.00    -0.200 F 
ATOM     71  F   UNL A   1      50.301  25.966  24.262  1.00  0.00    -0.200 F 
ENDBRANCH  47  61
BRANCH  48  72
ATOM     72  C   UNL A   1      38.701  30.742  30.778  1.00  0.00     0.064 A 
ATOM     73  C   UNL A   1      38.618  30.754  32.177  1.00  0.00     0.173 A 
ATOM     74  C   UNL A   1      37.593  31.200  30.053  1.00  0.00     0.173 A 
ATOM     75  F   UNL A   1      39.644  30.303  32.912  1.00  0.00    -0.203 F 
ATOM     76  C   UNL A   1      37.465  31.192  32.824  1.00  0.00     0.198 A 
ATOM     77  C   UNL A   1      36.449  31.661  30.701  1.00  0.00     0.198 A 
ATOM     78  F   UNL A   1      37.622  31.203  28.712  1.00  0.00    -0.203 F 
ATOM     79  F   UNL A   1      37.394  31.155  34.161  1.00  0.00    -0.200 F 
ATOM     80  C   UNL A   1      36.383  31.650  32.086  1.00  0.00     0.200 A 
ATOM     81  F   UNL A   1      35.409  32.109  29.984  1.00  0.00    -0.200 F 
ATOM     82  F   UNL A   1      35.275  32.074  32.709  1.00  0.00    -0.200 F 
ENDBRANCH  48  72
BRANCH  60  83
ATOM     83  C   UNL A   1      44.815  33.682  29.193  1.00  0.00     0.064 A 
ATOM     84  C   UNL A   1      44.585  34.727  28.285  1.00  0.00     0.173 A 
ATOM     85  C   UNL A   1      45.546  33.971  30.355  1.00  0.00     0.173 A 
ATOM     86  F   UNL A   1      43.904  34.497  27.152  1.00  0.00    -0.203 F 
ATOM     87  C   UNL A   1      45.086  36.003  28.522  1.00  0.00     0.198 A 
ATOM     88  C   UNL A   1      46.022  35.254  30.602  1.00  0.00     0.198 A 
ATOM     89  F   UNL A   1      45.787  33.009  31.259  1.00  0.00    -0.203 F 
ATOM     90  F   UNL A   1      44.892  36.976  27.621  1.00  0.00    -0.200 F 
ATOM     91  C   UNL A   1      45.798  36.269  29.683  1.00  0.00     0.200 A 
ATOM     92  F   UNL A   1      46.699  35.511  31.731  1.00  0.00    -0.200 F 
ATOM     93  F   UNL A   1      46.275  37.499  29.911  1.00  0.00    -0.200 F 
ENDBRANCH  60  83
ENDBRANCH  34  35
ENDBRANCH  27  29
ENDBRANCH  26  27
ENDBRANCH  25  26
ENDBRANCH  24  25
ENDBRANCH  23  24
ENDBRANCH   1  23
TORSDOF 18
ENDMDL
MODEL 3
REMARK VINA RESULT:     -11.0      1.093      2.430
REMARK SMILES CCc1nc(COC)cc(N2CCCC[C@H]2C(=O)OCCOCCOC(=O)c2ccc(-c3c4nc(c(-c5c(F)c(F)c(F)c(F)c5F)c5ccc([nH]5)c(-c5c(F)c(F)c(F)c(F)c5F)c5nc(c(-c6c(F)c(F)c(F)c(F)c6F)c6ccc3[nH]6)C=C5)C=C4)cc2)n1
REMARK SMILES IDX 21 1 20 2 19 3 17 4 18 5 16 6 11 7 12 8 13 9 15 10 14 11
REMARK SMILES IDX 10 12 3 13 4 14 91 15 5 16 9 17 2 18 1 19 6 20 7 21 8 22
REMARK SMILES IDX 22 23 23 24 24 25 25 26 26 27 27 28 28 29 29 30 90 31 30 32
REMARK SMILES IDX 89 33 31 34 32 35 33 36 83 37 34 38 88 39 82 40 84 41 35 42
REMARK SMILES IDX 87 43 81 44 80 45 36 47 68 48 48 49 67 50 49 51 52 52 66 53
REMARK SMILES IDX 85 54 50 55 51 56 65 58 86 59 53 60 37 61 38 62 46 63 39 64
REMARK SMILES IDX 40 65 44 66 47 67 41 68 42 69 45 70 43 71 69 72 70 73 78 74
REMARK SMILES IDX 71 75 72 76 76 77 79 78 73 79 74 80 77 81 75 82 54 83 55 84
REMARK SMILES IDX 63 85 56 86 57 87 61 88 64 89 58 90 59 91 62 92 60 93
REMARK H PARENT 84 46 52 57
REMARK Flexibility Score: inf
ROOT
ATOM      1  C   UNL A   1      34.507  22.252  24.584  1.00  0.00     0.202 C 
ENDROOT
BRANCH   1   2
ATOM      2  C   UNL A   1      34.757  23.196  25.764  1.00  0.00     0.261 C 
BRANCH   2   3
ATOM      3  O   UNL A   1      33.557  23.815  26.242  1.00  0.00    -0.462 OA
BRANCH   3   4
ATOM      4  C   UNL A   1      33.294  25.047  25.706  1.00  0.00     0.328 C 
ATOM      5  O   UNL A   1      34.138  25.777  25.202  1.00  0.00    -0.250 OA
BRANCH   4   6
ATOM      6  C   UNL A   1      31.795  25.378  25.824  1.00  0.00     0.193 C 
ATOM      7  N   UNL A   1      31.318  26.159  24.681  1.00  0.00    -0.343 N 
ATOM      8  C   UNL A   1      31.277  25.518  23.370  1.00  0.00     0.119 C 
ATOM      9  C   UNL A   1      30.519  24.193  23.433  1.00  0.00     0.022 C 
ATOM     10  C   UNL A   1      30.945  24.100  25.924  1.00  0.00     0.037 C 
ATOM     11  C   UNL A   1      30.908  23.311  24.617  1.00  0.00     0.005 C 
BRANCH   7  12
ATOM     12  C   UNL A   1      31.203  27.530  24.734  1.00  0.00     0.133 A 
ATOM     13  C   UNL A   1      30.239  29.450  23.900  1.00  0.00     0.130 A 
ATOM     14  N   UNL A   1      30.911  30.258  24.735  1.00  0.00    -0.235 NA
ATOM     15  N   UNL A   1      30.382  28.114  23.848  1.00  0.00    -0.216 NA
ATOM     16  C   UNL A   1      31.774  29.664  25.581  1.00  0.00     0.072 A 
ATOM     17  C   UNL A   1      31.915  28.290  25.640  1.00  0.00     0.073 A 
BRANCH  13  18
ATOM     18  C   UNL A   1      29.273  30.085  22.939  1.00  0.00     0.074 C 
ATOM     19  C   UNL A   1      28.050  29.212  22.702  1.00  0.00     0.012 C 
ENDBRANCH  13  18
BRANCH  16  20
ATOM     20  C   UNL A   1      32.679  30.550  26.409  1.00  0.00     0.216 C 
BRANCH  20  21
ATOM     21  O   UNL A   1      33.882  29.901  26.842  1.00  0.00    -0.378 OA
ATOM     22  C   UNL A   1      34.612  30.634  27.815  1.00  0.00     0.195 C 
ENDBRANCH  20  21
ENDBRANCH  16  20
ENDBRANCH   7  12
ENDBRANCH   4   6
ENDBRANCH   3   4
ENDBRANCH   2   3
ENDBRANCH   1   2
BRANCH   1  23
ATOM     23  O   UNL A   1      35.513  21.286  24.299  1.00  0.00    -0.374 OA
BRANCH  23  24
ATOM     24  C   UNL A   1      36.356  20.847  25.364  1.00  0.00     0.202 C 
BRANCH  24  25
ATOM     25  C   UNL A   1      37.783  20.416  25.016  1.00  0.00     0.261 C 
BRANCH  25  26
ATOM     26  O   UNL A   1      38.727  21.486  25.219  1.00  0.00    -0.460 OA
BRANCH  26  27
ATOM     27  C   UNL A   1      39.630  21.261  26.199  1.00  0.00     0.338 C 
ATOM     28  O   UNL A   1      40.249  20.225  26.418  1.00  0.00    -0.246 OA
BRANCH  27  29
ATOM     29  C   UNL A   1      39.939  22.510  26.908  1.00  0.00     0.060 A 
ATOM     30  C   UNL A   1      39.286  23.674  26.484  1.00  0.00     0.016 A 
ATOM     31  C   UNL A   1      40.944  22.567  27.875  1.00  0.00     0.016 A 
ATOM     32  C   UNL A   1      39.682  24.912  26.979  1.00  0.00     0.010 A 
ATOM     33  C   UNL A   1      41.349  23.814  28.364  1.00  0.00     0.010 A 
ATOM     34  C   UNL A   1      40.750  24.992  27.882  1.00  0.00    -0.014 A 
BRANCH  34  35
ATOM     35  C   UNL A   1      41.346  26.317  28.171  1.00  0.00     0.031 A 
ATOM     36  C   UNL A   1      42.739  26.606  27.686  1.00  0.00     0.074 A 
ATOM     37  C   UNL A   1      40.635  27.266  28.802  1.00  0.00     0.049 A 
ATOM     38  N   UNL A   1      43.451  27.698  27.802  1.00  0.00    -0.248 NA
ATOM     39  C   UNL A   1      43.423  25.516  26.971  1.00  0.00     0.031 C 
ATOM     40  C   UNL A   1      39.262  27.115  29.278  1.00  0.00     0.029 A 
ATOM     41  N   UNL A   1      40.974  28.550  29.146  1.00  0.00    -0.354 N 
ATOM     42  C   UNL A   1      44.661  27.429  27.174  1.00  0.00     0.074 A 
ATOM     43  C   UNL A   1      44.601  26.061  26.708  1.00  0.00     0.031 C 
ATOM     44  C   UNL A   1      38.874  28.265  29.855  1.00  0.00     0.029 A 
ATOM     45  C   UNL A   1      39.978  29.222  29.809  1.00  0.00     0.049 A 
ATOM     46  H   UNL A   1      41.848  28.952  28.936  1.00  0.00     0.167 HD
ATOM     47  C   UNL A   1      45.720  28.253  26.993  1.00  0.00     0.037 A 
ATOM     48  C   UNL A   1      39.969  30.464  30.329  1.00  0.00     0.037 A 
ATOM     49  C   UNL A   1      45.778  29.612  27.461  1.00  0.00     0.049 A 
ATOM     50  C   UNL A   1      41.189  31.335  30.180  1.00  0.00     0.074 A 
ATOM     51  C   UNL A   1      46.801  30.533  27.320  1.00  0.00     0.029 A 
ATOM     52  N   UNL A   1      44.766  30.243  28.170  1.00  0.00    -0.354 N 
ATOM     53  N   UNL A   1      42.318  31.083  29.561  1.00  0.00    -0.248 NA
ATOM     54  C   UNL A   1      41.130  32.667  30.798  1.00  0.00     0.031 C 
ATOM     55  C   UNL A   1      46.426  31.707  27.981  1.00  0.00     0.029 A 
ATOM     56  C   UNL A   1      45.150  31.534  28.495  1.00  0.00     0.049 A 
ATOM     57  H   UNL A   1      43.902  29.834  28.408  1.00  0.00     0.167 HD
ATOM     58  C   UNL A   1      43.090  32.229  29.691  1.00  0.00     0.074 A 
ATOM     59  C   UNL A   1      42.297  33.184  30.437  1.00  0.00     0.031 C 
ATOM     60  C   UNL A   1      44.342  32.472  29.231  1.00  0.00     0.037 A 
BRANCH  47  61
ATOM     61  C   UNL A   1      46.913  27.693  26.277  1.00  0.00     0.064 A 
ATOM     62  C   UNL A   1      47.978  27.099  26.972  1.00  0.00     0.173 A 
ATOM     63  C   UNL A   1      46.984  27.731  24.876  1.00  0.00     0.173 A 
ATOM     64  F   UNL A   1      47.965  27.053  28.313  1.00  0.00    -0.203 F 
ATOM     65  C   UNL A   1      49.081  26.588  26.292  1.00  0.00     0.198 A 
ATOM     66  C   UNL A   1      48.076  27.197  24.199  1.00  0.00     0.198 A 
ATOM     67  F   UNL A   1      45.991  28.286  24.164  1.00  0.00    -0.203 F 
ATOM     68  F   UNL A   1      50.107  26.068  26.979  1.00  0.00    -0.200 F 
ATOM     69  C   UNL A   1      49.126  26.632  24.907  1.00  0.00     0.200 A 
ATOM     70  F   UNL A   1      48.114  27.231  22.860  1.00  0.00    -0.200 F 
ATOM     71  F   UNL A   1      50.187  26.138  24.254  1.00  0.00    -0.200 F 
ENDBRANCH  47  61
BRANCH  48  72
ATOM     72  C   UNL A   1      38.762  30.962  31.037  1.00  0.00     0.064 A 
ATOM     73  C   UNL A   1      38.651  30.862  32.430  1.00  0.00     0.173 A 
ATOM     74  C   UNL A   1      37.694  31.536  30.335  1.00  0.00     0.173 A 
ATOM     75  F   UNL A   1      39.638  30.298  33.142  1.00  0.00    -0.203 F 
ATOM     76  C   UNL A   1      37.509  31.305  33.093  1.00  0.00     0.198 A 
ATOM     77  C   UNL A   1      36.562  32.001  31.001  1.00  0.00     0.198 A 
ATOM     78  F   UNL A   1      37.751  31.649  28.999  1.00  0.00    -0.203 F 
ATOM     79  F   UNL A   1      37.409  31.160  34.421  1.00  0.00    -0.200 F 
ATOM     80  C   UNL A   1      36.467  31.879  32.379  1.00  0.00     0.200 A 
ATOM     81  F   UNL A   1      35.561  32.561  30.307  1.00  0.00    -0.200 F 
ATOM     82  F   UNL A   1      35.370  32.306  33.017  1.00  0.00    -0.200 F 
ENDBRANCH  48  72
BRANCH  60  83
ATOM     83  C   UNL A   1      44.918  33.833  29.489  1.00  0.00     0.064 A 
ATOM     84  C   UNL A   1      44.703  34.904  28.609  1.00  0.00     0.173 A 
ATOM     85  C   UNL A   1      45.660  34.080  30.654  1.00  0.00     0.173 A 
ATOM     86  F   UNL A   1      44.012  34.714  27.474  1.00  0.00    -0.203 F 
ATOM     87  C   UNL A   1      45.228  36.165  28.874  1.00  0.00     0.198 A 
ATOM     88  C   UNL A   1      46.161  35.348  30.930  1.00  0.00     0.198 A 
ATOM     89  F   UNL A   1      45.889  33.091  31.532  1.00  0.00    -0.203 F 
ATOM     90  F   UNL A   1      45.046  37.163  27.998  1.00  0.00    -0.200 F 
ATOM     91  C   UNL A   1      45.950  36.389  30.037  1.00  0.00     0.200 A 
ATOM     92  F   UNL A   1      46.848  35.565  32.061  1.00  0.00    -0.200 F 
ATOM     93  F   UNL A   1      46.450  37.605  30.294  1.00  0.00    -0.200 F 
ENDBRANCH  60  83
ENDBRANCH  34  35
ENDBRANCH  27  29
ENDBRANCH  26  27
ENDBRANCH  25  26
ENDBRANCH  24  25
ENDBRANCH  23  24
ENDBRANCH   1  23
TORSDOF 18
ENDMDL
