MODEL 1
REMARK VINA RESULT:     -11.0      0.000      0.000
REMARK SMILES Cc1oc(CNC(=O)c2ccnn2C)cc1C(=O)OCCOCCOC(=O)c1ccc(-c2c3nc(c(-c4c(F)c(F)c(F)c(F)c4F)c4ccc([nH]4)c(-c4c(F)c(F)c(F)c(F)c4F)c4nc(c(-c5c(F)c(F)c(F)c(F)c5F)c5ccc2[nH]5)C=C4)C=C3)cc1
REMARK SMILES IDX 21 1 20 2 19 3 17 4 18 5 16 6 1 7 2 8 3 9 4 10 15 11 5 12
REMARK SMILES IDX 6 13 7 14 8 16 9 17 10 18 13 19 11 20 12 21 14 22 22 23
REMARK SMILES IDX 23 24 24 25 25 26 26 27 27 28 28 29 29 30 90 31 30 32 89 33
REMARK SMILES IDX 31 34 32 35 33 36 83 37 34 38 88 39 82 40 84 41 35 42 87 43
REMARK SMILES IDX 81 44 80 45 36 47 68 48 48 49 67 50 49 51 52 52 66 53 85 54
REMARK SMILES IDX 50 55 51 56 65 58 86 59 53 60 37 61 38 62 46 63 39 64 40 65
REMARK SMILES IDX 44 66 47 67 41 68 42 69 45 70 43 71 69 72 70 73 78 74 71 75
REMARK SMILES IDX 72 76 76 77 79 78 73 79 74 80 77 81 75 82 54 83 55 84 63 85
REMARK SMILES IDX 56 86 57 87 61 88 64 89 58 90 59 91 62 92 60 93
REMARK H PARENT 6 15 84 46 52 57
REMARK Flexibility Score: inf
ROOT
ATOM      1  C   UNL A   1      37.300  22.378  25.602  1.00  0.00     0.202 C 
ENDROOT
BRANCH   1   2
ATOM      2  C   UNL A   1      36.766  23.686  25.013  1.00  0.00     0.261 C 
BRANCH   2   3
ATOM      3  O   UNL A   1      36.242  23.447  23.697  1.00  0.00    -0.460 OA
BRANCH   3   4
ATOM      4  C   UNL A   1      34.911  23.691  23.563  1.00  0.00     0.341 C 
ATOM      5  O   UNL A   1      34.424  24.481  22.762  1.00  0.00    -0.246 OA
BRANCH   4   6
ATOM      6  C   UNL A   1      34.080  22.809  24.360  1.00  0.00     0.101 A 
ATOM      7  C   UNL A   1      32.694  24.328  26.030  1.00  0.00     0.088 C 
ATOM      8  C   UNL A   1      33.189  23.092  25.383  1.00  0.00     0.115 A 
ATOM      9  O   UNL A   1      32.598  21.936  25.822  1.00  0.00    -0.464 OA
ATOM     10  C   UNL A   1      33.114  20.913  25.086  1.00  0.00     0.124 A 
ATOM     11  C   UNL A   1      34.052  21.395  24.208  1.00  0.00     0.063 A 
BRANCH  10  12
ATOM     12  C   UNL A   1      32.515  19.569  25.201  1.00  0.00     0.191 C 
BRANCH  12  13
ATOM     13  N   UNL A   1      32.262  18.945  23.928  1.00  0.00    -0.343 N 
ATOM     14  C   UNL A   1      32.776  17.769  23.448  1.00  0.00     0.269 C 
ATOM     15  H   UNL A   1      31.643  19.422  23.329  1.00  0.00     0.164 HD
ATOM     16  O   UNL A   1      32.455  17.413  22.316  1.00  0.00    -0.268 OA
BRANCH  14  17
ATOM     17  C   UNL A   1      33.723  17.039  24.252  1.00  0.00     0.125 A 
ATOM     18  C   UNL A   1      35.093  17.228  24.294  1.00  0.00     0.055 A 
ATOM     19  N   UNL A   1      33.492  15.977  25.095  1.00  0.00    -0.263 N 
ATOM     20  C   UNL A   1      35.564  16.338  25.272  1.00  0.00     0.136 A 
ATOM     21  N   UNL A   1      34.585  15.593  25.785  1.00  0.00    -0.181 NA
ATOM     22  C   UNL A   1      32.259  15.263  25.332  1.00  0.00     0.174 C 
ENDBRANCH  14  17
ENDBRANCH  12  13
ENDBRANCH  10  12
ENDBRANCH   4   6
ENDBRANCH   3   4
ENDBRANCH   2   3
ENDBRANCH   1   2
BRANCH   1  23
ATOM     23  O   UNL A   1      37.790  21.445  24.638  1.00  0.00    -0.374 OA
BRANCH  23  24
ATOM     24  C   UNL A   1      37.819  20.071  25.029  1.00  0.00     0.202 C 
BRANCH  24  25
ATOM     25  C   UNL A   1      39.197  19.529  25.424  1.00  0.00     0.261 C 
BRANCH  25  26
ATOM     26  O   UNL A   1      39.620  20.088  26.682  1.00  0.00    -0.460 OA
BRANCH  26  27
ATOM     27  C   UNL A   1      40.948  20.339  26.780  1.00  0.00     0.338 C 
ATOM     28  O   UNL A   1      41.866  19.620  26.426  1.00  0.00    -0.246 OA
BRANCH  27  29
ATOM     29  C   UNL A   1      41.155  21.735  27.215  1.00  0.00     0.060 A 
ATOM     30  C   UNL A   1      40.605  22.744  26.413  1.00  0.00     0.016 A 
ATOM     31  C   UNL A   1      41.905  22.059  28.348  1.00  0.00     0.016 A 
ATOM     32  C   UNL A   1      40.846  24.082  26.711  1.00  0.00     0.010 A 
ATOM     33  C   UNL A   1      42.156  23.405  28.640  1.00  0.00     0.010 A 
ATOM     34  C   UNL A   1      41.658  24.419  27.802  1.00  0.00    -0.014 A 
BRANCH  34  35
ATOM     35  C   UNL A   1      42.106  25.821  27.965  1.00  0.00     0.031 A 
ATOM     36  C   UNL A   1      43.433  26.231  27.389  1.00  0.00     0.074 A 
ATOM     37  C   UNL A   1      41.329  26.727  28.583  1.00  0.00     0.049 A 
ATOM     38  N   UNL A   1      44.028  27.396  27.418  1.00  0.00    -0.248 NA
ATOM     39  C   UNL A   1      44.189  25.184  26.683  1.00  0.00     0.031 C 
ATOM     40  C   UNL A   1      40.009  26.460  29.150  1.00  0.00     0.029 A 
ATOM     41  N   UNL A   1      41.544  28.058  28.840  1.00  0.00    -0.354 N 
ATOM     42  C   UNL A   1      45.226  27.222  26.737  1.00  0.00     0.074 A 
ATOM     43  C   UNL A   1      45.288  25.835  26.331  1.00  0.00     0.031 C 
ATOM     44  C   UNL A   1      39.534  27.592  29.698  1.00  0.00     0.029 A 
ATOM     45  C   UNL A   1      40.527  28.653  29.543  1.00  0.00     0.049 A 
ATOM     46  H   UNL A   1      42.352  28.540  28.547  1.00  0.00     0.167 HD
ATOM     47  C   UNL A   1      46.182  28.141  26.465  1.00  0.00     0.037 A 
ATOM     48  C   UNL A   1      40.421  29.909  30.018  1.00  0.00     0.037 A 
ATOM     49  C   UNL A   1      46.122  29.521  26.868  1.00  0.00     0.049 A 
ATOM     50  C   UNL A   1      41.530  30.896  29.760  1.00  0.00     0.074 A 
ATOM     51  C   UNL A   1      47.034  30.532  26.627  1.00  0.00     0.029 A 
ATOM     52  N   UNL A   1      45.090  30.080  27.607  1.00  0.00    -0.354 N 
ATOM     53  N   UNL A   1      42.646  30.732  29.092  1.00  0.00    -0.248 NA
ATOM     54  C   UNL A   1      41.363  32.245  30.321  1.00  0.00     0.031 C 
ATOM     55  C   UNL A   1      46.575  31.695  27.255  1.00  0.00     0.029 A 
ATOM     56  C   UNL A   1      45.355  31.417  27.851  1.00  0.00     0.049 A 
ATOM     57  H   UNL A   1      44.288  29.597  27.914  1.00  0.00     0.167 HD
ATOM     58  C   UNL A   1      43.299  31.957  29.129  1.00  0.00     0.074 A 
ATOM     59  C   UNL A   1      42.450  32.860  29.878  1.00  0.00     0.031 C 
ATOM     60  C   UNL A   1      44.494  32.303  28.591  1.00  0.00     0.037 A 
BRANCH  47  61
ATOM     61  C   UNL A   1      47.391  27.675  25.710  1.00  0.00     0.064 A 
ATOM     62  C   UNL A   1      47.440  27.711  24.309  1.00  0.00     0.173 A 
ATOM     63  C   UNL A   1      48.525  27.216  26.398  1.00  0.00     0.173 A 
ATOM     64  F   UNL A   1      46.375  28.127  23.606  1.00  0.00    -0.203 F 
ATOM     65  C   UNL A   1      48.574  27.282  23.622  1.00  0.00     0.198 A 
ATOM     66  C   UNL A   1      49.664  26.811  25.708  1.00  0.00     0.198 A 
ATOM     67  F   UNL A   1      48.527  27.164  27.738  1.00  0.00    -0.203 F 
ATOM     68  F   UNL A   1      48.584  27.286  22.282  1.00  0.00    -0.200 F 
ATOM     69  C   UNL A   1      49.685  26.840  24.323  1.00  0.00     0.200 A 
ATOM     70  F   UNL A   1      50.742  26.391  26.386  1.00  0.00    -0.200 F 
ATOM     71  F   UNL A   1      50.777  26.432  23.659  1.00  0.00    -0.200 F 
ENDBRANCH  47  61
BRANCH  48  72
ATOM     72  C   UNL A   1      39.221  30.306  30.799  1.00  0.00     0.064 A 
ATOM     73  C   UNL A   1      39.154  30.091  32.182  1.00  0.00     0.173 A 
ATOM     74  C   UNL A   1      38.112  30.893  30.173  1.00  0.00     0.173 A 
ATOM     75  F   UNL A   1      40.180  29.507  32.819  1.00  0.00    -0.203 F 
ATOM     76  C   UNL A   1      38.016  30.434  32.907  1.00  0.00     0.198 A 
ATOM     77  C   UNL A   1      36.985  31.260  30.904  1.00  0.00     0.198 A 
ATOM     78  F   UNL A   1      38.127  31.117  28.851  1.00  0.00    -0.203 F 
ATOM     79  F   UNL A   1      37.961  30.180  34.222  1.00  0.00    -0.200 F 
ATOM     80  C   UNL A   1      36.934  31.024  32.270  1.00  0.00     0.200 A 
ATOM     81  F   UNL A   1      35.946  31.837  30.285  1.00  0.00    -0.200 F 
ATOM     82  F   UNL A   1      35.841  31.357  32.969  1.00  0.00    -0.200 F 
ENDBRANCH  48  72
BRANCH  60  83
ATOM     83  C   UNL A   1      44.941  33.725  28.764  1.00  0.00     0.064 A 
ATOM     84  C   UNL A   1      44.547  34.733  27.873  1.00  0.00     0.173 A 
ATOM     85  C   UNL A   1      45.737  34.090  29.861  1.00  0.00     0.173 A 
ATOM     86  F   UNL A   1      43.798  34.431  26.801  1.00  0.00    -0.203 F 
ATOM     87  C   UNL A   1      44.949  36.052  28.062  1.00  0.00     0.198 A 
ATOM     88  C   UNL A   1      46.116  35.415  30.060  1.00  0.00     0.198 A 
ATOM     89  F   UNL A   1      46.135  33.163  30.746  1.00  0.00    -0.203 F 
ATOM     90  F   UNL A   1      44.595  36.992  27.176  1.00  0.00    -0.200 F 
ATOM     91  C   UNL A   1      45.728  36.393  29.159  1.00  0.00     0.200 A 
ATOM     92  F   UNL A   1      46.858  35.743  31.127  1.00  0.00    -0.200 F 
ATOM     93  F   UNL A   1      46.108  37.664  29.342  1.00  0.00    -0.200 F 
ENDBRANCH  60  83
ENDBRANCH  34  35
ENDBRANCH  27  29
ENDBRANCH  26  27
ENDBRANCH  25  26
ENDBRANCH  24  25
ENDBRANCH  23  24
ENDBRANCH   1  23
TORSDOF 17
ENDMDL
MODEL 2
REMARK VINA RESULT:     -10.9      2.017      3.210
REMARK SMILES Cc1oc(CNC(=O)c2ccnn2C)cc1C(=O)OCCOCCOC(=O)c1ccc(-c2c3nc(c(-c4c(F)c(F)c(F)c(F)c4F)c4ccc([nH]4)c(-c4c(F)c(F)c(F)c(F)c4F)c4nc(c(-c5c(F)c(F)c(F)c(F)c5F)c5ccc2[nH]5)C=C4)C=C3)cc1
REMARK SMILES IDX 21 1 20 2 19 3 17 4 18 5 16 6 1 7 2 8 3 9 4 10 15 11 5 12
REMARK SMILES IDX 6 13 7 14 8 16 9 17 10 18 13 19 11 20 12 21 14 22 22 23
REMARK SMILES IDX 23 24 24 25 25 26 26 27 27 28 28 29 29 30 90 31 30 32 89 33
REMARK SMILES IDX 31 34 32 35 33 36 83 37 34 38 88 39 82 40 84 41 35 42 87 43
REMARK SMILES IDX 81 44 80 45 36 47 68 48 48 49 67 50 49 51 52 52 66 53 85 54
REMARK SMILES IDX 50 55 51 56 65 58 86 59 53 60 37 61 38 62 46 63 39 64 40 65
REMARK SMILES IDX 44 66 47 67 41 68 42 69 45 70 43 71 69 72 70 73 78 74 71 75
REMARK SMILES IDX 72 76 76 77 79 78 73 79 74 80 77 81 75 82 54 83 55 84 63 85
REMARK SMILES IDX 56 86 57 87 61 88 64 89 58 90 59 91 62 92 60 93
REMARK H PARENT 6 15 84 46 52 57
REMARK Flexibility Score: inf
ROOT
ATOM      1  C   UNL A   1      40.074  21.646  26.120  1.00  0.00     0.202 C 
ENDROOT
BRANCH   1   2
ATOM      2  C   UNL A   1      38.585  21.993  26.036  1.00  0.00     0.261 C 
BRANCH   2   3
ATOM      3  O   UNL A   1      38.014  21.394  24.861  1.00  0.00    -0.460 OA
BRANCH   3   4
ATOM      4  C   UNL A   1      36.950  22.064  24.343  1.00  0.00     0.341 C 
ATOM      5  O   UNL A   1      37.006  22.828  23.386  1.00  0.00    -0.246 OA
BRANCH   4   6
ATOM      6  C   UNL A   1      35.683  21.677  24.932  1.00  0.00     0.101 A 
ATOM      7  C   UNL A   1      34.708  23.806  26.171  1.00  0.00     0.088 C 
ATOM      8  C   UNL A   1      34.785  22.407  25.697  1.00  0.00     0.115 A 
ATOM      9  O   UNL A   1      33.697  21.632  26.005  1.00  0.00    -0.464 OA
ATOM     10  C   UNL A   1      33.899  20.408  25.446  1.00  0.00     0.124 A 
ATOM     11  C   UNL A   1      35.117  20.377  24.814  1.00  0.00     0.063 A 
BRANCH  10  12
ATOM     12  C   UNL A   1      32.797  19.425  25.443  1.00  0.00     0.191 C 
BRANCH  12  13
ATOM     13  N   UNL A   1      32.465  18.941  24.129  1.00  0.00    -0.343 N 
ATOM     14  C   UNL A   1      32.836  17.758  23.547  1.00  0.00     0.269 C 
ATOM     15  H   UNL A   1      31.902  19.534  23.580  1.00  0.00     0.164 HD
ATOM     16  O   UNL A   1      32.469  17.535  22.395  1.00  0.00    -0.268 OA
BRANCH  14  17
ATOM     17  C   UNL A   1      33.697  16.860  24.274  1.00  0.00     0.125 A 
ATOM     18  C   UNL A   1      35.081  16.836  24.248  1.00  0.00     0.055 A 
ATOM     19  N   UNL A   1      33.346  15.813  25.094  1.00  0.00    -0.263 N 
ATOM     20  C   UNL A   1      35.455  15.846  25.169  1.00  0.00     0.136 A 
ATOM     21  N   UNL A   1      34.399  15.239  25.711  1.00  0.00    -0.181 NA
ATOM     22  C   UNL A   1      32.031  15.286  25.374  1.00  0.00     0.174 C 
ENDBRANCH  14  17
ENDBRANCH  12  13
ENDBRANCH  10  12
ENDBRANCH   4   6
ENDBRANCH   3   4
ENDBRANCH   2   3
ENDBRANCH   1   2
BRANCH   1  23
ATOM     23  O   UNL A   1      40.352  20.296  26.499  1.00  0.00    -0.374 OA
BRANCH  23  24
ATOM     24  C   UNL A   1      41.652  20.033  27.031  1.00  0.00     0.202 C 
BRANCH  24  25
ATOM     25  C   UNL A   1      42.482  19.001  26.259  1.00  0.00     0.261 C 
BRANCH  25  26
ATOM     26  O   UNL A   1      42.802  19.490  24.943  1.00  0.00    -0.460 OA
BRANCH  26  27
ATOM     27  C   UNL A   1      44.125  19.627  24.689  1.00  0.00     0.338 C 
ATOM     28  O   UNL A   1      44.871  18.809  24.180  1.00  0.00    -0.246 OA
BRANCH  27  29
ATOM     29  C   UNL A   1      44.533  21.024  24.943  1.00  0.00     0.060 A 
ATOM     30  C   UNL A   1      45.226  21.281  26.133  1.00  0.00     0.016 A 
ATOM     31  C   UNL A   1      44.211  22.065  24.070  1.00  0.00     0.016 A 
ATOM     32  C   UNL A   1      45.554  22.589  26.481  1.00  0.00     0.010 A 
ATOM     33  C   UNL A   1      44.531  23.380  24.426  1.00  0.00     0.010 A 
ATOM     34  C   UNL A   1      45.171  23.649  25.650  1.00  0.00    -0.014 A 
BRANCH  34  35
ATOM     35  C   UNL A   1      45.305  25.040  26.142  1.00  0.00     0.031 A 
ATOM     36  C   UNL A   1      46.649  25.709  26.070  1.00  0.00     0.074 A 
ATOM     37  C   UNL A   1      44.239  25.712  26.610  1.00  0.00     0.049 A 
ATOM     38  N   UNL A   1      47.001  26.912  26.447  1.00  0.00    -0.248 NA
ATOM     39  C   UNL A   1      47.744  24.914  25.492  1.00  0.00     0.031 C 
ATOM     40  C   UNL A   1      42.879  25.184  26.696  1.00  0.00     0.029 A 
ATOM     41  N   UNL A   1      44.139  26.987  27.108  1.00  0.00    -0.354 N 
ATOM     42  C   UNL A   1      48.353  27.017  26.154  1.00  0.00     0.074 A 
ATOM     43  C   UNL A   1      48.768  25.748  25.595  1.00  0.00     0.031 C 
ATOM     44  C   UNL A   1      42.079  26.127  27.225  1.00  0.00     0.029 A 
ATOM     45  C   UNL A   1      42.877  27.311  27.538  1.00  0.00     0.049 A 
ATOM     46  H   UNL A   1      44.900  27.610  27.151  1.00  0.00     0.167 HD
ATOM     47  C   UNL A   1      49.174  28.080  26.326  1.00  0.00     0.037 A 
ATOM     48  C   UNL A   1      42.424  28.433  28.130  1.00  0.00     0.037 A 
ATOM     49  C   UNL A   1      48.764  29.341  26.882  1.00  0.00     0.049 A 
ATOM     50  C   UNL A   1      43.373  29.579  28.372  1.00  0.00     0.074 A 
ATOM     51  C   UNL A   1      49.518  30.484  27.082  1.00  0.00     0.029 A 
ATOM     52  N   UNL A   1      47.484  29.622  27.336  1.00  0.00    -0.354 N 
ATOM     53  N   UNL A   1      44.643  29.680  28.067  1.00  0.00    -0.248 NA
ATOM     54  C   UNL A   1      42.822  30.767  29.039  1.00  0.00     0.031 C 
ATOM     55  C   UNL A   1      48.705  31.443  27.696  1.00  0.00     0.029 A 
ATOM     56  C   UNL A   1      47.432  30.912  27.837  1.00  0.00     0.049 A 
ATOM     57  H   UNL A   1      46.724  28.996  27.307  1.00  0.00     0.167 HD
ATOM     58  C   UNL A   1      45.037  30.947  28.478  1.00  0.00     0.074 A 
ATOM     59  C   UNL A   1      43.866  31.583  29.048  1.00  0.00     0.031 C 
ATOM     60  C   UNL A   1      46.256  31.531  28.393  1.00  0.00     0.037 A 
BRANCH  47  61
ATOM     61  C   UNL A   1      50.610  27.915  25.925  1.00  0.00     0.064 A 
ATOM     62  C   UNL A   1      51.020  28.059  24.591  1.00  0.00     0.173 A 
ATOM     63  C   UNL A   1      51.590  27.638  26.890  1.00  0.00     0.173 A 
ATOM     64  F   UNL A   1      50.118  28.308  23.630  1.00  0.00    -0.203 F 
ATOM     65  C   UNL A   1      52.359  27.912  24.236  1.00  0.00     0.198 A 
ATOM     66  C   UNL A   1      52.929  27.515  26.534  1.00  0.00     0.198 A 
ATOM     67  F   UNL A   1      51.247  27.492  28.179  1.00  0.00    -0.203 F 
ATOM     68  F   UNL A   1      52.724  28.014  22.951  1.00  0.00    -0.200 F 
ATOM     69  C   UNL A   1      53.312  27.647  25.208  1.00  0.00     0.200 A 
ATOM     70  F   UNL A   1      53.851  27.267  27.476  1.00  0.00    -0.200 F 
ATOM     71  F   UNL A   1      54.600  27.509  24.864  1.00  0.00    -0.200 F 
ENDBRANCH  47  61
BRANCH  48  72
ATOM     72  C   UNL A   1      41.002  28.527  28.548  1.00  0.00     0.064 A 
ATOM     73  C   UNL A   1      40.020  29.006  27.670  1.00  0.00     0.173 A 
ATOM     74  C   UNL A   1      40.601  28.155  29.839  1.00  0.00     0.173 A 
ATOM     75  F   UNL A   1      40.362  29.400  26.435  1.00  0.00    -0.203 F 
ATOM     76  C   UNL A   1      38.692  29.123  28.074  1.00  0.00     0.198 A 
ATOM     77  C   UNL A   1      39.268  28.247  30.233  1.00  0.00     0.198 A 
ATOM     78  F   UNL A   1      41.503  27.692  30.716  1.00  0.00    -0.203 F 
ATOM     79  F   UNL A   1      37.780  29.623  27.229  1.00  0.00    -0.200 F 
ATOM     80  C   UNL A   1      38.315  28.738  29.352  1.00  0.00     0.200 A 
ATOM     81  F   UNL A   1      38.907  27.866  31.465  1.00  0.00    -0.200 F 
ATOM     82  F   UNL A   1      37.037  28.848  29.738  1.00  0.00    -0.200 F 
ENDBRANCH  48  72
BRANCH  60  83
ATOM     83  C   UNL A   1      46.383  32.939  28.896  1.00  0.00     0.064 A 
ATOM     84  C   UNL A   1      46.137  34.042  28.065  1.00  0.00     0.173 A 
ATOM     85  C   UNL A   1      46.711  33.186  30.238  1.00  0.00     0.173 A 
ATOM     86  F   UNL A   1      45.835  33.857  26.771  1.00  0.00    -0.203 F 
ATOM     87  C   UNL A   1      46.233  35.341  28.555  1.00  0.00     0.198 A 
ATOM     88  C   UNL A   1      46.781  34.486  30.730  1.00  0.00     0.198 A 
ATOM     89  F   UNL A   1      46.949  32.164  31.075  1.00  0.00    -0.203 F 
ATOM     90  F   UNL A   1      46.034  36.381  27.734  1.00  0.00    -0.200 F 
ATOM     91  C   UNL A   1      46.549  35.562  29.887  1.00  0.00     0.200 A 
ATOM     92  F   UNL A   1      47.075  34.697  32.020  1.00  0.00    -0.200 F 
ATOM     93  F   UNL A   1      46.635  36.814  30.358  1.00  0.00    -0.200 F 
ENDBRANCH  60  83
ENDBRANCH  34  35
ENDBRANCH  27  29
ENDBRANCH  26  27
ENDBRANCH  25  26
ENDBRANCH  24  25
ENDBRANCH  23  24
ENDBRANCH   1  23
TORSDOF 17
ENDMDL
MODEL 3
REMARK VINA RESULT:     -10.7      4.693     10.257
REMARK SMILES Cc1oc(CNC(=O)c2ccnn2C)cc1C(=O)OCCOCCOC(=O)c1ccc(-c2c3nc(c(-c4c(F)c(F)c(F)c(F)c4F)c4ccc([nH]4)c(-c4c(F)c(F)c(F)c(F)c4F)c4nc(c(-c5c(F)c(F)c(F)c(F)c5F)c5ccc2[nH]5)C=C4)C=C3)cc1
REMARK SMILES IDX 21 1 20 2 19 3 17 4 18 5 16 6 1 7 2 8 3 9 4 10 15 11 5 12
REMARK SMILES IDX 6 13 7 14 8 16 9 17 10 18 13 19 11 20 12 21 14 22 22 23
REMARK SMILES IDX 23 24 24 25 25 26 26 27 27 28 28 29 29 30 90 31 30 32 89 33
REMARK SMILES IDX 31 34 32 35 33 36 83 37 34 38 88 39 82 40 84 41 35 42 87 43
REMARK SMILES IDX 81 44 80 45 36 47 68 48 48 49 67 50 49 51 52 52 66 53 85 54
REMARK SMILES IDX 50 55 51 56 65 58 86 59 53 60 37 61 38 62 46 63 39 64 40 65
REMARK SMILES IDX 44 66 47 67 41 68 42 69 45 70 43 71 69 72 70 73 78 74 71 75
REMARK SMILES IDX 72 76 76 77 79 78 73 79 74 80 77 81 75 82 54 83 55 84 63 85
REMARK SMILES IDX 56 86 57 87 61 88 64 89 58 90 59 91 62 92 60 93
REMARK H PARENT 6 15 84 46 52 57
REMARK Flexibility Score: inf
ROOT
ATOM      1  C   UNL A   1      32.243  29.514  26.488  1.00  0.00     0.202 C 
ENDROOT
BRANCH   1   2
ATOM      2  C   UNL A   1      32.118  29.549  24.963  1.00  0.00     0.261 C 
BRANCH   2   3
ATOM      3  O   UNL A   1      31.604  28.294  24.489  1.00  0.00    -0.460 OA
BRANCH   3   4
ATOM      4  C   UNL A   1      32.494  27.266  24.527  1.00  0.00     0.341 C 
ATOM      5  O   UNL A   1      33.649  27.328  24.120  1.00  0.00    -0.246 OA
BRANCH   4   6
ATOM      6  C   UNL A   1      32.004  26.104  25.242  1.00  0.00     0.101 A 
ATOM      7  C   UNL A   1      29.404  25.926  24.766  1.00  0.00     0.088 C 
ATOM      8  C   UNL A   1      30.723  25.582  25.342  1.00  0.00     0.115 A 
ATOM      9  O   UNL A   1      30.741  24.443  26.103  1.00  0.00    -0.464 OA
ATOM     10  C   UNL A   1      32.027  24.238  26.496  1.00  0.00     0.124 A 
ATOM     11  C   UNL A   1      32.827  25.250  26.026  1.00  0.00     0.063 A 
BRANCH  10  12
ATOM     12  C   UNL A   1      32.385  22.970  27.164  1.00  0.00     0.191 C 
BRANCH  12  13
ATOM     13  N   UNL A   1      31.909  21.804  26.467  1.00  0.00    -0.343 N 
ATOM     14  C   UNL A   1      32.428  21.225  25.339  1.00  0.00     0.269 C 
ATOM     15  H   UNL A   1      31.114  21.367  26.849  1.00  0.00     0.164 HD
ATOM     16  O   UNL A   1      31.860  20.237  24.878  1.00  0.00    -0.268 OA
BRANCH  14  17
ATOM     17  C   UNL A   1      33.567  21.834  24.700  1.00  0.00     0.125 A 
ATOM     18  C   UNL A   1      34.887  21.757  25.110  1.00  0.00     0.055 A 
ATOM     19  N   UNL A   1      33.592  22.658  23.600  1.00  0.00    -0.263 N 
ATOM     20  C   UNL A   1      35.623  22.443  24.132  1.00  0.00     0.136 A 
ATOM     21  N   UNL A   1      34.839  22.969  23.192  1.00  0.00    -0.181 NA
ATOM     22  C   UNL A   1      32.482  23.195  22.847  1.00  0.00     0.174 C 
ENDBRANCH  14  17
ENDBRANCH  12  13
ENDBRANCH  10  12
ENDBRANCH   4   6
ENDBRANCH   3   4
ENDBRANCH   2   3
ENDBRANCH   1   2
BRANCH   1  23
ATOM     23  O   UNL A   1      32.207  30.795  27.119  1.00  0.00    -0.374 OA
BRANCH  23  24
ATOM     24  C   UNL A   1      31.395  31.795  26.500  1.00  0.00     0.202 C 
BRANCH  24  25
ATOM     25  C   UNL A   1      31.727  33.241  26.882  1.00  0.00     0.261 C 
BRANCH  25  26
ATOM     26  O   UNL A   1      33.152  33.428  26.976  1.00  0.00    -0.460 OA
BRANCH  26  27
ATOM     27  C   UNL A   1      33.598  33.830  28.189  1.00  0.00     0.338 C 
ATOM     28  O   UNL A   1      33.037  34.574  28.975  1.00  0.00    -0.246 OA
BRANCH  27  29
ATOM     29  C   UNL A   1      34.818  33.076  28.542  1.00  0.00     0.060 A 
ATOM     30  C   UNL A   1      34.644  31.800  29.092  1.00  0.00     0.016 A 
ATOM     31  C   UNL A   1      36.098  33.613  28.387  1.00  0.00     0.016 A 
ATOM     32  C   UNL A   1      35.746  31.075  29.538  1.00  0.00     0.010 A 
ATOM     33  C   UNL A   1      37.204  32.888  28.845  1.00  0.00     0.010 A 
ATOM     34  C   UNL A   1      37.028  31.633  29.455  1.00  0.00    -0.014 A 
BRANCH  34  35
ATOM     35  C   UNL A   1      38.155  30.966  30.148  1.00  0.00     0.031 A 
ATOM     36  C   UNL A   1      38.417  31.297  31.591  1.00  0.00     0.074 A 
ATOM     37  C   UNL A   1      38.910  30.052  29.516  1.00  0.00     0.049 A 
ATOM     38  N   UNL A   1      39.347  30.844  32.392  1.00  0.00    -0.248 NA
ATOM     39  C   UNL A   1      37.505  32.269  32.214  1.00  0.00     0.031 C 
ATOM     40  C   UNL A   1      38.731  29.621  28.131  1.00  0.00     0.029 A 
ATOM     41  N   UNL A   1      39.985  29.324  29.960  1.00  0.00    -0.354 N 
ATOM     42  C   UNL A   1      39.133  31.474  33.610  1.00  0.00     0.074 A 
ATOM     43  C   UNL A   1      38.005  32.363  33.438  1.00  0.00     0.031 C 
ATOM     44  C   UNL A   1      39.672  28.708  27.834  1.00  0.00     0.029 A 
ATOM     45  C   UNL A   1      40.533  28.512  29.000  1.00  0.00     0.049 A 
ATOM     46  H   UNL A   1      40.330  29.379  30.881  1.00  0.00     0.167 HD
ATOM     47  C   UNL A   1      39.811  31.317  34.772  1.00  0.00     0.037 A 
ATOM     48  C   UNL A   1      41.617  27.713  29.054  1.00  0.00     0.037 A 
ATOM     49  C   UNL A   1      40.933  30.435  34.945  1.00  0.00     0.049 A 
ATOM     50  C   UNL A   1      42.395  27.606  30.341  1.00  0.00     0.074 A 
ATOM     51  C   UNL A   1      41.676  30.195  36.087  1.00  0.00     0.029 A 
ATOM     52  N   UNL A   1      41.480  29.651  33.940  1.00  0.00    -0.354 N 
ATOM     53  N   UNL A   1      42.169  28.184  31.495  1.00  0.00    -0.248 NA
ATOM     54  C   UNL A   1      43.577  26.733  30.330  1.00  0.00     0.031 C 
ATOM     55  C   UNL A   1      42.699  29.297  35.764  1.00  0.00     0.029 A 
ATOM     56  C   UNL A   1      42.566  28.944  34.430  1.00  0.00     0.049 A 
ATOM     57  H   UNL A   1      41.146  29.605  33.014  1.00  0.00     0.167 HD
ATOM     58  C   UNL A   1      43.161  27.727  32.353  1.00  0.00     0.074 A 
ATOM     59  C   UNL A   1      43.986  26.815  31.588  1.00  0.00     0.031 C 
ATOM     60  C   UNL A   1      43.370  28.034  33.656  1.00  0.00     0.037 A 
BRANCH  47  61
ATOM     61  C   UNL A   1      39.366  32.139  35.945  1.00  0.00     0.064 A 
ATOM     62  C   UNL A   1      39.878  33.425  36.176  1.00  0.00     0.173 A 
ATOM     63  C   UNL A   1      38.397  31.646  36.831  1.00  0.00     0.173 A 
ATOM     64  F   UNL A   1      40.818  33.933  35.366  1.00  0.00    -0.203 F 
ATOM     65  C   UNL A   1      39.448  34.180  37.265  1.00  0.00     0.198 A 
ATOM     66  C   UNL A   1      37.954  32.414  37.904  1.00  0.00     0.198 A 
ATOM     67  F   UNL A   1      37.877  30.423  36.652  1.00  0.00    -0.203 F 
ATOM     68  F   UNL A   1      39.979  35.389  37.490  1.00  0.00    -0.200 F 
ATOM     69  C   UNL A   1      38.483  33.676  38.123  1.00  0.00     0.200 A 
ATOM     70  F   UNL A   1      37.014  31.929  38.729  1.00  0.00    -0.200 F 
ATOM     71  F   UNL A   1      38.068  34.406  39.169  1.00  0.00    -0.200 F 
ENDBRANCH  47  61
BRANCH  48  72
ATOM     72  C   UNL A   1      42.039  26.956  27.849  1.00  0.00     0.064 A 
ATOM     73  C   UNL A   1      41.556  25.664  27.599  1.00  0.00     0.173 A 
ATOM     74  C   UNL A   1      42.948  27.503  26.931  1.00  0.00     0.173 A 
ATOM     75  F   UNL A   1      40.707  25.089  28.463  1.00  0.00    -0.203 F 
ATOM     76  C   UNL A   1      41.978  24.943  26.484  1.00  0.00     0.198 A 
ATOM     77  C   UNL A   1      43.349  26.791  25.803  1.00  0.00     0.198 A 
ATOM     78  F   UNL A   1      43.441  28.735  27.127  1.00  0.00    -0.203 F 
ATOM     79  F   UNL A   1      41.533  23.694  26.290  1.00  0.00    -0.200 F 
ATOM     80  C   UNL A   1      42.869  25.509  25.584  1.00  0.00     0.200 A 
ATOM     81  F   UNL A   1      44.202  27.345  24.932  1.00  0.00    -0.200 F 
ATOM     82  F   UNL A   1      43.271  24.815  24.511  1.00  0.00    -0.200 F 
ENDBRANCH  48  72
BRANCH  60  83
ATOM     83  C   UNL A   1      44.516  27.356  34.349  1.00  0.00     0.064 A 
ATOM     84  C   UNL A   1      45.790  27.939  34.404  1.00  0.00     0.173 A 
ATOM     85  C   UNL A   1      44.323  26.131  35.005  1.00  0.00     0.173 A 
ATOM     86  F   UNL A   1      46.027  29.103  33.779  1.00  0.00    -0.203 F 
ATOM     87  C   UNL A   1      46.836  27.309  35.073  1.00  0.00     0.198 A 
ATOM     88  C   UNL A   1      45.365  25.517  35.695  1.00  0.00     0.198 A 
ATOM     89  F   UNL A   1      43.120  25.536  34.988  1.00  0.00    -0.203 F 
ATOM     90  F   UNL A   1      48.055  27.864  35.078  1.00  0.00    -0.200 F 
ATOM     91  C   UNL A   1      46.621  26.103  35.723  1.00  0.00     0.200 A 
ATOM     92  F   UNL A   1      45.152  24.357  36.332  1.00  0.00    -0.200 F 
ATOM     93  F   UNL A   1      47.627  25.503  36.372  1.00  0.00    -0.200 F 
ENDBRANCH  60  83
ENDBRANCH  34  35
ENDBRANCH  27  29
ENDBRANCH  26  27
ENDBRANCH  25  26
ENDBRANCH  24  25
ENDBRANCH  23  24
ENDBRANCH   1  23
TORSDOF 17
ENDMDL
