MODEL 1
REMARK VINA RESULT:     -11.7      0.000      0.000
REMARK SMILES CCn1c(=O)n(CC)c2cc(C(=O)OCCOCCOC(=O)c3ccc(-c4c5nc(c(-c6c(F)c(F)c(F)c(F)c6F)c6ccc([nH]6)c(-c6c(F)c(F)c(F)c(F)c6F)c6nc(c(-c7c(F)c(F)c(F)c(F)c7F)c7ccc4[nH]7)C=C6)C=C5)cc3)ccc21
REMARK SMILES IDX 18 1 17 2 16 3 15 4 14 5 12 6 13 7 11 8 3 9 4 10 88 11 5 12
REMARK SMILES IDX 6 13 9 14 87 15 10 16 86 17 2 18 1 19 7 20 8 21 19 22 20 23
REMARK SMILES IDX 21 24 22 25 23 26 24 27 85 28 25 29 84 30 26 31 27 32 28 33
REMARK SMILES IDX 78 34 29 35 83 36 77 37 79 38 30 39 82 40 76 41 75 42 31 44
REMARK SMILES IDX 63 45 43 46 62 47 44 48 47 49 61 50 80 51 45 52 46 53 60 55
REMARK SMILES IDX 81 56 48 57 32 58 33 59 41 60 34 61 35 62 39 63 42 64 36 65
REMARK SMILES IDX 37 66 40 67 38 68 64 69 65 70 73 71 66 72 67 73 71 74 74 75
REMARK SMILES IDX 68 76 69 77 72 78 70 79 49 80 50 81 58 82 51 83 52 84 56 85
REMARK SMILES IDX 59 86 53 87 54 88 57 89 55 90
REMARK H PARENT 79 43 47 54
REMARK Flexibility Score: inf
ROOT
ATOM      1  C   UNL A   1      32.977  29.689  26.504  1.00  0.00     0.202 C 
ENDROOT
BRANCH   1   2
ATOM      2  O   UNL A   1      32.804  29.676  25.082  1.00  0.00    -0.374 OA
BRANCH   2   3
ATOM      3  C   UNL A   1      33.418  28.632  24.335  1.00  0.00     0.202 C 
BRANCH   3   4
ATOM      4  C   UNL A   1      32.782  28.210  23.005  1.00  0.00     0.261 C 
BRANCH   4   5
ATOM      5  O   UNL A   1      32.195  26.909  23.046  1.00  0.00    -0.460 OA
BRANCH   5   6
ATOM      6  C   UNL A   1      32.911  26.002  22.344  1.00  0.00     0.338 C 
ATOM      7  O   UNL A   1      33.644  26.214  21.391  1.00  0.00    -0.246 OA
BRANCH   6   8
ATOM      8  C   UNL A   1      32.868  24.687  23.000  1.00  0.00     0.062 A 
ATOM      9  N   UNL A   1      33.465  20.836  24.405  1.00  0.00    -0.292 N 
ATOM     10  C   UNL A   1      34.873  20.889  24.625  1.00  0.00     0.329 A 
ATOM     11  C   UNL A   1      33.029  22.102  23.975  1.00  0.00     0.069 A 
ATOM     12  O   UNL A   1      35.585  19.970  24.999  1.00  0.00    -0.248 OA
ATOM     13  N   UNL A   1      35.279  22.200  24.318  1.00  0.00    -0.292 N 
ATOM     14  C   UNL A   1      34.159  22.927  23.909  1.00  0.00     0.070 A 
ATOM     15  C   UNL A   1      31.783  22.601  23.627  1.00  0.00     0.029 A 
ATOM     16  C   UNL A   1      34.100  24.219  23.454  1.00  0.00     0.044 A 
ATOM     17  C   UNL A   1      31.703  23.912  23.126  1.00  0.00     0.018 A 
BRANCH   9  18
ATOM     18  C   UNL A   1      32.762  19.589  24.562  1.00  0.00     0.124 C 
ATOM     19  C   UNL A   1      32.540  18.702  23.355  1.00  0.00     0.028 C 
ENDBRANCH   9  18
BRANCH  13  20
ATOM     20  C   UNL A   1      36.625  22.711  24.443  1.00  0.00     0.124 C 
ATOM     21  C   UNL A   1      36.823  23.701  25.583  1.00  0.00     0.028 C 
ENDBRANCH  13  20
ENDBRANCH   6   8
ENDBRANCH   5   6
ENDBRANCH   4   5
ENDBRANCH   3   4
ENDBRANCH   2   3
ENDBRANCH   1   2
BRANCH   1  22
ATOM     22  C   UNL A   1      33.203  31.036  27.216  1.00  0.00     0.261 C 
BRANCH  22  23
ATOM     23  O   UNL A   1      34.605  31.263  27.430  1.00  0.00    -0.460 OA
BRANCH  23  24
ATOM     24  C   UNL A   1      34.927  31.749  28.665  1.00  0.00     0.338 C 
ATOM     25  O   UNL A   1      34.221  32.337  29.439  1.00  0.00    -0.246 OA
BRANCH  24  26
ATOM     26  C   UNL A   1      36.178  31.042  29.022  1.00  0.00     0.060 A 
ATOM     27  C   UNL A   1      37.291  31.747  29.483  1.00  0.00     0.016 A 
ATOM     28  C   UNL A   1      36.286  29.712  28.585  1.00  0.00     0.016 A 
ATOM     29  C   UNL A   1      38.534  31.131  29.438  1.00  0.00     0.010 A 
ATOM     30  C   UNL A   1      37.540  29.119  28.486  1.00  0.00     0.010 A 
ATOM     31  C   UNL A   1      38.665  29.837  28.896  1.00  0.00    -0.014 A 
BRANCH  31  32
ATOM     32  C   UNL A   1      39.966  29.181  29.032  1.00  0.00     0.031 A 
ATOM     33  C   UNL A   1      40.310  28.934  30.459  1.00  0.00     0.074 A 
ATOM     34  C   UNL A   1      40.762  28.708  28.052  1.00  0.00     0.049 A 
ATOM     35  N   UNL A   1      41.329  29.377  31.118  1.00  0.00    -0.248 NA
ATOM     36  C   UNL A   1      39.323  28.214  31.278  1.00  0.00     0.031 C 
ATOM     37  C   UNL A   1      40.489  28.606  26.619  1.00  0.00     0.029 A 
ATOM     38  N   UNL A   1      41.996  28.125  28.173  1.00  0.00    -0.354 N 
ATOM     39  C   UNL A   1      41.187  28.880  32.410  1.00  0.00     0.074 A 
ATOM     40  C   UNL A   1      39.876  28.296  32.487  1.00  0.00     0.031 C 
ATOM     41  C   UNL A   1      41.438  27.831  26.040  1.00  0.00     0.029 A 
ATOM     42  C   UNL A   1      42.437  27.463  27.033  1.00  0.00     0.049 A 
ATOM     43  H   UNL A   1      42.527  28.172  29.001  1.00  0.00     0.167 HD
ATOM     44  C   UNL A   1      42.239  28.814  33.267  1.00  0.00     0.037 A 
ATOM     45  C   UNL A   1      43.509  26.634  26.933  1.00  0.00     0.037 A 
ATOM     46  C   UNL A   1      43.284  29.726  32.886  1.00  0.00     0.049 A 
ATOM     47  C   UNL A   1      44.405  26.918  28.081  1.00  0.00     0.074 A 
ATOM     48  C   UNL A   1      43.352  31.096  32.717  1.00  0.00     0.029 A 
ATOM     49  N   UNL A   1      44.413  29.222  32.291  1.00  0.00    -0.354 N 
ATOM     50  N   UNL A   1      45.143  27.984  28.190  1.00  0.00    -0.248 NA
ATOM     51  C   UNL A   1      44.204  26.166  29.312  1.00  0.00     0.031 C 
ATOM     52  C   UNL A   1      44.251  31.293  31.630  1.00  0.00     0.029 A 
ATOM     53  C   UNL A   1      44.704  30.037  31.230  1.00  0.00     0.049 A 
ATOM     54  H   UNL A   1      44.919  28.426  32.574  1.00  0.00     0.167 HD
ATOM     55  C   UNL A   1      45.130  28.276  29.544  1.00  0.00     0.074 A 
ATOM     56  C   UNL A   1      44.637  27.068  30.195  1.00  0.00     0.031 C 
ATOM     57  C   UNL A   1      45.245  29.562  29.981  1.00  0.00     0.037 A 
BRANCH  44  58
ATOM     58  C   UNL A   1      42.454  27.682  34.241  1.00  0.00     0.064 A 
ATOM     59  C   UNL A   1      43.067  26.498  33.788  1.00  0.00     0.173 A 
ATOM     60  C   UNL A   1      41.822  27.594  35.502  1.00  0.00     0.173 A 
ATOM     61  F   UNL A   1      43.686  26.459  32.598  1.00  0.00    -0.203 F 
ATOM     62  C   UNL A   1      42.971  25.299  34.496  1.00  0.00     0.198 A 
ATOM     63  C   UNL A   1      41.780  26.410  36.233  1.00  0.00     0.198 A 
ATOM     64  F   UNL A   1      41.125  28.607  36.029  1.00  0.00    -0.203 F 
ATOM     65  F   UNL A   1      43.449  24.170  33.957  1.00  0.00    -0.200 F 
ATOM     66  C   UNL A   1      42.322  25.254  35.715  1.00  0.00     0.200 A 
ATOM     67  F   UNL A   1      41.131  26.385  37.407  1.00  0.00    -0.200 F 
ATOM     68  F   UNL A   1      42.171  24.094  36.365  1.00  0.00    -0.200 F 
ENDBRANCH  44  58
BRANCH  45  69
ATOM     69  C   UNL A   1      43.761  25.479  26.031  1.00  0.00     0.064 A 
ATOM     70  C   UNL A   1      45.011  25.304  25.404  1.00  0.00     0.173 A 
ATOM     71  C   UNL A   1      42.887  24.378  25.980  1.00  0.00     0.173 A 
ATOM     72  F   UNL A   1      45.930  26.280  25.434  1.00  0.00    -0.203 F 
ATOM     73  C   UNL A   1      45.373  24.094  24.798  1.00  0.00     0.198 A 
ATOM     74  C   UNL A   1      43.244  23.176  25.364  1.00  0.00     0.198 A 
ATOM     75  F   UNL A   1      41.705  24.408  26.610  1.00  0.00    -0.203 F 
ATOM     76  F   UNL A   1      46.599  23.946  24.279  1.00  0.00    -0.200 F 
ATOM     77  C   UNL A   1      44.491  23.028  24.789  1.00  0.00     0.200 A 
ATOM     78  F   UNL A   1      42.394  22.139  25.391  1.00  0.00    -0.200 F 
ATOM     79  F   UNL A   1      44.858  21.848  24.267  1.00  0.00    -0.200 F 
ENDBRANCH  45  69
BRANCH  57  80
ATOM     80  C   UNL A   1      45.688  30.610  29.004  1.00  0.00     0.064 A 
ATOM     81  C   UNL A   1      47.034  30.937  28.767  1.00  0.00     0.173 A 
ATOM     82  C   UNL A   1      44.725  31.162  28.147  1.00  0.00     0.173 A 
ATOM     83  F   UNL A   1      48.019  30.374  29.481  1.00  0.00    -0.203 F 
ATOM     84  C   UNL A   1      47.392  31.797  27.731  1.00  0.00     0.198 A 
ATOM     85  C   UNL A   1      45.090  31.989  27.090  1.00  0.00     0.198 A 
ATOM     86  F   UNL A   1      43.430  30.843  28.298  1.00  0.00    -0.203 F 
ATOM     87  F   UNL A   1      48.683  32.093  27.521  1.00  0.00    -0.200 F 
ATOM     88  C   UNL A   1      46.422  32.310  26.885  1.00  0.00     0.200 A 
ATOM     89  F   UNL A   1      44.155  32.439  26.243  1.00  0.00    -0.200 F 
ATOM     90  F   UNL A   1      46.774  33.086  25.851  1.00  0.00    -0.200 F 
ENDBRANCH  57  80
ENDBRANCH  31  32
ENDBRANCH  24  26
ENDBRANCH  23  24
ENDBRANCH  22  23
ENDBRANCH   1  22
TORSDOF 16
ENDMDL
MODEL 2
REMARK VINA RESULT:     -11.7      5.327     10.392
REMARK SMILES CCn1c(=O)n(CC)c2cc(C(=O)OCCOCCOC(=O)c3ccc(-c4c5nc(c(-c6c(F)c(F)c(F)c(F)c6F)c6ccc([nH]6)c(-c6c(F)c(F)c(F)c(F)c6F)c6nc(c(-c7c(F)c(F)c(F)c(F)c7F)c7ccc4[nH]7)C=C6)C=C5)cc3)ccc21
REMARK SMILES IDX 18 1 17 2 16 3 15 4 14 5 12 6 13 7 11 8 3 9 4 10 88 11 5 12
REMARK SMILES IDX 6 13 9 14 87 15 10 16 86 17 2 18 1 19 7 20 8 21 19 22 20 23
REMARK SMILES IDX 21 24 22 25 23 26 24 27 85 28 25 29 84 30 26 31 27 32 28 33
REMARK SMILES IDX 78 34 29 35 83 36 77 37 79 38 30 39 82 40 76 41 75 42 31 44
REMARK SMILES IDX 63 45 43 46 62 47 44 48 47 49 61 50 80 51 45 52 46 53 60 55
REMARK SMILES IDX 81 56 48 57 32 58 33 59 41 60 34 61 35 62 39 63 42 64 36 65
REMARK SMILES IDX 37 66 40 67 38 68 64 69 65 70 73 71 66 72 67 73 71 74 74 75
REMARK SMILES IDX 68 76 69 77 72 78 70 79 49 80 50 81 58 82 51 83 52 84 56 85
REMARK SMILES IDX 59 86 53 87 54 88 57 89 55 90
REMARK H PARENT 79 43 47 54
REMARK Flexibility Score: inf
ROOT
ATOM      1  C   UNL A   1      46.912  25.997  28.362  1.00  0.00     0.202 C 
ENDROOT
BRANCH   1   2
ATOM      2  O   UNL A   1      46.656  27.138  27.534  1.00  0.00    -0.374 OA
BRANCH   2   3
ATOM      3  C   UNL A   1      45.304  27.509  27.290  1.00  0.00     0.202 C 
BRANCH   3   4
ATOM      4  C   UNL A   1      44.764  27.410  25.859  1.00  0.00     0.261 C 
BRANCH   4   5
ATOM      5  O   UNL A   1      44.843  26.092  25.314  1.00  0.00    -0.460 OA
BRANCH   5   6
ATOM      6  C   UNL A   1      43.623  25.530  25.154  1.00  0.00     0.338 C 
ATOM      7  O   UNL A   1      42.557  26.105  25.000  1.00  0.00    -0.246 OA
BRANCH   6   8
ATOM      8  C   UNL A   1      43.741  24.075  24.981  1.00  0.00     0.062 A 
ATOM      9  N   UNL A   1      43.870  19.949  25.326  1.00  0.00    -0.292 N 
ATOM     10  C   UNL A   1      42.704  19.750  26.124  1.00  0.00     0.329 A 
ATOM     11  C   UNL A   1      43.982  21.319  25.027  1.00  0.00     0.069 A 
ATOM     12  O   UNL A   1      42.301  18.686  26.568  1.00  0.00    -0.248 OA
ATOM     13  N   UNL A   1      42.120  21.016  26.304  1.00  0.00    -0.292 N 
ATOM     14  C   UNL A   1      42.908  21.966  25.650  1.00  0.00     0.070 A 
ATOM     15  C   UNL A   1      44.907  22.050  24.299  1.00  0.00     0.029 A 
ATOM     16  C   UNL A   1      42.752  23.328  25.619  1.00  0.00     0.044 A 
ATOM     17  C   UNL A   1      44.787  23.451  24.281  1.00  0.00     0.018 A 
BRANCH   9  18
ATOM     18  C   UNL A   1      44.734  18.836  25.032  1.00  0.00     0.124 C 
ATOM     19  C   UNL A   1      46.085  18.741  25.710  1.00  0.00     0.028 C 
ENDBRANCH   9  18
BRANCH  13  20
ATOM     20  C   UNL A   1      40.889  21.276  27.017  1.00  0.00     0.124 C 
ATOM     21  C   UNL A   1      39.658  21.398  26.129  1.00  0.00     0.028 C 
ENDBRANCH  13  20
ENDBRANCH   6   8
ENDBRANCH   5   6
ENDBRANCH   4   5
ENDBRANCH   3   4
ENDBRANCH   2   3
ENDBRANCH   1   2
BRANCH   1  22
ATOM     22  C   UNL A   1      45.966  24.785  28.277  1.00  0.00     0.261 C 
BRANCH  22  23
ATOM     23  O   UNL A   1      45.075  24.762  29.403  1.00  0.00    -0.460 OA
BRANCH  23  24
ATOM     24  C   UNL A   1      43.800  24.363  29.119  1.00  0.00     0.338 C 
ATOM     25  O   UNL A   1      43.378  23.243  29.017  1.00  0.00    -0.246 OA
BRANCH  24  26
ATOM     26  C   UNL A   1      42.974  25.564  29.378  1.00  0.00     0.060 A 
ATOM     27  C   UNL A   1      42.005  25.977  28.463  1.00  0.00     0.016 A 
ATOM     28  C   UNL A   1      43.420  26.415  30.403  1.00  0.00     0.016 A 
ATOM     29  C   UNL A   1      41.533  27.281  28.537  1.00  0.00     0.010 A 
ATOM     30  C   UNL A   1      42.988  27.736  30.438  1.00  0.00     0.010 A 
ATOM     31  C   UNL A   1      42.058  28.173  29.493  1.00  0.00    -0.014 A 
BRANCH  31  32
ATOM     32  C   UNL A   1      41.402  29.473  29.630  1.00  0.00     0.031 A 
ATOM     33  C   UNL A   1      42.311  30.590  29.255  1.00  0.00     0.074 A 
ATOM     34  C   UNL A   1      40.110  29.722  29.926  1.00  0.00     0.049 A 
ATOM     35  N   UNL A   1      42.704  31.575  29.991  1.00  0.00    -0.248 NA
ATOM     36  C   UNL A   1      42.962  30.518  27.937  1.00  0.00     0.031 C 
ATOM     37  C   UNL A   1      39.003  28.777  30.061  1.00  0.00     0.029 A 
ATOM     38  N   UNL A   1      39.500  30.938  30.090  1.00  0.00    -0.354 N 
ATOM     39  C   UNL A   1      43.552  32.331  29.188  1.00  0.00     0.074 A 
ATOM     40  C   UNL A   1      43.783  31.565  27.993  1.00  0.00     0.031 C 
ATOM     41  C   UNL A   1      37.834  29.464  30.094  1.00  0.00     0.029 A 
ATOM     42  C   UNL A   1      38.110  30.893  30.083  1.00  0.00     0.049 A 
ATOM     43  H   UNL A   1      40.005  31.775  30.203  1.00  0.00     0.167 HD
ATOM     44  C   UNL A   1      43.847  33.624  29.482  1.00  0.00     0.037 A 
ATOM     45  C   UNL A   1      37.259  31.951  30.018  1.00  0.00     0.037 A 
ATOM     46  C   UNL A   1      43.622  33.910  30.874  1.00  0.00     0.049 A 
ATOM     47  C   UNL A   1      38.011  33.159  30.437  1.00  0.00     0.074 A 
ATOM     48  C   UNL A   1      44.125  33.399  32.056  1.00  0.00     0.029 A 
ATOM     49  N   UNL A   1      42.510  34.633  31.227  1.00  0.00    -0.354 N 
ATOM     50  N   UNL A   1      38.361  33.418  31.663  1.00  0.00    -0.248 NA
ATOM     51  C   UNL A   1      38.707  33.925  29.412  1.00  0.00     0.031 C 
ATOM     52  C   UNL A   1      43.037  33.439  32.973  1.00  0.00     0.029 A 
ATOM     53  C   UNL A   1      41.951  34.006  32.308  1.00  0.00     0.049 A 
ATOM     54  H   UNL A   1      42.178  35.448  30.786  1.00  0.00     0.167 HD
ATOM     55  C   UNL A   1      39.595  34.034  31.547  1.00  0.00     0.074 A 
ATOM     56  C   UNL A   1      39.704  34.421  30.146  1.00  0.00     0.031 C 
ATOM     57  C   UNL A   1      40.530  33.914  32.533  1.00  0.00     0.037 A 
BRANCH  44  58
ATOM     58  C   UNL A   1      44.008  34.703  28.441  1.00  0.00     0.064 A 
ATOM     59  C   UNL A   1      45.290  35.233  28.199  1.00  0.00     0.173 A 
ATOM     60  C   UNL A   1      42.934  35.440  27.894  1.00  0.00     0.173 A 
ATOM     61  F   UNL A   1      46.385  34.626  28.682  1.00  0.00    -0.203 F 
ATOM     62  C   UNL A   1      45.474  36.454  27.546  1.00  0.00     0.198 A 
ATOM     63  C   UNL A   1      43.126  36.628  27.191  1.00  0.00     0.198 A 
ATOM     64  F   UNL A   1      41.655  35.113  28.108  1.00  0.00    -0.203 F 
ATOM     65  F   UNL A   1      46.701  36.985  27.465  1.00  0.00    -0.200 F 
ATOM     66  C   UNL A   1      44.391  37.154  27.049  1.00  0.00     0.200 A 
ATOM     67  F   UNL A   1      42.059  37.298  26.730  1.00  0.00    -0.200 F 
ATOM     68  F   UNL A   1      44.557  38.354  26.481  1.00  0.00    -0.200 F 
ENDBRANCH  44  58
BRANCH  45  69
ATOM     69  C   UNL A   1      35.887  32.058  29.453  1.00  0.00     0.064 A 
ATOM     70  C   UNL A   1      35.027  33.110  29.826  1.00  0.00     0.173 A 
ATOM     71  C   UNL A   1      35.489  31.301  28.337  1.00  0.00     0.173 A 
ATOM     72  F   UNL A   1      35.341  33.915  30.851  1.00  0.00    -0.203 F 
ATOM     73  C   UNL A   1      33.864  33.406  29.104  1.00  0.00     0.198 A 
ATOM     74  C   UNL A   1      34.320  31.589  27.626  1.00  0.00     0.198 A 
ATOM     75  F   UNL A   1      36.269  30.327  27.850  1.00  0.00    -0.203 F 
ATOM     76  F   UNL A   1      33.113  34.462  29.448  1.00  0.00    -0.200 F 
ATOM     77  C   UNL A   1      33.518  32.650  27.999  1.00  0.00     0.200 A 
ATOM     78  F   UNL A   1      34.014  30.869  26.536  1.00  0.00    -0.200 F 
ATOM     79  F   UNL A   1      32.440  32.969  27.268  1.00  0.00    -0.200 F 
ENDBRANCH  45  69
BRANCH  57  80
ATOM     80  C   UNL A   1      40.099  33.369  33.862  1.00  0.00     0.064 A 
ATOM     81  C   UNL A   1      39.603  34.165  34.909  1.00  0.00     0.173 A 
ATOM     82  C   UNL A   1      40.008  31.977  34.005  1.00  0.00     0.173 A 
ATOM     83  F   UNL A   1      39.565  35.501  34.804  1.00  0.00    -0.203 F 
ATOM     84  C   UNL A   1      39.062  33.587  36.056  1.00  0.00     0.198 A 
ATOM     85  C   UNL A   1      39.432  31.405  35.134  1.00  0.00     0.198 A 
ATOM     86  F   UNL A   1      40.421  31.171  33.014  1.00  0.00    -0.203 F 
ATOM     87  F   UNL A   1      38.591  34.366  37.041  1.00  0.00    -0.200 F 
ATOM     88  C   UNL A   1      38.964  32.209  36.161  1.00  0.00     0.200 A 
ATOM     89  F   UNL A   1      39.291  30.075  35.209  1.00  0.00    -0.200 F 
ATOM     90  F   UNL A   1      38.387  31.656  37.237  1.00  0.00    -0.200 F 
ENDBRANCH  57  80
ENDBRANCH  31  32
ENDBRANCH  24  26
ENDBRANCH  23  24
ENDBRANCH  22  23
ENDBRANCH   1  22
TORSDOF 16
ENDMDL
MODEL 3
REMARK VINA RESULT:     -11.7      4.791     10.700
REMARK SMILES CCn1c(=O)n(CC)c2cc(C(=O)OCCOCCOC(=O)c3ccc(-c4c5nc(c(-c6c(F)c(F)c(F)c(F)c6F)c6ccc([nH]6)c(-c6c(F)c(F)c(F)c(F)c6F)c6nc(c(-c7c(F)c(F)c(F)c(F)c7F)c7ccc4[nH]7)C=C6)C=C5)cc3)ccc21
REMARK SMILES IDX 18 1 17 2 16 3 15 4 14 5 12 6 13 7 11 8 3 9 4 10 88 11 5 12
REMARK SMILES IDX 6 13 9 14 87 15 10 16 86 17 2 18 1 19 7 20 8 21 19 22 20 23
REMARK SMILES IDX 21 24 22 25 23 26 24 27 85 28 25 29 84 30 26 31 27 32 28 33
REMARK SMILES IDX 78 34 29 35 83 36 77 37 79 38 30 39 82 40 76 41 75 42 31 44
REMARK SMILES IDX 63 45 43 46 62 47 44 48 47 49 61 50 80 51 45 52 46 53 60 55
REMARK SMILES IDX 81 56 48 57 32 58 33 59 41 60 34 61 35 62 39 63 42 64 36 65
REMARK SMILES IDX 37 66 40 67 38 68 64 69 65 70 73 71 66 72 67 73 71 74 74 75
REMARK SMILES IDX 68 76 69 77 72 78 70 79 49 80 50 81 58 82 51 83 52 84 56 85
REMARK SMILES IDX 59 86 53 87 54 88 57 89 55 90
REMARK H PARENT 79 43 47 54
REMARK Flexibility Score: inf
ROOT
ATOM      1  C   UNL A   1      42.208  19.909  26.108  1.00  0.00     0.202 C 
ENDROOT
BRANCH   1   2
ATOM      2  O   UNL A   1      43.243  20.830  26.474  1.00  0.00    -0.374 OA
BRANCH   2   3
ATOM      3  C   UNL A   1      43.893  21.563  25.442  1.00  0.00     0.202 C 
BRANCH   3   4
ATOM      4  C   UNL A   1      43.148  22.738  24.797  1.00  0.00     0.261 C 
BRANCH   4   5
ATOM      5  O   UNL A   1      44.002  23.828  24.450  1.00  0.00    -0.460 OA
BRANCH   5   6
ATOM      6  C   UNL A   1      43.596  24.993  25.002  1.00  0.00     0.338 C 
ATOM      7  O   UNL A   1      42.472  25.471  24.980  1.00  0.00    -0.246 OA
BRANCH   6   8
ATOM      8  C   UNL A   1      44.657  25.566  25.843  1.00  0.00     0.062 A 
ATOM      9  N   UNL A   1      48.169  26.881  27.603  1.00  0.00    -0.292 N 
ATOM     10  C   UNL A   1      48.834  27.377  26.442  1.00  0.00     0.329 A 
ATOM     11  C   UNL A   1      46.889  26.433  27.230  1.00  0.00     0.069 A 
ATOM     12  O   UNL A   1      49.963  27.841  26.394  1.00  0.00    -0.248 OA
ATOM     13  N   UNL A   1      47.941  27.217  25.368  1.00  0.00    -0.292 N 
ATOM     14  C   UNL A   1      46.769  26.629  25.849  1.00  0.00     0.070 A 
ATOM     15  C   UNL A   1      45.844  25.870  27.945  1.00  0.00     0.029 A 
ATOM     16  C   UNL A   1      45.662  26.232  25.143  1.00  0.00     0.044 A 
ATOM     17  C   UNL A   1      44.712  25.425  27.239  1.00  0.00     0.018 A 
BRANCH   9  18
ATOM     18  C   UNL A   1      48.864  26.839  28.862  1.00  0.00     0.124 C 
ATOM     19  C   UNL A   1      48.773  25.595  29.722  1.00  0.00     0.028 C 
ENDBRANCH   9  18
BRANCH  13  20
ATOM     20  C   UNL A   1      48.189  27.628  24.004  1.00  0.00     0.124 C 
ATOM     21  C   UNL A   1      48.926  26.598  23.158  1.00  0.00     0.028 C 
ENDBRANCH  13  20
ENDBRANCH   6   8
ENDBRANCH   5   6
ENDBRANCH   4   5
ENDBRANCH   3   4
ENDBRANCH   2   3
ENDBRANCH   1   2
BRANCH   1  22
ATOM     22  C   UNL A   1      40.817  20.053  26.752  1.00  0.00     0.261 C 
BRANCH  22  23
ATOM     23  O   UNL A   1      40.646  21.373  27.290  1.00  0.00    -0.460 OA
BRANCH  23  24
ATOM     24  C   UNL A   1      39.921  22.224  26.505  1.00  0.00     0.338 C 
ATOM     25  O   UNL A   1      38.960  21.975  25.830  1.00  0.00    -0.246 OA
BRANCH  24  26
ATOM     26  C   UNL A   1      40.299  23.574  26.983  1.00  0.00     0.060 A 
ATOM     27  C   UNL A   1      41.374  23.749  27.855  1.00  0.00     0.016 A 
ATOM     28  C   UNL A   1      39.355  24.593  26.773  1.00  0.00     0.016 A 
ATOM     29  C   UNL A   1      41.460  24.934  28.574  1.00  0.00     0.010 A 
ATOM     30  C   UNL A   1      39.413  25.753  27.538  1.00  0.00     0.010 A 
ATOM     31  C   UNL A   1      40.456  25.914  28.452  1.00  0.00    -0.014 A 
BRANCH  31  32
ATOM     32  C   UNL A   1      40.692  27.202  29.103  1.00  0.00     0.031 A 
ATOM     33  C   UNL A   1      41.868  27.905  28.522  1.00  0.00     0.074 A 
ATOM     34  C   UNL A   1      39.925  27.816  30.027  1.00  0.00     0.049 A 
ATOM     35  N   UNL A   1      42.948  28.275  29.124  1.00  0.00    -0.248 NA
ATOM     36  C   UNL A   1      41.889  28.095  27.063  1.00  0.00     0.031 C 
ATOM     37  C   UNL A   1      38.607  27.429  30.528  1.00  0.00     0.029 A 
ATOM     38  N   UNL A   1      40.161  29.005  30.666  1.00  0.00    -0.354 N 
ATOM     39  C   UNL A   1      43.739  28.870  28.146  1.00  0.00     0.074 A 
ATOM     40  C   UNL A   1      43.105  28.607  26.883  1.00  0.00     0.031 C 
ATOM     41  C   UNL A   1      38.082  28.457  31.239  1.00  0.00     0.029 A 
ATOM     42  C   UNL A   1      39.059  29.532  31.330  1.00  0.00     0.049 A 
ATOM     43  H   UNL A   1      41.039  29.450  30.654  1.00  0.00     0.167 HD
ATOM     44  C   UNL A   1      44.761  29.707  28.468  1.00  0.00     0.037 A 
ATOM     45  C   UNL A   1      38.946  30.778  31.863  1.00  0.00     0.037 A 
ATOM     46  C   UNL A   1      45.208  29.493  29.818  1.00  0.00     0.049 A 
ATOM     47  C   UNL A   1      40.317  31.311  32.054  1.00  0.00     0.074 A 
ATOM     48  C   UNL A   1      45.722  28.406  30.502  1.00  0.00     0.029 A 
ATOM     49  N   UNL A   1      44.855  30.404  30.782  1.00  0.00    -0.354 N 
ATOM     50  N   UNL A   1      41.140  30.907  32.978  1.00  0.00    -0.248 NA
ATOM     51  C   UNL A   1      40.921  32.062  30.963  1.00  0.00     0.031 C 
ATOM     52  C   UNL A   1      45.210  28.523  31.826  1.00  0.00     0.029 A 
ATOM     53  C   UNL A   1      44.450  29.691  31.878  1.00  0.00     0.049 A 
ATOM     54  H   UNL A   1      44.888  31.384  30.700  1.00  0.00     0.167 HD
ATOM     55  C   UNL A   1      42.386  30.963  32.379  1.00  0.00     0.074 A 
ATOM     56  C   UNL A   1      42.206  31.784  31.188  1.00  0.00     0.031 C 
ATOM     57  C   UNL A   1      43.378  30.102  32.748  1.00  0.00     0.037 A 
BRANCH  44  58
ATOM     58  C   UNL A   1      45.113  30.940  27.674  1.00  0.00     0.064 A 
ATOM     59  C   UNL A   1      46.424  31.080  27.177  1.00  0.00     0.173 A 
ATOM     60  C   UNL A   1      44.322  32.109  27.637  1.00  0.00     0.173 A 
ATOM     61  F   UNL A   1      47.271  30.040  27.174  1.00  0.00    -0.203 F 
ATOM     62  C   UNL A   1      46.929  32.316  26.768  1.00  0.00     0.198 A 
ATOM     63  C   UNL A   1      44.812  33.327  27.173  1.00  0.00     0.198 A 
ATOM     64  F   UNL A   1      43.087  32.158  28.150  1.00  0.00    -0.203 F 
ATOM     65  F   UNL A   1      48.222  32.427  26.437  1.00  0.00    -0.200 F 
ATOM     66  C   UNL A   1      46.125  33.440  26.772  1.00  0.00     0.200 A 
ATOM     67  F   UNL A   1      44.019  34.409  27.201  1.00  0.00    -0.200 F 
ATOM     68  F   UNL A   1      46.625  34.637  26.443  1.00  0.00    -0.200 F 
ENDBRANCH  44  58
BRANCH  45  69
ATOM     69  C   UNL A   1      37.752  31.641  32.065  1.00  0.00     0.064 A 
ATOM     70  C   UNL A   1      37.302  31.969  33.360  1.00  0.00     0.173 A 
ATOM     71  C   UNL A   1      37.194  32.387  31.011  1.00  0.00     0.173 A 
ATOM     72  F   UNL A   1      37.805  31.343  34.434  1.00  0.00    -0.203 F 
ATOM     73  C   UNL A   1      36.381  33.000  33.584  1.00  0.00     0.198 A 
ATOM     74  C   UNL A   1      36.265  33.407  31.236  1.00  0.00     0.198 A 
ATOM     75  F   UNL A   1      37.607  32.211  29.749  1.00  0.00    -0.203 F 
ATOM     76  F   UNL A   1      36.036  33.329  34.837  1.00  0.00    -0.200 F 
ATOM     77  C   UNL A   1      35.872  33.724  32.521  1.00  0.00     0.200 A 
ATOM     78  F   UNL A   1      35.805  34.123  30.199  1.00  0.00    -0.200 F 
ATOM     79  F   UNL A   1      35.039  34.753  32.737  1.00  0.00    -0.200 F 
ENDBRANCH  45  69
BRANCH  57  80
ATOM     80  C   UNL A   1      43.199  29.309  34.009  1.00  0.00     0.064 A 
ATOM     81  C   UNL A   1      42.466  28.113  34.082  1.00  0.00     0.173 A 
ATOM     82  C   UNL A   1      43.956  29.676  35.131  1.00  0.00     0.173 A 
ATOM     83  F   UNL A   1      41.796  27.645  33.019  1.00  0.00    -0.203 F 
ATOM     84  C   UNL A   1      42.474  27.334  35.238  1.00  0.00     0.198 A 
ATOM     85  C   UNL A   1      43.993  28.877  36.268  1.00  0.00     0.198 A 
ATOM     86  F   UNL A   1      44.715  30.783  35.097  1.00  0.00    -0.203 F 
ATOM     87  F   UNL A   1      41.770  26.194  35.284  1.00  0.00    -0.200 F 
ATOM     88  C   UNL A   1      43.249  27.709  36.323  1.00  0.00     0.200 A 
ATOM     89  F   UNL A   1      44.785  29.215  37.295  1.00  0.00    -0.200 F 
ATOM     90  F   UNL A   1      43.306  26.928  37.411  1.00  0.00    -0.200 F 
ENDBRANCH  57  80
ENDBRANCH  31  32
ENDBRANCH  24  26
ENDBRANCH  23  24
ENDBRANCH  22  23
ENDBRANCH   1  22
TORSDOF 16
ENDMDL
