MODEL 1
REMARK VINA RESULT:     -11.4      0.000      0.000
REMARK SMILES Cc1cccc(OCC(=O)Nc2cc(C(=O)OCCOCCOC(=O)c3ccc(-c4c5nc(c(-c6c(F)c(F)c(F)c(F)c6F)c6ccc([nH]6)c(-c6c(F)c(F)c(F)c(F)c6F)c6nc(c(-c7c(F)c(F)c(F)c(F)c7F)c7ccc4[nH]7)C=C6)C=C5)cc3)c(Cl)cc2Cl)c1
REMARK SMILES IDX 19 1 18 2 17 3 15 4 16 5 14 6 12 7 13 8 92 9 91 10 93 11
REMARK SMILES IDX 89 12 90 13 11 14 9 15 10 16 8 18 7 19 6 20 1 21 2 22 3 23
REMARK SMILES IDX 94 24 4 25 5 26 20 27 21 28 22 29 23 30 24 31 25 32 26 33
REMARK SMILES IDX 27 34 88 35 28 36 87 37 29 38 30 39 31 40 81 41 32 42 86 43
REMARK SMILES IDX 80 44 82 45 33 46 85 47 79 48 78 49 34 51 66 52 46 53 65 54
REMARK SMILES IDX 47 55 50 56 64 57 83 58 48 59 49 60 63 62 84 63 51 64 35 65
REMARK SMILES IDX 36 66 44 67 37 68 38 69 42 70 45 71 39 72 40 73 43 74 41 75
REMARK SMILES IDX 67 76 68 77 76 78 69 79 70 80 74 81 77 82 71 83 72 84 75 85
REMARK SMILES IDX 73 86 52 87 53 88 61 89 54 90 55 91 59 92 62 93 56 94 57 95
REMARK SMILES IDX 60 96 58 97
REMARK H PARENT 11 17 82 50 50 61
REMARK Flexibility Score: inf
ROOT
ATOM      1  C   UNL A   1      34.059  28.983  27.083  1.00  0.00     0.202 C 
ENDROOT
BRANCH   1   2
ATOM      2  C   UNL A   1      33.648  28.692  25.697  1.00  0.00     0.261 C 
BRANCH   2   3
ATOM      3  O   UNL A   1      32.664  27.669  25.696  1.00  0.00    -0.460 OA
BRANCH   3   4
ATOM      4  C   UNL A   1      32.820  26.629  24.827  1.00  0.00     0.339 C 
ATOM      5  O   UNL A   1      32.737  26.650  23.632  1.00  0.00    -0.246 OA
BRANCH   4   6
ATOM      6  C   UNL A   1      33.156  25.488  25.710  1.00  0.00     0.080 A 
ATOM      7  C   UNL A   1      34.899  23.905  26.353  1.00  0.00     0.061 A 
ATOM      8  C   UNL A   1      34.522  25.115  25.811  1.00  0.00     0.045 A 
ATOM      9  C   UNL A   1      33.868  23.083  26.860  1.00  0.00     0.066 A 
ATOM     10  C   UNL A   1      32.521  23.485  26.848  1.00  0.00     0.044 A 
ATOM     11  Cl  UNL A   1      34.216  21.510  27.488  1.00  0.00    -0.082 Cl
ATOM     12  C   UNL A   1      32.156  24.695  26.264  1.00  0.00     0.057 A 
ATOM     13  Cl  UNL A   1      30.473  25.068  26.192  1.00  0.00    -0.083 Cl
BRANCH   7  14
ATOM     14  N   UNL A   1      36.215  23.402  26.265  1.00  0.00    -0.322 N 
ATOM     15  C   UNL A   1      36.984  22.720  25.354  1.00  0.00     0.262 C 
ATOM     16  O   UNL A   1      38.042  22.273  25.813  1.00  0.00    -0.271 OA
ATOM     17  H   UNL A   1      36.725  23.595  27.085  1.00  0.00     0.170 HD
BRANCH  15  18
ATOM     18  C   UNL A   1      36.700  22.668  23.818  1.00  0.00     0.329 C 
BRANCH  18  19
ATOM     19  O   UNL A   1      35.621  23.261  23.084  1.00  0.00    -0.484 OA
BRANCH  19  20
ATOM     20  C   UNL A   1      34.380  22.698  23.146  1.00  0.00     0.120 A 
ATOM     21  C   UNL A   1      30.754  23.714  23.067  1.00  0.00     0.044 C 
ATOM     22  C   UNL A   1      31.968  22.838  23.027  1.00  0.00    -0.047 A 
ATOM     23  C   UNL A   1      31.842  21.506  23.420  1.00  0.00     0.003 A 
ATOM     24  C   UNL A   1      33.238  23.397  22.808  1.00  0.00     0.049 A 
ATOM     25  C   UNL A   1      32.964  20.855  23.896  1.00  0.00     0.004 A 
ATOM     26  C   UNL A   1      34.201  21.512  23.858  1.00  0.00     0.046 A 
ENDBRANCH  19  20
ENDBRANCH  18  19
ENDBRANCH  15  18
ENDBRANCH   7  14
ENDBRANCH   4   6
ENDBRANCH   3   4
ENDBRANCH   2   3
ENDBRANCH   1   2
BRANCH   1  27
ATOM     27  O   UNL A   1      33.187  30.037  27.444  1.00  0.00    -0.374 OA
BRANCH  27  28
ATOM     28  C   UNL A   1      33.740  31.320  27.274  1.00  0.00     0.202 C 
BRANCH  28  29
ATOM     29  C   UNL A   1      34.196  31.946  28.599  1.00  0.00     0.261 C 
BRANCH  29  30
ATOM     30  O   UNL A   1      35.292  31.169  29.140  1.00  0.00    -0.460 OA
BRANCH  30  31
ATOM     31  C   UNL A   1      36.539  31.417  28.643  1.00  0.00     0.338 C 
ATOM     32  O   UNL A   1      36.875  32.424  28.043  1.00  0.00    -0.246 OA
BRANCH  31  33
ATOM     33  C   UNL A   1      37.333  30.145  28.632  1.00  0.00     0.060 A 
ATOM     34  C   UNL A   1      37.222  29.230  29.699  1.00  0.00     0.016 A 
ATOM     35  C   UNL A   1      38.416  30.052  27.760  1.00  0.00     0.016 A 
ATOM     36  C   UNL A   1      38.279  28.351  29.996  1.00  0.00     0.010 A 
ATOM     37  C   UNL A   1      39.485  29.251  28.107  1.00  0.00     0.010 A 
ATOM     38  C   UNL A   1      39.453  28.442  29.259  1.00  0.00    -0.014 A 
BRANCH  38  39
ATOM     39  C   UNL A   1      40.745  27.823  29.589  1.00  0.00     0.031 A 
ATOM     40  C   UNL A   1      40.972  26.455  29.116  1.00  0.00     0.074 A 
ATOM     41  C   UNL A   1      41.801  28.540  30.047  1.00  0.00     0.049 A 
ATOM     42  N   UNL A   1      41.948  25.720  29.507  1.00  0.00    -0.248 NA
ATOM     43  C   UNL A   1      40.076  25.765  28.194  1.00  0.00     0.031 C 
ATOM     44  C   UNL A   1      43.243  28.290  29.999  1.00  0.00     0.029 A 
ATOM     45  N   UNL A   1      41.764  29.724  30.762  1.00  0.00    -0.354 N 
ATOM     46  C   UNL A   1      42.070  24.722  28.573  1.00  0.00     0.074 A 
ATOM     47  C   UNL A   1      40.773  24.652  27.958  1.00  0.00     0.031 C 
ATOM     48  C   UNL A   1      43.867  29.039  30.934  1.00  0.00     0.029 A 
ATOM     49  C   UNL A   1      42.819  29.715  31.672  1.00  0.00     0.049 A 
ATOM     50  H   UNL A   1      41.107  30.448  30.647  1.00  0.00     0.167 HD
ATOM     51  C   UNL A   1      43.325  24.257  28.309  1.00  0.00     0.037 A 
ATOM     52  C   UNL A   1      42.540  29.765  32.998  1.00  0.00     0.037 A 
ATOM     53  C   UNL A   1      44.299  24.842  29.259  1.00  0.00     0.049 A 
ATOM     54  C   UNL A   1      43.192  28.551  33.576  1.00  0.00     0.074 A 
ATOM     55  C   UNL A   1      45.380  25.701  29.134  1.00  0.00     0.029 A 
ATOM     56  N   UNL A   1      44.021  24.789  30.629  1.00  0.00    -0.354 N 
ATOM     57  N   UNL A   1      43.220  27.408  32.938  1.00  0.00    -0.248 NA
ATOM     58  C   UNL A   1      44.090  28.608  34.722  1.00  0.00     0.031 C 
ATOM     59  C   UNL A   1      45.735  26.165  30.440  1.00  0.00     0.029 A 
ATOM     60  C   UNL A   1      44.863  25.600  31.360  1.00  0.00     0.049 A 
ATOM     61  H   UNL A   1      43.309  24.236  31.025  1.00  0.00     0.167 HD
ATOM     62  C   UNL A   1      44.256  26.673  33.444  1.00  0.00     0.074 A 
ATOM     63  C   UNL A   1      44.727  27.431  34.595  1.00  0.00     0.031 C 
ATOM     64  C   UNL A   1      44.811  25.594  32.819  1.00  0.00     0.037 A 
BRANCH  51  65
ATOM     65  C   UNL A   1      43.729  23.461  27.072  1.00  0.00     0.064 A 
ATOM     66  C   UNL A   1      43.254  22.142  26.892  1.00  0.00     0.173 A 
ATOM     67  C   UNL A   1      44.597  23.892  26.044  1.00  0.00     0.173 A 
ATOM     68  F   UNL A   1      42.406  21.578  27.761  1.00  0.00    -0.203 F 
ATOM     69  C   UNL A   1      43.628  21.337  25.808  1.00  0.00     0.198 A 
ATOM     70  C   UNL A   1      44.956  23.096  24.950  1.00  0.00     0.198 A 
ATOM     71  F   UNL A   1      45.160  25.098  26.023  1.00  0.00    -0.203 F 
ATOM     72  F   UNL A   1      43.155  20.086  25.717  1.00  0.00    -0.200 F 
ATOM     73  C   UNL A   1      44.474  21.816  24.832  1.00  0.00     0.200 A 
ATOM     74  F   UNL A   1      45.777  23.595  24.014  1.00  0.00    -0.200 F 
ATOM     75  F   UNL A   1      44.818  21.056  23.784  1.00  0.00    -0.200 F 
ENDBRANCH  51  65
BRANCH  52  76
ATOM     76  C   UNL A   1      41.191  30.388  33.228  1.00  0.00     0.064 A 
ATOM     77  C   UNL A   1      41.107  31.801  33.087  1.00  0.00     0.173 A 
ATOM     78  C   UNL A   1      39.974  29.710  33.204  1.00  0.00     0.173 A 
ATOM     79  F   UNL A   1      42.233  32.532  33.029  1.00  0.00    -0.203 F 
ATOM     80  C   UNL A   1      39.911  32.483  32.861  1.00  0.00     0.198 A 
ATOM     81  C   UNL A   1      38.765  30.401  32.984  1.00  0.00     0.198 A 
ATOM     82  F   UNL A   1      39.943  28.374  33.280  1.00  0.00    -0.203 F 
ATOM     83  F   UNL A   1      39.934  33.802  32.610  1.00  0.00    -0.200 F 
ATOM     84  C   UNL A   1      38.737  31.778  32.793  1.00  0.00     0.200 A 
ATOM     85  F   UNL A   1      37.622  29.715  32.845  1.00  0.00    -0.200 F 
ATOM     86  F   UNL A   1      37.599  32.410  32.478  1.00  0.00    -0.200 F 
ENDBRANCH  52  76
BRANCH  64  87
ATOM     87  C   UNL A   1      45.335  24.390  33.565  1.00  0.00     0.064 A 
ATOM     88  C   UNL A   1      44.616  23.196  33.740  1.00  0.00     0.173 A 
ATOM     89  C   UNL A   1      46.699  24.334  33.951  1.00  0.00     0.173 A 
ATOM     90  F   UNL A   1      43.347  23.060  33.336  1.00  0.00    -0.203 F 
ATOM     91  C   UNL A   1      45.198  22.056  34.290  1.00  0.00     0.198 A 
ATOM     92  C   UNL A   1      47.294  23.172  34.427  1.00  0.00     0.198 A 
ATOM     93  F   UNL A   1      47.522  25.385  33.837  1.00  0.00    -0.203 F 
ATOM     94  F   UNL A   1      44.452  20.958  34.468  1.00  0.00    -0.200 F 
ATOM     95  C   UNL A   1      46.540  22.036  34.613  1.00  0.00     0.200 A 
ATOM     96  F   UNL A   1      48.611  23.158  34.675  1.00  0.00    -0.200 F 
ATOM     97  F   UNL A   1      47.108  20.919  35.083  1.00  0.00    -0.200 F 
ENDBRANCH  64  87
ENDBRANCH  38  39
ENDBRANCH  31  33
ENDBRANCH  30  31
ENDBRANCH  29  30
ENDBRANCH  28  29
ENDBRANCH  27  28
ENDBRANCH   1  27
TORSDOF 18
ENDMDL
MODEL 2
REMARK VINA RESULT:     -11.2      3.902     10.069
REMARK SMILES Cc1cccc(OCC(=O)Nc2cc(C(=O)OCCOCCOC(=O)c3ccc(-c4c5nc(c(-c6c(F)c(F)c(F)c(F)c6F)c6ccc([nH]6)c(-c6c(F)c(F)c(F)c(F)c6F)c6nc(c(-c7c(F)c(F)c(F)c(F)c7F)c7ccc4[nH]7)C=C6)C=C5)cc3)c(Cl)cc2Cl)c1
REMARK SMILES IDX 19 1 18 2 17 3 15 4 16 5 14 6 12 7 13 8 92 9 91 10 93 11
REMARK SMILES IDX 89 12 90 13 11 14 9 15 10 16 8 18 7 19 6 20 1 21 2 22 3 23
REMARK SMILES IDX 94 24 4 25 5 26 20 27 21 28 22 29 23 30 24 31 25 32 26 33
REMARK SMILES IDX 27 34 88 35 28 36 87 37 29 38 30 39 31 40 81 41 32 42 86 43
REMARK SMILES IDX 80 44 82 45 33 46 85 47 79 48 78 49 34 51 66 52 46 53 65 54
REMARK SMILES IDX 47 55 50 56 64 57 83 58 48 59 49 60 63 62 84 63 51 64 35 65
REMARK SMILES IDX 36 66 44 67 37 68 38 69 42 70 45 71 39 72 40 73 43 74 41 75
REMARK SMILES IDX 67 76 68 77 76 78 69 79 70 80 74 81 77 82 71 83 72 84 75 85
REMARK SMILES IDX 73 86 52 87 53 88 61 89 54 90 55 91 59 92 62 93 56 94 57 95
REMARK SMILES IDX 60 96 58 97
REMARK H PARENT 11 17 82 50 50 61
REMARK Flexibility Score: inf
ROOT
ATOM      1  C   UNL A   1      37.094  21.662  25.325  1.00  0.00     0.202 C 
ENDROOT
BRANCH   1   2
ATOM      2  C   UNL A   1      36.001  20.917  24.672  1.00  0.00     0.261 C 
BRANCH   2   3
ATOM      3  O   UNL A   1      34.886  20.843  25.547  1.00  0.00    -0.460 OA
BRANCH   3   4
ATOM      4  C   UNL A   1      33.647  21.080  25.029  1.00  0.00     0.339 C 
ATOM      5  O   UNL A   1      32.826  20.277  24.687  1.00  0.00    -0.246 OA
BRANCH   4   6
ATOM      6  C   UNL A   1      33.547  22.558  25.029  1.00  0.00     0.080 A 
ATOM      7  C   UNL A   1      33.571  24.563  23.637  1.00  0.00     0.061 A 
ATOM      8  C   UNL A   1      33.374  23.206  23.779  1.00  0.00     0.045 A 
ATOM      9  C   UNL A   1      33.889  25.287  24.808  1.00  0.00     0.066 A 
ATOM     10  C   UNL A   1      33.970  24.669  26.067  1.00  0.00     0.044 A 
ATOM     11  Cl  UNL A   1      34.235  26.980  24.736  1.00  0.00    -0.082 Cl
ATOM     12  C   UNL A   1      33.804  23.292  26.184  1.00  0.00     0.057 A 
ATOM     13  Cl  UNL A   1      34.027  22.592  27.746  1.00  0.00    -0.083 Cl
BRANCH   7  14
ATOM     14  N   UNL A   1      33.632  25.202  22.380  1.00  0.00    -0.322 N 
ATOM     15  C   UNL A   1      32.754  25.668  21.433  1.00  0.00     0.262 C 
ATOM     16  O   UNL A   1      33.278  25.953  20.348  1.00  0.00    -0.271 OA
ATOM     17  H   UNL A   1      34.566  25.358  22.106  1.00  0.00     0.170 HD
BRANCH  15  18
ATOM     18  C   UNL A   1      31.260  26.028  21.711  1.00  0.00     0.329 C 
BRANCH  18  19
ATOM     19  O   UNL A   1      30.726  27.044  22.571  1.00  0.00    -0.484 OA
BRANCH  19  20
ATOM     20  C   UNL A   1      30.610  26.796  23.907  1.00  0.00     0.120 A 
ATOM     21  C   UNL A   1      31.859  28.136  27.199  1.00  0.00     0.044 C 
ATOM     22  C   UNL A   1      31.036  27.354  26.223  1.00  0.00    -0.047 A 
ATOM     23  C   UNL A   1      30.455  26.159  26.648  1.00  0.00     0.003 A 
ATOM     24  C   UNL A   1      31.030  27.702  24.862  1.00  0.00     0.049 A 
ATOM     25  C   UNL A   1      30.171  25.196  25.699  1.00  0.00     0.004 A 
ATOM     26  C   UNL A   1      30.367  25.495  24.344  1.00  0.00     0.046 A 
ENDBRANCH  19  20
ENDBRANCH  18  19
ENDBRANCH  15  18
ENDBRANCH   7  14
ENDBRANCH   4   6
ENDBRANCH   3   4
ENDBRANCH   2   3
ENDBRANCH   1   2
BRANCH   1  27
ATOM     27  O   UNL A   1      38.130  20.700  25.375  1.00  0.00    -0.374 OA
BRANCH  27  28
ATOM     28  C   UNL A   1      39.396  21.239  25.671  1.00  0.00     0.202 C 
BRANCH  28  29
ATOM     29  C   UNL A   1      39.365  22.191  26.875  1.00  0.00     0.261 C 
BRANCH  29  30
ATOM     30  O   UNL A   1      39.923  23.469  26.485  1.00  0.00    -0.460 OA
BRANCH  30  31
ATOM     31  C   UNL A   1      40.665  24.137  27.415  1.00  0.00     0.338 C 
ATOM     32  O   UNL A   1      41.456  23.625  28.191  1.00  0.00    -0.246 OA
BRANCH  31  33
ATOM     33  C   UNL A   1      40.123  25.524  27.585  1.00  0.00     0.060 A 
ATOM     34  C   UNL A   1      40.403  26.518  26.624  1.00  0.00     0.016 A 
ATOM     35  C   UNL A   1      39.656  25.900  28.842  1.00  0.00     0.016 A 
ATOM     36  C   UNL A   1      40.392  27.878  26.982  1.00  0.00     0.010 A 
ATOM     37  C   UNL A   1      39.730  27.228  29.213  1.00  0.00     0.010 A 
ATOM     38  C   UNL A   1      40.157  28.220  28.309  1.00  0.00    -0.014 A 
BRANCH  38  39
ATOM     39  C   UNL A   1      40.378  29.535  28.927  1.00  0.00     0.031 A 
ATOM     40  C   UNL A   1      39.265  30.486  28.892  1.00  0.00     0.074 A 
ATOM     41  C   UNL A   1      41.429  29.788  29.745  1.00  0.00     0.049 A 
ATOM     42  N   UNL A   1      39.380  31.728  29.194  1.00  0.00    -0.248 NA
ATOM     43  C   UNL A   1      37.919  30.131  28.454  1.00  0.00     0.031 C 
ATOM     44  C   UNL A   1      41.621  30.779  30.806  1.00  0.00     0.029 A 
ATOM     45  N   UNL A   1      42.667  29.170  29.737  1.00  0.00    -0.354 N 
ATOM     46  C   UNL A   1      38.108  32.177  29.447  1.00  0.00     0.074 A 
ATOM     47  C   UNL A   1      37.260  31.254  28.744  1.00  0.00     0.031 C 
ATOM     48  C   UNL A   1      42.941  30.940  31.047  1.00  0.00     0.029 A 
ATOM     49  C   UNL A   1      43.629  30.122  30.068  1.00  0.00     0.049 A 
ATOM     50  H   UNL A   1      42.838  28.222  29.533  1.00  0.00     0.167 HD
ATOM     51  C   UNL A   1      37.960  33.137  30.406  1.00  0.00     0.037 A 
ATOM     52  C   UNL A   1      44.595  30.420  29.164  1.00  0.00     0.037 A 
ATOM     53  C   UNL A   1      39.285  33.623  30.854  1.00  0.00     0.049 A 
ATOM     54  C   UNL A   1      44.482  31.894  28.952  1.00  0.00     0.074 A 
ATOM     55  C   UNL A   1      39.983  33.569  32.051  1.00  0.00     0.029 A 
ATOM     56  N   UNL A   1      40.222  34.014  29.892  1.00  0.00    -0.354 N 
ATOM     57  N   UNL A   1      43.324  32.507  28.927  1.00  0.00    -0.248 NA
ATOM     58  C   UNL A   1      45.622  32.796  29.060  1.00  0.00     0.031 C 
ATOM     59  C   UNL A   1      41.345  33.923  31.788  1.00  0.00     0.029 A 
ATOM     60  C   UNL A   1      41.480  34.178  30.431  1.00  0.00     0.049 A 
ATOM     61  H   UNL A   1      40.008  34.157  28.941  1.00  0.00     0.167 HD
ATOM     62  C   UNL A   1      43.543  33.826  29.214  1.00  0.00     0.074 A 
ATOM     63  C   UNL A   1      44.992  33.972  29.224  1.00  0.00     0.031 C 
ATOM     64  C   UNL A   1      42.571  34.697  29.613  1.00  0.00     0.037 A 
BRANCH  51  65
ATOM     65  C   UNL A   1      36.651  33.487  31.108  1.00  0.00     0.064 A 
ATOM     66  C   UNL A   1      35.607  34.113  30.390  1.00  0.00     0.173 A 
ATOM     67  C   UNL A   1      36.352  33.284  32.474  1.00  0.00     0.173 A 
ATOM     68  F   UNL A   1      35.711  34.365  29.079  1.00  0.00    -0.203 F 
ATOM     69  C   UNL A   1      34.402  34.509  30.985  1.00  0.00     0.198 A 
ATOM     70  C   UNL A   1      35.142  33.662  33.065  1.00  0.00     0.198 A 
ATOM     71  F   UNL A   1      37.200  32.717  33.329  1.00  0.00    -0.203 F 
ATOM     72  F   UNL A   1      33.466  35.119  30.244  1.00  0.00    -0.200 F 
ATOM     73  C   UNL A   1      34.166  34.278  32.323  1.00  0.00     0.200 A 
ATOM     74  F   UNL A   1      34.941  33.417  34.369  1.00  0.00    -0.200 F 
ATOM     75  F   UNL A   1      33.007  34.638  32.890  1.00  0.00    -0.200 F 
ENDBRANCH  51  65
BRANCH  52  76
ATOM     76  C   UNL A   1      44.787  29.278  28.204  1.00  0.00     0.064 A 
ATOM     77  C   UNL A   1      45.471  28.135  28.701  1.00  0.00     0.173 A 
ATOM     78  C   UNL A   1      44.064  29.081  27.029  1.00  0.00     0.173 A 
ATOM     79  F   UNL A   1      46.137  28.212  29.866  1.00  0.00    -0.203 F 
ATOM     80  C   UNL A   1      45.383  26.870  28.118  1.00  0.00     0.198 A 
ATOM     81  C   UNL A   1      43.983  27.804  26.436  1.00  0.00     0.198 A 
ATOM     82  F   UNL A   1      43.344  30.078  26.503  1.00  0.00    -0.203 F 
ATOM     83  F   UNL A   1      45.956  25.817  28.722  1.00  0.00    -0.200 F 
ATOM     84  C   UNL A   1      44.623  26.701  26.990  1.00  0.00     0.200 A 
ATOM     85  F   UNL A   1      43.187  27.613  25.375  1.00  0.00    -0.200 F 
ATOM     86  F   UNL A   1      44.452  25.474  26.481  1.00  0.00    -0.200 F 
ENDBRANCH  52  76
BRANCH  64  87
ATOM     87  C   UNL A   1      42.560  36.154  29.215  1.00  0.00     0.064 A 
ATOM     88  C   UNL A   1      43.319  37.151  29.849  1.00  0.00     0.173 A 
ATOM     89  C   UNL A   1      41.923  36.555  28.012  1.00  0.00     0.173 A 
ATOM     90  F   UNL A   1      44.055  36.904  30.940  1.00  0.00    -0.203 F 
ATOM     91  C   UNL A   1      43.404  38.449  29.347  1.00  0.00     0.198 A 
ATOM     92  C   UNL A   1      42.074  37.828  27.476  1.00  0.00     0.198 A 
ATOM     93  F   UNL A   1      41.172  35.720  27.283  1.00  0.00    -0.203 F 
ATOM     94  F   UNL A   1      44.113  39.367  30.017  1.00  0.00    -0.200 F 
ATOM     95  C   UNL A   1      42.801  38.781  28.151  1.00  0.00     0.200 A 
ATOM     96  F   UNL A   1      41.532  38.110  26.283  1.00  0.00    -0.200 F 
ATOM     97  F   UNL A   1      42.938  40.012  27.642  1.00  0.00    -0.200 F 
ENDBRANCH  64  87
ENDBRANCH  38  39
ENDBRANCH  31  33
ENDBRANCH  30  31
ENDBRANCH  29  30
ENDBRANCH  28  29
ENDBRANCH  27  28
ENDBRANCH   1  27
TORSDOF 18
ENDMDL
MODEL 3
REMARK VINA RESULT:     -11.2      3.620      9.835
REMARK SMILES Cc1cccc(OCC(=O)Nc2cc(C(=O)OCCOCCOC(=O)c3ccc(-c4c5nc(c(-c6c(F)c(F)c(F)c(F)c6F)c6ccc([nH]6)c(-c6c(F)c(F)c(F)c(F)c6F)c6nc(c(-c7c(F)c(F)c(F)c(F)c7F)c7ccc4[nH]7)C=C6)C=C5)cc3)c(Cl)cc2Cl)c1
REMARK SMILES IDX 19 1 18 2 17 3 15 4 16 5 14 6 12 7 13 8 92 9 91 10 93 11
REMARK SMILES IDX 89 12 90 13 11 14 9 15 10 16 8 18 7 19 6 20 1 21 2 22 3 23
REMARK SMILES IDX 94 24 4 25 5 26 20 27 21 28 22 29 23 30 24 31 25 32 26 33
REMARK SMILES IDX 27 34 88 35 28 36 87 37 29 38 30 39 31 40 81 41 32 42 86 43
REMARK SMILES IDX 80 44 82 45 33 46 85 47 79 48 78 49 34 51 66 52 46 53 65 54
REMARK SMILES IDX 47 55 50 56 64 57 83 58 48 59 49 60 63 62 84 63 51 64 35 65
REMARK SMILES IDX 36 66 44 67 37 68 38 69 42 70 45 71 39 72 40 73 43 74 41 75
REMARK SMILES IDX 67 76 68 77 76 78 69 79 70 80 74 81 77 82 71 83 72 84 75 85
REMARK SMILES IDX 73 86 52 87 53 88 61 89 54 90 55 91 59 92 62 93 56 94 57 95
REMARK SMILES IDX 60 96 58 97
REMARK H PARENT 11 17 82 50 50 61
REMARK Flexibility Score: inf
ROOT
ATOM      1  C   UNL A   1      36.115  22.071  25.225  1.00  0.00     0.202 C 
ENDROOT
BRANCH   1   2
ATOM      2  C   UNL A   1      35.267  21.978  24.023  1.00  0.00     0.261 C 
BRANCH   2   3
ATOM      3  O   UNL A   1      35.105  23.268  23.453  1.00  0.00    -0.460 OA
BRANCH   3   4
ATOM      4  C   UNL A   1      33.920  23.555  22.843  1.00  0.00     0.339 C 
ATOM      5  O   UNL A   1      33.131  22.788  22.367  1.00  0.00    -0.246 OA
BRANCH   4   6
ATOM      6  C   UNL A   1      33.825  25.030  22.947  1.00  0.00     0.080 A 
ATOM      7  C   UNL A   1      33.777  26.925  24.484  1.00  0.00     0.061 A 
ATOM      8  C   UNL A   1      34.122  25.620  24.202  1.00  0.00     0.045 A 
ATOM      9  C   UNL A   1      33.174  27.664  23.442  1.00  0.00     0.066 A 
ATOM     10  C   UNL A   1      32.961  27.116  22.166  1.00  0.00     0.044 A 
ATOM     11  Cl  UNL A   1      32.627  29.284  23.706  1.00  0.00    -0.082 Cl
ATOM     12  C   UNL A   1      33.282  25.786  21.912  1.00  0.00     0.057 A 
ATOM     13  Cl  UNL A   1      32.890  25.155  20.354  1.00  0.00    -0.083 Cl
BRANCH   7  14
ATOM     14  N   UNL A   1      33.847  27.474  25.782  1.00  0.00    -0.322 N 
ATOM     15  C   UNL A   1      32.997  28.069  26.682  1.00  0.00     0.262 C 
ATOM     16  O   UNL A   1      33.564  28.621  27.632  1.00  0.00    -0.271 OA
ATOM     17  H   UNL A   1      34.761  27.413  26.145  1.00  0.00     0.170 HD
BRANCH  15  18
ATOM     18  C   UNL A   1      31.443  27.909  26.669  1.00  0.00     0.329 C 
BRANCH  18  19
ATOM     19  O   UNL A   1      30.656  26.754  26.991  1.00  0.00    -0.484 OA
BRANCH  19  20
ATOM     20  C   UNL A   1      30.620  25.706  26.119  1.00  0.00     0.120 A 
ATOM     21  C   UNL A   1      32.077  22.257  25.707  1.00  0.00     0.044 C 
ATOM     22  C   UNL A   1      31.190  23.442  25.483  1.00  0.00    -0.047 A 
ATOM     23  C   UNL A   1      30.627  23.624  24.220  1.00  0.00     0.003 A 
ATOM     24  C   UNL A   1      31.104  24.455  26.452  1.00  0.00     0.049 A 
ATOM     25  C   UNL A   1      30.278  24.904  23.838  1.00  0.00     0.004 A 
ATOM     26  C   UNL A   1      30.394  25.948  24.764  1.00  0.00     0.046 A 
ENDBRANCH  19  20
ENDBRANCH  18  19
ENDBRANCH  15  18
ENDBRANCH   7  14
ENDBRANCH   4   6
ENDBRANCH   3   4
ENDBRANCH   2   3
ENDBRANCH   1   2
BRANCH   1  27
ATOM     27  O   UNL A   1      37.351  21.558  24.767  1.00  0.00    -0.374 OA
BRANCH  27  28
ATOM     28  C   UNL A   1      38.373  21.576  25.735  1.00  0.00     0.202 C 
BRANCH  28  29
ATOM     29  C   UNL A   1      38.742  23.000  26.175  1.00  0.00     0.261 C 
BRANCH  29  30
ATOM     30  O   UNL A   1      39.686  22.929  27.271  1.00  0.00    -0.460 OA
BRANCH  30  31
ATOM     31  C   UNL A   1      40.718  23.823  27.266  1.00  0.00     0.338 C 
ATOM     32  O   UNL A   1      41.900  23.541  27.367  1.00  0.00    -0.246 OA
BRANCH  31  33
ATOM     33  C   UNL A   1      40.179  25.207  27.470  1.00  0.00     0.060 A 
ATOM     34  C   UNL A   1      40.394  26.203  26.493  1.00  0.00     0.016 A 
ATOM     35  C   UNL A   1      39.789  25.581  28.753  1.00  0.00     0.016 A 
ATOM     36  C   UNL A   1      40.397  27.562  26.851  1.00  0.00     0.010 A 
ATOM     37  C   UNL A   1      39.879  26.909  29.118  1.00  0.00     0.010 A 
ATOM     38  C   UNL A   1      40.243  27.903  28.190  1.00  0.00    -0.014 A 
BRANCH  38  39
ATOM     39  C   UNL A   1      40.495  29.220  28.793  1.00  0.00     0.031 A 
ATOM     40  C   UNL A   1      39.410  30.202  28.732  1.00  0.00     0.074 A 
ATOM     41  C   UNL A   1      41.543  29.453  29.621  1.00  0.00     0.049 A 
ATOM     42  N   UNL A   1      39.558  31.444  29.019  1.00  0.00    -0.248 NA
ATOM     43  C   UNL A   1      38.060  29.880  28.282  1.00  0.00     0.031 C 
ATOM     44  C   UNL A   1      41.751  30.453  30.672  1.00  0.00     0.029 A 
ATOM     45  N   UNL A   1      42.762  28.800  29.637  1.00  0.00    -0.354 N 
ATOM     46  C   UNL A   1      38.297  31.933  29.250  1.00  0.00     0.074 A 
ATOM     47  C   UNL A   1      37.431  31.026  28.549  1.00  0.00     0.031 C 
ATOM     48  C   UNL A   1      43.072  30.579  30.926  1.00  0.00     0.029 A 
ATOM     49  C   UNL A   1      43.748  29.727  29.968  1.00  0.00     0.049 A 
ATOM     50  H   UNL A   1      42.908  27.845  29.447  1.00  0.00     0.167 HD
ATOM     51  C   UNL A   1      38.165  32.910  30.194  1.00  0.00     0.037 A 
ATOM     52  C   UNL A   1      44.732  29.985  29.072  1.00  0.00     0.037 A 
ATOM     53  C   UNL A   1      39.498  33.364  30.652  1.00  0.00     0.049 A 
ATOM     54  C   UNL A   1      44.666  31.459  28.839  1.00  0.00     0.074 A 
ATOM     55  C   UNL A   1      40.181  33.306  31.858  1.00  0.00     0.029 A 
ATOM     56  N   UNL A   1      40.458  33.714  29.697  1.00  0.00    -0.354 N 
ATOM     57  N   UNL A   1      43.526  32.104  28.791  1.00  0.00    -0.248 NA
ATOM     58  C   UNL A   1      45.830  32.329  28.949  1.00  0.00     0.031 C 
ATOM     59  C   UNL A   1      41.555  33.616  31.608  1.00  0.00     0.029 A 
ATOM     60  C   UNL A   1      41.714  33.849  30.250  1.00  0.00     0.049 A 
ATOM     61  H   UNL A   1      40.260  33.850  28.742  1.00  0.00     0.167 HD
ATOM     62  C   UNL A   1      43.780  33.420  29.063  1.00  0.00     0.074 A 
ATOM     63  C   UNL A   1      45.233  33.525  29.089  1.00  0.00     0.031 C 
ATOM     64  C   UNL A   1      42.830  34.325  29.438  1.00  0.00     0.037 A 
BRANCH  51  65
ATOM     65  C   UNL A   1      36.859  33.308  30.875  1.00  0.00     0.064 A 
ATOM     66  C   UNL A   1      36.647  32.997  32.237  1.00  0.00     0.173 A 
ATOM     67  C   UNL A   1      35.759  33.953  30.267  1.00  0.00     0.173 A 
ATOM     68  F   UNL A   1      37.593  32.402  32.976  1.00  0.00    -0.203 F 
ATOM     69  C   UNL A   1      35.452  33.286  32.910  1.00  0.00     0.198 A 
ATOM     70  C   UNL A   1      34.572  34.260  30.942  1.00  0.00     0.198 A 
ATOM     71  F   UNL A   1      35.748  34.326  28.989  1.00  0.00    -0.203 F 
ATOM     72  F   UNL A   1      35.315  32.940  34.197  1.00  0.00    -0.200 F 
ATOM     73  C   UNL A   1      34.416  33.924  32.263  1.00  0.00     0.200 A 
ATOM     74  F   UNL A   1      33.584  34.886  30.285  1.00  0.00    -0.200 F 
ATOM     75  F   UNL A   1      33.279  34.218  32.908  1.00  0.00    -0.200 F 
ENDBRANCH  51  65
BRANCH  52  76
ATOM     76  C   UNL A   1      44.903  28.825  28.130  1.00  0.00     0.064 A 
ATOM     77  C   UNL A   1      45.570  27.679  28.642  1.00  0.00     0.173 A 
ATOM     78  C   UNL A   1      44.174  28.621  26.960  1.00  0.00     0.173 A 
ATOM     79  F   UNL A   1      46.240  27.763  29.804  1.00  0.00    -0.203 F 
ATOM     80  C   UNL A   1      45.459  26.407  28.080  1.00  0.00     0.198 A 
ATOM     81  C   UNL A   1      44.069  27.337  26.387  1.00  0.00     0.198 A 
ATOM     82  F   UNL A   1      43.469  29.622  26.420  1.00  0.00    -0.203 F 
ATOM     83  F   UNL A   1      46.016  25.354  28.699  1.00  0.00    -0.200 F 
ATOM     84  C   UNL A   1      44.693  26.233  26.956  1.00  0.00     0.200 A 
ATOM     85  F   UNL A   1      43.267  27.142  25.331  1.00  0.00    -0.200 F 
ATOM     86  F   UNL A   1      44.500  25.000  26.467  1.00  0.00    -0.200 F 
ENDBRANCH  52  76
BRANCH  64  87
ATOM     87  C   UNL A   1      42.865  35.776  29.021  1.00  0.00     0.064 A 
ATOM     88  C   UNL A   1      42.181  36.295  27.910  1.00  0.00     0.173 A 
ATOM     89  C   UNL A   1      43.437  36.747  29.883  1.00  0.00     0.173 A 
ATOM     90  F   UNL A   1      41.508  35.513  27.056  1.00  0.00    -0.203 F 
ATOM     91  C   UNL A   1      42.108  37.664  27.658  1.00  0.00     0.198 A 
ATOM     92  C   UNL A   1      43.295  38.113  29.669  1.00  0.00     0.198 A 
ATOM     93  F   UNL A   1      44.112  36.416  30.992  1.00  0.00    -0.203 F 
ATOM     94  F   UNL A   1      41.475  38.097  26.560  1.00  0.00    -0.200 F 
ATOM     95  C   UNL A   1      42.645  38.572  28.548  1.00  0.00     0.200 A 
ATOM     96  F   UNL A   1      43.769  38.977  30.578  1.00  0.00    -0.200 F 
ATOM     97  F   UNL A   1      42.517  39.887  28.333  1.00  0.00    -0.200 F 
ENDBRANCH  64  87
ENDBRANCH  38  39
ENDBRANCH  31  33
ENDBRANCH  30  31
ENDBRANCH  29  30
ENDBRANCH  28  29
ENDBRANCH  27  28
ENDBRANCH   1  27
TORSDOF 18
ENDMDL
