MODEL 1
REMARK VINA RESULT:     -12.0      0.000      0.000
REMARK SMILES Nc1ccc2[nH]cc(C(=O)OCCOCCOC(=O)c3ccc(-c4c5nc(c(-c6c(F)c(F)c(F)c(F)c6F)c6ccc([nH]6)c(-c6c(F)c(F)c(F)c(F)c6F)c6nc(c(-c7c(F)c(F)c(F)c(F)c7F)c7ccc4[nH]7)C=C6)C=C5)cc3)c2c1
REMARK SMILES IDX 15 1 14 2 13 3 12 4 11 5 9 6 10 7 8 8 2 9 3 10 84 11 4 12
REMARK SMILES IDX 83 13 5 14 6 15 7 16 1 18 16 21 17 22 18 23 19 24 20 25
REMARK SMILES IDX 21 26 82 27 22 28 81 29 23 30 24 31 25 32 75 33 26 34 80 35
REMARK SMILES IDX 74 36 76 37 27 38 79 39 73 40 72 41 28 43 60 44 40 45 59 46
REMARK SMILES IDX 41 47 44 48 58 49 77 50 42 51 43 52 57 54 78 55 45 56 29 57
REMARK SMILES IDX 30 58 38 59 31 60 32 61 36 62 39 63 33 64 34 65 37 66 35 67
REMARK SMILES IDX 61 68 62 69 70 70 63 71 64 72 68 73 71 74 65 75 66 76 69 77
REMARK SMILES IDX 67 78 46 79 47 80 55 81 48 82 49 83 53 84 56 85 50 86 51 87
REMARK SMILES IDX 54 88 52 89
REMARK H PARENT 6 17 1 19 1 20 76 42 44 53
REMARK Flexibility Score: inf
ROOT
ATOM      1  C   UNL A   1      32.677  29.999  26.126  1.00  0.00     0.202 C 
ENDROOT
BRANCH   1   2
ATOM      2  O   UNL A   1      33.723  29.101  25.740  1.00  0.00    -0.374 OA
BRANCH   2   3
ATOM      3  C   UNL A   1      33.513  27.713  25.952  1.00  0.00     0.202 C 
BRANCH   3   4
ATOM      4  C   UNL A   1      32.113  27.117  25.762  1.00  0.00     0.261 C 
BRANCH   4   5
ATOM      5  O   UNL A   1      32.088  26.065  24.798  1.00  0.00    -0.460 OA
BRANCH   5   6
ATOM      6  C   UNL A   1      31.652  26.466  23.572  1.00  0.00     0.340 C 
ATOM      7  O   UNL A   1      32.319  26.406  22.542  1.00  0.00    -0.246 OA
BRANCH   6   8
ATOM      8  C   UNL A   1      30.249  26.840  23.565  1.00  0.00     0.085 A 
ATOM      9  C   UNL A   1      29.083  30.321  22.408  1.00  0.00     0.032 A 
ATOM     10  C   UNL A   1      27.723  30.048  22.558  1.00  0.00     0.027 A 
ATOM     11  C   UNL A   1      30.025  29.343  22.766  1.00  0.00     0.036 A 
ATOM     12  C   UNL A   1      27.266  28.815  23.032  1.00  0.00     0.029 A 
ATOM     13  C   UNL A   1      29.598  28.070  23.215  1.00  0.00     0.016 A 
ATOM     14  C   UNL A   1      28.225  27.852  23.356  1.00  0.00     0.046 A 
ATOM     15  N   UNL A   1      28.053  26.582  23.850  1.00  0.00    -0.360 N 
ATOM     16  C   UNL A   1      29.258  25.961  23.969  1.00  0.00     0.099 A 
ATOM     17  H   UNL A   1      27.185  26.181  24.084  1.00  0.00     0.166 HD
BRANCH   9  18
ATOM     18  N   UNL A   1      29.494  31.589  22.019  1.00  0.00    -0.399 N 
ATOM     19  H   UNL A   1      29.797  31.746  21.095  1.00  0.00     0.156 HD
ATOM     20  H   UNL A   1      29.482  32.330  22.665  1.00  0.00     0.156 HD
ENDBRANCH   9  18
ENDBRANCH   6   8
ENDBRANCH   5   6
ENDBRANCH   4   5
ENDBRANCH   3   4
ENDBRANCH   2   3
ENDBRANCH   1   2
BRANCH   1  21
ATOM     21  C   UNL A   1      32.985  31.095  27.166  1.00  0.00     0.261 C 
BRANCH  21  22
ATOM     22  O   UNL A   1      34.152  30.776  27.939  1.00  0.00    -0.460 OA
BRANCH  22  23
ATOM     23  C   UNL A   1      35.194  31.642  27.817  1.00  0.00     0.338 C 
ATOM     24  O   UNL A   1      35.147  32.830  27.551  1.00  0.00    -0.246 OA
BRANCH  23  25
ATOM     25  C   UNL A   1      36.333  30.980  28.491  1.00  0.00     0.060 A 
ATOM     26  C   UNL A   1      37.390  31.734  29.016  1.00  0.00     0.016 A 
ATOM     27  C   UNL A   1      36.487  29.610  28.218  1.00  0.00     0.016 A 
ATOM     28  C   UNL A   1      38.639  31.136  29.153  1.00  0.00     0.010 A 
ATOM     29  C   UNL A   1      37.744  29.029  28.325  1.00  0.00     0.010 A 
ATOM     30  C   UNL A   1      38.829  29.804  28.744  1.00  0.00    -0.014 A 
BRANCH  30  31
ATOM     31  C   UNL A   1      40.153  29.198  28.922  1.00  0.00     0.031 A 
ATOM     32  C   UNL A   1      40.496  28.956  30.357  1.00  0.00     0.074 A 
ATOM     33  C   UNL A   1      40.931  28.741  27.915  1.00  0.00     0.049 A 
ATOM     34  N   UNL A   1      41.554  29.310  31.013  1.00  0.00    -0.248 NA
ATOM     35  C   UNL A   1      39.465  28.309  31.189  1.00  0.00     0.031 C 
ATOM     36  C   UNL A   1      40.608  28.629  26.494  1.00  0.00     0.029 A 
ATOM     37  N   UNL A   1      42.180  28.187  27.970  1.00  0.00    -0.354 N 
ATOM     38  C   UNL A   1      41.383  28.817  32.308  1.00  0.00     0.074 A 
ATOM     39  C   UNL A   1      40.039  28.313  32.389  1.00  0.00     0.031 C 
ATOM     40  C   UNL A   1      41.537  27.879  25.861  1.00  0.00     0.029 A 
ATOM     41  C   UNL A   1      42.569  27.520  26.811  1.00  0.00     0.049 A 
ATOM     42  H   UNL A   1      42.757  28.255  28.764  1.00  0.00     0.167 HD
ATOM     43  C   UNL A   1      42.410  28.705  33.193  1.00  0.00     0.037 A 
ATOM     44  C   UNL A   1      43.610  26.657  26.670  1.00  0.00     0.037 A 
ATOM     45  C   UNL A   1      43.508  29.559  32.844  1.00  0.00     0.049 A 
ATOM     46  C   UNL A   1      44.531  26.886  27.809  1.00  0.00     0.074 A 
ATOM     47  C   UNL A   1      43.683  30.928  32.792  1.00  0.00     0.029 A 
ATOM     48  N   UNL A   1      44.561  29.027  32.147  1.00  0.00    -0.354 N 
ATOM     49  N   UNL A   1      45.230  27.974  27.972  1.00  0.00    -0.248 NA
ATOM     50  C   UNL A   1      44.307  26.094  29.008  1.00  0.00     0.031 C 
ATOM     51  C   UNL A   1      44.521  31.150  31.662  1.00  0.00     0.029 A 
ATOM     52  C   UNL A   1      44.852  29.904  31.131  1.00  0.00     0.049 A 
ATOM     53  H   UNL A   1      45.022  28.178  32.337  1.00  0.00     0.167 HD
ATOM     54  C   UNL A   1      45.173  28.225  29.333  1.00  0.00     0.074 A 
ATOM     55  C   UNL A   1      44.638  27.002  29.928  1.00  0.00     0.031 C 
ATOM     56  C   UNL A   1      45.299  29.490  29.825  1.00  0.00     0.037 A 
BRANCH  43  57
ATOM     57  C   UNL A   1      42.513  27.619  34.229  1.00  0.00     0.064 A 
ATOM     58  C   UNL A   1      43.080  26.375  33.891  1.00  0.00     0.173 A 
ATOM     59  C   UNL A   1      41.829  27.662  35.463  1.00  0.00     0.173 A 
ATOM     60  F   UNL A   1      43.728  26.213  32.727  1.00  0.00    -0.203 F 
ATOM     61  C   UNL A   1      42.928  25.249  34.705  1.00  0.00     0.198 A 
ATOM     62  C   UNL A   1      41.723  26.552  36.298  1.00  0.00     0.198 A 
ATOM     63  F   UNL A   1      41.146  28.745  35.857  1.00  0.00    -0.203 F 
ATOM     64  F   UNL A   1      43.391  24.063  34.292  1.00  0.00    -0.200 F 
ATOM     65  C   UNL A   1      42.249  25.338  35.907  1.00  0.00     0.200 A 
ATOM     66  F   UNL A   1      41.044  26.654  37.449  1.00  0.00    -0.200 F 
ATOM     67  F   UNL A   1      42.057  24.249  36.663  1.00  0.00    -0.200 F 
ENDBRANCH  43  57
BRANCH  44  68
ATOM     68  C   UNL A   1      43.642  25.395  25.881  1.00  0.00     0.064 A 
ATOM     69  C   UNL A   1      44.763  25.052  25.104  1.00  0.00     0.173 A 
ATOM     70  C   UNL A   1      42.707  24.365  26.106  1.00  0.00     0.173 A 
ATOM     71  F   UNL A   1      45.727  25.956  24.876  1.00  0.00    -0.203 F 
ATOM     72  C   UNL A   1      44.951  23.753  24.614  1.00  0.00     0.198 A 
ATOM     73  C   UNL A   1      42.891  23.073  25.611  1.00  0.00     0.198 A 
ATOM     74  F   UNL A   1      41.644  24.559  26.899  1.00  0.00    -0.203 F 
ATOM     75  F   UNL A   1      46.067  23.447  23.938  1.00  0.00    -0.200 F 
ATOM     76  C   UNL A   1      44.022  22.762  24.879  1.00  0.00     0.200 A 
ATOM     77  F   UNL A   1      42.001  22.117  25.909  1.00  0.00    -0.200 F 
ATOM     78  F   UNL A   1      44.233  21.503  24.473  1.00  0.00    -0.200 F 
ENDBRANCH  44  68
BRANCH  56  79
ATOM     79  C   UNL A   1      45.700  30.578  28.867  1.00  0.00     0.064 A 
ATOM     80  C   UNL A   1      44.786  31.300  28.076  1.00  0.00     0.173 A 
ATOM     81  C   UNL A   1      47.029  31.015  28.872  1.00  0.00     0.173 A 
ATOM     82  F   UNL A   1      43.479  31.010  28.095  1.00  0.00    -0.203 F 
ATOM     83  C   UNL A   1      45.197  32.382  27.299  1.00  0.00     0.198 A 
ATOM     84  C   UNL A   1      47.430  32.120  28.125  1.00  0.00     0.198 A 
ATOM     85  F   UNL A   1      47.933  30.404  29.652  1.00  0.00    -0.203 F 
ATOM     86  F   UNL A   1      44.305  33.053  26.554  1.00  0.00    -0.200 F 
ATOM     87  C   UNL A   1      46.517  32.798  27.333  1.00  0.00     0.200 A 
ATOM     88  F   UNL A   1      48.697  32.551  28.203  1.00  0.00    -0.200 F 
ATOM     89  F   UNL A   1      46.905  33.871  26.628  1.00  0.00    -0.200 F 
ENDBRANCH  56  79
ENDBRANCH  30  31
ENDBRANCH  23  25
ENDBRANCH  22  23
ENDBRANCH  21  22
ENDBRANCH   1  21
TORSDOF 15
ENDMDL
MODEL 2
REMARK VINA RESULT:     -11.9      3.871      5.975
REMARK SMILES Nc1ccc2[nH]cc(C(=O)OCCOCCOC(=O)c3ccc(-c4c5nc(c(-c6c(F)c(F)c(F)c(F)c6F)c6ccc([nH]6)c(-c6c(F)c(F)c(F)c(F)c6F)c6nc(c(-c7c(F)c(F)c(F)c(F)c7F)c7ccc4[nH]7)C=C6)C=C5)cc3)c2c1
REMARK SMILES IDX 15 1 14 2 13 3 12 4 11 5 9 6 10 7 8 8 2 9 3 10 84 11 4 12
REMARK SMILES IDX 83 13 5 14 6 15 7 16 1 18 16 21 17 22 18 23 19 24 20 25
REMARK SMILES IDX 21 26 82 27 22 28 81 29 23 30 24 31 25 32 75 33 26 34 80 35
REMARK SMILES IDX 74 36 76 37 27 38 79 39 73 40 72 41 28 43 60 44 40 45 59 46
REMARK SMILES IDX 41 47 44 48 58 49 77 50 42 51 43 52 57 54 78 55 45 56 29 57
REMARK SMILES IDX 30 58 38 59 31 60 32 61 36 62 39 63 33 64 34 65 37 66 35 67
REMARK SMILES IDX 61 68 62 69 70 70 63 71 64 72 68 73 71 74 65 75 66 76 69 77
REMARK SMILES IDX 67 78 46 79 47 80 55 81 48 82 49 83 53 84 56 85 50 86 51 87
REMARK SMILES IDX 54 88 52 89
REMARK H PARENT 6 17 1 19 1 20 76 42 44 53
REMARK Flexibility Score: inf
ROOT
ATOM      1  C   UNL A   1      33.269  34.592  28.867  1.00  0.00     0.202 C 
ENDROOT
BRANCH   1   2
ATOM      2  O   UNL A   1      33.606  35.613  29.812  1.00  0.00    -0.374 OA
BRANCH   2   3
ATOM      3  C   UNL A   1      32.815  35.714  30.986  1.00  0.00     0.202 C 
BRANCH   3   4
ATOM      4  C   UNL A   1      33.411  35.316  32.342  1.00  0.00     0.261 C 
BRANCH   4   5
ATOM      5  O   UNL A   1      34.831  35.179  32.300  1.00  0.00    -0.460 OA
BRANCH   5   6
ATOM      6  C   UNL A   1      35.246  33.883  32.256  1.00  0.00     0.340 C 
ATOM      7  O   UNL A   1      34.509  32.922  32.046  1.00  0.00    -0.246 OA
BRANCH   6   8
ATOM      8  C   UNL A   1      36.690  33.748  32.334  1.00  0.00     0.085 A 
ATOM      9  C   UNL A   1      38.361  31.064  34.529  1.00  0.00     0.032 A 
ATOM     10  C   UNL A   1      39.662  31.384  34.142  1.00  0.00     0.027 A 
ATOM     11  C   UNL A   1      37.288  31.821  34.033  1.00  0.00     0.036 A 
ATOM     12  C   UNL A   1      39.930  32.425  33.249  1.00  0.00     0.029 A 
ATOM     13  C   UNL A   1      37.518  32.861  33.099  1.00  0.00     0.016 A 
ATOM     14  C   UNL A   1      38.842  33.146  32.751  1.00  0.00     0.046 A 
ATOM     15  N   UNL A   1      38.824  34.212  31.885  1.00  0.00    -0.360 N 
ATOM     16  C   UNL A   1      37.540  34.574  31.618  1.00  0.00     0.099 A 
ATOM     17  H   UNL A   1      39.624  34.649  31.512  1.00  0.00     0.166 HD
BRANCH   9  18
ATOM     18  N   UNL A   1      38.148  30.080  35.486  1.00  0.00    -0.399 N 
ATOM     19  H   UNL A   1      38.652  30.099  36.332  1.00  0.00     0.156 HD
ATOM     20  H   UNL A   1      37.493  29.365  35.320  1.00  0.00     0.156 HD
ENDBRANCH   9  18
ENDBRANCH   6   8
ENDBRANCH   5   6
ENDBRANCH   4   5
ENDBRANCH   3   4
ENDBRANCH   2   3
ENDBRANCH   1   2
BRANCH   1  21
ATOM     21  C   UNL A   1      34.395  33.948  28.033  1.00  0.00     0.261 C 
BRANCH  21  22
ATOM     22  O   UNL A   1      35.107  32.955  28.786  1.00  0.00    -0.460 OA
BRANCH  22  23
ATOM     23  C   UNL A   1      34.988  31.676  28.336  1.00  0.00     0.338 C 
ATOM     24  O   UNL A   1      34.342  31.281  27.382  1.00  0.00    -0.246 OA
BRANCH  23  25
ATOM     25  C   UNL A   1      36.119  30.941  28.944  1.00  0.00     0.060 A 
ATOM     26  C   UNL A   1      37.167  31.630  29.567  1.00  0.00     0.016 A 
ATOM     27  C   UNL A   1      36.280  29.613  28.514  1.00  0.00     0.016 A 
ATOM     28  C   UNL A   1      38.415  31.021  29.651  1.00  0.00     0.010 A 
ATOM     29  C   UNL A   1      37.537  29.024  28.569  1.00  0.00     0.010 A 
ATOM     30  C   UNL A   1      38.614  29.746  29.092  1.00  0.00    -0.014 A 
BRANCH  30  31
ATOM     31  C   UNL A   1      39.937  29.125  29.216  1.00  0.00     0.031 A 
ATOM     32  C   UNL A   1      40.328  28.863  30.635  1.00  0.00     0.074 A 
ATOM     33  C   UNL A   1      40.675  28.671  28.177  1.00  0.00     0.049 A 
ATOM     34  N   UNL A   1      41.412  29.199  31.257  1.00  0.00    -0.248 NA
ATOM     35  C   UNL A   1      39.321  28.217  31.496  1.00  0.00     0.031 C 
ATOM     36  C   UNL A   1      40.300  28.579  26.767  1.00  0.00     0.029 A 
ATOM     37  N   UNL A   1      41.918  28.104  28.181  1.00  0.00    -0.354 N 
ATOM     38  C   UNL A   1      41.282  28.693  32.551  1.00  0.00     0.074 A 
ATOM     39  C   UNL A   1      39.937  28.201  32.675  1.00  0.00     0.031 C 
ATOM     40  C   UNL A   1      41.198  27.827  26.094  1.00  0.00     0.029 A 
ATOM     41  C   UNL A   1      42.260  27.446  27.002  1.00  0.00     0.049 A 
ATOM     42  H   UNL A   1      42.524  28.157  28.955  1.00  0.00     0.167 HD
ATOM     43  C   UNL A   1      42.338  28.560  33.399  1.00  0.00     0.037 A 
ATOM     44  C   UNL A   1      43.286  26.575  26.815  1.00  0.00     0.037 A 
ATOM     45  C   UNL A   1      43.432  29.408  33.021  1.00  0.00     0.049 A 
ATOM     46  C   UNL A   1      44.248  26.782  27.924  1.00  0.00     0.074 A 
ATOM     47  C   UNL A   1      43.619  30.775  32.978  1.00  0.00     0.029 A 
ATOM     48  N   UNL A   1      44.454  28.872  32.280  1.00  0.00    -0.354 N 
ATOM     49  N   UNL A   1      44.965  27.861  28.073  1.00  0.00    -0.248 NA
ATOM     50  C   UNL A   1      44.059  25.978  29.121  1.00  0.00     0.031 C 
ATOM     51  C   UNL A   1      44.420  31.001  31.821  1.00  0.00     0.029 A 
ATOM     52  C   UNL A   1      44.718  29.758  31.265  1.00  0.00     0.049 A 
ATOM     53  H   UNL A   1      44.912  28.017  32.445  1.00  0.00     0.167 HD
ATOM     54  C   UNL A   1      44.958  28.096  29.438  1.00  0.00     0.074 A 
ATOM     55  C   UNL A   1      44.431  26.872  30.038  1.00  0.00     0.031 C 
ATOM     56  C   UNL A   1      45.114  29.355  29.939  1.00  0.00     0.037 A 
BRANCH  43  57
ATOM     57  C   UNL A   1      42.467  27.462  34.418  1.00  0.00     0.064 A 
ATOM     58  C   UNL A   1      42.995  26.212  34.043  1.00  0.00     0.173 A 
ATOM     59  C   UNL A   1      41.838  27.503  35.682  1.00  0.00     0.173 A 
ATOM     60  F   UNL A   1      43.588  26.050  32.850  1.00  0.00    -0.203 F 
ATOM     61  C   UNL A   1      42.857  25.080  34.852  1.00  0.00     0.198 A 
ATOM     62  C   UNL A   1      41.748  26.387  36.509  1.00  0.00     0.198 A 
ATOM     63  F   UNL A   1      41.194  28.595  36.116  1.00  0.00    -0.203 F 
ATOM     64  F   UNL A   1      43.280  23.889  34.407  1.00  0.00    -0.200 F 
ATOM     65  C   UNL A   1      42.233  25.168  36.084  1.00  0.00     0.200 A 
ATOM     66  F   UNL A   1      41.122  26.489  37.691  1.00  0.00    -0.200 F 
ATOM     67  F   UNL A   1      42.055  24.075  36.836  1.00  0.00    -0.200 F 
ENDBRANCH  43  57
BRANCH  44  68
ATOM     68  C   UNL A   1      43.277  25.322  26.011  1.00  0.00     0.064 A 
ATOM     69  C   UNL A   1      44.360  24.984  25.180  1.00  0.00     0.173 A 
ATOM     70  C   UNL A   1      42.348  24.293  26.267  1.00  0.00     0.173 A 
ATOM     71  F   UNL A   1      45.316  25.887  24.919  1.00  0.00    -0.203 F 
ATOM     72  C   UNL A   1      44.520  23.690  24.668  1.00  0.00     0.198 A 
ATOM     73  C   UNL A   1      42.505  23.006  25.751  1.00  0.00     0.198 A 
ATOM     74  F   UNL A   1      41.323  24.482  27.110  1.00  0.00    -0.203 F 
ATOM     75  F   UNL A   1      45.603  23.387  23.938  1.00  0.00    -0.200 F 
ATOM     76  C   UNL A   1      43.599  22.699  24.965  1.00  0.00     0.200 A 
ATOM     77  F   UNL A   1      41.625  22.049  26.077  1.00  0.00    -0.200 F 
ATOM     78  F   UNL A   1      43.786  21.444  24.535  1.00  0.00    -0.200 F 
ENDBRANCH  44  68
BRANCH  56  79
ATOM     79  C   UNL A   1      45.492  30.449  28.980  1.00  0.00     0.064 A 
ATOM     80  C   UNL A   1      44.559  31.195  28.236  1.00  0.00     0.173 A 
ATOM     81  C   UNL A   1      46.828  30.867  28.936  1.00  0.00     0.173 A 
ATOM     82  F   UNL A   1      43.249  30.925  28.304  1.00  0.00    -0.203 F 
ATOM     83  C   UNL A   1      44.954  32.282  27.457  1.00  0.00     0.198 A 
ATOM     84  C   UNL A   1      47.215  31.976  28.188  1.00  0.00     0.198 A 
ATOM     85  F   UNL A   1      47.753  30.231  29.671  1.00  0.00    -0.203 F 
ATOM     86  F   UNL A   1      44.043  32.975  26.758  1.00  0.00    -0.200 F 
ATOM     87  C   UNL A   1      46.281  32.678  27.443  1.00  0.00     0.200 A 
ATOM     88  F   UNL A   1      48.490  32.387  28.219  1.00  0.00    -0.200 F 
ATOM     89  F   UNL A   1      46.656  33.754  26.736  1.00  0.00    -0.200 F 
ENDBRANCH  56  79
ENDBRANCH  30  31
ENDBRANCH  23  25
ENDBRANCH  22  23
ENDBRANCH  21  22
ENDBRANCH   1  21
TORSDOF 15
ENDMDL
MODEL 3
REMARK VINA RESULT:     -11.7      4.391      9.350
REMARK SMILES Nc1ccc2[nH]cc(C(=O)OCCOCCOC(=O)c3ccc(-c4c5nc(c(-c6c(F)c(F)c(F)c(F)c6F)c6ccc([nH]6)c(-c6c(F)c(F)c(F)c(F)c6F)c6nc(c(-c7c(F)c(F)c(F)c(F)c7F)c7ccc4[nH]7)C=C6)C=C5)cc3)c2c1
REMARK SMILES IDX 15 1 14 2 13 3 12 4 11 5 9 6 10 7 8 8 2 9 3 10 84 11 4 12
REMARK SMILES IDX 83 13 5 14 6 15 7 16 1 18 16 21 17 22 18 23 19 24 20 25
REMARK SMILES IDX 21 26 82 27 22 28 81 29 23 30 24 31 25 32 75 33 26 34 80 35
REMARK SMILES IDX 74 36 76 37 27 38 79 39 73 40 72 41 28 43 60 44 40 45 59 46
REMARK SMILES IDX 41 47 44 48 58 49 77 50 42 51 43 52 57 54 78 55 45 56 29 57
REMARK SMILES IDX 30 58 38 59 31 60 32 61 36 62 39 63 33 64 34 65 37 66 35 67
REMARK SMILES IDX 61 68 62 69 70 70 63 71 64 72 68 73 71 74 65 75 66 76 69 77
REMARK SMILES IDX 67 78 46 79 47 80 55 81 48 82 49 83 53 84 56 85 50 86 51 87
REMARK SMILES IDX 54 88 52 89
REMARK H PARENT 6 17 1 19 1 20 76 42 44 53
REMARK Flexibility Score: inf
ROOT
ATOM      1  C   UNL A   1      37.507  21.767  25.414  1.00  0.00     0.202 C 
ENDROOT
BRANCH   1   2
ATOM      2  O   UNL A   1      37.202  22.991  24.738  1.00  0.00    -0.374 OA
BRANCH   2   3
ATOM      3  C   UNL A   1      36.527  22.908  23.491  1.00  0.00     0.202 C 
BRANCH   3   4
ATOM      4  C   UNL A   1      35.158  23.578  23.320  1.00  0.00     0.261 C 
BRANCH   4   5
ATOM      5  O   UNL A   1      34.440  23.686  24.549  1.00  0.00    -0.460 OA
BRANCH   5   6
ATOM      6  C   UNL A   1      33.217  23.091  24.513  1.00  0.00     0.340 C 
ATOM      7  O   UNL A   1      32.247  23.529  23.897  1.00  0.00    -0.246 OA
BRANCH   6   8
ATOM      8  C   UNL A   1      33.200  21.789  25.156  1.00  0.00     0.085 A 
ATOM      9  C   UNL A   1      32.291  18.584  23.229  1.00  0.00     0.032 A 
ATOM     10  C   UNL A   1      32.512  17.728  24.308  1.00  0.00     0.027 A 
ATOM     11  C   UNL A   1      32.435  19.969  23.408  1.00  0.00     0.036 A 
ATOM     12  C   UNL A   1      32.901  18.208  25.562  1.00  0.00     0.029 A 
ATOM     13  C   UNL A   1      32.863  20.489  24.654  1.00  0.00     0.016 A 
ATOM     14  C   UNL A   1      33.063  19.588  25.704  1.00  0.00     0.046 A 
ATOM     15  N   UNL A   1      33.418  20.315  26.814  1.00  0.00    -0.360 N 
ATOM     16  C   UNL A   1      33.515  21.634  26.496  1.00  0.00     0.099 A 
ATOM     17  H   UNL A   1      33.578  19.936  27.709  1.00  0.00     0.166 HD
BRANCH   9  18
ATOM     18  N   UNL A   1      31.819  18.072  22.027  1.00  0.00    -0.399 N 
ATOM     19  H   UNL A   1      32.439  17.629  21.404  1.00  0.00     0.156 HD
ATOM     20  H   UNL A   1      30.865  18.153  21.799  1.00  0.00     0.156 HD
ENDBRANCH   9  18
ENDBRANCH   6   8
ENDBRANCH   5   6
ENDBRANCH   4   5
ENDBRANCH   3   4
ENDBRANCH   2   3
ENDBRANCH   1   2
BRANCH   1  21
ATOM     21  C   UNL A   1      38.923  21.571  25.992  1.00  0.00     0.261 C 
BRANCH  21  22
ATOM     22  O   UNL A   1      39.503  22.818  26.402  1.00  0.00    -0.460 OA
BRANCH  22  23
ATOM     23  C   UNL A   1      40.864  22.858  26.416  1.00  0.00     0.338 C 
ATOM     24  O   UNL A   1      41.636  22.049  25.935  1.00  0.00    -0.246 OA
BRANCH  23  25
ATOM     25  C   UNL A   1      41.210  24.263  26.728  1.00  0.00     0.060 A 
ATOM     26  C   UNL A   1      42.102  24.565  27.765  1.00  0.00     0.016 A 
ATOM     27  C   UNL A   1      40.321  25.232  26.233  1.00  0.00     0.016 A 
ATOM     28  C   UNL A   1      42.017  25.809  28.382  1.00  0.00     0.010 A 
ATOM     29  C   UNL A   1      40.218  26.458  26.876  1.00  0.00     0.010 A 
ATOM     30  C   UNL A   1      41.031  26.727  27.981  1.00  0.00    -0.014 A 
BRANCH  30  31
ATOM     31  C   UNL A   1      40.983  28.037  28.640  1.00  0.00     0.031 A 
ATOM     32  C   UNL A   1      42.088  28.948  28.210  1.00  0.00     0.074 A 
ATOM     33  C   UNL A   1      39.969  28.466  29.426  1.00  0.00     0.049 A 
ATOM     34  N   UNL A   1      42.930  29.607  28.937  1.00  0.00    -0.248 NA
ATOM     35  C   UNL A   1      42.336  29.056  26.761  1.00  0.00     0.031 C 
ATOM     36  C   UNL A   1      38.687  27.816  29.694  1.00  0.00     0.029 A 
ATOM     37  N   UNL A   1      39.839  29.647  30.101  1.00  0.00    -0.354 N 
ATOM     38  C   UNL A   1      43.733  30.318  28.043  1.00  0.00     0.074 A 
ATOM     39  C   UNL A   1      43.399  29.855  26.724  1.00  0.00     0.031 C 
ATOM     40  C   UNL A   1      37.845  28.679  30.303  1.00  0.00     0.029 A 
ATOM     41  C   UNL A   1      38.547  29.922  30.545  1.00  0.00     0.049 A 
ATOM     42  H   UNL A   1      40.596  30.255  30.262  1.00  0.00     0.167 HD
ATOM     43  C   UNL A   1      44.514  31.363  28.427  1.00  0.00     0.037 A 
ATOM     44  C   UNL A   1      38.067  31.114  30.988  1.00  0.00     0.037 A 
ATOM     45  C   UNL A   1      44.788  31.333  29.835  1.00  0.00     0.049 A 
ATOM     46  C   UNL A   1      39.234  31.952  31.353  1.00  0.00     0.074 A 
ATOM     47  C   UNL A   1      45.498  30.481  30.658  1.00  0.00     0.029 A 
ATOM     48  N   UNL A   1      44.020  32.099  30.672  1.00  0.00    -0.354 N 
ATOM     49  N   UNL A   1      40.023  31.701  32.360  1.00  0.00    -0.248 NA
ATOM     50  C   UNL A   1      39.790  32.800  30.311  1.00  0.00     0.031 C 
ATOM     51  C   UNL A   1      44.752  30.435  31.871  1.00  0.00     0.029 A 
ATOM     52  C   UNL A   1      43.670  31.303  31.733  1.00  0.00     0.049 A 
ATOM     53  H   UNL A   1      43.768  33.041  30.538  1.00  0.00     0.167 HD
ATOM     54  C   UNL A   1      41.292  31.995  31.889  1.00  0.00     0.074 A 
ATOM     55  C   UNL A   1      41.081  32.722  30.638  1.00  0.00     0.031 C 
ATOM     56  C   UNL A   1      42.397  31.385  32.405  1.00  0.00     0.037 A 
BRANCH  43  57
ATOM     57  C   UNL A   1      44.808  32.557  27.561  1.00  0.00     0.064 A 
ATOM     58  C   UNL A   1      46.031  32.641  26.869  1.00  0.00     0.173 A 
ATOM     59  C   UNL A   1      44.048  33.747  27.601  1.00  0.00     0.173 A 
ATOM     60  F   UNL A   1      46.848  31.578  26.793  1.00  0.00    -0.203 F 
ATOM     61  C   UNL A   1      46.480  33.839  26.306  1.00  0.00     0.198 A 
ATOM     62  C   UNL A   1      44.473  34.926  26.994  1.00  0.00     0.198 A 
ATOM     63  F   UNL A   1      42.921  33.842  28.319  1.00  0.00    -0.203 F 
ATOM     64  F   UNL A   1      47.698  33.898  25.751  1.00  0.00    -0.200 F 
ATOM     65  C   UNL A   1      45.701  34.980  26.369  1.00  0.00     0.200 A 
ATOM     66  F   UNL A   1      43.712  36.026  27.084  1.00  0.00    -0.200 F 
ATOM     67  F   UNL A   1      46.152  36.141  25.876  1.00  0.00    -0.200 F 
ENDBRANCH  43  57
BRANCH  44  68
ATOM     68  C   UNL A   1      36.730  31.711  30.715  1.00  0.00     0.064 A 
ATOM     69  C   UNL A   1      35.881  32.101  31.767  1.00  0.00     0.173 A 
ATOM     70  C   UNL A   1      36.385  32.182  29.433  1.00  0.00     0.173 A 
ATOM     71  F   UNL A   1      36.158  31.736  33.027  1.00  0.00    -0.203 F 
ATOM     72  C   UNL A   1      34.778  32.938  31.551  1.00  0.00     0.198 A 
ATOM     73  C   UNL A   1      35.282  33.010  29.218  1.00  0.00     0.198 A 
ATOM     74  F   UNL A   1      37.168  31.938  28.374  1.00  0.00    -0.203 F 
ATOM     75  F   UNL A   1      34.034  33.346  32.589  1.00  0.00    -0.200 F 
ATOM     76  C   UNL A   1      34.488  33.402  30.280  1.00  0.00     0.200 A 
ATOM     77  F   UNL A   1      35.036  33.481  27.988  1.00  0.00    -0.200 F 
ATOM     78  F   UNL A   1      33.477  34.258  30.081  1.00  0.00    -0.200 F 
ENDBRANCH  44  68
BRANCH  56  79
ATOM     79  C   UNL A   1      42.218  30.533  33.632  1.00  0.00     0.064 A 
ATOM     80  C   UNL A   1      41.836  29.179  33.595  1.00  0.00     0.173 A 
ATOM     81  C   UNL A   1      42.606  31.057  34.870  1.00  0.00     0.173 A 
ATOM     82  F   UNL A   1      41.550  28.574  32.435  1.00  0.00    -0.203 F 
ATOM     83  C   UNL A   1      41.809  28.402  34.753  1.00  0.00     0.198 A 
ATOM     84  C   UNL A   1      42.615  30.269  36.019  1.00  0.00     0.198 A 
ATOM     85  F   UNL A   1      43.037  32.325  34.957  1.00  0.00    -0.203 F 
ATOM     86  F   UNL A   1      41.440  27.113  34.689  1.00  0.00    -0.200 F 
ATOM     87  C   UNL A   1      42.208  28.946  35.962  1.00  0.00     0.200 A 
ATOM     88  F   UNL A   1      43.053  30.785  37.176  1.00  0.00    -0.200 F 
ATOM     89  F   UNL A   1      42.233  28.187  37.067  1.00  0.00    -0.200 F 
ENDBRANCH  56  79
ENDBRANCH  30  31
ENDBRANCH  23  25
ENDBRANCH  22  23
ENDBRANCH  21  22
ENDBRANCH   1  21
TORSDOF 15
ENDMDL
