MODEL 1
REMARK VINA RESULT:     -11.8      0.000      0.000
REMARK SMILES C[C@@H](C(=O)OCCOCCOC(=O)c1ccc(-c2c3nc(c(-c4c(F)c(F)c(F)c(F)c4F)c4ccc([nH]4)c(-c4c(F)c(F)c(F)c(F)c4F)c4nc(c(-c5c(F)c(F)c(F)c(F)c5F)c5ccc2[nH]5)C=C4)C=C3)cc1)c1ccc(-c2ccc3[nH]ccc3c2)cc1
REMARK SMILES IDX 8 1 7 2 6 3 5 4 3 5 4 6 2 7 1 8 77 9 78 10 91 11 79 12 90 13
REMARK SMILES IDX 80 14 81 15 82 16 89 17 83 18 88 19 84 20 87 21 85 22 86 23
REMARK SMILES IDX 9 25 10 26 11 27 12 28 13 29 14 30 15 31 76 32 16 33 75 34
REMARK SMILES IDX 17 35 18 36 19 37 69 38 20 39 74 40 68 41 70 42 21 43 73 44
REMARK SMILES IDX 67 45 66 46 22 48 54 49 34 50 53 51 35 52 38 53 52 54 71 55
REMARK SMILES IDX 36 56 37 57 51 59 72 60 39 61 23 62 24 63 32 64 25 65 26 66
REMARK SMILES IDX 30 67 33 68 27 69 28 70 31 71 29 72 55 73 56 74 64 75 57 76
REMARK SMILES IDX 58 77 62 78 65 79 59 80 60 81 63 82 61 83 40 84 41 85 49 86
REMARK SMILES IDX 42 87 43 88 47 89 50 90 44 91 45 92 48 93 46 94
REMARK H PARENT 85 24 70 47 38 58
REMARK Flexibility Score: inf
ROOT
ATOM      1  O   UNL A   1      34.529  20.991  25.888  1.00  0.00    -0.374 OA
ENDROOT
BRANCH   1   2
ATOM      2  C   UNL A   1      33.326  20.445  25.346  1.00  0.00     0.202 C 
BRANCH   2   3
ATOM      3  C   UNL A   1      32.072  21.312  25.486  1.00  0.00     0.261 C 
BRANCH   3   4
ATOM      4  O   UNL A   1      32.420  22.708  25.468  1.00  0.00    -0.463 OA
BRANCH   4   5
ATOM      5  C   UNL A   1      31.793  23.478  26.401  1.00  0.00     0.313 C 
ATOM      6  O   UNL A   1      31.781  23.224  27.601  1.00  0.00    -0.252 OA
BRANCH   5   7
ATOM      7  C   UNL A   1      31.136  24.727  25.797  1.00  0.00     0.126 C 
ATOM      8  C   UNL A   1      30.895  24.635  24.286  1.00  0.00     0.025 C 
BRANCH   7   9
ATOM      9  C   UNL A   1      31.860  25.993  26.255  1.00  0.00    -0.034 A 
ATOM     10  C   UNL A   1      33.196  26.173  25.861  1.00  0.00     0.005 A 
ATOM     11  C   UNL A   1      31.258  27.013  27.007  1.00  0.00     0.005 A 
ATOM     12  C   UNL A   1      33.896  27.337  26.182  1.00  0.00     0.009 A 
ATOM     13  C   UNL A   1      31.965  28.182  27.333  1.00  0.00     0.009 A 
ATOM     14  C   UNL A   1      33.288  28.363  26.914  1.00  0.00    -0.018 A 
BRANCH  14  15
ATOM     15  C   UNL A   1      34.033  29.593  27.201  1.00  0.00    -0.018 A 
ATOM     16  C   UNL A   1      35.426  29.551  27.364  1.00  0.00     0.011 A 
ATOM     17  C   UNL A   1      33.360  30.815  27.383  1.00  0.00     0.019 A 
ATOM     18  C   UNL A   1      36.166  30.686  27.720  1.00  0.00     0.027 A 
ATOM     19  C   UNL A   1      34.080  31.969  27.757  1.00  0.00    -0.000 A 
ATOM     20  C   UNL A   1      35.462  31.876  27.919  1.00  0.00     0.045 A 
ATOM     21  C   UNL A   1      33.714  33.312  28.052  1.00  0.00     0.028 A 
ATOM     22  N   UNL A   1      35.910  33.122  28.298  1.00  0.00    -0.361 N 
ATOM     23  C   UNL A   1      34.860  33.996  28.389  1.00  0.00     0.083 A 
ATOM     24  H   UNL A   1      36.851  33.350  28.478  1.00  0.00     0.166 HD
ENDBRANCH  14  15
ENDBRANCH   7   9
ENDBRANCH   5   7
ENDBRANCH   4   5
ENDBRANCH   3   4
ENDBRANCH   2   3
ENDBRANCH   1   2
BRANCH   1  25
ATOM     25  C   UNL A   1      35.578  21.311  24.974  1.00  0.00     0.202 C 
BRANCH  25  26
ATOM     26  C   UNL A   1      36.958  20.725  25.297  1.00  0.00     0.261 C 
BRANCH  26  27
ATOM     27  O   UNL A   1      38.004  21.715  25.249  1.00  0.00    -0.460 OA
BRANCH  27  28
ATOM     28  C   UNL A   1      39.107  21.408  25.971  1.00  0.00     0.338 C 
ATOM     29  O   UNL A   1      39.730  20.354  25.965  1.00  0.00    -0.246 OA
BRANCH  28  30
ATOM     30  C   UNL A   1      39.602  22.594  26.691  1.00  0.00     0.060 A 
ATOM     31  C   UNL A   1      39.025  23.830  26.370  1.00  0.00     0.016 A 
ATOM     32  C   UNL A   1      40.676  22.522  27.581  1.00  0.00     0.016 A 
ATOM     33  C   UNL A   1      39.552  25.006  26.899  1.00  0.00     0.010 A 
ATOM     34  C   UNL A   1      41.211  23.707  28.104  1.00  0.00     0.010 A 
ATOM     35  C   UNL A   1      40.675  24.955  27.736  1.00  0.00    -0.014 A 
BRANCH  35  36
ATOM     36  C   UNL A   1      41.369  26.215  28.098  1.00  0.00     0.031 A 
ATOM     37  C   UNL A   1      42.762  26.457  27.585  1.00  0.00     0.074 A 
ATOM     38  C   UNL A   1      40.752  27.155  28.836  1.00  0.00     0.049 A 
ATOM     39  N   UNL A   1      43.555  27.480  27.778  1.00  0.00    -0.248 NA
ATOM     40  C   UNL A   1      43.339  25.401  26.737  1.00  0.00     0.031 C 
ATOM     41  C   UNL A   1      39.391  27.058  29.357  1.00  0.00     0.029 A 
ATOM     42  N   UNL A   1      41.197  28.377  29.275  1.00  0.00    -0.354 N 
ATOM     43  C   UNL A   1      44.720  27.193  27.079  1.00  0.00     0.074 A 
ATOM     44  C   UNL A   1      44.544  25.887  26.481  1.00  0.00     0.031 C 
ATOM     45  C   UNL A   1      39.113  28.173  30.056  1.00  0.00     0.029 A 
ATOM     46  C   UNL A   1      40.284  29.048  30.051  1.00  0.00     0.049 A 
ATOM     47  H   UNL A   1      42.086  28.739  29.055  1.00  0.00     0.167 HD
ATOM     48  C   UNL A   1      45.832  27.953  26.940  1.00  0.00     0.037 A 
ATOM     49  C   UNL A   1      40.391  30.224  30.697  1.00  0.00     0.037 A 
ATOM     50  C   UNL A   1      46.008  29.253  27.533  1.00  0.00     0.049 A 
ATOM     51  C   UNL A   1      41.665  31.022  30.582  1.00  0.00     0.074 A 
ATOM     52  C   UNL A   1      47.093  30.108  27.435  1.00  0.00     0.029 A 
ATOM     53  N   UNL A   1      45.075  29.883  28.342  1.00  0.00    -0.354 N 
ATOM     54  N   UNL A   1      42.751  30.753  29.898  1.00  0.00    -0.248 NA
ATOM     55  C   UNL A   1      41.724  32.289  31.327  1.00  0.00     0.031 C 
ATOM     56  C   UNL A   1      46.834  31.235  28.221  1.00  0.00     0.029 A 
ATOM     57  C   UNL A   1      45.569  31.104  28.771  1.00  0.00     0.049 A 
ATOM     58  H   UNL A   1      44.192  29.516  28.577  1.00  0.00     0.167 HD
ATOM     59  C   UNL A   1      43.610  31.825  30.110  1.00  0.00     0.074 A 
ATOM     60  C   UNL A   1      42.914  32.754  30.975  1.00  0.00     0.031 C 
ATOM     61  C   UNL A   1      44.862  32.022  29.627  1.00  0.00     0.037 A 
BRANCH  48  62
ATOM     62  C   UNL A   1      46.959  27.388  26.128  1.00  0.00     0.064 A 
ATOM     63  C   UNL A   1      47.093  27.668  24.759  1.00  0.00     0.173 A 
ATOM     64  C   UNL A   1      47.935  26.583  26.733  1.00  0.00     0.173 A 
ATOM     65  F   UNL A   1      46.177  28.422  24.133  1.00  0.00    -0.203 F 
ATOM     66  C   UNL A   1      48.152  27.145  24.023  1.00  0.00     0.198 A 
ATOM     67  C   UNL A   1      49.007  26.082  25.998  1.00  0.00     0.198 A 
ATOM     68  F   UNL A   1      47.855  26.288  28.039  1.00  0.00    -0.203 F 
ATOM     69  F   UNL A   1      48.239  27.393  22.709  1.00  0.00    -0.200 F 
ATOM     70  C   UNL A   1      49.111  26.359  24.643  1.00  0.00     0.200 A 
ATOM     71  F   UNL A   1      49.938  25.331  26.602  1.00  0.00    -0.200 F 
ATOM     72  F   UNL A   1      50.133  25.861  23.933  1.00  0.00    -0.200 F 
ENDBRANCH  48  62
BRANCH  49  73
ATOM     73  C   UNL A   1      39.261  30.721  31.522  1.00  0.00     0.064 A 
ATOM     74  C   UNL A   1      39.106  30.322  32.857  1.00  0.00     0.173 A 
ATOM     75  C   UNL A   1      38.301  31.592  30.985  1.00  0.00     0.173 A 
ATOM     76  F   UNL A   1      39.984  29.468  33.405  1.00  0.00    -0.203 F 
ATOM     77  C   UNL A   1      38.027  30.763  33.619  1.00  0.00     0.198 A 
ATOM     78  C   UNL A   1      37.236  32.053  31.757  1.00  0.00     0.198 A 
ATOM     79  F   UNL A   1      38.401  31.999  29.712  1.00  0.00    -0.203 F 
ATOM     80  F   UNL A   1      37.879  30.332  34.879  1.00  0.00    -0.200 F 
ATOM     81  C   UNL A   1      37.096  31.634  33.070  1.00  0.00     0.200 A 
ATOM     82  F   UNL A   1      36.345  32.901  31.226  1.00  0.00    -0.200 F 
ATOM     83  F   UNL A   1      36.060  32.060  33.805  1.00  0.00    -0.200 F 
ENDBRANCH  49  73
BRANCH  61  84
ATOM     84  C   UNL A   1      45.551  33.302  29.998  1.00  0.00     0.064 A 
ATOM     85  C   UNL A   1      45.423  34.458  29.214  1.00  0.00     0.173 A 
ATOM     86  C   UNL A   1      46.313  33.386  31.172  1.00  0.00     0.173 A 
ATOM     87  F   UNL A   1      44.717  34.426  28.074  1.00  0.00    -0.203 F 
ATOM     88  C   UNL A   1      46.050  35.646  29.583  1.00  0.00     0.198 A 
ATOM     89  C   UNL A   1      46.917  34.581  31.552  1.00  0.00     0.198 A 
ATOM     90  F   UNL A   1      46.461  32.310  31.960  1.00  0.00    -0.203 F 
ATOM     91  F   UNL A   1      45.948  36.727  28.798  1.00  0.00    -0.200 F 
ATOM     92  C   UNL A   1      46.790  35.708  30.754  1.00  0.00     0.200 A 
ATOM     93  F   UNL A   1      47.621  34.643  32.690  1.00  0.00    -0.200 F 
ATOM     94  F   UNL A   1      47.386  36.853  31.112  1.00  0.00    -0.200 F 
ENDBRANCH  61  84
ENDBRANCH  35  36
ENDBRANCH  28  30
ENDBRANCH  27  28
ENDBRANCH  26  27
ENDBRANCH  25  26
ENDBRANCH   1  25
TORSDOF 16
ENDMDL
MODEL 2
REMARK VINA RESULT:     -11.6      2.111      3.270
REMARK SMILES C[C@@H](C(=O)OCCOCCOC(=O)c1ccc(-c2c3nc(c(-c4c(F)c(F)c(F)c(F)c4F)c4ccc([nH]4)c(-c4c(F)c(F)c(F)c(F)c4F)c4nc(c(-c5c(F)c(F)c(F)c(F)c5F)c5ccc2[nH]5)C=C4)C=C3)cc1)c1ccc(-c2ccc3[nH]ccc3c2)cc1
REMARK SMILES IDX 8 1 7 2 6 3 5 4 3 5 4 6 2 7 1 8 77 9 78 10 91 11 79 12 90 13
REMARK SMILES IDX 80 14 81 15 82 16 89 17 83 18 88 19 84 20 87 21 85 22 86 23
REMARK SMILES IDX 9 25 10 26 11 27 12 28 13 29 14 30 15 31 76 32 16 33 75 34
REMARK SMILES IDX 17 35 18 36 19 37 69 38 20 39 74 40 68 41 70 42 21 43 73 44
REMARK SMILES IDX 67 45 66 46 22 48 54 49 34 50 53 51 35 52 38 53 52 54 71 55
REMARK SMILES IDX 36 56 37 57 51 59 72 60 39 61 23 62 24 63 32 64 25 65 26 66
REMARK SMILES IDX 30 67 33 68 27 69 28 70 31 71 29 72 55 73 56 74 64 75 57 76
REMARK SMILES IDX 58 77 62 78 65 79 59 80 60 81 63 82 61 83 40 84 41 85 49 86
REMARK SMILES IDX 42 87 43 88 47 89 50 90 44 91 45 92 48 93 46 94
REMARK H PARENT 85 24 70 47 38 58
REMARK Flexibility Score: inf
ROOT
ATOM      1  O   UNL A   1      35.964  19.148  24.655  1.00  0.00    -0.374 OA
ENDROOT
BRANCH   1   2
ATOM      2  C   UNL A   1      34.575  19.345  24.920  1.00  0.00     0.202 C 
BRANCH   2   3
ATOM      3  C   UNL A   1      34.024  20.739  24.611  1.00  0.00     0.261 C 
BRANCH   3   4
ATOM      4  O   UNL A   1      33.413  21.311  25.781  1.00  0.00    -0.463 OA
BRANCH   4   5
ATOM      5  C   UNL A   1      34.033  22.416  26.282  1.00  0.00     0.313 C 
ATOM      6  O   UNL A   1      34.172  22.638  27.480  1.00  0.00    -0.252 OA
BRANCH   5   7
ATOM      7  C   UNL A   1      34.582  23.339  25.185  1.00  0.00     0.126 C 
ATOM      8  C   UNL A   1      35.977  23.900  25.484  1.00  0.00     0.025 C 
BRANCH   7   9
ATOM      9  C   UNL A   1      33.541  24.385  24.787  1.00  0.00    -0.034 A 
ATOM     10  C   UNL A   1      32.591  24.040  23.812  1.00  0.00     0.005 A 
ATOM     11  C   UNL A   1      33.446  25.658  25.371  1.00  0.00     0.005 A 
ATOM     12  C   UNL A   1      31.569  24.920  23.453  1.00  0.00     0.009 A 
ATOM     13  C   UNL A   1      32.419  26.544  25.005  1.00  0.00     0.009 A 
ATOM     14  C   UNL A   1      31.462  26.181  24.051  1.00  0.00    -0.018 A 
BRANCH  14  15
ATOM     15  C   UNL A   1      30.353  27.068  23.684  1.00  0.00    -0.018 A 
ATOM     16  C   UNL A   1      29.031  26.705  23.986  1.00  0.00     0.011 A 
ATOM     17  C   UNL A   1      30.590  28.256  22.970  1.00  0.00     0.019 A 
ATOM     18  C   UNL A   1      27.939  27.483  23.582  1.00  0.00     0.027 A 
ATOM     19  C   UNL A   1      29.506  29.048  22.537  1.00  0.00    -0.000 A 
ATOM     20  C   UNL A   1      28.210  28.642  22.849  1.00  0.00     0.045 A 
ATOM     21  C   UNL A   1      29.397  30.249  21.783  1.00  0.00     0.028 A 
ATOM     22  N   UNL A   1      27.351  29.568  22.302  1.00  0.00    -0.361 N 
ATOM     23  C   UNL A   1      28.059  30.541  21.647  1.00  0.00     0.083 A 
ATOM     24  H   UNL A   1      26.369  29.535  22.371  1.00  0.00     0.166 HD
ENDBRANCH  14  15
ENDBRANCH   7   9
ENDBRANCH   5   7
ENDBRANCH   4   5
ENDBRANCH   3   4
ENDBRANCH   2   3
ENDBRANCH   1   2
BRANCH   1  25
ATOM     25  C   UNL A   1      36.852  20.223  24.964  1.00  0.00     0.202 C 
BRANCH  25  26
ATOM     26  C   UNL A   1      38.293  19.829  25.314  1.00  0.00     0.261 C 
BRANCH  26  27
ATOM     27  O   UNL A   1      39.150  20.973  25.495  1.00  0.00    -0.460 OA
BRANCH  27  28
ATOM     28  C   UNL A   1      40.034  20.862  26.514  1.00  0.00     0.338 C 
ATOM     29  O   UNL A   1      40.631  19.855  26.874  1.00  0.00    -0.246 OA
BRANCH  28  30
ATOM     30  C   UNL A   1      40.341  22.187  27.081  1.00  0.00     0.060 A 
ATOM     31  C   UNL A   1      39.694  23.295  26.518  1.00  0.00     0.016 A 
ATOM     32  C   UNL A   1      41.314  22.360  28.067  1.00  0.00     0.016 A 
ATOM     33  C   UNL A   1      40.054  24.584  26.901  1.00  0.00     0.010 A 
ATOM     34  C   UNL A   1      41.682  23.658  28.444  1.00  0.00     0.010 A 
ATOM     35  C   UNL A   1      41.080  24.775  27.837  1.00  0.00    -0.014 A 
BRANCH  35  36
ATOM     36  C   UNL A   1      41.615  26.141  28.058  1.00  0.00     0.031 A 
ATOM     37  C   UNL A   1      42.983  26.484  27.535  1.00  0.00     0.074 A 
ATOM     38  C   UNL A   1      40.877  27.079  28.677  1.00  0.00     0.049 A 
ATOM     39  N   UNL A   1      43.648  27.609  27.618  1.00  0.00    -0.248 NA
ATOM     40  C   UNL A   1      43.697  25.414  26.820  1.00  0.00     0.031 C 
ATOM     41  C   UNL A   1      39.524  26.883  29.192  1.00  0.00     0.029 A 
ATOM     42  N   UNL A   1      41.168  28.387  28.977  1.00  0.00    -0.354 N 
ATOM     43  C   UNL A   1      44.854  27.383  26.968  1.00  0.00     0.074 A 
ATOM     44  C   UNL A   1      44.844  26.006  26.523  1.00  0.00     0.031 C 
ATOM     45  C   UNL A   1      39.103  28.029  29.755  1.00  0.00     0.029 A 
ATOM     46  C   UNL A   1      40.166  29.029  29.662  1.00  0.00     0.049 A 
ATOM     47  H   UNL A   1      42.014  28.823  28.726  1.00  0.00     0.167 HD
ATOM     48  C   UNL A   1      45.875  28.247  26.754  1.00  0.00     0.037 A 
ATOM     49  C   UNL A   1      40.121  30.276  30.169  1.00  0.00     0.037 A 
ATOM     50  C   UNL A   1      45.886  29.617  27.195  1.00  0.00     0.049 A 
ATOM     51  C   UNL A   1      41.297  31.199  29.976  1.00  0.00     0.074 A 
ATOM     52  C   UNL A   1      46.867  30.576  27.011  1.00  0.00     0.029 A 
ATOM     53  N   UNL A   1      44.868  30.221  27.917  1.00  0.00    -0.354 N 
ATOM     54  N   UNL A   1      42.423  30.984  29.339  1.00  0.00    -0.248 NA
ATOM     55  C   UNL A   1      41.193  32.540  30.571  1.00  0.00     0.031 C 
ATOM     56  C   UNL A   1      46.461  31.747  27.660  1.00  0.00     0.029 A 
ATOM     57  C   UNL A   1      45.207  31.533  28.208  1.00  0.00     0.049 A 
ATOM     58  H   UNL A   1      44.027  29.783  28.183  1.00  0.00     0.167 HD
ATOM     59  C   UNL A   1      43.148  32.166  29.434  1.00  0.00     0.074 A 
ATOM     60  C   UNL A   1      42.329  33.099  30.179  1.00  0.00     0.031 C 
ATOM     61  C   UNL A   1      44.380  32.452  28.946  1.00  0.00     0.037 A 
BRANCH  48  62
ATOM     62  C   UNL A   1      47.078  27.729  26.024  1.00  0.00     0.064 A 
ATOM     63  C   UNL A   1      47.155  27.752  24.623  1.00  0.00     0.173 A 
ATOM     64  C   UNL A   1      48.181  27.236  26.736  1.00  0.00     0.173 A 
ATOM     65  F   UNL A   1      46.120  28.201  23.898  1.00  0.00    -0.203 F 
ATOM     66  C   UNL A   1      48.284  27.278  23.962  1.00  0.00     0.198 A 
ATOM     67  C   UNL A   1      49.320  26.787  26.071  1.00  0.00     0.198 A 
ATOM     68  F   UNL A   1      48.160  27.197  28.076  1.00  0.00    -0.203 F 
ATOM     69  F   UNL A   1      48.320  27.272  22.622  1.00  0.00    -0.200 F 
ATOM     70  C   UNL A   1      49.368  26.803  24.685  1.00  0.00     0.200 A 
ATOM     71  F   UNL A   1      50.369  26.337  26.772  1.00  0.00    -0.200 F 
ATOM     72  F   UNL A   1      50.457  26.353  24.046  1.00  0.00    -0.200 F 
ENDBRANCH  48  62
BRANCH  49  73
ATOM     73  C   UNL A   1      38.922  30.727  30.920  1.00  0.00     0.064 A 
ATOM     74  C   UNL A   1      38.847  30.598  32.313  1.00  0.00     0.173 A 
ATOM     75  C   UNL A   1      37.817  31.281  30.254  1.00  0.00     0.173 A 
ATOM     76  F   UNL A   1      39.867  30.049  32.989  1.00  0.00    -0.203 F 
ATOM     77  C   UNL A   1      37.708  30.991  33.012  1.00  0.00     0.198 A 
ATOM     78  C   UNL A   1      36.689  31.698  30.957  1.00  0.00     0.198 A 
ATOM     79  F   UNL A   1      37.838  31.421  28.921  1.00  0.00    -0.203 F 
ATOM     80  F   UNL A   1      37.646  30.818  34.339  1.00  0.00    -0.200 F 
ATOM     81  C   UNL A   1      36.632  31.547  32.334  1.00  0.00     0.200 A 
ATOM     82  F   UNL A   1      35.656  32.242  30.300  1.00  0.00    -0.200 F 
ATOM     83  F   UNL A   1      35.538  31.928  33.007  1.00  0.00    -0.200 F 
ENDBRANCH  49  73
BRANCH  61  84
ATOM     84  C   UNL A   1      44.908  33.838  29.173  1.00  0.00     0.064 A 
ATOM     85  C   UNL A   1      45.711  34.144  30.281  1.00  0.00     0.173 A 
ATOM     86  C   UNL A   1      44.642  34.860  28.250  1.00  0.00     0.173 A 
ATOM     87  F   UNL A   1      45.981  33.205  31.200  1.00  0.00    -0.203 F 
ATOM     88  C   UNL A   1      46.213  35.431  30.466  1.00  0.00     0.198 A 
ATOM     89  C   UNL A   1      45.167  36.137  28.424  1.00  0.00     0.198 A 
ATOM     90  F   UNL A   1      43.885  34.616  27.170  1.00  0.00    -0.203 F 
ATOM     91  F   UNL A   1      46.944  35.712  31.553  1.00  0.00    -0.200 F 
ATOM     92  C   UNL A   1      45.947  36.423  29.535  1.00  0.00     0.200 A 
ATOM     93  F   UNL A   1      44.919  37.092  27.517  1.00  0.00    -0.200 F 
ATOM     94  F   UNL A   1      46.436  37.658  29.711  1.00  0.00    -0.200 F 
ENDBRANCH  61  84
ENDBRANCH  35  36
ENDBRANCH  28  30
ENDBRANCH  27  28
ENDBRANCH  26  27
ENDBRANCH  25  26
ENDBRANCH   1  25
TORSDOF 16
ENDMDL
MODEL 3
REMARK VINA RESULT:     -11.6      4.782     10.309
REMARK SMILES C[C@@H](C(=O)OCCOCCOC(=O)c1ccc(-c2c3nc(c(-c4c(F)c(F)c(F)c(F)c4F)c4ccc([nH]4)c(-c4c(F)c(F)c(F)c(F)c4F)c4nc(c(-c5c(F)c(F)c(F)c(F)c5F)c5ccc2[nH]5)C=C4)C=C3)cc1)c1ccc(-c2ccc3[nH]ccc3c2)cc1
REMARK SMILES IDX 8 1 7 2 6 3 5 4 3 5 4 6 2 7 1 8 77 9 78 10 91 11 79 12 90 13
REMARK SMILES IDX 80 14 81 15 82 16 89 17 83 18 88 19 84 20 87 21 85 22 86 23
REMARK SMILES IDX 9 25 10 26 11 27 12 28 13 29 14 30 15 31 76 32 16 33 75 34
REMARK SMILES IDX 17 35 18 36 19 37 69 38 20 39 74 40 68 41 70 42 21 43 73 44
REMARK SMILES IDX 67 45 66 46 22 48 54 49 34 50 53 51 35 52 38 53 52 54 71 55
REMARK SMILES IDX 36 56 37 57 51 59 72 60 39 61 23 62 24 63 32 64 25 65 26 66
REMARK SMILES IDX 30 67 33 68 27 69 28 70 31 71 29 72 55 73 56 74 64 75 57 76
REMARK SMILES IDX 58 77 62 78 65 79 59 80 60 81 63 82 61 83 40 84 41 85 49 86
REMARK SMILES IDX 42 87 43 88 47 89 50 90 44 91 45 92 48 93 46 94
REMARK H PARENT 85 24 70 47 38 58
REMARK Flexibility Score: inf
ROOT
ATOM      1  O   UNL A   1      32.871  34.774  29.772  1.00  0.00    -0.374 OA
ENDROOT
BRANCH   1   2
ATOM      2  C   UNL A   1      32.651  35.916  30.602  1.00  0.00     0.202 C 
BRANCH   2   3
ATOM      3  C   UNL A   1      33.803  36.299  31.535  1.00  0.00     0.261 C 
BRANCH   3   4
ATOM      4  O   UNL A   1      33.892  35.373  32.632  1.00  0.00    -0.463 OA
BRANCH   4   5
ATOM      5  C   UNL A   1      35.127  34.838  32.845  1.00  0.00     0.313 C 
ATOM      6  O   UNL A   1      35.864  35.166  33.769  1.00  0.00    -0.252 OA
BRANCH   5   7
ATOM      7  C   UNL A   1      35.483  33.742  31.830  1.00  0.00     0.126 C 
ATOM      8  C   UNL A   1      35.146  32.323  32.302  1.00  0.00     0.025 C 
BRANCH   7   9
ATOM      9  C   UNL A   1      36.911  33.926  31.316  1.00  0.00    -0.034 A 
ATOM     10  C   UNL A   1      37.190  33.561  29.988  1.00  0.00     0.005 A 
ATOM     11  C   UNL A   1      37.953  34.481  32.074  1.00  0.00     0.005 A 
ATOM     12  C   UNL A   1      38.453  33.768  29.431  1.00  0.00     0.009 A 
ATOM     13  C   UNL A   1      39.224  34.684  31.513  1.00  0.00     0.009 A 
ATOM     14  C   UNL A   1      39.486  34.341  30.181  1.00  0.00    -0.018 A 
BRANCH  14  15
ATOM     15  C   UNL A   1      40.790  34.585  29.557  1.00  0.00    -0.018 A 
ATOM     16  C   UNL A   1      41.931  33.916  30.026  1.00  0.00     0.011 A 
ATOM     17  C   UNL A   1      40.928  35.537  28.530  1.00  0.00     0.019 A 
ATOM     18  C   UNL A   1      43.208  34.180  29.513  1.00  0.00     0.027 A 
ATOM     19  C   UNL A   1      42.205  35.833  28.010  1.00  0.00    -0.000 A 
ATOM     20  C   UNL A   1      43.312  35.152  28.514  1.00  0.00     0.045 A 
ATOM     21  C   UNL A   1      42.686  36.742  27.027  1.00  0.00     0.028 A 
ATOM     22  N   UNL A   1      44.421  35.635  27.857  1.00  0.00    -0.361 N 
ATOM     23  C   UNL A   1      44.054  36.604  26.960  1.00  0.00     0.083 A 
ATOM     24  H   UNL A   1      45.344  35.329  28.010  1.00  0.00     0.166 HD
ENDBRANCH  14  15
ENDBRANCH   7   9
ENDBRANCH   5   7
ENDBRANCH   4   5
ENDBRANCH   3   4
ENDBRANCH   2   3
ENDBRANCH   1   2
BRANCH   1  25
ATOM     25  C   UNL A   1      33.883  34.873  28.769  1.00  0.00     0.202 C 
BRANCH  25  26
ATOM     26  C   UNL A   1      34.156  33.600  27.958  1.00  0.00     0.261 C 
BRANCH  26  27
ATOM     27  O   UNL A   1      34.280  32.431  28.790  1.00  0.00    -0.460 OA
BRANCH  27  28
ATOM     28  C   UNL A   1      34.324  31.258  28.115  1.00  0.00     0.338 C 
ATOM     29  O   UNL A   1      33.537  30.858  27.267  1.00  0.00    -0.246 OA
BRANCH  28  30
ATOM     30  C   UNL A   1      35.576  30.538  28.408  1.00  0.00     0.060 A 
ATOM     31  C   UNL A   1      35.639  29.818  29.609  1.00  0.00     0.016 A 
ATOM     32  C   UNL A   1      36.700  30.647  27.586  1.00  0.00     0.016 A 
ATOM     33  C   UNL A   1      36.841  29.245  30.018  1.00  0.00     0.010 A 
ATOM     34  C   UNL A   1      37.910  30.079  28.005  1.00  0.00     0.010 A 
ATOM     35  C   UNL A   1      37.994  29.408  29.238  1.00  0.00    -0.014 A 
BRANCH  35  36
ATOM     36  C   UNL A   1      39.309  29.004  29.795  1.00  0.00     0.031 A 
ATOM     37  C   UNL A   1      39.866  29.755  30.973  1.00  0.00     0.074 A 
ATOM     38  C   UNL A   1      39.979  27.953  29.290  1.00  0.00     0.049 A 
ATOM     39  N   UNL A   1      40.993  29.579  31.616  1.00  0.00    -0.248 NA
ATOM     40  C   UNL A   1      39.040  30.854  31.498  1.00  0.00     0.031 C 
ATOM     41  C   UNL A   1      39.525  27.120  28.179  1.00  0.00     0.029 A 
ATOM     42  N   UNL A   1      41.188  27.411  29.650  1.00  0.00    -0.354 N 
ATOM     43  C   UNL A   1      41.011  30.541  32.618  1.00  0.00     0.074 A 
ATOM     44  C   UNL A   1      39.798  31.318  32.481  1.00  0.00     0.031 C 
ATOM     45  C   UNL A   1      40.451  26.175  27.939  1.00  0.00     0.029 A 
ATOM     46  C   UNL A   1      41.570  26.352  28.863  1.00  0.00     0.049 A 
ATOM     47  H   UNL A   1      41.728  27.748  30.400  1.00  0.00     0.167 HD
ATOM     48  C   UNL A   1      41.949  30.751  33.571  1.00  0.00     0.037 A 
ATOM     49  C   UNL A   1      42.702  25.624  28.879  1.00  0.00     0.037 A 
ATOM     50  C   UNL A   1      43.155  29.978  33.710  1.00  0.00     0.049 A 
ATOM     51  C   UNL A   1      43.763  25.920  29.908  1.00  0.00     0.074 A 
ATOM     52  C   UNL A   1      44.159  30.104  34.656  1.00  0.00     0.029 A 
ATOM     53  N   UNL A   1      43.525  28.937  32.872  1.00  0.00    -0.354 N 
ATOM     54  N   UNL A   1      43.760  26.815  30.866  1.00  0.00    -0.248 NA
ATOM     55  C   UNL A   1      44.983  25.101  29.858  1.00  0.00     0.031 C 
ATOM     56  C   UNL A   1      45.156  29.168  34.363  1.00  0.00     0.029 A 
ATOM     57  C   UNL A   1      44.753  28.428  33.263  1.00  0.00     0.049 A 
ATOM     58  H   UNL A   1      42.993  28.608  32.112  1.00  0.00     0.167 HD
ATOM     59  C   UNL A   1      44.960  26.651  31.546  1.00  0.00     0.074 A 
ATOM     60  C   UNL A   1      45.661  25.562  30.899  1.00  0.00     0.031 C 
ATOM     61  C   UNL A   1      45.436  27.340  32.613  1.00  0.00     0.037 A 
BRANCH  48  62
ATOM     62  C   UNL A   1      41.717  31.879  34.532  1.00  0.00     0.064 A 
ATOM     63  C   UNL A   1      42.158  33.183  34.256  1.00  0.00     0.173 A 
ATOM     64  C   UNL A   1      41.017  31.660  35.727  1.00  0.00     0.173 A 
ATOM     65  F   UNL A   1      42.844  33.439  33.133  1.00  0.00    -0.203 F 
ATOM     66  C   UNL A   1      41.923  34.220  35.153  1.00  0.00     0.198 A 
ATOM     67  C   UNL A   1      40.762  32.707  36.610  1.00  0.00     0.198 A 
ATOM     68  F   UNL A   1      40.571  30.434  36.035  1.00  0.00    -0.203 F 
ATOM     69  F   UNL A   1      42.388  35.449  34.889  1.00  0.00    -0.200 F 
ATOM     70  C   UNL A   1      41.221  33.984  36.325  1.00  0.00     0.200 A 
ATOM     71  F   UNL A   1      40.075  32.478  37.737  1.00  0.00    -0.200 F 
ATOM     72  F   UNL A   1      40.991  34.987  37.185  1.00  0.00    -0.200 F 
ENDBRANCH  48  62
BRANCH  49  73
ATOM     73  C   UNL A   1      42.901  24.544  27.878  1.00  0.00     0.064 A 
ATOM     74  C   UNL A   1      43.384  24.824  26.594  1.00  0.00     0.173 A 
ATOM     75  C   UNL A   1      42.593  23.209  28.184  1.00  0.00     0.173 A 
ATOM     76  F   UNL A   1      43.666  26.090  26.247  1.00  0.00    -0.203 F 
ATOM     77  C   UNL A   1      43.539  23.814  25.647  1.00  0.00     0.198 A 
ATOM     78  C   UNL A   1      42.773  22.196  27.244  1.00  0.00     0.198 A 
ATOM     79  F   UNL A   1      42.123  22.890  29.398  1.00  0.00    -0.203 F 
ATOM     80  F   UNL A   1      43.963  24.116  24.412  1.00  0.00    -0.200 F 
ATOM     81  C   UNL A   1      43.239  22.500  25.975  1.00  0.00     0.200 A 
ATOM     82  F   UNL A   1      42.490  20.928  27.568  1.00  0.00    -0.200 F 
ATOM     83  F   UNL A   1      43.391  21.529  25.064  1.00  0.00    -0.200 F 
ENDBRANCH  49  73
BRANCH  61  84
ATOM     84  C   UNL A   1      46.765  26.919  33.169  1.00  0.00     0.064 A 
ATOM     85  C   UNL A   1      46.869  25.906  34.133  1.00  0.00     0.173 A 
ATOM     86  C   UNL A   1      47.950  27.506  32.701  1.00  0.00     0.173 A 
ATOM     87  F   UNL A   1      45.765  25.323  34.623  1.00  0.00    -0.203 F 
ATOM     88  C   UNL A   1      48.112  25.510  34.622  1.00  0.00     0.198 A 
ATOM     89  C   UNL A   1      49.192  27.090  33.172  1.00  0.00     0.198 A 
ATOM     90  F   UNL A   1      47.904  28.475  31.774  1.00  0.00    -0.203 F 
ATOM     91  F   UNL A   1      48.187  24.568  35.573  1.00  0.00    -0.200 F 
ATOM     92  C   UNL A   1      49.271  26.097  34.137  1.00  0.00     0.200 A 
ATOM     93  F   UNL A   1      50.311  27.649  32.694  1.00  0.00    -0.200 F 
ATOM     94  F   UNL A   1      50.466  25.710  34.604  1.00  0.00    -0.200 F 
ENDBRANCH  61  84
ENDBRANCH  35  36
ENDBRANCH  28  30
ENDBRANCH  27  28
ENDBRANCH  26  27
ENDBRANCH  25  26
ENDBRANCH   1  25
TORSDOF 16
ENDMDL
