MODEL 1
REMARK VINA RESULT:     -10.8      0.000      0.000
REMARK SMILES Cc1cc(S[C@@H](C)c2ccc(C(=O)OCCOCCOC(=O)c3ccc(-c4c5nc(c(-c6c(F)c(F)c(F)c(F)c6F)c6ccc([nH]6)c(-c6c(F)c(F)c(F)c(F)c6F)c6nc(c(-c7c(F)c(F)c(F)c(F)c7F)c7ccc4[nH]7)C=C6)C=C5)cc3)o2)n(C)n1
REMARK SMILES IDX 16 1 15 2 14 3 12 4 13 5 11 6 8 7 9 8 86 9 10 10 6 11 7 12
REMARK SMILES IDX 5 13 4 14 1 15 2 16 3 17 89 18 87 19 88 20 17 21 18 22 19 23
REMARK SMILES IDX 20 24 21 25 22 26 23 27 24 28 85 29 25 30 84 31 26 32 27 33
REMARK SMILES IDX 28 34 78 35 29 36 83 37 77 38 79 39 30 40 82 41 76 42 75 43
REMARK SMILES IDX 31 45 63 46 43 47 62 48 44 49 47 50 61 51 80 52 45 53 46 54
REMARK SMILES IDX 60 56 81 57 48 58 32 59 33 60 41 61 34 62 35 63 39 64 42 65
REMARK SMILES IDX 36 66 37 67 40 68 38 69 64 70 65 71 73 72 66 73 67 74 71 75
REMARK SMILES IDX 74 76 68 77 69 78 72 79 70 80 49 81 50 82 58 83 51 84 52 85
REMARK SMILES IDX 56 86 59 87 53 88 54 89 57 90 55 91
REMARK H PARENT 79 44 47 55
REMARK Flexibility Score: inf
ROOT
ATOM      1  C   UNL A   1      32.058  29.585  27.104  1.00  0.00     0.202 C 
ENDROOT
BRANCH   1   2
ATOM      2  C   UNL A   1      31.733  28.483  26.092  1.00  0.00     0.261 C 
BRANCH   2   3
ATOM      3  O   UNL A   1      31.989  28.964  24.762  1.00  0.00    -0.457 OA
BRANCH   3   4
ATOM      4  C   UNL A   1      31.126  28.528  23.798  1.00  0.00     0.374 C 
ATOM      5  O   UNL A   1      30.078  29.086  23.497  1.00  0.00    -0.242 OA
BRANCH   4   6
ATOM      6  C   UNL A   1      31.700  27.385  23.129  1.00  0.00     0.211 A 
ATOM      7  C   UNL A   1      33.035  25.621  23.039  1.00  0.00     0.118 A 
ATOM      8  C   UNL A   1      32.262  25.592  21.894  1.00  0.00     0.048 A 
ATOM      9  O   UNL A   1      32.719  26.732  23.762  1.00  0.00    -0.453 OA
ATOM     10  C   UNL A   1      31.397  26.715  21.959  1.00  0.00     0.058 A 
BRANCH   7  11
ATOM     11  C   UNL A   1      34.120  24.726  23.562  1.00  0.00     0.116 C 
ATOM     12  C   UNL A   1      34.000  23.286  23.059  1.00  0.00     0.028 C 
BRANCH  11  13
ATOM     13  S   UNL A   1      34.391  24.782  25.366  1.00  0.00    -0.096 SA
BRANCH  13  14
ATOM     14  C   UNL A   1      33.025  24.026  26.134  1.00  0.00     0.095 A 
ATOM     15  C   UNL A   1      29.653  22.956  27.128  1.00  0.00     0.069 C 
ATOM     16  C   UNL A   1      31.089  23.231  26.879  1.00  0.00     0.061 A 
ATOM     17  C   UNL A   1      31.665  24.221  26.053  1.00  0.00     0.060 A 
ATOM     18  N   UNL A   1      32.022  22.482  27.471  1.00  0.00    -0.178 NA
ATOM     19  N   UNL A   1      33.191  23.011  27.046  1.00  0.00    -0.262 N 
ATOM     20  C   UNL A   1      34.403  22.457  27.604  1.00  0.00     0.175 C 
ENDBRANCH  13  14
ENDBRANCH  11  13
ENDBRANCH   7  11
ENDBRANCH   4   6
ENDBRANCH   3   4
ENDBRANCH   2   3
ENDBRANCH   1   2
BRANCH   1  21
ATOM     21  O   UNL A   1      32.418  30.832  26.509  1.00  0.00    -0.374 OA
BRANCH  21  22
ATOM     22  C   UNL A   1      31.459  31.886  26.611  1.00  0.00     0.202 C 
BRANCH  22  23
ATOM     23  C   UNL A   1      32.065  33.262  26.903  1.00  0.00     0.261 C 
BRANCH  23  24
ATOM     24  O   UNL A   1      32.967  33.190  28.024  1.00  0.00    -0.460 OA
BRANCH  24  25
ATOM     25  C   UNL A   1      34.127  33.872  27.876  1.00  0.00     0.338 C 
ATOM     26  O   UNL A   1      34.266  35.045  27.576  1.00  0.00    -0.246 OA
BRANCH  25  27
ATOM     27  C   UNL A   1      35.253  33.017  28.301  1.00  0.00     0.060 A 
ATOM     28  C   UNL A   1      34.966  31.696  28.668  1.00  0.00     0.016 A 
ATOM     29  C   UNL A   1      36.559  33.508  28.384  1.00  0.00     0.016 A 
ATOM     30  C   UNL A   1      35.975  30.871  29.162  1.00  0.00     0.010 A 
ATOM     31  C   UNL A   1      37.567  32.684  28.890  1.00  0.00     0.010 A 
ATOM     32  C   UNL A   1      37.273  31.375  29.312  1.00  0.00    -0.014 A 
BRANCH  32  33
ATOM     33  C   UNL A   1      38.293  30.608  30.064  1.00  0.00     0.031 A 
ATOM     34  C   UNL A   1      38.523  30.949  31.508  1.00  0.00     0.074 A 
ATOM     35  C   UNL A   1      39.014  29.643  29.471  1.00  0.00     0.049 A 
ATOM     36  N   UNL A   1      39.454  30.527  32.325  1.00  0.00    -0.248 NA
ATOM     37  C   UNL A   1      37.578  31.904  32.110  1.00  0.00     0.031 C 
ATOM     38  C   UNL A   1      38.843  29.183  28.094  1.00  0.00     0.029 A 
ATOM     39  N   UNL A   1      40.056  28.890  29.952  1.00  0.00    -0.354 N 
ATOM     40  C   UNL A   1      39.217  31.176  33.529  1.00  0.00     0.074 A 
ATOM     41  C   UNL A   1      38.066  32.030  33.335  1.00  0.00     0.031 C 
ATOM     42  C   UNL A   1      39.766  28.242  27.833  1.00  0.00     0.029 A 
ATOM     43  C   UNL A   1      40.617  28.065  29.009  1.00  0.00     0.049 A 
ATOM     44  H   UNL A   1      40.371  28.936  30.884  1.00  0.00     0.167 HD
ATOM     45  C   UNL A   1      39.903  31.069  34.691  1.00  0.00     0.037 A 
ATOM     46  C   UNL A   1      41.714  27.286  29.081  1.00  0.00     0.037 A 
ATOM     47  C   UNL A   1      41.045  30.217  34.881  1.00  0.00     0.049 A 
ATOM     48  C   UNL A   1      42.504  27.237  30.364  1.00  0.00     0.074 A 
ATOM     49  C   UNL A   1      41.809  30.037  36.019  1.00  0.00     0.029 A 
ATOM     50  N   UNL A   1      41.587  29.401  33.899  1.00  0.00    -0.354 N 
ATOM     51  N   UNL A   1      42.281  27.856  31.498  1.00  0.00    -0.248 NA
ATOM     52  C   UNL A   1      43.702  26.384  30.375  1.00  0.00     0.031 C 
ATOM     53  C   UNL A   1      42.839  29.141  35.716  1.00  0.00     0.029 A 
ATOM     54  C   UNL A   1      42.688  28.728  34.401  1.00  0.00     0.049 A 
ATOM     55  H   UNL A   1      41.242  29.315  32.981  1.00  0.00     0.167 HD
ATOM     56  C   UNL A   1      43.284  27.442  32.365  1.00  0.00     0.074 A 
ATOM     57  C   UNL A   1      44.121  26.522  31.626  1.00  0.00     0.031 C 
ATOM     58  C   UNL A   1      43.490  27.792  33.657  1.00  0.00     0.037 A 
BRANCH  45  59
ATOM     59  C   UNL A   1      39.452  31.921  35.840  1.00  0.00     0.064 A 
ATOM     60  C   UNL A   1      40.001  33.190  36.075  1.00  0.00     0.173 A 
ATOM     61  C   UNL A   1      38.441  31.470  36.701  1.00  0.00     0.173 A 
ATOM     62  F   UNL A   1      40.983  33.657  35.290  1.00  0.00    -0.203 F 
ATOM     63  C   UNL A   1      39.567  33.969  37.145  1.00  0.00     0.198 A 
ATOM     64  C   UNL A   1      37.992  32.261  37.754  1.00  0.00     0.198 A 
ATOM     65  F   UNL A   1      37.884  30.264  36.517  1.00  0.00    -0.203 F 
ATOM     66  F   UNL A   1      40.135  35.160  37.378  1.00  0.00    -0.200 F 
ATOM     67  C   UNL A   1      38.560  33.507  37.980  1.00  0.00     0.200 A 
ATOM     68  F   UNL A   1      37.013  31.818  38.555  1.00  0.00    -0.200 F 
ATOM     69  F   UNL A   1      38.141  34.259  39.007  1.00  0.00    -0.200 F 
ENDBRANCH  45  59
BRANCH  46  70
ATOM     70  C   UNL A   1      42.147  26.504  27.894  1.00  0.00     0.064 A 
ATOM     71  C   UNL A   1      41.643  25.219  27.655  1.00  0.00     0.173 A 
ATOM     72  C   UNL A   1      43.081  27.020  26.985  1.00  0.00     0.173 A 
ATOM     73  F   UNL A   1      40.767  24.673  28.511  1.00  0.00    -0.203 F 
ATOM     74  C   UNL A   1      42.067  24.474  26.556  1.00  0.00     0.198 A 
ATOM     75  C   UNL A   1      43.486  26.284  25.874  1.00  0.00     0.198 A 
ATOM     76  F   UNL A   1      43.596  28.244  27.172  1.00  0.00    -0.203 F 
ATOM     77  F   UNL A   1      41.600  23.231  26.372  1.00  0.00    -0.200 F 
ATOM     78  C   UNL A   1      42.984  25.009  25.663  1.00  0.00     0.200 A 
ATOM     79  F   UNL A   1      44.366  26.809  25.009  1.00  0.00    -0.200 F 
ATOM     80  F   UNL A   1      43.390  24.292  24.606  1.00  0.00    -0.200 F 
ENDBRANCH  46  70
BRANCH  58  81
ATOM     81  C   UNL A   1      44.626  27.135  34.383  1.00  0.00     0.064 A 
ATOM     82  C   UNL A   1      44.475  25.896  35.020  1.00  0.00     0.173 A 
ATOM     83  C   UNL A   1      45.901  27.720  34.372  1.00  0.00     0.173 A 
ATOM     84  F   UNL A   1      43.272  25.303  35.068  1.00  0.00    -0.203 F 
ATOM     85  C   UNL A   1      45.560  25.270  35.628  1.00  0.00     0.198 A 
ATOM     86  C   UNL A   1      46.988  27.082  34.960  1.00  0.00     0.198 A 
ATOM     87  F   UNL A   1      46.096  28.903  33.769  1.00  0.00    -0.203 F 
ATOM     88  F   UNL A   1      45.391  24.098  36.255  1.00  0.00    -0.200 F 
ATOM     89  C   UNL A   1      46.816  25.858  35.591  1.00  0.00     0.200 A 
ATOM     90  F   UNL A   1      48.202  27.646  34.912  1.00  0.00    -0.200 F 
ATOM     91  F   UNL A   1      47.861  25.247  36.163  1.00  0.00    -0.200 F 
ENDBRANCH  58  81
ENDBRANCH  32  33
ENDBRANCH  25  27
ENDBRANCH  24  25
ENDBRANCH  23  24
ENDBRANCH  22  23
ENDBRANCH  21  22
ENDBRANCH   1  21
TORSDOF 17
ENDMDL
MODEL 2
REMARK VINA RESULT:     -10.7      1.399      2.266
REMARK SMILES Cc1cc(S[C@@H](C)c2ccc(C(=O)OCCOCCOC(=O)c3ccc(-c4c5nc(c(-c6c(F)c(F)c(F)c(F)c6F)c6ccc([nH]6)c(-c6c(F)c(F)c(F)c(F)c6F)c6nc(c(-c7c(F)c(F)c(F)c(F)c7F)c7ccc4[nH]7)C=C6)C=C5)cc3)o2)n(C)n1
REMARK SMILES IDX 16 1 15 2 14 3 12 4 13 5 11 6 8 7 9 8 86 9 10 10 6 11 7 12
REMARK SMILES IDX 5 13 4 14 1 15 2 16 3 17 89 18 87 19 88 20 17 21 18 22 19 23
REMARK SMILES IDX 20 24 21 25 22 26 23 27 24 28 85 29 25 30 84 31 26 32 27 33
REMARK SMILES IDX 28 34 78 35 29 36 83 37 77 38 79 39 30 40 82 41 76 42 75 43
REMARK SMILES IDX 31 45 63 46 43 47 62 48 44 49 47 50 61 51 80 52 45 53 46 54
REMARK SMILES IDX 60 56 81 57 48 58 32 59 33 60 41 61 34 62 35 63 39 64 42 65
REMARK SMILES IDX 36 66 37 67 40 68 38 69 64 70 65 71 73 72 66 73 67 74 71 75
REMARK SMILES IDX 74 76 68 77 69 78 72 79 70 80 49 81 50 82 58 83 51 84 52 85
REMARK SMILES IDX 56 86 59 87 53 88 54 89 57 90 55 91
REMARK H PARENT 79 44 47 55
REMARK Flexibility Score: inf
ROOT
ATOM      1  C   UNL A   1      32.116  29.469  26.635  1.00  0.00     0.202 C 
ENDROOT
BRANCH   1   2
ATOM      2  C   UNL A   1      31.939  28.690  25.328  1.00  0.00     0.261 C 
BRANCH   2   3
ATOM      3  O   UNL A   1      33.190  28.088  24.957  1.00  0.00    -0.457 OA
BRANCH   3   4
ATOM      4  C   UNL A   1      33.483  28.104  23.623  1.00  0.00     0.374 C 
ATOM      5  O   UNL A   1      33.971  29.057  23.030  1.00  0.00    -0.242 OA
BRANCH   4   6
ATOM      6  C   UNL A   1      33.230  26.797  23.066  1.00  0.00     0.211 A 
ATOM      7  C   UNL A   1      32.623  24.673  23.222  1.00  0.00     0.118 A 
ATOM      8  C   UNL A   1      32.753  24.951  21.874  1.00  0.00     0.048 A 
ATOM      9  O   UNL A   1      32.955  25.784  23.939  1.00  0.00    -0.453 OA
ATOM     10  C   UNL A   1      33.127  26.316  21.774  1.00  0.00     0.058 A 
BRANCH   7  11
ATOM     11  C   UNL A   1      32.253  23.431  23.978  1.00  0.00     0.116 C 
ATOM     12  C   UNL A   1      30.924  23.561  24.723  1.00  0.00     0.028 C 
BRANCH  11  13
ATOM     13  S   UNL A   1      33.556  22.741  25.053  1.00  0.00    -0.096 SA
BRANCH  13  14
ATOM     14  C   UNL A   1      33.594  21.019  24.805  1.00  0.00     0.095 A 
ATOM     15  C   UNL A   1      32.767  17.522  24.035  1.00  0.00     0.069 C 
ATOM     16  C   UNL A   1      33.317  18.856  24.376  1.00  0.00     0.061 A 
ATOM     17  C   UNL A   1      32.626  20.078  24.537  1.00  0.00     0.060 A 
ATOM     18  N   UNL A   1      34.630  19.006  24.565  1.00  0.00    -0.178 NA
ATOM     19  N   UNL A   1      34.774  20.315  24.873  1.00  0.00    -0.262 N 
ATOM     20  C   UNL A   1      36.100  20.764  25.228  1.00  0.00     0.175 C 
ENDBRANCH  13  14
ENDBRANCH  11  13
ENDBRANCH   7  11
ENDBRANCH   4   6
ENDBRANCH   3   4
ENDBRANCH   2   3
ENDBRANCH   1   2
BRANCH   1  21
ATOM     21  O   UNL A   1      32.516  30.827  26.452  1.00  0.00    -0.374 OA
BRANCH  21  22
ATOM     22  C   UNL A   1      31.548  31.825  26.780  1.00  0.00     0.202 C 
BRANCH  22  23
ATOM     23  C   UNL A   1      32.106  33.250  26.831  1.00  0.00     0.261 C 
BRANCH  23  24
ATOM     24  O   UNL A   1      32.703  33.515  28.115  1.00  0.00    -0.460 OA
BRANCH  24  25
ATOM     25  C   UNL A   1      33.861  34.216  28.080  1.00  0.00     0.338 C 
ATOM     26  O   UNL A   1      34.001  35.411  27.892  1.00  0.00    -0.246 OA
BRANCH  25  27
ATOM     27  C   UNL A   1      34.977  33.334  28.478  1.00  0.00     0.060 A 
ATOM     28  C   UNL A   1      34.661  32.037  28.907  1.00  0.00     0.016 A 
ATOM     29  C   UNL A   1      36.301  33.777  28.476  1.00  0.00     0.016 A 
ATOM     30  C   UNL A   1      35.664  31.192  29.379  1.00  0.00     0.010 A 
ATOM     31  C   UNL A   1      37.304  32.934  28.960  1.00  0.00     0.010 A 
ATOM     32  C   UNL A   1      36.986  31.652  29.443  1.00  0.00    -0.014 A 
BRANCH  32  33
ATOM     33  C   UNL A   1      38.015  30.873  30.169  1.00  0.00     0.031 A 
ATOM     34  C   UNL A   1      38.240  31.167  31.625  1.00  0.00     0.074 A 
ATOM     35  C   UNL A   1      38.751  29.939  29.544  1.00  0.00     0.049 A 
ATOM     36  N   UNL A   1      39.175  30.729  32.428  1.00  0.00    -0.248 NA
ATOM     37  C   UNL A   1      37.281  32.086  32.259  1.00  0.00     0.031 C 
ATOM     38  C   UNL A   1      38.587  29.526  28.152  1.00  0.00     0.029 A 
ATOM     39  N   UNL A   1      39.802  29.184  30.000  1.00  0.00    -0.354 N 
ATOM     40  C   UNL A   1      38.928  31.333  33.654  1.00  0.00     0.074 A 
ATOM     41  C   UNL A   1      37.766  32.177  33.488  1.00  0.00     0.031 C 
ATOM     42  C   UNL A   1      39.523  28.607  27.859  1.00  0.00     0.029 A 
ATOM     43  C   UNL A   1      40.375  28.400  29.030  1.00  0.00     0.049 A 
ATOM     44  H   UNL A   1      40.115  29.202  30.934  1.00  0.00     0.167 HD
ATOM     45  C   UNL A   1      39.614  31.194  34.812  1.00  0.00     0.037 A 
ATOM     46  C   UNL A   1      41.483  27.634  29.076  1.00  0.00     0.037 A 
ATOM     47  C   UNL A   1      40.767  30.352  34.974  1.00  0.00     0.049 A 
ATOM     48  C   UNL A   1      42.272  27.552  30.358  1.00  0.00     0.074 A 
ATOM     49  C   UNL A   1      41.533  30.143  36.106  1.00  0.00     0.029 A 
ATOM     50  N   UNL A   1      41.322  29.578  33.965  1.00  0.00    -0.354 N 
ATOM     51  N   UNL A   1      42.040  28.128  31.512  1.00  0.00    -0.248 NA
ATOM     52  C   UNL A   1      43.482  26.716  30.341  1.00  0.00     0.031 C 
ATOM     53  C   UNL A   1      42.575  29.271  35.774  1.00  0.00     0.029 A 
ATOM     54  C   UNL A   1      42.431  28.903  34.445  1.00  0.00     0.049 A 
ATOM     55  H   UNL A   1      40.979  29.520  33.044  1.00  0.00     0.167 HD
ATOM     56  C   UNL A   1      43.047  27.698  32.366  1.00  0.00     0.074 A 
ATOM     57  C   UNL A   1      43.898  26.815  31.597  1.00  0.00     0.031 C 
ATOM     58  C   UNL A   1      43.247  28.005  33.670  1.00  0.00     0.037 A 
BRANCH  45  59
ATOM     59  C   UNL A   1      39.151  32.000  35.989  1.00  0.00     0.064 A 
ATOM     60  C   UNL A   1      39.603  33.308  36.210  1.00  0.00     0.173 A 
ATOM     61  C   UNL A   1      38.224  31.460  36.894  1.00  0.00     0.173 A 
ATOM     62  F   UNL A   1      40.502  33.860  35.382  1.00  0.00    -0.203 F 
ATOM     63  C   UNL A   1      39.158  34.042  37.307  1.00  0.00     0.198 A 
ATOM     64  C   UNL A   1      37.763  32.206  37.975  1.00  0.00     0.198 A 
ATOM     65  F   UNL A   1      37.762  30.213  36.726  1.00  0.00    -0.203 F 
ATOM     66  F   UNL A   1      39.635  35.276  37.523  1.00  0.00    -0.200 F 
ATOM     67  C   UNL A   1      38.235  33.493  38.185  1.00  0.00     0.200 A 
ATOM     68  F   UNL A   1      36.865  31.677  38.818  1.00  0.00    -0.200 F 
ATOM     69  F   UNL A   1      37.806  34.202  39.238  1.00  0.00    -0.200 F 
ENDBRANCH  45  59
BRANCH  46  70
ATOM     70  C   UNL A   1      41.928  26.901  27.864  1.00  0.00     0.064 A 
ATOM     71  C   UNL A   1      42.775  27.505  26.925  1.00  0.00     0.173 A 
ATOM     72  C   UNL A   1      41.505  25.588  27.612  1.00  0.00     0.173 A 
ATOM     73  F   UNL A   1      43.184  28.769  27.110  1.00  0.00    -0.203 F 
ATOM     74  C   UNL A   1      43.172  26.828  25.774  1.00  0.00     0.198 A 
ATOM     75  C   UNL A   1      41.922  24.903  26.473  1.00  0.00     0.198 A 
ATOM     76  F   UNL A   1      40.690  24.966  28.478  1.00  0.00    -0.203 F 
ATOM     77  F   UNL A   1      43.950  27.443  24.873  1.00  0.00    -0.200 F 
ATOM     78  C   UNL A   1      42.750  25.526  25.551  1.00  0.00     0.200 A 
ATOM     79  F   UNL A   1      41.519  23.641  26.267  1.00  0.00    -0.200 F 
ATOM     80  F   UNL A   1      43.134  24.874  24.445  1.00  0.00    -0.200 F 
ENDBRANCH  46  70
BRANCH  58  81
ATOM     81  C   UNL A   1      44.391  27.339  34.374  1.00  0.00     0.064 A 
ATOM     82  C   UNL A   1      45.648  27.950  34.481  1.00  0.00     0.173 A 
ATOM     83  C   UNL A   1      44.200  26.106  35.017  1.00  0.00     0.173 A 
ATOM     84  F   UNL A   1      45.882  29.123  33.873  1.00  0.00    -0.203 F 
ATOM     85  C   UNL A   1      46.676  27.346  35.199  1.00  0.00     0.198 A 
ATOM     86  C   UNL A   1      45.223  25.515  35.753  1.00  0.00     0.198 A 
ATOM     87  F   UNL A   1      43.013  25.486  34.948  1.00  0.00    -0.203 F 
ATOM     88  F   UNL A   1      47.878  27.933  35.268  1.00  0.00    -0.200 F 
ATOM     89  C   UNL A   1      46.461  26.134  35.841  1.00  0.00     0.200 A 
ATOM     90  F   UNL A   1      45.009  24.352  36.382  1.00  0.00    -0.200 F 
ATOM     91  F   UNL A   1      47.447  25.563  36.544  1.00  0.00    -0.200 F 
ENDBRANCH  58  81
ENDBRANCH  32  33
ENDBRANCH  25  27
ENDBRANCH  24  25
ENDBRANCH  23  24
ENDBRANCH  22  23
ENDBRANCH  21  22
ENDBRANCH   1  21
TORSDOF 17
ENDMDL
MODEL 3
REMARK VINA RESULT:     -10.7      1.496      7.783
REMARK SMILES Cc1cc(S[C@@H](C)c2ccc(C(=O)OCCOCCOC(=O)c3ccc(-c4c5nc(c(-c6c(F)c(F)c(F)c(F)c6F)c6ccc([nH]6)c(-c6c(F)c(F)c(F)c(F)c6F)c6nc(c(-c7c(F)c(F)c(F)c(F)c7F)c7ccc4[nH]7)C=C6)C=C5)cc3)o2)n(C)n1
REMARK SMILES IDX 16 1 15 2 14 3 12 4 13 5 11 6 8 7 9 8 86 9 10 10 6 11 7 12
REMARK SMILES IDX 5 13 4 14 1 15 2 16 3 17 89 18 87 19 88 20 17 21 18 22 19 23
REMARK SMILES IDX 20 24 21 25 22 26 23 27 24 28 85 29 25 30 84 31 26 32 27 33
REMARK SMILES IDX 28 34 78 35 29 36 83 37 77 38 79 39 30 40 82 41 76 42 75 43
REMARK SMILES IDX 31 45 63 46 43 47 62 48 44 49 47 50 61 51 80 52 45 53 46 54
REMARK SMILES IDX 60 56 81 57 48 58 32 59 33 60 41 61 34 62 35 63 39 64 42 65
REMARK SMILES IDX 36 66 37 67 40 68 38 69 64 70 65 71 73 72 66 73 67 74 71 75
REMARK SMILES IDX 74 76 68 77 69 78 72 79 70 80 49 81 50 82 58 83 51 84 52 85
REMARK SMILES IDX 56 86 59 87 53 88 54 89 57 90 55 91
REMARK H PARENT 79 44 47 55
REMARK Flexibility Score: inf
ROOT
ATOM      1  C   UNL A   1      32.096  27.946  23.603  1.00  0.00     0.202 C 
ENDROOT
BRANCH   1   2
ATOM      2  C   UNL A   1      30.877  27.527  22.778  1.00  0.00     0.261 C 
BRANCH   2   3
ATOM      3  O   UNL A   1      30.527  26.170  23.096  1.00  0.00    -0.457 OA
BRANCH   3   4
ATOM      4  C   UNL A   1      31.559  25.276  23.094  1.00  0.00     0.374 C 
ATOM      5  O   UNL A   1      32.355  25.134  22.174  1.00  0.00    -0.242 OA
BRANCH   4   6
ATOM      6  C   UNL A   1      31.621  24.620  24.378  1.00  0.00     0.211 A 
ATOM      7  C   UNL A   1      32.465  23.145  25.799  1.00  0.00     0.118 A 
ATOM      8  C   UNL A   1      31.585  23.931  26.518  1.00  0.00     0.048 A 
ATOM      9  O   UNL A   1      32.451  23.541  24.494  1.00  0.00    -0.453 OA
ATOM     10  C   UNL A   1      31.056  24.885  25.611  1.00  0.00     0.058 A 
BRANCH   7  11
ATOM     11  C   UNL A   1      33.336  21.982  26.171  1.00  0.00     0.116 C 
ATOM     12  C   UNL A   1      33.973  22.133  27.554  1.00  0.00     0.028 C 
BRANCH  11  13
ATOM     13  S   UNL A   1      34.568  21.482  24.921  1.00  0.00    -0.096 SA
BRANCH  13  14
ATOM     14  C   UNL A   1      36.093  22.198  25.360  1.00  0.00     0.095 A 
ATOM     15  C   UNL A   1      38.760  24.451  26.506  1.00  0.00     0.069 C 
ATOM     16  C   UNL A   1      37.851  23.383  26.025  1.00  0.00     0.061 A 
ATOM     17  C   UNL A   1      36.474  23.470  25.720  1.00  0.00     0.060 A 
ATOM     18  N   UNL A   1      38.318  22.147  25.835  1.00  0.00    -0.178 NA
ATOM     19  N   UNL A   1      37.249  21.453  25.385  1.00  0.00    -0.262 N 
ATOM     20  C   UNL A   1      37.473  20.079  24.999  1.00  0.00     0.175 C 
ENDBRANCH  13  14
ENDBRANCH  11  13
ENDBRANCH   7  11
ENDBRANCH   4   6
ENDBRANCH   3   4
ENDBRANCH   2   3
ENDBRANCH   1   2
BRANCH   1  21
ATOM     21  O   UNL A   1      31.770  28.583  24.839  1.00  0.00    -0.374 OA
BRANCH  21  22
ATOM     22  C   UNL A   1      31.964  29.998  24.895  1.00  0.00     0.202 C 
BRANCH  22  23
ATOM     23  C   UNL A   1      31.715  30.612  26.276  1.00  0.00     0.261 C 
BRANCH  23  24
ATOM     24  O   UNL A   1      32.865  30.434  27.125  1.00  0.00    -0.460 OA
BRANCH  24  25
ATOM     25  C   UNL A   1      33.543  31.566  27.424  1.00  0.00     0.338 C 
ATOM     26  O   UNL A   1      33.119  32.709  27.422  1.00  0.00    -0.246 OA
BRANCH  25  27
ATOM     27  C   UNL A   1      34.882  31.213  27.935  1.00  0.00     0.060 A 
ATOM     28  C   UNL A   1      35.093  29.891  28.352  1.00  0.00     0.016 A 
ATOM     29  C   UNL A   1      35.901  32.162  28.049  1.00  0.00     0.016 A 
ATOM     30  C   UNL A   1      36.308  29.523  28.926  1.00  0.00     0.010 A 
ATOM     31  C   UNL A   1      37.114  31.795  28.635  1.00  0.00     0.010 A 
ATOM     32  C   UNL A   1      37.311  30.484  29.105  1.00  0.00    -0.014 A 
BRANCH  32  33
ATOM     33  C   UNL A   1      38.500  30.180  29.934  1.00  0.00     0.031 A 
ATOM     34  C   UNL A   1      39.522  29.220  29.395  1.00  0.00     0.074 A 
ATOM     35  C   UNL A   1      38.659  30.729  31.150  1.00  0.00     0.049 A 
ATOM     36  N   UNL A   1      40.558  28.687  29.989  1.00  0.00    -0.248 NA
ATOM     37  C   UNL A   1      39.345  28.799  27.996  1.00  0.00     0.031 C 
ATOM     38  C   UNL A   1      37.767  31.715  31.756  1.00  0.00     0.029 A 
ATOM     39  N   UNL A   1      39.622  30.512  32.104  1.00  0.00    -0.354 N 
ATOM     40  C   UNL A   1      41.144  27.856  29.044  1.00  0.00     0.074 A 
ATOM     41  C   UNL A   1      40.344  27.944  27.843  1.00  0.00     0.031 C 
ATOM     42  C   UNL A   1      38.213  32.001  32.992  1.00  0.00     0.029 A 
ATOM     43  C   UNL A   1      39.394  31.187  33.276  1.00  0.00     0.049 A 
ATOM     44  H   UNL A   1      40.402  29.928  31.960  1.00  0.00     0.167 HD
ATOM     45  C   UNL A   1      42.251  27.088  29.171  1.00  0.00     0.037 A 
ATOM     46  C   UNL A   1      40.045  31.124  34.455  1.00  0.00     0.037 A 
ATOM     47  C   UNL A   1      43.046  27.006  30.366  1.00  0.00     0.049 A 
ATOM     48  C   UNL A   1      41.234  30.207  34.595  1.00  0.00     0.074 A 
ATOM     49  C   UNL A   1      44.186  26.257  30.596  1.00  0.00     0.029 A 
ATOM     50  N   UNL A   1      42.778  27.701  31.536  1.00  0.00    -0.354 N 
ATOM     51  N   UNL A   1      41.781  29.419  33.702  1.00  0.00    -0.248 NA
ATOM     52  C   UNL A   1      41.891  30.167  35.909  1.00  0.00     0.031 C 
ATOM     53  C   UNL A   1      44.587  26.469  31.919  1.00  0.00     0.029 A 
ATOM     54  C   UNL A   1      43.723  27.385  32.498  1.00  0.00     0.049 A 
ATOM     55  H   UNL A   1      42.028  28.325  31.664  1.00  0.00     0.167 HD
ATOM     56  C   UNL A   1      42.864  28.820  34.331  1.00  0.00     0.074 A 
ATOM     57  C   UNL A   1      42.896  29.330  35.685  1.00  0.00     0.031 C 
ATOM     58  C   UNL A   1      43.753  27.928  33.831  1.00  0.00     0.037 A 
BRANCH  45  59
ATOM     59  C   UNL A   1      42.648  26.249  27.994  1.00  0.00     0.064 A 
ATOM     60  C   UNL A   1      42.136  24.958  27.804  1.00  0.00     0.173 A 
ATOM     61  C   UNL A   1      43.535  26.755  27.031  1.00  0.00     0.173 A 
ATOM     62  F   UNL A   1      41.299  24.424  28.706  1.00  0.00    -0.203 F 
ATOM     63  C   UNL A   1      42.514  24.194  26.702  1.00  0.00     0.198 A 
ATOM     64  C   UNL A   1      43.891  25.999  25.918  1.00  0.00     0.198 A 
ATOM     65  F   UNL A   1      44.052  27.985  27.168  1.00  0.00    -0.203 F 
ATOM     66  F   UNL A   1      42.046  22.947  26.561  1.00  0.00    -0.200 F 
ATOM     67  C   UNL A   1      43.385  24.717  25.757  1.00  0.00     0.200 A 
ATOM     68  F   UNL A   1      44.726  26.508  25.003  1.00  0.00    -0.200 F 
ATOM     69  F   UNL A   1      43.745  23.983  24.696  1.00  0.00    -0.200 F 
ENDBRANCH  45  59
BRANCH  46  70
ATOM     70  C   UNL A   1      39.575  31.937  35.605  1.00  0.00     0.064 A 
ATOM     71  C   UNL A   1      38.593  31.450  36.479  1.00  0.00     0.173 A 
ATOM     72  C   UNL A   1      40.088  33.219  35.848  1.00  0.00     0.173 A 
ATOM     73  F   UNL A   1      38.055  30.240  36.272  1.00  0.00    -0.203 F 
ATOM     74  C   UNL A   1      38.133  32.221  37.544  1.00  0.00     0.198 A 
ATOM     75  C   UNL A   1      39.644  33.980  36.927  1.00  0.00     0.198 A 
ATOM     76  F   UNL A   1      41.026  33.732  35.038  1.00  0.00    -0.203 F 
ATOM     77  F   UNL A   1      37.164  31.749  38.340  1.00  0.00    -0.200 F 
ATOM     78  C   UNL A   1      38.662  33.483  37.771  1.00  0.00     0.200 A 
ATOM     79  F   UNL A   1      40.165  35.195  37.147  1.00  0.00    -0.200 F 
ATOM     80  F   UNL A   1      38.219  34.224  38.796  1.00  0.00    -0.200 F 
ENDBRANCH  46  70
BRANCH  58  81
ATOM     81  C   UNL A   1      44.876  27.490  34.723  1.00  0.00     0.064 A 
ATOM     82  C   UNL A   1      46.046  28.250  34.863  1.00  0.00     0.173 A 
ATOM     83  C   UNL A   1      44.742  26.335  35.508  1.00  0.00     0.173 A 
ATOM     84  F   UNL A   1      46.225  29.355  34.124  1.00  0.00    -0.203 F 
ATOM     85  C   UNL A   1      47.047  27.861  35.749  1.00  0.00     0.198 A 
ATOM     86  C   UNL A   1      45.734  25.962  36.410  1.00  0.00     0.198 A 
ATOM     87  F   UNL A   1      43.638  25.580  35.414  1.00  0.00    -0.203 F 
ATOM     88  F   UNL A   1      48.170  28.586  35.849  1.00  0.00    -0.200 F 
ATOM     89  C   UNL A   1      46.887  26.724  36.528  1.00  0.00     0.200 A 
ATOM     90  F   UNL A   1      45.572  24.871  37.170  1.00  0.00    -0.200 F 
ATOM     91  F   UNL A   1      47.844  26.362  37.392  1.00  0.00    -0.200 F 
ENDBRANCH  58  81
ENDBRANCH  32  33
ENDBRANCH  25  27
ENDBRANCH  24  25
ENDBRANCH  23  24
ENDBRANCH  22  23
ENDBRANCH  21  22
ENDBRANCH   1  21
TORSDOF 17
ENDMDL
