MODEL 1
REMARK VINA RESULT:     -11.6      0.000      0.000
REMARK SMILES CC1(C)[C@H]2CC[C@]1(C)C(=O)N(CC(=O)OCCOCCOC(=O)c1ccc(-c3c4nc(c(-c5c(F)c(F)c(F)c(F)c5F)c5ccc([nH]5)c(-c5c(F)c(F)c(F)c(F)c5F)c5nc(c(-c6c(F)c(F)c(F)c(F)c6F)c6ccc3[nH]6)C=C5)C=C4)cc1)C2=O
REMARK SMILES IDX 19 1 18 2 17 3 16 4 15 5 13 6 14 7 12 8 11 9 1 10 2 11 4 12
REMARK SMILES IDX 7 13 3 14 5 15 87 16 6 17 9 18 8 19 88 20 10 21 20 22 21 23
REMARK SMILES IDX 22 24 23 25 24 26 25 27 86 28 26 29 85 30 27 31 28 32 29 33
REMARK SMILES IDX 79 34 30 35 84 36 78 37 80 38 31 39 83 40 77 41 76 42 32 44
REMARK SMILES IDX 64 45 44 46 63 47 45 48 48 49 62 50 81 51 46 52 47 53 61 55
REMARK SMILES IDX 82 56 49 57 33 58 34 59 42 60 35 61 36 62 40 63 43 64 37 65
REMARK SMILES IDX 38 66 41 67 39 68 65 69 66 70 74 71 67 72 68 73 72 74 75 75
REMARK SMILES IDX 69 76 70 77 73 78 71 79 50 80 51 81 59 82 52 83 53 84 57 85
REMARK SMILES IDX 60 86 54 87 55 88 58 89 56 90
REMARK H PARENT 80 43 48 54
REMARK Flexibility Score: inf
ROOT
ATOM      1  C   UNL A   1      35.777  20.729  24.950  1.00  0.00     0.202 C 
ENDROOT
BRANCH   1   2
ATOM      2  O   UNL A   1      35.277  21.506  26.035  1.00  0.00    -0.374 OA
BRANCH   2   3
ATOM      3  C   UNL A   1      33.933  21.258  26.457  1.00  0.00     0.202 C 
BRANCH   3   4
ATOM      4  C   UNL A   1      33.173  20.194  25.666  1.00  0.00     0.261 C 
BRANCH   4   5
ATOM      5  O   UNL A   1      32.148  20.796  24.856  1.00  0.00    -0.462 OA
BRANCH   5   6
ATOM      6  C   UNL A   1      32.301  20.685  23.515  1.00  0.00     0.326 C 
ATOM      7  O   UNL A   1      32.224  19.628  22.895  1.00  0.00    -0.250 OA
BRANCH   6   8
ATOM      8  C   UNL A   1      32.598  22.009  22.814  1.00  0.00     0.251 C 
BRANCH   8   9
ATOM      9  N   UNL A   1      32.884  23.252  23.541  1.00  0.00    -0.271 N 
ATOM     10  C   UNL A   1      33.674  27.535  24.216  1.00  0.00     0.013 C 
ATOM     11  C   UNL A   1      33.307  26.120  23.707  1.00  0.00    -0.010 C 
ATOM     12  C   UNL A   1      34.363  25.123  24.198  1.00  0.00     0.086 C 
ATOM     13  C   UNL A   1      32.077  25.460  24.401  1.00  0.00     0.053 C 
ATOM     14  C   UNL A   1      33.228  26.217  22.173  1.00  0.00     0.013 C 
ATOM     15  C   UNL A   1      34.068  25.060  25.702  1.00  0.00     0.015 C 
ATOM     16  C   UNL A   1      34.165  23.788  23.478  1.00  0.00     0.233 C 
ATOM     17  C   UNL A   1      32.555  25.117  25.828  1.00  0.00     0.018 C 
ATOM     18  C   UNL A   1      31.782  24.102  23.720  1.00  0.00     0.236 C 
ATOM     19  C   UNL A   1      30.817  26.317  24.477  1.00  0.00     0.022 C 
ATOM     20  O   UNL A   1      35.058  23.337  22.763  1.00  0.00    -0.274 OA
ATOM     21  O   UNL A   1      30.656  23.824  23.309  1.00  0.00    -0.274 OA
ENDBRANCH   8   9
ENDBRANCH   6   8
ENDBRANCH   5   6
ENDBRANCH   4   5
ENDBRANCH   3   4
ENDBRANCH   2   3
ENDBRANCH   1   2
BRANCH   1  22
ATOM     22  C   UNL A   1      37.238  20.287  25.065  1.00  0.00     0.261 C 
BRANCH  22  23
ATOM     23  O   UNL A   1      38.143  21.391  25.271  1.00  0.00    -0.460 OA
BRANCH  23  24
ATOM     24  C   UNL A   1      39.172  21.174  26.122  1.00  0.00     0.338 C 
ATOM     25  O   UNL A   1      39.650  20.089  26.447  1.00  0.00    -0.246 OA
BRANCH  24  26
ATOM     26  C   UNL A   1      39.655  22.450  26.678  1.00  0.00     0.060 A 
ATOM     27  C   UNL A   1      39.135  23.655  26.208  1.00  0.00     0.016 A 
ATOM     28  C   UNL A   1      40.713  22.462  27.589  1.00  0.00     0.016 A 
ATOM     29  C   UNL A   1      39.691  24.866  26.640  1.00  0.00     0.010 A 
ATOM     30  C   UNL A   1      41.209  23.675  28.084  1.00  0.00     0.010 A 
ATOM     31  C   UNL A   1      40.739  24.897  27.579  1.00  0.00    -0.014 A 
BRANCH  31  32
ATOM     32  C   UNL A   1      41.391  26.195  27.945  1.00  0.00     0.031 A 
ATOM     33  C   UNL A   1      42.794  26.514  27.477  1.00  0.00     0.074 A 
ATOM     34  C   UNL A   1      40.726  27.116  28.670  1.00  0.00     0.049 A 
ATOM     35  N   UNL A   1      43.492  27.615  27.634  1.00  0.00    -0.248 NA
ATOM     36  C   UNL A   1      43.517  25.454  26.758  1.00  0.00     0.031 C 
ATOM     37  C   UNL A   1      39.390  26.941  29.238  1.00  0.00     0.029 A 
ATOM     38  N   UNL A   1      41.080  28.392  29.046  1.00  0.00    -0.354 N 
ATOM     39  C   UNL A   1      44.728  27.373  27.041  1.00  0.00     0.074 A 
ATOM     40  C   UNL A   1      44.710  26.002  26.584  1.00  0.00     0.031 C 
ATOM     41  C   UNL A   1      39.019  28.079  29.849  1.00  0.00     0.029 A 
ATOM     42  C   UNL A   1      40.102  29.055  29.749  1.00  0.00     0.049 A 
ATOM     43  H   UNL A   1      41.953  28.793  28.829  1.00  0.00     0.167 HD
ATOM     44  C   UNL A   1      45.772  28.219  26.859  1.00  0.00     0.037 A 
ATOM     45  C   UNL A   1      40.075  30.305  30.253  1.00  0.00     0.037 A 
ATOM     46  C   UNL A   1      45.794  29.597  27.281  1.00  0.00     0.049 A 
ATOM     47  C   UNL A   1      41.253  31.224  30.049  1.00  0.00     0.074 A 
ATOM     48  C   UNL A   1      46.784  30.543  27.077  1.00  0.00     0.029 A 
ATOM     49  N   UNL A   1      44.788  30.223  27.997  1.00  0.00    -0.354 N 
ATOM     50  N   UNL A   1      42.375  31.008  29.406  1.00  0.00    -0.248 NA
ATOM     51  C   UNL A   1      41.154  32.571  30.633  1.00  0.00     0.031 C 
ATOM     52  C   UNL A   1      46.403  31.725  27.720  1.00  0.00     0.029 A 
ATOM     53  C   UNL A   1      45.146  31.535  28.268  1.00  0.00     0.049 A 
ATOM     54  H   UNL A   1      43.942  29.799  28.272  1.00  0.00     0.167 HD
ATOM     55  C   UNL A   1      43.095  32.194  29.483  1.00  0.00     0.074 A 
ATOM     56  C   UNL A   1      42.277  33.135  30.215  1.00  0.00     0.031 C 
ATOM     57  C   UNL A   1      44.327  32.475  28.990  1.00  0.00     0.037 A 
BRANCH  44  58
ATOM     58  C   UNL A   1      46.989  27.684  26.157  1.00  0.00     0.064 A 
ATOM     59  C   UNL A   1      47.094  27.688  24.757  1.00  0.00     0.173 A 
ATOM     60  C   UNL A   1      48.086  27.208  26.893  1.00  0.00     0.173 A 
ATOM     61  F   UNL A   1      46.073  28.126  24.004  1.00  0.00    -0.203 F 
ATOM     62  C   UNL A   1      48.235  27.206  24.121  1.00  0.00     0.198 A 
ATOM     63  C   UNL A   1      49.240  26.760  26.254  1.00  0.00     0.198 A 
ATOM     64  F   UNL A   1      48.045  27.192  28.234  1.00  0.00    -0.203 F 
ATOM     65  F   UNL A   1      48.290  27.170  22.782  1.00  0.00    -0.200 F 
ATOM     66  C   UNL A   1      49.310  26.751  24.869  1.00  0.00     0.200 A 
ATOM     67  F   UNL A   1      50.284  26.338  26.979  1.00  0.00    -0.200 F 
ATOM     68  F   UNL A   1      50.411  26.297  24.256  1.00  0.00    -0.200 F 
ENDBRANCH  44  58
BRANCH  45  69
ATOM     69  C   UNL A   1      38.876  30.785  30.993  1.00  0.00     0.064 A 
ATOM     70  C   UNL A   1      38.787  30.660  32.387  1.00  0.00     0.173 A 
ATOM     71  C   UNL A   1      37.781  31.343  30.319  1.00  0.00     0.173 A 
ATOM     72  F   UNL A   1      39.796  30.108  33.076  1.00  0.00    -0.203 F 
ATOM     73  C   UNL A   1      37.638  31.049  33.074  1.00  0.00     0.198 A 
ATOM     74  C   UNL A   1      36.645  31.763  31.010  1.00  0.00     0.198 A 
ATOM     75  F   UNL A   1      37.812  31.484  28.986  1.00  0.00    -0.203 F 
ATOM     76  F   UNL A   1      37.556  30.860  34.398  1.00  0.00    -0.200 F 
ATOM     77  C   UNL A   1      36.571  31.605  32.386  1.00  0.00     0.200 A 
ATOM     78  F   UNL A   1      35.621  32.311  30.343  1.00  0.00    -0.200 F 
ATOM     79  F   UNL A   1      35.466  31.976  33.046  1.00  0.00    -0.200 F 
ENDBRANCH  45  69
BRANCH  57  80
ATOM     80  C   UNL A   1      44.858  33.868  29.189  1.00  0.00     0.064 A 
ATOM     81  C   UNL A   1      45.676  34.201  30.279  1.00  0.00     0.173 A 
ATOM     82  C   UNL A   1      44.574  34.877  28.255  1.00  0.00     0.173 A 
ATOM     83  F   UNL A   1      45.971  33.280  31.209  1.00  0.00    -0.203 F 
ATOM     84  C   UNL A   1      46.161  35.497  30.445  1.00  0.00     0.198 A 
ATOM     85  C   UNL A   1      45.089  36.162  28.403  1.00  0.00     0.198 A 
ATOM     86  F   UNL A   1      43.806  34.613  27.187  1.00  0.00    -0.203 F 
ATOM     87  F   UNL A   1      46.894  35.804  31.523  1.00  0.00    -0.200 F 
ATOM     88  C   UNL A   1      45.874  36.474  29.503  1.00  0.00     0.200 A 
ATOM     89  F   UNL A   1      44.825  37.100  27.483  1.00  0.00    -0.200 F 
ATOM     90  F   UNL A   1      46.347  37.718  29.660  1.00  0.00    -0.200 F 
ENDBRANCH  57  80
ENDBRANCH  31  32
ENDBRANCH  24  26
ENDBRANCH  23  24
ENDBRANCH  22  23
ENDBRANCH   1  22
TORSDOF 15
ENDMDL
MODEL 2
REMARK VINA RESULT:     -11.5      0.181      1.969
REMARK SMILES CC1(C)[C@H]2CC[C@]1(C)C(=O)N(CC(=O)OCCOCCOC(=O)c1ccc(-c3c4nc(c(-c5c(F)c(F)c(F)c(F)c5F)c5ccc([nH]5)c(-c5c(F)c(F)c(F)c(F)c5F)c5nc(c(-c6c(F)c(F)c(F)c(F)c6F)c6ccc3[nH]6)C=C5)C=C4)cc1)C2=O
REMARK SMILES IDX 19 1 18 2 17 3 16 4 15 5 13 6 14 7 12 8 11 9 1 10 2 11 4 12
REMARK SMILES IDX 7 13 3 14 5 15 87 16 6 17 9 18 8 19 88 20 10 21 20 22 21 23
REMARK SMILES IDX 22 24 23 25 24 26 25 27 86 28 26 29 85 30 27 31 28 32 29 33
REMARK SMILES IDX 79 34 30 35 84 36 78 37 80 38 31 39 83 40 77 41 76 42 32 44
REMARK SMILES IDX 64 45 44 46 63 47 45 48 48 49 62 50 81 51 46 52 47 53 61 55
REMARK SMILES IDX 82 56 49 57 33 58 34 59 42 60 35 61 36 62 40 63 43 64 37 65
REMARK SMILES IDX 38 66 41 67 39 68 65 69 66 70 74 71 67 72 68 73 72 74 75 75
REMARK SMILES IDX 69 76 70 77 73 78 71 79 50 80 51 81 59 82 52 83 53 84 57 85
REMARK SMILES IDX 60 86 54 87 55 88 58 89 56 90
REMARK H PARENT 80 43 48 54
REMARK Flexibility Score: inf
ROOT
ATOM      1  C   UNL A   1      35.851  20.868  24.969  1.00  0.00     0.202 C 
ENDROOT
BRANCH   1   2
ATOM      2  O   UNL A   1      35.413  21.614  26.101  1.00  0.00    -0.374 OA
BRANCH   2   3
ATOM      3  C   UNL A   1      34.056  21.439  26.518  1.00  0.00     0.202 C 
BRANCH   3   4
ATOM      4  C   UNL A   1      33.289  20.312  25.829  1.00  0.00     0.261 C 
BRANCH   4   5
ATOM      5  O   UNL A   1      32.213  20.838  25.033  1.00  0.00    -0.462 OA
BRANCH   5   6
ATOM      6  C   UNL A   1      32.329  20.687  23.693  1.00  0.00     0.326 C 
ATOM      7  O   UNL A   1      32.371  19.602  23.120  1.00  0.00    -0.250 OA
BRANCH   6   8
ATOM      8  C   UNL A   1      32.420  22.006  22.927  1.00  0.00     0.251 C 
BRANCH   8   9
ATOM      9  N   UNL A   1      32.771  23.280  23.566  1.00  0.00    -0.271 N 
ATOM     10  C   UNL A   1      33.701  27.570  23.954  1.00  0.00     0.013 C 
ATOM     11  C   UNL A   1      33.275  26.139  23.545  1.00  0.00    -0.010 C 
ATOM     12  C   UNL A   1      34.326  25.142  24.047  1.00  0.00     0.086 C 
ATOM     13  C   UNL A   1      32.061  25.555  24.330  1.00  0.00     0.053 C 
ATOM     14  C   UNL A   1      33.128  26.150  22.013  1.00  0.00     0.013 C 
ATOM     15  C   UNL A   1      34.099  25.174  25.562  1.00  0.00     0.015 C 
ATOM     16  C   UNL A   1      34.061  23.774  23.415  1.00  0.00     0.233 C 
ATOM     17  C   UNL A   1      32.595  25.281  25.752  1.00  0.00     0.018 C 
ATOM     18  C   UNL A   1      31.700  24.169  23.744  1.00  0.00     0.236 C 
ATOM     19  C   UNL A   1      30.828  26.450  24.412  1.00  0.00     0.022 C 
ATOM     20  O   UNL A   1      34.909  23.258  22.689  1.00  0.00    -0.274 OA
ATOM     21  O   UNL A   1      30.550  23.900  23.400  1.00  0.00    -0.274 OA
ENDBRANCH   8   9
ENDBRANCH   6   8
ENDBRANCH   5   6
ENDBRANCH   4   5
ENDBRANCH   3   4
ENDBRANCH   2   3
ENDBRANCH   1   2
BRANCH   1  22
ATOM     22  C   UNL A   1      37.276  20.312  25.048  1.00  0.00     0.261 C 
BRANCH  22  23
ATOM     23  O   UNL A   1      38.273  21.344  25.197  1.00  0.00    -0.460 OA
BRANCH  23  24
ATOM     24  C   UNL A   1      39.231  21.126  26.126  1.00  0.00     0.338 C 
ATOM     25  O   UNL A   1      39.664  20.039  26.504  1.00  0.00    -0.246 OA
BRANCH  24  26
ATOM     26  C   UNL A   1      39.692  22.403  26.697  1.00  0.00     0.060 A 
ATOM     27  C   UNL A   1      39.143  23.604  26.250  1.00  0.00     0.016 A 
ATOM     28  C   UNL A   1      40.757  22.424  27.599  1.00  0.00     0.016 A 
ATOM     29  C   UNL A   1      39.678  24.820  26.694  1.00  0.00     0.010 A 
ATOM     30  C   UNL A   1      41.232  23.640  28.108  1.00  0.00     0.010 A 
ATOM     31  C   UNL A   1      40.733  24.859  27.625  1.00  0.00    -0.014 A 
BRANCH  31  32
ATOM     32  C   UNL A   1      41.361  26.164  28.005  1.00  0.00     0.031 A 
ATOM     33  C   UNL A   1      42.764  26.507  27.553  1.00  0.00     0.074 A 
ATOM     34  C   UNL A   1      40.675  27.071  28.728  1.00  0.00     0.049 A 
ATOM     35  N   UNL A   1      43.444  27.618  27.723  1.00  0.00    -0.248 NA
ATOM     36  C   UNL A   1      43.510  25.463  26.835  1.00  0.00     0.031 C 
ATOM     37  C   UNL A   1      39.336  26.873  29.281  1.00  0.00     0.029 A 
ATOM     38  N   UNL A   1      41.006  28.350  29.114  1.00  0.00    -0.354 N 
ATOM     39  C   UNL A   1      44.689  27.399  27.141  1.00  0.00     0.074 A 
ATOM     40  C   UNL A   1      44.697  26.030  26.676  1.00  0.00     0.031 C 
ATOM     41  C   UNL A   1      38.942  28.001  29.895  1.00  0.00     0.029 A 
ATOM     42  C   UNL A   1      40.011  28.994  29.811  1.00  0.00     0.049 A 
ATOM     43  H   UNL A   1      41.875  28.766  28.909  1.00  0.00     0.167 HD
ATOM     44  C   UNL A   1      45.721  28.262  26.974  1.00  0.00     0.037 A 
ATOM     45  C   UNL A   1      39.959  30.241  30.322  1.00  0.00     0.037 A 
ATOM     46  C   UNL A   1      45.719  29.637  27.404  1.00  0.00     0.049 A 
ATOM     47  C   UNL A   1      41.126  31.179  30.134  1.00  0.00     0.074 A 
ATOM     48  C   UNL A   1      46.696  30.600  27.215  1.00  0.00     0.029 A 
ATOM     49  N   UNL A   1      44.695  30.243  28.113  1.00  0.00    -0.354 N 
ATOM     50  N   UNL A   1      42.257  30.984  29.502  1.00  0.00    -0.248 NA
ATOM     51  C   UNL A   1      40.999  32.520  30.726  1.00  0.00     0.031 C 
ATOM     52  C   UNL A   1      46.290  31.772  27.861  1.00  0.00     0.029 A 
ATOM     53  C   UNL A   1      45.030  31.559  28.395  1.00  0.00     0.049 A 
ATOM     54  H   UNL A   1      43.854  29.805  28.378  1.00  0.00     0.167 HD
ATOM     55  C   UNL A   1      42.958  32.180  29.592  1.00  0.00     0.074 A 
ATOM     56  C   UNL A   1      42.118  33.105  30.322  1.00  0.00     0.031 C 
ATOM     57  C   UNL A   1      44.190  32.483  29.114  1.00  0.00     0.037 A 
BRANCH  44  58
ATOM     58  C   UNL A   1      46.954  27.749  26.281  1.00  0.00     0.064 A 
ATOM     59  C   UNL A   1      48.042  27.230  27.001  1.00  0.00     0.173 A 
ATOM     60  C   UNL A   1      47.029  27.729  24.880  1.00  0.00     0.173 A 
ATOM     61  F   UNL A   1      48.026  27.230  28.343  1.00  0.00    -0.203 F 
ATOM     62  C   UNL A   1      49.169  26.742  26.346  1.00  0.00     0.198 A 
ATOM     63  C   UNL A   1      48.143  27.207  24.227  1.00  0.00     0.198 A 
ATOM     64  F   UNL A   1      46.013  28.202  24.142  1.00  0.00    -0.203 F 
ATOM     65  F   UNL A   1      50.217  26.301  27.056  1.00  0.00    -0.200 F 
ATOM     66  C   UNL A   1      49.216  26.723  24.960  1.00  0.00     0.200 A 
ATOM     67  F   UNL A   1      48.178  27.173  22.888  1.00  0.00    -0.200 F 
ATOM     68  F   UNL A   1      50.296  26.244  24.330  1.00  0.00    -0.200 F 
ENDBRANCH  44  58
BRANCH  45  69
ATOM     69  C   UNL A   1      38.746  30.698  31.053  1.00  0.00     0.064 A 
ATOM     70  C   UNL A   1      37.643  31.227  30.366  1.00  0.00     0.173 A 
ATOM     71  C   UNL A   1      38.679  30.649  32.452  1.00  0.00     0.173 A 
ATOM     72  F   UNL A   1      37.669  31.320  29.029  1.00  0.00    -0.203 F 
ATOM     73  C   UNL A   1      36.533  31.715  31.053  1.00  0.00     0.198 A 
ATOM     74  C   UNL A   1      37.554  31.107  33.137  1.00  0.00     0.198 A 
ATOM     75  F   UNL A   1      39.706  30.155  33.158  1.00  0.00    -0.203 F 
ATOM     76  F   UNL A   1      35.520  32.272  30.374  1.00  0.00    -0.200 F 
ATOM     77  C   UNL A   1      36.487  31.650  32.437  1.00  0.00     0.200 A 
ATOM     78  F   UNL A   1      37.509  31.032  34.473  1.00  0.00    -0.200 F 
ATOM     79  F   UNL A   1      35.421  32.122  33.097  1.00  0.00    -0.200 F 
ENDBRANCH  45  69
BRANCH  57  80
ATOM     80  C   UNL A   1      44.698  33.882  29.326  1.00  0.00     0.064 A 
ATOM     81  C   UNL A   1      44.422  34.917  28.419  1.00  0.00     0.173 A 
ATOM     82  C   UNL A   1      45.439  34.203  30.475  1.00  0.00     0.173 A 
ATOM     83  F   UNL A   1      43.727  34.665  27.299  1.00  0.00    -0.203 F 
ATOM     84  C   UNL A   1      44.898  36.208  28.635  1.00  0.00     0.198 A 
ATOM     85  C   UNL A   1      45.884  35.502  30.706  1.00  0.00     0.198 A 
ATOM     86  F   UNL A   1      45.724  33.257  31.382  1.00  0.00    -0.203 F 
ATOM     87  F   UNL A   1      44.669  37.166  27.726  1.00  0.00    -0.200 F 
ATOM     88  C   UNL A   1      45.622  36.502  29.781  1.00  0.00     0.200 A 
ATOM     89  F   UNL A   1      46.567  35.788  31.823  1.00  0.00    -0.200 F 
ATOM     90  F   UNL A   1      46.072  37.746  29.991  1.00  0.00    -0.200 F 
ENDBRANCH  57  80
ENDBRANCH  31  32
ENDBRANCH  24  26
ENDBRANCH  23  24
ENDBRANCH  22  23
ENDBRANCH   1  22
TORSDOF 15
ENDMDL
MODEL 3
REMARK VINA RESULT:     -11.4      4.230      9.655
REMARK SMILES CC1(C)[C@H]2CC[C@]1(C)C(=O)N(CC(=O)OCCOCCOC(=O)c1ccc(-c3c4nc(c(-c5c(F)c(F)c(F)c(F)c5F)c5ccc([nH]5)c(-c5c(F)c(F)c(F)c(F)c5F)c5nc(c(-c6c(F)c(F)c(F)c(F)c6F)c6ccc3[nH]6)C=C5)C=C4)cc1)C2=O
REMARK SMILES IDX 19 1 18 2 17 3 16 4 15 5 13 6 14 7 12 8 11 9 1 10 2 11 4 12
REMARK SMILES IDX 7 13 3 14 5 15 87 16 6 17 9 18 8 19 88 20 10 21 20 22 21 23
REMARK SMILES IDX 22 24 23 25 24 26 25 27 86 28 26 29 85 30 27 31 28 32 29 33
REMARK SMILES IDX 79 34 30 35 84 36 78 37 80 38 31 39 83 40 77 41 76 42 32 44
REMARK SMILES IDX 64 45 44 46 63 47 45 48 48 49 62 50 81 51 46 52 47 53 61 55
REMARK SMILES IDX 82 56 49 57 33 58 34 59 42 60 35 61 36 62 40 63 43 64 37 65
REMARK SMILES IDX 38 66 41 67 39 68 65 69 66 70 74 71 67 72 68 73 72 74 75 75
REMARK SMILES IDX 69 76 70 77 73 78 71 79 50 80 51 81 59 82 52 83 53 84 57 85
REMARK SMILES IDX 60 86 54 87 55 88 58 89 56 90
REMARK H PARENT 80 43 48 54
REMARK Flexibility Score: inf
ROOT
ATOM      1  C   UNL A   1      31.543  29.297  24.812  1.00  0.00     0.202 C 
ENDROOT
BRANCH   1   2
ATOM      2  O   UNL A   1      30.446  29.294  23.903  1.00  0.00    -0.374 OA
BRANCH   2   3
ATOM      3  C   UNL A   1      30.637  28.644  22.643  1.00  0.00     0.202 C 
BRANCH   3   4
ATOM      4  C   UNL A   1      30.739  27.120  22.690  1.00  0.00     0.261 C 
BRANCH   4   5
ATOM      5  O   UNL A   1      31.369  26.614  21.501  1.00  0.00    -0.462 OA
BRANCH   5   6
ATOM      6  C   UNL A   1      32.601  26.074  21.659  1.00  0.00     0.326 C 
ATOM      7  O   UNL A   1      33.651  26.700  21.543  1.00  0.00    -0.250 OA
BRANCH   6   8
ATOM      8  C   UNL A   1      32.586  24.582  21.990  1.00  0.00     0.251 C 
BRANCH   8   9
ATOM      9  N   UNL A   1      32.960  24.051  23.307  1.00  0.00    -0.271 N 
ATOM     10  C   UNL A   1      33.653  21.103  26.508  1.00  0.00     0.013 C 
ATOM     11  C   UNL A   1      33.395  21.898  25.205  1.00  0.00    -0.010 C 
ATOM     12  C   UNL A   1      32.428  23.049  25.504  1.00  0.00     0.086 C 
ATOM     13  C   UNL A   1      34.590  22.770  24.710  1.00  0.00     0.053 C 
ATOM     14  C   UNL A   1      32.844  20.889  24.182  1.00  0.00     0.013 C 
ATOM     15  C   UNL A   1      33.300  23.990  26.343  1.00  0.00     0.015 C 
ATOM     16  C   UNL A   1      31.956  23.663  24.185  1.00  0.00     0.233 C 
ATOM     17  C   UNL A   1      34.685  23.933  25.720  1.00  0.00     0.018 C 
ATOM     18  C   UNL A   1      34.212  23.420  23.357  1.00  0.00     0.236 C 
ATOM     19  C   UNL A   1      35.938  22.062  24.618  1.00  0.00     0.022 C 
ATOM     20  O   UNL A   1      30.762  23.640  23.889  1.00  0.00    -0.274 OA
ATOM     21  O   UNL A   1      34.949  23.327  22.376  1.00  0.00    -0.274 OA
ENDBRANCH   8   9
ENDBRANCH   6   8
ENDBRANCH   5   6
ENDBRANCH   4   5
ENDBRANCH   3   4
ENDBRANCH   2   3
ENDBRANCH   1   2
BRANCH   1  22
ATOM     22  C   UNL A   1      31.644  30.517  25.731  1.00  0.00     0.261 C 
BRANCH  22  23
ATOM     23  O   UNL A   1      32.560  30.319  26.828  1.00  0.00    -0.460 OA
BRANCH  23  24
ATOM     24  C   UNL A   1      33.237  31.412  27.249  1.00  0.00     0.338 C 
ATOM     25  O   UNL A   1      32.858  32.580  27.212  1.00  0.00    -0.246 OA
BRANCH  24  26
ATOM     26  C   UNL A   1      34.570  31.028  27.746  1.00  0.00     0.060 A 
ATOM     27  C   UNL A   1      34.850  29.692  28.026  1.00  0.00     0.016 A 
ATOM     28  C   UNL A   1      35.515  32.011  28.048  1.00  0.00     0.016 A 
ATOM     29  C   UNL A   1      36.069  29.349  28.626  1.00  0.00     0.010 A 
ATOM     30  C   UNL A   1      36.767  31.655  28.567  1.00  0.00     0.010 A 
ATOM     31  C   UNL A   1      37.044  30.323  28.911  1.00  0.00    -0.014 A 
BRANCH  31  32
ATOM     32  C   UNL A   1      38.293  29.952  29.649  1.00  0.00     0.031 A 
ATOM     33  C   UNL A   1      38.535  30.448  31.057  1.00  0.00     0.074 A 
ATOM     34  C   UNL A   1      39.210  29.141  29.082  1.00  0.00     0.049 A 
ATOM     35  N   UNL A   1      39.522  30.172  31.878  1.00  0.00    -0.248 NA
ATOM     36  C   UNL A   1      37.555  31.394  31.611  1.00  0.00     0.031 C 
ATOM     37  C   UNL A   1      39.148  28.620  27.718  1.00  0.00     0.029 A 
ATOM     38  N   UNL A   1      40.369  28.602  29.591  1.00  0.00    -0.354 N 
ATOM     39  C   UNL A   1      39.281  30.911  33.032  1.00  0.00     0.074 A 
ATOM     40  C   UNL A   1      38.096  31.701  32.781  1.00  0.00     0.031 C 
ATOM     41  C   UNL A   1      40.195  27.804  27.512  1.00  0.00     0.029 A 
ATOM     42  C   UNL A   1      41.023  27.767  28.715  1.00  0.00     0.049 A 
ATOM     43  H   UNL A   1      40.699  28.795  30.498  1.00  0.00     0.167 HD
ATOM     44  C   UNL A   1      39.957  30.913  34.207  1.00  0.00     0.037 A 
ATOM     45  C   UNL A   1      42.156  27.051  28.861  1.00  0.00     0.037 A 
ATOM     46  C   UNL A   1      41.122  30.111  34.484  1.00  0.00     0.049 A 
ATOM     47  C   UNL A   1      42.898  27.078  30.174  1.00  0.00     0.074 A 
ATOM     48  C   UNL A   1      41.828  30.000  35.670  1.00  0.00     0.029 A 
ATOM     49  N   UNL A   1      41.754  29.288  33.566  1.00  0.00    -0.354 N 
ATOM     50  N   UNL A   1      42.604  27.711  31.283  1.00  0.00    -0.248 NA
ATOM     51  C   UNL A   1      44.129  26.276  30.257  1.00  0.00     0.031 C 
ATOM     52  C   UNL A   1      42.923  29.157  35.453  1.00  0.00     0.029 A 
ATOM     53  C   UNL A   1      42.860  28.690  34.151  1.00  0.00     0.049 A 
ATOM     54  H   UNL A   1      41.461  29.149  32.637  1.00  0.00     0.167 HD
ATOM     55  C   UNL A   1      43.590  27.361  32.198  1.00  0.00     0.074 A 
ATOM     56  C   UNL A   1      44.481  26.443  31.523  1.00  0.00     0.031 C 
ATOM     57  C   UNL A   1      43.743  27.769  33.482  1.00  0.00     0.037 A 
BRANCH  44  58
ATOM     58  C   UNL A   1      39.450  31.809  35.303  1.00  0.00     0.064 A 
ATOM     59  C   UNL A   1      38.569  31.339  36.290  1.00  0.00     0.173 A 
ATOM     60  C   UNL A   1      39.889  33.139  35.398  1.00  0.00     0.173 A 
ATOM     61  F   UNL A   1      38.112  30.078  36.244  1.00  0.00    -0.203 F 
ATOM     62  C   UNL A   1      38.121  32.175  37.310  1.00  0.00     0.198 A 
ATOM     63  C   UNL A   1      39.467  33.962  36.440  1.00  0.00     0.198 A 
ATOM     64  F   UNL A   1      40.740  33.637  34.489  1.00  0.00    -0.203 F 
ATOM     65  F   UNL A   1      37.238  31.719  38.209  1.00  0.00    -0.200 F 
ATOM     66  C   UNL A   1      38.577  33.482  37.389  1.00  0.00     0.200 A 
ATOM     67  F   UNL A   1      39.923  35.219  36.526  1.00  0.00    -0.200 F 
ATOM     68  F   UNL A   1      38.154  34.283  38.376  1.00  0.00    -0.200 F 
ENDBRANCH  44  58
BRANCH  45  69
ATOM     69  C   UNL A   1      42.662  26.218  27.736  1.00  0.00     0.064 A 
ATOM     70  C   UNL A   1      43.622  26.715  26.842  1.00  0.00     0.173 A 
ATOM     71  C   UNL A   1      42.171  24.925  27.511  1.00  0.00     0.173 A 
ATOM     72  F   UNL A   1      44.104  27.956  26.999  1.00  0.00    -0.203 F 
ATOM     73  C   UNL A   1      44.049  25.961  25.750  1.00  0.00     0.198 A 
ATOM     74  C   UNL A   1      42.623  24.158  26.438  1.00  0.00     0.198 A 
ATOM     75  F   UNL A   1      41.251  24.402  28.333  1.00  0.00    -0.203 F 
ATOM     76  F   UNL A   1      44.920  26.485  24.878  1.00  0.00    -0.200 F 
ATOM     77  C   UNL A   1      43.554  24.681  25.553  1.00  0.00     0.200 A 
ATOM     78  F   UNL A   1      42.151  22.918  26.256  1.00  0.00    -0.200 F 
ATOM     79  F   UNL A   1      43.962  23.958  24.501  1.00  0.00    -0.200 F 
ENDBRANCH  45  69
BRANCH  57  80
ATOM     80  C   UNL A   1      44.893  27.197  34.264  1.00  0.00     0.064 A 
ATOM     81  C   UNL A   1      46.137  27.844  34.333  1.00  0.00     0.173 A 
ATOM     82  C   UNL A   1      44.739  26.003  34.986  1.00  0.00     0.173 A 
ATOM     83  F   UNL A   1      46.344  28.983  33.655  1.00  0.00    -0.203 F 
ATOM     84  C   UNL A   1      47.190  27.301  35.066  1.00  0.00     0.198 A 
ATOM     85  C   UNL A   1      45.782  25.480  35.745  1.00  0.00     0.198 A 
ATOM     86  F   UNL A   1      43.569  25.346  34.964  1.00  0.00    -0.203 F 
ATOM     87  F   UNL A   1      48.384  27.909  35.071  1.00  0.00    -0.200 F 
ATOM     88  C   UNL A   1      47.010  26.124  35.777  1.00  0.00     0.200 A 
ATOM     89  F   UNL A   1      45.600  24.352  36.446  1.00  0.00    -0.200 F 
ATOM     90  F   UNL A   1      48.022  25.607  36.487  1.00  0.00    -0.200 F 
ENDBRANCH  57  80
ENDBRANCH  31  32
ENDBRANCH  24  26
ENDBRANCH  23  24
ENDBRANCH  22  23
ENDBRANCH   1  22
TORSDOF 15
ENDMDL
