MODEL 1
REMARK VINA RESULT:     -11.8      0.000      0.000
REMARK SMILES Cc1ccc([C@H](CC2CCCC2)C(=O)OCCOCCOC(=O)c2ccc(-c3c4nc(c(-c5c(F)c(F)c(F)c(F)c5F)c5ccc([nH]5)c(-c5c(F)c(F)c(F)c(F)c5F)c5nc(c(-c6c(F)c(F)c(F)c(F)c6F)c6ccc3[nH]6)C=C5)C=C4)cc2)cc1
REMARK SMILES IDX 18 1 17 2 16 3 15 4 13 5 14 6 6 7 5 8 1 9 2 10 3 11 88 12
REMARK SMILES IDX 4 13 87 14 7 15 8 16 9 17 12 18 10 19 11 20 19 21 20 22
REMARK SMILES IDX 21 23 22 24 23 25 24 26 25 27 86 28 26 29 85 30 27 31 28 32
REMARK SMILES IDX 29 33 79 34 30 35 84 36 78 37 80 38 31 39 83 40 77 41 76 42
REMARK SMILES IDX 32 44 64 45 44 46 63 47 45 48 48 49 62 50 81 51 46 52 47 53
REMARK SMILES IDX 61 55 82 56 49 57 33 58 34 59 42 60 35 61 36 62 40 63 43 64
REMARK SMILES IDX 37 65 38 66 41 67 39 68 65 69 66 70 74 71 67 72 68 73 72 74
REMARK SMILES IDX 75 75 69 76 70 77 73 78 71 79 50 80 51 81 59 82 52 83 53 84
REMARK SMILES IDX 57 85 60 86 54 87 55 88 58 89 56 90
REMARK H PARENT 80 43 48 54
REMARK Flexibility Score: inf
ROOT
ATOM      1  O   UNL A   1      31.644  29.565  25.266  1.00  0.00    -0.374 OA
ENDROOT
BRANCH   1   2
ATOM      2  C   UNL A   1      32.647  29.308  24.301  1.00  0.00     0.202 C 
BRANCH   2   3
ATOM      3  C   UNL A   1      32.703  27.820  24.213  1.00  0.00     0.261 C 
BRANCH   3   4
ATOM      4  O   UNL A   1      33.692  27.421  23.285  1.00  0.00    -0.463 OA
BRANCH   4   5
ATOM      5  C   UNL A   1      33.555  26.228  22.630  1.00  0.00     0.313 C 
ATOM      6  O   UNL A   1      33.646  26.033  21.432  1.00  0.00    -0.252 OA
BRANCH   5   7
ATOM      7  C   UNL A   1      33.226  25.175  23.684  1.00  0.00     0.129 C 
BRANCH   7   8
ATOM      8  C   UNL A   1      34.543  24.475  24.052  1.00  0.00    -0.034 A 
ATOM      9  C   UNL A   1      37.796  21.949  25.391  1.00  0.00     0.044 C 
ATOM     10  C   UNL A   1      36.683  22.836  24.917  1.00  0.00    -0.051 A 
ATOM     11  C   UNL A   1      36.161  22.707  23.626  1.00  0.00     0.004 A 
ATOM     12  C   UNL A   1      36.176  23.834  25.751  1.00  0.00     0.004 A 
ATOM     13  C   UNL A   1      35.090  23.505  23.201  1.00  0.00     0.005 A 
ATOM     14  C   UNL A   1      35.140  24.658  25.314  1.00  0.00     0.005 A 
ENDBRANCH   7   8
BRANCH   7  15
ATOM     15  C   UNL A   1      32.123  24.225  23.127  1.00  0.00     0.023 C 
BRANCH  15  16
ATOM     16  C   UNL A   1      31.191  23.576  24.180  1.00  0.00    -0.010 C 
ATOM     17  C   UNL A   1      31.817  22.494  25.065  1.00  0.00     0.003 C 
ATOM     18  C   UNL A   1      30.781  24.614  25.221  1.00  0.00     0.003 C 
ATOM     19  C   UNL A   1      31.091  22.525  26.409  1.00  0.00     0.000 C 
ATOM     20  C   UNL A   1      30.301  23.821  26.425  1.00  0.00     0.000 C 
ENDBRANCH  15  16
ENDBRANCH   7  15
ENDBRANCH   5   7
ENDBRANCH   4   5
ENDBRANCH   3   4
ENDBRANCH   2   3
ENDBRANCH   1   2
BRANCH   1  21
ATOM     21  C   UNL A   1      31.970  30.493  26.270  1.00  0.00     0.202 C 
BRANCH  21  22
ATOM     22  C   UNL A   1      33.214  30.137  27.074  1.00  0.00     0.261 C 
BRANCH  22  23
ATOM     23  O   UNL A   1      33.518  31.214  27.984  1.00  0.00    -0.460 OA
BRANCH  23  24
ATOM     24  C   UNL A   1      34.820  31.604  27.993  1.00  0.00     0.338 C 
ATOM     25  O   UNL A   1      35.220  32.696  27.600  1.00  0.00    -0.246 OA
BRANCH  24  26
ATOM     26  C   UNL A   1      35.720  30.442  28.259  1.00  0.00     0.060 A 
ATOM     27  C   UNL A   1      35.980  30.050  29.583  1.00  0.00     0.016 A 
ATOM     28  C   UNL A   1      36.584  30.042  27.248  1.00  0.00     0.016 A 
ATOM     29  C   UNL A   1      37.204  29.445  29.915  1.00  0.00     0.010 A 
ATOM     30  C   UNL A   1      37.852  29.636  27.613  1.00  0.00     0.010 A 
ATOM     31  C   UNL A   1      38.192  29.347  28.945  1.00  0.00    -0.014 A 
BRANCH  31  32
ATOM     32  C   UNL A   1      39.601  28.977  29.146  1.00  0.00     0.031 A 
ATOM     33  C   UNL A   1      39.977  27.575  28.824  1.00  0.00     0.074 A 
ATOM     34  C   UNL A   1      40.597  29.872  29.396  1.00  0.00     0.049 A 
ATOM     35  N   UNL A   1      41.126  27.071  29.093  1.00  0.00    -0.248 NA
ATOM     36  C   UNL A   1      39.091  26.597  28.198  1.00  0.00     0.031 C 
ATOM     37  C   UNL A   1      42.038  29.695  29.168  1.00  0.00     0.029 A 
ATOM     38  N   UNL A   1      40.550  31.168  29.944  1.00  0.00    -0.354 N 
ATOM     39  C   UNL A   1      41.254  25.874  28.435  1.00  0.00     0.074 A 
ATOM     40  C   UNL A   1      39.930  25.587  27.954  1.00  0.00     0.031 C 
ATOM     41  C   UNL A   1      42.722  30.610  29.874  1.00  0.00     0.029 A 
ATOM     42  C   UNL A   1      41.753  31.347  30.655  1.00  0.00     0.049 A 
ATOM     43  H   UNL A   1      39.820  31.822  29.849  1.00  0.00     0.167 HD
ATOM     44  C   UNL A   1      42.508  25.349  28.333  1.00  0.00     0.037 A 
ATOM     45  C   UNL A   1      41.761  31.609  31.986  1.00  0.00     0.037 A 
ATOM     46  C   UNL A   1      43.450  26.149  29.136  1.00  0.00     0.049 A 
ATOM     47  C   UNL A   1      42.510  30.529  32.703  1.00  0.00     0.074 A 
ATOM     48  C   UNL A   1      44.461  27.050  28.844  1.00  0.00     0.029 A 
ATOM     49  N   UNL A   1      43.188  26.305  30.498  1.00  0.00    -0.354 N 
ATOM     50  N   UNL A   1      42.761  29.372  32.151  1.00  0.00    -0.248 NA
ATOM     51  C   UNL A   1      43.107  30.658  34.020  1.00  0.00     0.031 C 
ATOM     52  C   UNL A   1      44.820  27.719  30.054  1.00  0.00     0.029 A 
ATOM     53  C   UNL A   1      44.045  27.211  31.085  1.00  0.00     0.049 A 
ATOM     54  H   UNL A   1      42.476  25.826  30.981  1.00  0.00     0.167 HD
ATOM     55  C   UNL A   1      43.588  28.636  32.950  1.00  0.00     0.074 A 
ATOM     56  C   UNL A   1      43.758  29.483  34.120  1.00  0.00     0.031 C 
ATOM     57  C   UNL A   1      44.035  27.408  32.540  1.00  0.00     0.037 A 
BRANCH  44  58
ATOM     58  C   UNL A   1      42.947  24.202  27.437  1.00  0.00     0.064 A 
ATOM     59  C   UNL A   1      42.565  22.876  27.745  1.00  0.00     0.173 A 
ATOM     60  C   UNL A   1      43.761  24.306  26.289  1.00  0.00     0.173 A 
ATOM     61  F   UNL A   1      41.775  22.599  28.790  1.00  0.00    -0.203 F 
ATOM     62  C   UNL A   1      42.980  21.770  26.992  1.00  0.00     0.198 A 
ATOM     63  C   UNL A   1      44.177  23.202  25.538  1.00  0.00     0.198 A 
ATOM     64  F   UNL A   1      44.191  25.473  25.813  1.00  0.00    -0.203 F 
ATOM     65  F   UNL A   1      42.588  20.539  27.349  1.00  0.00    -0.200 F 
ATOM     66  C   UNL A   1      43.790  21.932  25.889  1.00  0.00     0.200 A 
ATOM     67  F   UNL A   1      44.960  23.392  24.464  1.00  0.00    -0.200 F 
ATOM     68  F   UNL A   1      44.188  20.877  25.167  1.00  0.00    -0.200 F 
ENDBRANCH  44  58
BRANCH  45  69
ATOM     69  C   UNL A   1      40.577  32.430  32.379  1.00  0.00     0.064 A 
ATOM     70  C   UNL A   1      40.478  33.686  31.732  1.00  0.00     0.173 A 
ATOM     71  C   UNL A   1      39.377  31.823  32.776  1.00  0.00     0.173 A 
ATOM     72  F   UNL A   1      41.594  34.324  31.341  1.00  0.00    -0.203 F 
ATOM     73  C   UNL A   1      39.250  34.186  31.300  1.00  0.00     0.198 A 
ATOM     74  C   UNL A   1      38.143  32.355  32.371  1.00  0.00     0.198 A 
ATOM     75  F   UNL A   1      39.393  30.631  33.389  1.00  0.00    -0.203 F 
ATOM     76  F   UNL A   1      39.209  35.269  30.508  1.00  0.00    -0.200 F 
ATOM     77  C   UNL A   1      38.087  33.492  31.578  1.00  0.00     0.200 A 
ATOM     78  F   UNL A   1      37.009  31.697  32.650  1.00  0.00    -0.200 F 
ATOM     79  F   UNL A   1      36.927  33.880  31.029  1.00  0.00    -0.200 F 
ENDBRANCH  45  69
BRANCH  57  80
ATOM     80  C   UNL A   1      44.525  26.266  33.420  1.00  0.00     0.064 A 
ATOM     81  C   UNL A   1      43.722  25.506  34.283  1.00  0.00     0.173 A 
ATOM     82  C   UNL A   1      45.860  25.784  33.295  1.00  0.00     0.173 A 
ATOM     83  F   UNL A   1      42.432  25.777  34.485  1.00  0.00    -0.203 F 
ATOM     84  C   UNL A   1      44.202  24.379  34.959  1.00  0.00     0.198 A 
ATOM     85  C   UNL A   1      46.314  24.622  33.914  1.00  0.00     0.198 A 
ATOM     86  F   UNL A   1      46.783  26.398  32.544  1.00  0.00    -0.203 F 
ATOM     87  F   UNL A   1      43.386  23.718  35.792  1.00  0.00    -0.200 F 
ATOM     88  C   UNL A   1      45.486  23.922  34.756  1.00  0.00     0.200 A 
ATOM     89  F   UNL A   1      47.555  24.179  33.662  1.00  0.00    -0.200 F 
ATOM     90  F   UNL A   1      45.918  22.807  35.358  1.00  0.00    -0.200 F 
ENDBRANCH  57  80
ENDBRANCH  31  32
ENDBRANCH  24  26
ENDBRANCH  23  24
ENDBRANCH  22  23
ENDBRANCH  21  22
ENDBRANCH   1  21
TORSDOF 17
ENDMDL
MODEL 2
REMARK VINA RESULT:     -11.5      1.420      2.575
REMARK SMILES Cc1ccc([C@H](CC2CCCC2)C(=O)OCCOCCOC(=O)c2ccc(-c3c4nc(c(-c5c(F)c(F)c(F)c(F)c5F)c5ccc([nH]5)c(-c5c(F)c(F)c(F)c(F)c5F)c5nc(c(-c6c(F)c(F)c(F)c(F)c6F)c6ccc3[nH]6)C=C5)C=C4)cc2)cc1
REMARK SMILES IDX 18 1 17 2 16 3 15 4 13 5 14 6 6 7 5 8 1 9 2 10 3 11 88 12
REMARK SMILES IDX 4 13 87 14 7 15 8 16 9 17 12 18 10 19 11 20 19 21 20 22
REMARK SMILES IDX 21 23 22 24 23 25 24 26 25 27 86 28 26 29 85 30 27 31 28 32
REMARK SMILES IDX 29 33 79 34 30 35 84 36 78 37 80 38 31 39 83 40 77 41 76 42
REMARK SMILES IDX 32 44 64 45 44 46 63 47 45 48 48 49 62 50 81 51 46 52 47 53
REMARK SMILES IDX 61 55 82 56 49 57 33 58 34 59 42 60 35 61 36 62 40 63 43 64
REMARK SMILES IDX 37 65 38 66 41 67 39 68 65 69 66 70 74 71 67 72 68 73 72 74
REMARK SMILES IDX 75 75 69 76 70 77 73 78 71 79 50 80 51 81 59 82 52 83 53 84
REMARK SMILES IDX 57 85 60 86 54 87 55 88 58 89 56 90
REMARK H PARENT 80 43 48 54
REMARK Flexibility Score: inf
ROOT
ATOM      1  O   UNL A   1      31.441  29.339  26.311  1.00  0.00    -0.374 OA
ENDROOT
BRANCH   1   2
ATOM      2  C   UNL A   1      31.541  28.373  27.340  1.00  0.00     0.202 C 
BRANCH   2   3
ATOM      3  C   UNL A   1      31.694  27.077  26.616  1.00  0.00     0.261 C 
BRANCH   3   4
ATOM      4  O   UNL A   1      33.057  26.839  26.323  1.00  0.00    -0.463 OA
BRANCH   4   5
ATOM      5  C   UNL A   1      33.501  26.979  25.037  1.00  0.00     0.313 C 
ATOM      6  O   UNL A   1      34.060  27.946  24.554  1.00  0.00    -0.252 OA
BRANCH   5   7
ATOM      7  C   UNL A   1      33.131  25.697  24.295  1.00  0.00     0.129 C 
BRANCH   7   8
ATOM      8  C   UNL A   1      34.370  24.788  24.316  1.00  0.00    -0.034 A 
ATOM      9  C   UNL A   1      37.389  21.711  24.724  1.00  0.00     0.044 C 
ATOM     10  C   UNL A   1      36.357  22.788  24.572  1.00  0.00    -0.051 A 
ATOM     11  C   UNL A   1      35.577  22.877  23.413  1.00  0.00     0.004 A 
ATOM     12  C   UNL A   1      36.186  23.744  25.573  1.00  0.00     0.004 A 
ATOM     13  C   UNL A   1      34.581  23.856  23.292  1.00  0.00     0.005 A 
ATOM     14  C   UNL A   1      35.224  24.745  25.435  1.00  0.00     0.005 A 
ENDBRANCH   7   8
BRANCH   7  15
ATOM     15  C   UNL A   1      32.625  26.065  22.867  1.00  0.00     0.023 C 
BRANCH  15  16
ATOM     16  C   UNL A   1      31.095  26.265  22.721  1.00  0.00    -0.010 C 
ATOM     17  C   UNL A   1      30.218  25.583  23.774  1.00  0.00     0.003 C 
ATOM     18  C   UNL A   1      30.741  27.733  22.938  1.00  0.00     0.003 C 
ATOM     19  C   UNL A   1      28.959  26.431  23.939  1.00  0.00     0.000 C 
ATOM     20  C   UNL A   1      29.255  27.753  23.254  1.00  0.00     0.000 C 
ENDBRANCH  15  16
ENDBRANCH   7  15
ENDBRANCH   5   7
ENDBRANCH   4   5
ENDBRANCH   3   4
ENDBRANCH   2   3
ENDBRANCH   1   2
BRANCH   1  21
ATOM     21  C   UNL A   1      32.326  30.428  26.393  1.00  0.00     0.202 C 
BRANCH  21  22
ATOM     22  C   UNL A   1      33.323  30.341  27.541  1.00  0.00     0.261 C 
BRANCH  22  23
ATOM     23  O   UNL A   1      34.327  31.363  27.379  1.00  0.00    -0.460 OA
BRANCH  23  24
ATOM     24  C   UNL A   1      35.201  31.475  28.414  1.00  0.00     0.338 C 
ATOM     25  O   UNL A   1      35.394  32.507  29.051  1.00  0.00    -0.246 OA
BRANCH  24  26
ATOM     26  C   UNL A   1      36.099  30.283  28.481  1.00  0.00     0.060 A 
ATOM     27  C   UNL A   1      36.344  29.664  29.719  1.00  0.00     0.016 A 
ATOM     28  C   UNL A   1      36.974  30.066  27.426  1.00  0.00     0.016 A 
ATOM     29  C   UNL A   1      37.565  29.010  29.954  1.00  0.00     0.010 A 
ATOM     30  C   UNL A   1      38.239  29.600  27.728  1.00  0.00     0.010 A 
ATOM     31  C   UNL A   1      38.563  29.082  28.992  1.00  0.00    -0.014 A 
BRANCH  31  32
ATOM     32  C   UNL A   1      39.971  28.680  29.140  1.00  0.00     0.031 A 
ATOM     33  C   UNL A   1      40.309  27.279  28.775  1.00  0.00     0.074 A 
ATOM     34  C   UNL A   1      40.991  29.550  29.379  1.00  0.00     0.049 A 
ATOM     35  N   UNL A   1      41.455  26.747  28.997  1.00  0.00    -0.248 NA
ATOM     36  C   UNL A   1      39.385  26.333  28.155  1.00  0.00     0.031 C 
ATOM     37  C   UNL A   1      42.421  29.351  29.102  1.00  0.00     0.029 A 
ATOM     38  N   UNL A   1      40.987  30.833  29.958  1.00  0.00    -0.354 N 
ATOM     39  C   UNL A   1      41.539  25.563  28.307  1.00  0.00     0.074 A 
ATOM     40  C   UNL A   1      40.196  25.313  27.862  1.00  0.00     0.031 C 
ATOM     41  C   UNL A   1      43.144  30.235  29.808  1.00  0.00     0.029 A 
ATOM     42  C   UNL A   1      42.215  30.973  30.635  1.00  0.00     0.049 A 
ATOM     43  H   UNL A   1      40.268  31.503  29.901  1.00  0.00     0.167 HD
ATOM     44  C   UNL A   1      42.779  25.017  28.155  1.00  0.00     0.037 A 
ATOM     45  C   UNL A   1      42.269  31.204  31.971  1.00  0.00     0.037 A 
ATOM     46  C   UNL A   1      43.761  25.780  28.946  1.00  0.00     0.049 A 
ATOM     47  C   UNL A   1      43.018  30.092  32.639  1.00  0.00     0.074 A 
ATOM     48  C   UNL A   1      44.780  26.668  28.643  1.00  0.00     0.029 A 
ATOM     49  N   UNL A   1      43.544  25.909  30.319  1.00  0.00    -0.354 N 
ATOM     50  N   UNL A   1      43.229  28.944  32.054  1.00  0.00    -0.248 NA
ATOM     51  C   UNL A   1      43.658  30.179  33.939  1.00  0.00     0.031 C 
ATOM     52  C   UNL A   1      45.189  27.302  29.856  1.00  0.00     0.029 A 
ATOM     53  C   UNL A   1      44.436  26.785  30.899  1.00  0.00     0.049 A 
ATOM     54  H   UNL A   1      42.838  25.433  30.812  1.00  0.00     0.167 HD
ATOM     55  C   UNL A   1      44.065  28.175  32.809  1.00  0.00     0.074 A 
ATOM     56  C   UNL A   1      44.288  28.990  33.992  1.00  0.00     0.031 C 
ATOM     57  C   UNL A   1      44.475  26.948  32.357  1.00  0.00     0.037 A 
BRANCH  44  58
ATOM     58  C   UNL A   1      43.167  23.883  27.220  1.00  0.00     0.064 A 
ATOM     59  C   UNL A   1      43.876  24.159  26.028  1.00  0.00     0.173 A 
ATOM     60  C   UNL A   1      42.860  22.517  27.395  1.00  0.00     0.173 A 
ATOM     61  F   UNL A   1      44.266  25.402  25.715  1.00  0.00    -0.203 F 
ATOM     62  C   UNL A   1      44.216  23.167  25.098  1.00  0.00     0.198 A 
ATOM     63  C   UNL A   1      43.198  21.527  26.466  1.00  0.00     0.198 A 
ATOM     64  F   UNL A   1      42.233  22.051  28.473  1.00  0.00    -0.203 F 
ATOM     65  F   UNL A   1      44.879  23.503  23.983  1.00  0.00    -0.200 F 
ATOM     66  C   UNL A   1      43.874  21.851  25.315  1.00  0.00     0.200 A 
ATOM     67  F   UNL A   1      42.858  20.252  26.708  1.00  0.00    -0.200 F 
ATOM     68  F   UNL A   1      44.198  20.900  24.428  1.00  0.00    -0.200 F 
ENDBRANCH  44  58
BRANCH  45  69
ATOM     69  C   UNL A   1      41.114  32.037  32.419  1.00  0.00     0.064 A 
ATOM     70  C   UNL A   1      40.121  31.340  33.150  1.00  0.00     0.173 A 
ATOM     71  C   UNL A   1      41.275  33.400  32.706  1.00  0.00     0.173 A 
ATOM     72  F   UNL A   1      39.910  30.035  32.910  1.00  0.00    -0.203 F 
ATOM     73  C   UNL A   1      39.498  31.913  34.258  1.00  0.00     0.198 A 
ATOM     74  C   UNL A   1      40.613  33.980  33.798  1.00  0.00     0.198 A 
ATOM     75  F   UNL A   1      42.199  34.122  32.056  1.00  0.00    -0.203 F 
ATOM     76  F   UNL A   1      38.722  31.161  35.054  1.00  0.00    -0.200 F 
ATOM     77  C   UNL A   1      39.784  33.219  34.610  1.00  0.00     0.200 A 
ATOM     78  F   UNL A   1      40.872  35.251  34.138  1.00  0.00    -0.200 F 
ATOM     79  F   UNL A   1      39.316  33.722  35.762  1.00  0.00    -0.200 F 
ENDBRANCH  45  69
BRANCH  57  80
ATOM     80  C   UNL A   1      44.969  25.776  33.196  1.00  0.00     0.064 A 
ATOM     81  C   UNL A   1      46.271  25.255  33.174  1.00  0.00     0.173 A 
ATOM     82  C   UNL A   1      44.136  25.216  34.208  1.00  0.00     0.173 A 
ATOM     83  F   UNL A   1      47.204  25.694  32.329  1.00  0.00    -0.203 F 
ATOM     84  C   UNL A   1      46.702  24.270  34.070  1.00  0.00     0.198 A 
ATOM     85  C   UNL A   1      44.589  24.288  35.142  1.00  0.00     0.198 A 
ATOM     86  F   UNL A   1      42.852  25.562  34.361  1.00  0.00    -0.203 F 
ATOM     87  F   UNL A   1      47.952  23.797  33.971  1.00  0.00    -0.200 F 
ATOM     88  C   UNL A   1      45.872  23.806  35.068  1.00  0.00     0.200 A 
ATOM     89  F   UNL A   1      43.772  23.888  36.128  1.00  0.00    -0.200 F 
ATOM     90  F   UNL A   1      46.311  22.909  35.960  1.00  0.00    -0.200 F 
ENDBRANCH  57  80
ENDBRANCH  31  32
ENDBRANCH  24  26
ENDBRANCH  23  24
ENDBRANCH  22  23
ENDBRANCH  21  22
ENDBRANCH   1  21
TORSDOF 17
ENDMDL
MODEL 3
REMARK VINA RESULT:     -11.3      2.248      3.803
REMARK SMILES Cc1ccc([C@H](CC2CCCC2)C(=O)OCCOCCOC(=O)c2ccc(-c3c4nc(c(-c5c(F)c(F)c(F)c(F)c5F)c5ccc([nH]5)c(-c5c(F)c(F)c(F)c(F)c5F)c5nc(c(-c6c(F)c(F)c(F)c(F)c6F)c6ccc3[nH]6)C=C5)C=C4)cc2)cc1
REMARK SMILES IDX 18 1 17 2 16 3 15 4 13 5 14 6 6 7 5 8 1 9 2 10 3 11 88 12
REMARK SMILES IDX 4 13 87 14 7 15 8 16 9 17 12 18 10 19 11 20 19 21 20 22
REMARK SMILES IDX 21 23 22 24 23 25 24 26 25 27 86 28 26 29 85 30 27 31 28 32
REMARK SMILES IDX 29 33 79 34 30 35 84 36 78 37 80 38 31 39 83 40 77 41 76 42
REMARK SMILES IDX 32 44 64 45 44 46 63 47 45 48 48 49 62 50 81 51 46 52 47 53
REMARK SMILES IDX 61 55 82 56 49 57 33 58 34 59 42 60 35 61 36 62 40 63 43 64
REMARK SMILES IDX 37 65 38 66 41 67 39 68 65 69 66 70 74 71 67 72 68 73 72 74
REMARK SMILES IDX 75 75 69 76 70 77 73 78 71 79 50 80 51 81 59 82 52 83 53 84
REMARK SMILES IDX 57 85 60 86 54 87 55 88 58 89 56 90
REMARK H PARENT 80 43 48 54
REMARK Flexibility Score: inf
ROOT
ATOM      1  O   UNL A   1      32.484  31.516  26.869  1.00  0.00    -0.374 OA
ENDROOT
BRANCH   1   2
ATOM      2  C   UNL A   1      33.439  30.705  27.527  1.00  0.00     0.202 C 
BRANCH   2   3
ATOM      3  C   UNL A   1      33.693  29.587  26.572  1.00  0.00     0.261 C 
BRANCH   3   4
ATOM      4  O   UNL A   1      33.431  28.344  27.193  1.00  0.00    -0.463 OA
BRANCH   4   5
ATOM      5  C   UNL A   1      32.175  27.806  27.112  1.00  0.00     0.313 C 
ATOM      6  O   UNL A   1      31.291  27.877  27.945  1.00  0.00    -0.252 OA
BRANCH   5   7
ATOM      7  C   UNL A   1      32.094  27.059  25.785  1.00  0.00     0.129 C 
BRANCH   7   8
ATOM      8  C   UNL A   1      30.994  27.734  24.951  1.00  0.00    -0.034 A 
ATOM      9  C   UNL A   1      28.350  29.469  21.993  1.00  0.00     0.044 C 
ATOM     10  C   UNL A   1      29.251  28.871  23.032  1.00  0.00    -0.051 A 
ATOM     11  C   UNL A   1      29.108  27.536  23.425  1.00  0.00     0.004 A 
ATOM     12  C   UNL A   1      30.225  29.655  23.653  1.00  0.00     0.004 A 
ATOM     13  C   UNL A   1      29.981  26.966  24.362  1.00  0.00     0.005 A 
ATOM     14  C   UNL A   1      31.066  29.099  24.617  1.00  0.00     0.005 A 
ENDBRANCH   7   8
BRANCH   7  15
ATOM     15  C   UNL A   1      31.853  25.544  26.067  1.00  0.00     0.023 C 
BRANCH  15  16
ATOM     16  C   UNL A   1      32.842  24.562  25.392  1.00  0.00    -0.010 C 
ATOM     17  C   UNL A   1      32.823  24.523  23.862  1.00  0.00     0.003 C 
ATOM     18  C   UNL A   1      34.278  25.004  25.663  1.00  0.00     0.003 C 
ATOM     19  C   UNL A   1      34.228  24.152  23.395  1.00  0.00     0.000 C 
ATOM     20  C   UNL A   1      35.126  24.312  24.609  1.00  0.00     0.000 C 
ENDBRANCH  15  16
ENDBRANCH   7  15
ENDBRANCH   5   7
ENDBRANCH   4   5
ENDBRANCH   3   4
ENDBRANCH   2   3
ENDBRANCH   1   2
BRANCH   1  21
ATOM     21  C   UNL A   1      32.203  32.755  27.470  1.00  0.00     0.202 C 
BRANCH  21  22
ATOM     22  C   UNL A   1      33.436  33.550  27.877  1.00  0.00     0.261 C 
BRANCH  22  23
ATOM     23  O   UNL A   1      33.308  33.956  29.255  1.00  0.00    -0.460 OA
BRANCH  23  24
ATOM     24  C   UNL A   1      34.478  34.019  29.943  1.00  0.00     0.338 C 
ATOM     25  O   UNL A   1      34.882  35.015  30.538  1.00  0.00    -0.246 OA
BRANCH  24  26
ATOM     26  C   UNL A   1      35.338  32.836  29.637  1.00  0.00     0.060 A 
ATOM     27  C   UNL A   1      35.351  31.738  30.515  1.00  0.00     0.016 A 
ATOM     28  C   UNL A   1      36.387  33.006  28.744  1.00  0.00     0.016 A 
ATOM     29  C   UNL A   1      36.504  30.944  30.638  1.00  0.00     0.010 A 
ATOM     30  C   UNL A   1      37.572  32.351  29.014  1.00  0.00     0.010 A 
ATOM     31  C   UNL A   1      37.659  31.326  29.970  1.00  0.00    -0.014 A 
BRANCH  31  32
ATOM     32  C   UNL A   1      39.013  30.781  30.154  1.00  0.00     0.031 A 
ATOM     33  C   UNL A   1      39.293  29.459  29.531  1.00  0.00     0.074 A 
ATOM     34  C   UNL A   1      40.059  31.491  30.661  1.00  0.00     0.049 A 
ATOM     35  N   UNL A   1      40.370  28.795  29.736  1.00  0.00    -0.248 NA
ATOM     36  C   UNL A   1      38.377  28.745  28.646  1.00  0.00     0.031 C 
ATOM     37  C   UNL A   1      41.493  31.227  30.476  1.00  0.00     0.029 A 
ATOM     38  N   UNL A   1      40.080  32.624  31.496  1.00  0.00    -0.354 N 
ATOM     39  C   UNL A   1      40.446  27.774  28.822  1.00  0.00     0.074 A 
ATOM     40  C   UNL A   1      39.144  27.739  28.216  1.00  0.00     0.031 C 
ATOM     41  C   UNL A   1      42.197  31.882  31.414  1.00  0.00     0.029 A 
ATOM     42  C   UNL A   1      41.237  32.514  32.293  1.00  0.00     0.049 A 
ATOM     43  H   UNL A   1      39.418  33.352  31.518  1.00  0.00     0.167 HD
ATOM     44  C   UNL A   1      41.656  27.164  28.668  1.00  0.00     0.037 A 
ATOM     45  C   UNL A   1      41.166  32.462  33.647  1.00  0.00     0.037 A 
ATOM     46  C   UNL A   1      42.599  27.660  29.687  1.00  0.00     0.049 A 
ATOM     47  C   UNL A   1      41.765  31.176  34.128  1.00  0.00     0.074 A 
ATOM     48  C   UNL A   1      43.701  28.499  29.669  1.00  0.00     0.029 A 
ATOM     49  N   UNL A   1      42.248  27.525  31.030  1.00  0.00    -0.354 N 
ATOM     50  N   UNL A   1      41.958  30.157  33.334  1.00  0.00    -0.248 NA
ATOM     51  C   UNL A   1      42.269  30.939  35.469  1.00  0.00     0.031 C 
ATOM     52  C   UNL A   1      44.023  28.833  31.020  1.00  0.00     0.029 A 
ATOM     53  C   UNL A   1      43.131  28.182  31.860  1.00  0.00     0.049 A 
ATOM     54  H   UNL A   1      41.463  27.022  31.347  1.00  0.00     0.167 HD
ATOM     55  C   UNL A   1      42.656  29.179  33.981  1.00  0.00     0.074 A 
ATOM     56  C   UNL A   1      42.808  29.714  35.324  1.00  0.00     0.031 C 
ATOM     57  C   UNL A   1      43.028  28.039  33.317  1.00  0.00     0.037 A 
BRANCH  44  58
ATOM     58  C   UNL A   1      42.063  26.216  27.552  1.00  0.00     0.064 A 
ATOM     59  C   UNL A   1      41.460  24.940  27.451  1.00  0.00     0.173 A 
ATOM     60  C   UNL A   1      43.047  26.458  26.569  1.00  0.00     0.173 A 
ATOM     61  F   UNL A   1      40.491  24.554  28.291  1.00  0.00    -0.203 F 
ATOM     62  C   UNL A   1      41.828  23.999  26.480  1.00  0.00     0.198 A 
ATOM     63  C   UNL A   1      43.415  25.518  25.601  1.00  0.00     0.198 A 
ATOM     64  F   UNL A   1      43.699  27.614  26.472  1.00  0.00    -0.203 F 
ATOM     65  F   UNL A   1      41.222  22.805  26.450  1.00  0.00    -0.200 F 
ATOM     66  C   UNL A   1      42.809  24.287  25.556  1.00  0.00     0.200 A 
ATOM     67  F   UNL A   1      44.369  25.829  24.710  1.00  0.00    -0.200 F 
ATOM     68  F   UNL A   1      43.162  23.389  24.627  1.00  0.00    -0.200 F 
ENDBRANCH  44  58
BRANCH  45  69
ATOM     69  C   UNL A   1      40.030  33.284  34.157  1.00  0.00     0.064 A 
ATOM     70  C   UNL A   1      38.990  32.549  34.778  1.00  0.00     0.173 A 
ATOM     71  C   UNL A   1      40.231  34.598  34.602  1.00  0.00     0.173 A 
ATOM     72  F   UNL A   1      38.739  31.289  34.385  1.00  0.00    -0.203 F 
ATOM     73  C   UNL A   1      38.356  33.017  35.928  1.00  0.00     0.198 A 
ATOM     74  C   UNL A   1      39.558  35.077  35.736  1.00  0.00     0.198 A 
ATOM     75  F   UNL A   1      41.200  35.352  34.064  1.00  0.00    -0.203 F 
ATOM     76  F   UNL A   1      37.529  32.211  36.612  1.00  0.00    -0.200 F 
ATOM     77  C   UNL A   1      38.678  34.262  36.435  1.00  0.00     0.200 A 
ATOM     78  F   UNL A   1      39.853  36.290  36.226  1.00  0.00    -0.200 F 
ATOM     79  F   UNL A   1      38.194  34.649  37.624  1.00  0.00    -0.200 F 
ENDBRANCH  45  69
BRANCH  57  80
ATOM     80  C   UNL A   1      43.351  26.682  33.929  1.00  0.00     0.064 A 
ATOM     81  C   UNL A   1      42.460  25.896  34.673  1.00  0.00     0.173 A 
ATOM     82  C   UNL A   1      44.588  26.038  33.634  1.00  0.00     0.173 A 
ATOM     83  F   UNL A   1      41.237  26.315  34.999  1.00  0.00    -0.203 F 
ATOM     84  C   UNL A   1      42.771  24.597  35.089  1.00  0.00     0.198 A 
ATOM     85  C   UNL A   1      44.865  24.720  33.988  1.00  0.00     0.198 A 
ATOM     86  F   UNL A   1      45.577  26.642  32.964  1.00  0.00    -0.203 F 
ATOM     87  F   UNL A   1      41.882  23.914  35.824  1.00  0.00    -0.200 F 
ATOM     88  C   UNL A   1      43.959  24.000  34.725  1.00  0.00     0.200 A 
ATOM     89  F   UNL A   1      46.011  24.153  33.583  1.00  0.00    -0.200 F 
ATOM     90  F   UNL A   1      44.222  22.734  35.073  1.00  0.00    -0.200 F 
ENDBRANCH  57  80
ENDBRANCH  31  32
ENDBRANCH  24  26
ENDBRANCH  23  24
ENDBRANCH  22  23
ENDBRANCH  21  22
ENDBRANCH   1  21
TORSDOF 17
ENDMDL
