MODEL 1
REMARK VINA RESULT:     -10.7      0.000      0.000
REMARK SMILES Cc1cc(C)c2c(c1)C=C(C(=O)OCCOCCOC(=O)c1ccc(-c3c4nc(c(-c5c(F)c(F)c(F)c(F)c5F)c5ccc([nH]5)c(-c5c(F)c(F)c(F)c(F)c5F)c5nc(c(-c6c(F)c(F)c(F)c(F)c6F)c6ccc3[nH]6)C=C5)C=C4)cc1)[C@@H](C(F)(F)F)O2
REMARK SMILES IDX 17 1 16 2 15 3 14 4 13 5 11 6 12 7 10 8 1 9 2 10 3 11 8 12
REMARK SMILES IDX 4 13 7 14 5 15 6 16 9 17 90 18 85 19 86 20 87 21 88 22 89 23
REMARK SMILES IDX 18 24 19 25 20 26 21 27 22 28 23 29 84 30 24 31 83 32 25 33
REMARK SMILES IDX 26 34 27 35 77 36 28 37 82 38 76 39 78 40 29 41 81 42 75 43
REMARK SMILES IDX 74 44 30 46 62 47 42 48 61 49 43 50 46 51 60 52 79 53 44 54
REMARK SMILES IDX 45 55 59 57 80 58 47 59 31 60 32 61 40 62 33 63 34 64 38 65
REMARK SMILES IDX 41 66 35 67 36 68 39 69 37 70 63 71 64 72 72 73 65 74 66 75
REMARK SMILES IDX 70 76 73 77 67 78 68 79 71 80 69 81 48 82 49 83 57 84 50 85
REMARK SMILES IDX 51 86 55 87 58 88 52 89 53 90 56 91 54 92
REMARK H PARENT 78 45 46 56
REMARK Flexibility Score: inf
ROOT
ATOM      1  C   UNL A   1      41.904  19.231  26.599  1.00  0.00     0.202 C 
ENDROOT
BRANCH   1   2
ATOM      2  O   UNL A   1      42.513  18.256  25.750  1.00  0.00    -0.374 OA
BRANCH   2   3
ATOM      3  C   UNL A   1      43.878  18.454  25.385  1.00  0.00     0.202 C 
BRANCH   3   4
ATOM      4  C   UNL A   1      44.168  19.647  24.471  1.00  0.00     0.261 C 
BRANCH   4   5
ATOM      5  O   UNL A   1      44.943  20.648  25.150  1.00  0.00    -0.460 OA
BRANCH   5   6
ATOM      6  C   UNL A   1      44.261  21.778  25.453  1.00  0.00     0.338 C 
ATOM      7  O   UNL A   1      43.140  22.079  25.073  1.00  0.00    -0.246 OA
BRANCH   6   8
ATOM      8  C   UNL A   1      45.022  22.577  26.431  1.00  0.00     0.087 C 
ATOM      9  C   UNL A   1      44.152  25.477  31.782  1.00  0.00     0.044 C 
ATOM     10  C   UNL A   1      44.919  25.018  30.575  1.00  0.00    -0.050 A 
ATOM     11  C   UNL A   1      46.165  25.579  30.267  1.00  0.00     0.010 A 
ATOM     12  C   UNL A   1      44.357  24.091  29.696  1.00  0.00     0.015 A 
ATOM     13  C   UNL A   1      46.864  25.195  29.111  1.00  0.00    -0.008 A 
ATOM     14  C   UNL A   1      45.034  23.712  28.532  1.00  0.00     0.018 A 
ATOM     15  C   UNL A   1      48.189  25.830  28.793  1.00  0.00     0.048 C 
ATOM     16  C   UNL A   1      46.296  24.244  28.250  1.00  0.00     0.130 A 
ATOM     17  C   UNL A   1      44.389  22.826  27.583  1.00  0.00     0.027 C 
ATOM     18  O   UNL A   1      47.026  23.877  27.152  1.00  0.00    -0.475 OA
ATOM     19  C   UNL A   1      46.397  23.085  26.107  1.00  0.00     0.316 C 
BRANCH  19  20
ATOM     20  C   UNL A   1      46.437  23.893  24.801  1.00  0.00     0.430 C 
ATOM     21  F   UNL A   1      47.367  24.877  24.861  1.00  0.00    -0.167 F 
ATOM     22  F   UNL A   1      46.768  23.117  23.742  1.00  0.00    -0.167 F 
ATOM     23  F   UNL A   1      45.249  24.473  24.522  1.00  0.00    -0.167 F 
ENDBRANCH  19  20
ENDBRANCH   6   8
ENDBRANCH   5   6
ENDBRANCH   4   5
ENDBRANCH   3   4
ENDBRANCH   2   3
ENDBRANCH   1   2
BRANCH   1  24
ATOM     24  C   UNL A   1      40.570  19.819  26.125  1.00  0.00     0.261 C 
BRANCH  24  25
ATOM     25  O   UNL A   1      40.086  20.844  27.011  1.00  0.00    -0.460 OA
BRANCH  25  26
ATOM     26  C   UNL A   1      39.416  21.848  26.399  1.00  0.00     0.338 C 
ATOM     27  O   UNL A   1      38.524  21.749  25.568  1.00  0.00    -0.246 OA
BRANCH  26  28
ATOM     28  C   UNL A   1      39.784  23.144  26.992  1.00  0.00     0.060 A 
ATOM     29  C   UNL A   1      39.230  24.297  26.418  1.00  0.00     0.016 A 
ATOM     30  C   UNL A   1      40.736  23.241  28.008  1.00  0.00     0.016 A 
ATOM     31  C   UNL A   1      39.675  25.555  26.814  1.00  0.00     0.010 A 
ATOM     32  C   UNL A   1      41.194  24.505  28.394  1.00  0.00     0.010 A 
ATOM     33  C   UNL A   1      40.697  25.661  27.765  1.00  0.00    -0.014 A 
BRANCH  33  34
ATOM     34  C   UNL A   1      41.382  26.962  27.951  1.00  0.00     0.031 A 
ATOM     35  C   UNL A   1      40.665  28.050  28.705  1.00  0.00     0.074 A 
ATOM     36  C   UNL A   1      42.632  27.160  27.504  1.00  0.00     0.049 A 
ATOM     37  N   UNL A   1      41.037  29.281  28.943  1.00  0.00    -0.248 NA
ATOM     38  C   UNL A   1      39.353  27.696  29.273  1.00  0.00     0.031 C 
ATOM     39  C   UNL A   1      43.454  26.161  26.826  1.00  0.00     0.029 A 
ATOM     40  N   UNL A   1      43.429  28.276  27.558  1.00  0.00    -0.354 N 
ATOM     41  C   UNL A   1      40.009  29.847  29.686  1.00  0.00     0.074 A 
ATOM     42  C   UNL A   1      38.986  28.836  29.838  1.00  0.00     0.031 C 
ATOM     43  C   UNL A   1      44.641  26.711  26.519  1.00  0.00     0.029 A 
ATOM     44  C   UNL A   1      44.647  28.109  26.947  1.00  0.00     0.049 A 
ATOM     45  H   UNL A   1      43.153  29.115  27.991  1.00  0.00     0.167 HD
ATOM     46  C   UNL A   1      39.930  31.095  30.202  1.00  0.00     0.037 A 
ATOM     47  C   UNL A   1      45.640  28.995  26.740  1.00  0.00     0.037 A 
ATOM     48  C   UNL A   1      40.945  32.104  30.042  1.00  0.00     0.049 A 
ATOM     49  C   UNL A   1      45.486  30.409  27.236  1.00  0.00     0.074 A 
ATOM     50  C   UNL A   1      40.949  33.407  30.509  1.00  0.00     0.029 A 
ATOM     51  N   UNL A   1      42.138  31.917  29.361  1.00  0.00    -0.354 N 
ATOM     52  N   UNL A   1      44.500  30.947  27.914  1.00  0.00    -0.248 NA
ATOM     53  C   UNL A   1      46.582  31.341  26.933  1.00  0.00     0.031 C 
ATOM     54  C   UNL A   1      42.128  34.021  30.074  1.00  0.00     0.029 A 
ATOM     55  C   UNL A   1      42.879  33.088  29.377  1.00  0.00     0.049 A 
ATOM     56  H   UNL A   1      42.416  31.078  28.929  1.00  0.00     0.167 HD
ATOM     57  C   UNL A   1      44.862  32.269  28.131  1.00  0.00     0.074 A 
ATOM     58  C   UNL A   1      46.167  32.449  27.530  1.00  0.00     0.031 C 
ATOM     59  C   UNL A   1      44.174  33.249  28.768  1.00  0.00     0.037 A 
BRANCH  46  60
ATOM     60  C   UNL A   1      38.693  31.451  30.971  1.00  0.00     0.064 A 
ATOM     61  C   UNL A   1      37.562  31.983  30.335  1.00  0.00     0.173 A 
ATOM     62  C   UNL A   1      38.623  31.221  32.353  1.00  0.00     0.173 A 
ATOM     63  F   UNL A   1      37.586  32.239  29.017  1.00  0.00    -0.203 F 
ATOM     64  C   UNL A   1      36.410  32.282  31.056  1.00  0.00     0.198 A 
ATOM     65  C   UNL A   1      37.461  31.498  33.067  1.00  0.00     0.198 A 
ATOM     66  F   UNL A   1      39.678  30.715  33.008  1.00  0.00    -0.203 F 
ATOM     67  F   UNL A   1      35.351  32.821  30.434  1.00  0.00    -0.200 F 
ATOM     68  C   UNL A   1      36.357  32.033  32.419  1.00  0.00     0.200 A 
ATOM     69  F   UNL A   1      37.408  31.248  34.383  1.00  0.00    -0.200 F 
ATOM     70  F   UNL A   1      35.243  32.311  33.110  1.00  0.00    -0.200 F 
ENDBRANCH  46  60
BRANCH  47  71
ATOM     71  C   UNL A   1      46.867  28.574  26.016  1.00  0.00     0.064 A 
ATOM     72  C   UNL A   1      48.110  28.536  26.663  1.00  0.00     0.173 A 
ATOM     73  C   UNL A   1      46.824  28.206  24.663  1.00  0.00     0.173 A 
ATOM     74  F   UNL A   1      48.206  28.908  27.948  1.00  0.00    -0.203 F 
ATOM     75  C   UNL A   1      49.264  28.154  25.984  1.00  0.00     0.198 A 
ATOM     76  C   UNL A   1      47.974  27.799  23.991  1.00  0.00     0.198 A 
ATOM     77  F   UNL A   1      45.660  28.232  23.997  1.00  0.00    -0.203 F 
ATOM     78  F   UNL A   1      50.445  28.161  26.615  1.00  0.00    -0.200 F 
ATOM     79  C   UNL A   1      49.194  27.777  24.650  1.00  0.00     0.200 A 
ATOM     80  F   UNL A   1      47.901  27.428  22.705  1.00  0.00    -0.200 F 
ATOM     81  F   UNL A   1      50.303  27.403  23.998  1.00  0.00    -0.200 F 
ENDBRANCH  47  71
BRANCH  59  82
ATOM     82  C   UNL A   1      44.823  34.599  28.860  1.00  0.00     0.064 A 
ATOM     83  C   UNL A   1      45.678  34.930  29.922  1.00  0.00     0.173 A 
ATOM     84  C   UNL A   1      44.625  35.557  27.853  1.00  0.00     0.173 A 
ATOM     85  F   UNL A   1      45.890  34.054  30.915  1.00  0.00    -0.203 F 
ATOM     86  C   UNL A   1      46.291  36.178  29.984  1.00  0.00     0.198 A 
ATOM     87  C   UNL A   1      45.263  36.792  27.904  1.00  0.00     0.198 A 
ATOM     88  F   UNL A   1      43.824  35.286  26.811  1.00  0.00    -0.203 F 
ATOM     89  F   UNL A   1      47.070  36.488  31.031  1.00  0.00    -0.200 F 
ATOM     90  C   UNL A   1      46.089  37.105  28.973  1.00  0.00     0.200 A 
ATOM     91  F   UNL A   1      45.077  37.682  26.919  1.00  0.00    -0.200 F 
ATOM     92  F   UNL A   1      46.686  38.303  29.031  1.00  0.00    -0.200 F 
ENDBRANCH  59  82
ENDBRANCH  33  34
ENDBRANCH  26  28
ENDBRANCH  25  26
ENDBRANCH  24  25
ENDBRANCH   1  24
TORSDOF 15
ENDMDL
MODEL 2
REMARK VINA RESULT:     -10.6      5.332     11.524
REMARK SMILES Cc1cc(C)c2c(c1)C=C(C(=O)OCCOCCOC(=O)c1ccc(-c3c4nc(c(-c5c(F)c(F)c(F)c(F)c5F)c5ccc([nH]5)c(-c5c(F)c(F)c(F)c(F)c5F)c5nc(c(-c6c(F)c(F)c(F)c(F)c6F)c6ccc3[nH]6)C=C5)C=C4)cc1)[C@@H](C(F)(F)F)O2
REMARK SMILES IDX 17 1 16 2 15 3 14 4 13 5 11 6 12 7 10 8 1 9 2 10 3 11 8 12
REMARK SMILES IDX 4 13 7 14 5 15 6 16 9 17 90 18 85 19 86 20 87 21 88 22 89 23
REMARK SMILES IDX 18 24 19 25 20 26 21 27 22 28 23 29 84 30 24 31 83 32 25 33
REMARK SMILES IDX 26 34 27 35 77 36 28 37 82 38 76 39 78 40 29 41 81 42 75 43
REMARK SMILES IDX 74 44 30 46 62 47 42 48 61 49 43 50 46 51 60 52 79 53 44 54
REMARK SMILES IDX 45 55 59 57 80 58 47 59 31 60 32 61 40 62 33 63 34 64 38 65
REMARK SMILES IDX 41 66 35 67 36 68 39 69 37 70 63 71 64 72 72 73 65 74 66 75
REMARK SMILES IDX 70 76 73 77 67 78 68 79 71 80 69 81 48 82 49 83 57 84 50 85
REMARK SMILES IDX 51 86 55 87 58 88 52 89 53 90 56 91 54 92
REMARK H PARENT 78 45 46 56
REMARK Flexibility Score: inf
ROOT
ATOM      1  C   UNL A   1      31.565  28.846  25.397  1.00  0.00     0.202 C 
ENDROOT
BRANCH   1   2
ATOM      2  O   UNL A   1      30.865  28.621  24.171  1.00  0.00    -0.374 OA
BRANCH   2   3
ATOM      3  C   UNL A   1      31.635  28.263  23.024  1.00  0.00     0.202 C 
BRANCH   3   4
ATOM      4  C   UNL A   1      31.020  27.211  22.098  1.00  0.00     0.261 C 
BRANCH   4   5
ATOM      5  O   UNL A   1      31.470  25.890  22.438  1.00  0.00    -0.460 OA
BRANCH   5   6
ATOM      6  C   UNL A   1      32.664  25.546  21.903  1.00  0.00     0.338 C 
ATOM      7  O   UNL A   1      33.245  26.111  20.989  1.00  0.00    -0.246 OA
BRANCH   6   8
ATOM      8  C   UNL A   1      33.255  24.432  22.666  1.00  0.00     0.087 C 
ATOM      9  C   UNL A   1      32.164  18.505  23.883  1.00  0.00     0.044 C 
ATOM     10  C   UNL A   1      32.892  19.815  23.971  1.00  0.00    -0.050 A 
ATOM     11  C   UNL A   1      33.869  20.024  24.952  1.00  0.00     0.010 A 
ATOM     12  C   UNL A   1      32.539  20.873  23.130  1.00  0.00     0.015 A 
ATOM     13  C   UNL A   1      34.516  21.264  25.076  1.00  0.00    -0.008 A 
ATOM     14  C   UNL A   1      33.163  22.119  23.254  1.00  0.00     0.018 A 
ATOM     15  C   UNL A   1      35.544  21.467  26.153  1.00  0.00     0.048 C 
ATOM     16  C   UNL A   1      34.166  22.310  24.208  1.00  0.00     0.130 A 
ATOM     17  C   UNL A   1      32.710  23.231  22.440  1.00  0.00     0.027 C 
ATOM     18  O   UNL A   1      34.844  23.490  24.345  1.00  0.00    -0.475 OA
ATOM     19  C   UNL A   1      34.368  24.673  23.645  1.00  0.00     0.316 C 
BRANCH  19  20
ATOM     20  C   UNL A   1      34.017  25.742  24.689  1.00  0.00     0.430 C 
ATOM     21  F   UNL A   1      34.820  25.648  25.778  1.00  0.00    -0.167 F 
ATOM     22  F   UNL A   1      34.181  26.994  24.201  1.00  0.00    -0.167 F 
ATOM     23  F   UNL A   1      32.739  25.638  25.117  1.00  0.00    -0.167 F 
ENDBRANCH  19  20
ENDBRANCH   6   8
ENDBRANCH   5   6
ENDBRANCH   4   5
ENDBRANCH   3   4
ENDBRANCH   2   3
ENDBRANCH   1   2
BRANCH   1  24
ATOM     24  C   UNL A   1      31.805  30.307  25.793  1.00  0.00     0.261 C 
BRANCH  24  25
ATOM     25  O   UNL A   1      32.433  30.421  27.083  1.00  0.00    -0.460 OA
BRANCH  25  26
ATOM     26  C   UNL A   1      33.158  31.549  27.260  1.00  0.00     0.338 C 
ATOM     27  O   UNL A   1      32.754  32.704  27.239  1.00  0.00    -0.246 OA
BRANCH  26  28
ATOM     28  C   UNL A   1      34.534  31.215  27.664  1.00  0.00     0.060 A 
ATOM     29  C   UNL A   1      34.825  29.865  27.906  1.00  0.00     0.016 A 
ATOM     30  C   UNL A   1      35.485  32.204  27.913  1.00  0.00     0.016 A 
ATOM     31  C   UNL A   1      36.049  29.505  28.461  1.00  0.00     0.010 A 
ATOM     32  C   UNL A   1      36.710  31.843  28.485  1.00  0.00     0.010 A 
ATOM     33  C   UNL A   1      36.975  30.499  28.802  1.00  0.00    -0.014 A 
BRANCH  33  34
ATOM     34  C   UNL A   1      38.125  30.151  29.669  1.00  0.00     0.031 A 
ATOM     35  C   UNL A   1      39.180  29.226  29.127  1.00  0.00     0.074 A 
ATOM     36  C   UNL A   1      38.257  30.683  30.896  1.00  0.00     0.049 A 
ATOM     37  N   UNL A   1      40.242  28.737  29.715  1.00  0.00    -0.248 NA
ATOM     38  C   UNL A   1      39.018  28.800  27.726  1.00  0.00     0.031 C 
ATOM     39  C   UNL A   1      37.341  31.645  31.501  1.00  0.00     0.029 A 
ATOM     40  N   UNL A   1      39.222  30.485  31.851  1.00  0.00    -0.354 N 
ATOM     41  C   UNL A   1      40.871  27.950  28.760  1.00  0.00     0.074 A 
ATOM     42  C   UNL A   1      40.063  28.002  27.563  1.00  0.00     0.031 C 
ATOM     43  C   UNL A   1      37.784  31.951  32.732  1.00  0.00     0.029 A 
ATOM     44  C   UNL A   1      38.993  31.179  33.013  1.00  0.00     0.049 A 
ATOM     45  H   UNL A   1      40.002  29.900  31.716  1.00  0.00     0.167 HD
ATOM     46  C   UNL A   1      42.026  27.252  28.872  1.00  0.00     0.037 A 
ATOM     47  C   UNL A   1      39.674  31.170  34.175  1.00  0.00     0.037 A 
ATOM     48  C   UNL A   1      42.825  27.194  30.067  1.00  0.00     0.049 A 
ATOM     49  C   UNL A   1      40.901  30.307  34.307  1.00  0.00     0.074 A 
ATOM     50  C   UNL A   1      44.001  26.497  30.287  1.00  0.00     0.029 A 
ATOM     51  N   UNL A   1      42.526  27.860  31.246  1.00  0.00    -0.354 N 
ATOM     52  N   UNL A   1      41.477  29.542  33.410  1.00  0.00    -0.248 NA
ATOM     53  C   UNL A   1      41.569  30.301  35.616  1.00  0.00     0.031 C 
ATOM     54  C   UNL A   1      44.391  26.709  31.613  1.00  0.00     0.029 A 
ATOM     55  C   UNL A   1      43.485  27.575  32.205  1.00  0.00     0.049 A 
ATOM     56  H   UNL A   1      41.748  28.446  31.382  1.00  0.00     0.167 HD
ATOM     57  C   UNL A   1      42.579  28.979  34.039  1.00  0.00     0.074 A 
ATOM     58  C   UNL A   1      42.604  29.504  35.389  1.00  0.00     0.031 C 
ATOM     59  C   UNL A   1      43.489  28.103  33.545  1.00  0.00     0.037 A 
BRANCH  46  60
ATOM     60  C   UNL A   1      42.485  26.476  27.674  1.00  0.00     0.064 A 
ATOM     61  C   UNL A   1      43.428  27.001  26.778  1.00  0.00     0.173 A 
ATOM     62  C   UNL A   1      42.007  25.178  27.440  1.00  0.00     0.173 A 
ATOM     63  F   UNL A   1      43.901  28.246  26.948  1.00  0.00    -0.203 F 
ATOM     64  C   UNL A   1      43.868  26.259  25.686  1.00  0.00     0.198 A 
ATOM     65  C   UNL A   1      42.467  24.429  26.361  1.00  0.00     0.198 A 
ATOM     66  F   UNL A   1      41.104  24.631  28.267  1.00  0.00    -0.203 F 
ATOM     67  F   UNL A   1      44.744  26.792  24.823  1.00  0.00    -0.200 F 
ATOM     68  C   UNL A   1      43.393  24.972  25.481  1.00  0.00     0.200 A 
ATOM     69  F   UNL A   1      42.015  23.182  26.171  1.00  0.00    -0.200 F 
ATOM     70  F   UNL A   1      43.826  24.254  24.436  1.00  0.00    -0.200 F 
ENDBRANCH  46  60
BRANCH  47  71
ATOM     71  C   UNL A   1      39.202  32.000  35.313  1.00  0.00     0.064 A 
ATOM     72  C   UNL A   1      39.547  33.354  35.411  1.00  0.00     0.173 A 
ATOM     73  C   UNL A   1      38.403  31.454  36.329  1.00  0.00     0.173 A 
ATOM     74  F   UNL A   1      40.335  33.913  34.480  1.00  0.00    -0.203 F 
ATOM     75  C   UNL A   1      39.117  34.131  36.484  1.00  0.00     0.198 A 
ATOM     76  C   UNL A   1      37.952  32.237  37.389  1.00  0.00     0.198 A 
ATOM     77  F   UNL A   1      38.051  30.160  36.285  1.00  0.00    -0.203 F 
ATOM     78  F   UNL A   1      39.491  35.414  36.573  1.00  0.00    -0.200 F 
ATOM     79  C   UNL A   1      38.312  33.573  37.468  1.00  0.00     0.200 A 
ATOM     80  F   UNL A   1      37.168  31.698  38.332  1.00  0.00    -0.200 F 
ATOM     81  F   UNL A   1      37.893  34.323  38.497  1.00  0.00    -0.200 F 
ENDBRANCH  47  71
BRANCH  59  82
ATOM     82  C   UNL A   1      44.594  27.666  34.462  1.00  0.00     0.064 A 
ATOM     83  C   UNL A   1      45.759  28.430  34.621  1.00  0.00     0.173 A 
ATOM     84  C   UNL A   1      44.467  26.495  35.225  1.00  0.00     0.173 A 
ATOM     85  F   UNL A   1      45.933  29.551  33.905  1.00  0.00    -0.203 F 
ATOM     86  C   UNL A   1      46.767  28.025  35.491  1.00  0.00     0.198 A 
ATOM     87  C   UNL A   1      45.464  26.108  36.115  1.00  0.00     0.198 A 
ATOM     88  F   UNL A   1      43.368  25.733  35.116  1.00  0.00    -0.203 F 
ATOM     89  F   UNL A   1      47.891  28.748  35.594  1.00  0.00    -0.200 F 
ATOM     90  C   UNL A   1      46.617  26.869  36.243  1.00  0.00     0.200 A 
ATOM     91  F   UNL A   1      45.311  24.998  36.850  1.00  0.00    -0.200 F 
ATOM     92  F   UNL A   1      47.585  26.485  37.085  1.00  0.00    -0.200 F 
ENDBRANCH  59  82
ENDBRANCH  33  34
ENDBRANCH  26  28
ENDBRANCH  25  26
ENDBRANCH  24  25
ENDBRANCH   1  24
TORSDOF 15
ENDMDL
MODEL 3
REMARK VINA RESULT:     -10.5      6.367     12.610
REMARK SMILES Cc1cc(C)c2c(c1)C=C(C(=O)OCCOCCOC(=O)c1ccc(-c3c4nc(c(-c5c(F)c(F)c(F)c(F)c5F)c5ccc([nH]5)c(-c5c(F)c(F)c(F)c(F)c5F)c5nc(c(-c6c(F)c(F)c(F)c(F)c6F)c6ccc3[nH]6)C=C5)C=C4)cc1)[C@@H](C(F)(F)F)O2
REMARK SMILES IDX 17 1 16 2 15 3 14 4 13 5 11 6 12 7 10 8 1 9 2 10 3 11 8 12
REMARK SMILES IDX 4 13 7 14 5 15 6 16 9 17 90 18 85 19 86 20 87 21 88 22 89 23
REMARK SMILES IDX 18 24 19 25 20 26 21 27 22 28 23 29 84 30 24 31 83 32 25 33
REMARK SMILES IDX 26 34 27 35 77 36 28 37 82 38 76 39 78 40 29 41 81 42 75 43
REMARK SMILES IDX 74 44 30 46 62 47 42 48 61 49 43 50 46 51 60 52 79 53 44 54
REMARK SMILES IDX 45 55 59 57 80 58 47 59 31 60 32 61 40 62 33 63 34 64 38 65
REMARK SMILES IDX 41 66 35 67 36 68 39 69 37 70 63 71 64 72 72 73 65 74 66 75
REMARK SMILES IDX 70 76 73 77 67 78 68 79 71 80 69 81 48 82 49 83 57 84 50 85
REMARK SMILES IDX 51 86 55 87 58 88 52 89 53 90 56 91 54 92
REMARK H PARENT 78 45 46 56
REMARK Flexibility Score: inf
ROOT
ATOM      1  C   UNL A   1      31.887  30.143  25.572  1.00  0.00     0.202 C 
ENDROOT
BRANCH   1   2
ATOM      2  O   UNL A   1      32.544  29.028  26.179  1.00  0.00    -0.374 OA
BRANCH   2   3
ATOM      3  C   UNL A   1      33.804  28.630  25.644  1.00  0.00     0.202 C 
BRANCH   3   4
ATOM      4  C   UNL A   1      33.914  27.176  25.178  1.00  0.00     0.261 C 
BRANCH   4   5
ATOM      5  O   UNL A   1      33.503  27.035  23.808  1.00  0.00    -0.460 OA
BRANCH   5   6
ATOM      6  C   UNL A   1      32.599  26.051  23.590  1.00  0.00     0.338 C 
ATOM      7  O   UNL A   1      32.803  24.848  23.638  1.00  0.00    -0.246 OA
BRANCH   6   8
ATOM      8  C   UNL A   1      31.259  26.634  23.395  1.00  0.00     0.087 C 
ATOM      9  C   UNL A   1      28.678  31.881  21.497  1.00  0.00     0.044 C 
ATOM     10  C   UNL A   1      28.709  30.481  22.039  1.00  0.00    -0.050 A 
ATOM     11  C   UNL A   1      27.562  29.910  22.603  1.00  0.00     0.010 A 
ATOM     12  C   UNL A   1      29.907  29.765  22.067  1.00  0.00     0.015 A 
ATOM     13  C   UNL A   1      27.594  28.621  23.161  1.00  0.00    -0.008 A 
ATOM     14  C   UNL A   1      29.959  28.488  22.635  1.00  0.00     0.018 A 
ATOM     15  C   UNL A   1      26.354  28.042  23.780  1.00  0.00     0.048 C 
ATOM     16  C   UNL A   1      28.802  27.905  23.160  1.00  0.00     0.130 A 
ATOM     17  C   UNL A   1      31.233  27.804  22.745  1.00  0.00     0.027 C 
ATOM     18  O   UNL A   1      28.780  26.642  23.686  1.00  0.00    -0.475 OA
ATOM     19  C   UNL A   1      30.036  25.948  23.931  1.00  0.00     0.316 C 
BRANCH  19  20
ATOM     20  C   UNL A   1      30.135  25.649  25.433  1.00  0.00     0.430 C 
ATOM     21  F   UNL A   1      28.910  25.633  26.013  1.00  0.00    -0.167 F 
ATOM     22  F   UNL A   1      30.685  24.434  25.668  1.00  0.00    -0.167 F 
ATOM     23  F   UNL A   1      30.883  26.565  26.089  1.00  0.00    -0.167 F 
ENDBRANCH  19  20
ENDBRANCH   6   8
ENDBRANCH   5   6
ENDBRANCH   4   5
ENDBRANCH   3   4
ENDBRANCH   2   3
ENDBRANCH   1   2
BRANCH   1  24
ATOM     24  C   UNL A   1      31.713  31.394  26.441  1.00  0.00     0.261 C 
BRANCH  24  25
ATOM     25  O   UNL A   1      32.591  31.387  27.582  1.00  0.00    -0.460 OA
BRANCH  25  26
ATOM     26  C   UNL A   1      33.481  32.405  27.614  1.00  0.00     0.338 C 
ATOM     27  O   UNL A   1      33.251  33.600  27.490  1.00  0.00    -0.246 OA
BRANCH  26  28
ATOM     28  C   UNL A   1      34.813  31.907  27.997  1.00  0.00     0.060 A 
ATOM     29  C   UNL A   1      34.921  30.550  28.334  1.00  0.00     0.016 A 
ATOM     30  C   UNL A   1      35.904  32.764  28.137  1.00  0.00     0.016 A 
ATOM     31  C   UNL A   1      36.106  30.059  28.875  1.00  0.00     0.010 A 
ATOM     32  C   UNL A   1      37.089  32.274  28.695  1.00  0.00     0.010 A 
ATOM     33  C   UNL A   1      37.176  30.932  29.108  1.00  0.00    -0.014 A 
BRANCH  33  34
ATOM     34  C   UNL A   1      38.303  30.487  29.961  1.00  0.00     0.031 A 
ATOM     35  C   UNL A   1      39.311  29.533  29.380  1.00  0.00     0.074 A 
ATOM     36  C   UNL A   1      38.456  30.956  31.210  1.00  0.00     0.049 A 
ATOM     37  N   UNL A   1      40.343  28.964  29.949  1.00  0.00    -0.248 NA
ATOM     38  C   UNL A   1      39.134  29.178  27.962  1.00  0.00     0.031 C 
ATOM     39  C   UNL A   1      37.589  31.937  31.855  1.00  0.00     0.029 A 
ATOM     40  N   UNL A   1      39.405  30.666  32.158  1.00  0.00    -0.354 N 
ATOM     41  C   UNL A   1      40.935  28.188  28.962  1.00  0.00     0.074 A 
ATOM     42  C   UNL A   1      40.136  28.335  27.766  1.00  0.00     0.031 C 
ATOM     43  C   UNL A   1      38.041  32.165  33.100  1.00  0.00     0.029 A 
ATOM     44  C   UNL A   1      39.208  31.319  33.349  1.00  0.00     0.049 A 
ATOM     45  H   UNL A   1      40.154  30.048  31.999  1.00  0.00     0.167 HD
ATOM     46  C   UNL A   1      42.051  27.427  29.045  1.00  0.00     0.037 A 
ATOM     47  C   UNL A   1      39.881  31.224  34.511  1.00  0.00     0.037 A 
ATOM     48  C   UNL A   1      42.840  27.273  30.238  1.00  0.00     0.049 A 
ATOM     49  C   UNL A   1      41.061  30.292  34.607  1.00  0.00     0.074 A 
ATOM     50  C   UNL A   1      43.977  26.507  30.430  1.00  0.00     0.029 A 
ATOM     51  N   UNL A   1      42.571  27.901  31.445  1.00  0.00    -0.354 N 
ATOM     52  N   UNL A   1      41.601  29.539  33.679  1.00  0.00    -0.248 NA
ATOM     53  C   UNL A   1      41.722  30.193  35.917  1.00  0.00     0.031 C 
ATOM     54  C   UNL A   1      44.372  26.640  31.765  1.00  0.00     0.029 A 
ATOM     55  C   UNL A   1      43.510  27.525  32.392  1.00  0.00     0.049 A 
ATOM     56  H   UNL A   1      41.824  28.521  31.604  1.00  0.00     0.167 HD
ATOM     57  C   UNL A   1      42.670  28.892  34.285  1.00  0.00     0.074 A 
ATOM     58  C   UNL A   1      42.715  29.355  35.656  1.00  0.00     0.031 C 
ATOM     59  C   UNL A   1      43.534  27.992  33.755  1.00  0.00     0.037 A 
BRANCH  46  60
ATOM     60  C   UNL A   1      42.475  26.681  27.814  1.00  0.00     0.064 A 
ATOM     61  C   UNL A   1      43.394  27.228  26.906  1.00  0.00     0.173 A 
ATOM     62  C   UNL A   1      41.988  25.390  27.561  1.00  0.00     0.173 A 
ATOM     63  F   UNL A   1      43.873  28.467  27.095  1.00  0.00    -0.203 F 
ATOM     64  C   UNL A   1      43.800  26.514  25.783  1.00  0.00     0.198 A 
ATOM     65  C   UNL A   1      42.416  24.669  26.450  1.00  0.00     0.198 A 
ATOM     66  F   UNL A   1      41.107  24.824  28.398  1.00  0.00    -0.203 F 
ATOM     67  F   UNL A   1      44.654  27.068  24.910  1.00  0.00    -0.200 F 
ATOM     68  C   UNL A   1      43.318  25.233  25.559  1.00  0.00     0.200 A 
ATOM     69  F   UNL A   1      41.956  23.428  26.240  1.00  0.00    -0.200 F 
ATOM     70  F   UNL A   1      43.719  24.542  24.483  1.00  0.00    -0.200 F 
ENDBRANCH  46  60
BRANCH  47  71
ATOM     71  C   UNL A   1      39.449  32.025  35.684  1.00  0.00     0.064 A 
ATOM     72  C   UNL A   1      39.999  33.288  35.938  1.00  0.00     0.173 A 
ATOM     73  C   UNL A   1      38.481  31.543  36.578  1.00  0.00     0.173 A 
ATOM     74  F   UNL A   1      40.949  33.779  35.129  1.00  0.00    -0.203 F 
ATOM     75  C   UNL A   1      39.604  34.037  37.044  1.00  0.00     0.198 A 
ATOM     76  C   UNL A   1      38.067  32.302  37.670  1.00  0.00     0.198 A 
ATOM     77  F   UNL A   1      37.929  30.336  36.383  1.00  0.00    -0.203 F 
ATOM     78  F   UNL A   1      40.172  35.226  37.285  1.00  0.00    -0.200 F 
ATOM     79  C   UNL A   1      38.632  33.546  37.905  1.00  0.00     0.200 A 
ATOM     80  F   UNL A   1      37.123  31.828  38.494  1.00  0.00    -0.200 F 
ATOM     81  F   UNL A   1      38.247  34.269  38.966  1.00  0.00    -0.200 F 
ENDBRANCH  47  71
BRANCH  59  82
ATOM     82  C   UNL A   1      44.611  27.458  34.654  1.00  0.00     0.064 A 
ATOM     83  C   UNL A   1      45.832  28.129  34.812  1.00  0.00     0.173 A 
ATOM     84  C   UNL A   1      44.402  26.288  35.400  1.00  0.00     0.173 A 
ATOM     85  F   UNL A   1      46.085  29.245  34.113  1.00  0.00    -0.203 F 
ATOM     86  C   UNL A   1      46.814  27.634  35.666  1.00  0.00     0.198 A 
ATOM     87  C   UNL A   1      45.375  25.812  36.274  1.00  0.00     0.198 A 
ATOM     88  F   UNL A   1      43.247  25.613  35.290  1.00  0.00    -0.203 F 
ATOM     89  F   UNL A   1      47.991  28.269  35.770  1.00  0.00    -0.200 F 
ATOM     90  C   UNL A   1      46.583  26.481  36.402  1.00  0.00     0.200 A 
ATOM     91  F   UNL A   1      45.144  24.705  36.993  1.00  0.00    -0.200 F 
ATOM     92  F   UNL A   1      47.526  26.011  37.229  1.00  0.00    -0.200 F 
ENDBRANCH  59  82
ENDBRANCH  33  34
ENDBRANCH  26  28
ENDBRANCH  25  26
ENDBRANCH  24  25
ENDBRANCH   1  24
TORSDOF 15
ENDMDL
