MODEL 1
REMARK VINA RESULT:     -12.8      0.000      0.000
REMARK SMILES Cc1c(NCc2ccccn2)cccc1C(=O)N1CCOC[C@@H]1CC(=O)OCCOCCOC(=O)c1ccc(-c2c3nc(c(-c4c(F)c(F)c(F)c(F)c4F)c4ccc([nH]4)c(-c4c(F)c(F)c(F)c(F)c4F)c4nc(c(-c5c(F)c(F)c(F)c(F)c5F)c5ccc2[nH]5)C=C4)C=C3)cc1
REMARK SMILES IDX 28 1 27 2 25 3 26 4 24 5 23 6 18 7 19 8 20 9 22 10 21 11
REMARK SMILES IDX 16 12 17 13 15 14 1 15 2 16 3 17 12 18 14 19 13 20 4 21 5 23
REMARK SMILES IDX 6 24 7 25 11 26 8 27 10 28 9 29 29 30 30 31 31 32 32 33
REMARK SMILES IDX 33 34 34 35 35 36 36 37 37 38 98 39 38 40 97 41 39 42 40 43
REMARK SMILES IDX 41 44 91 45 42 46 96 47 90 48 92 49 43 50 95 51 89 52 88 53
REMARK SMILES IDX 44 55 76 56 56 57 75 58 57 59 60 60 74 61 93 62 58 63 59 64
REMARK SMILES IDX 73 66 94 67 61 68 45 69 46 70 54 71 47 72 48 73 52 74 55 75
REMARK SMILES IDX 49 76 50 77 53 78 51 79 77 80 78 81 86 82 79 83 80 84 84 85
REMARK SMILES IDX 87 86 81 87 82 88 85 89 83 90 62 91 63 92 71 93 64 94 65 95
REMARK SMILES IDX 69 96 72 97 66 98 67 99 70 100 68 101
REMARK H PARENT 4 22 92 54 60 65
REMARK Flexibility Score: inf
ROOT
ATOM      1  C   UNL A   1      32.624  27.525  22.941  1.00  0.00     0.261 C 
ENDROOT
BRANCH   1   2
ATOM      2  O   UNL A   1      33.921  27.168  23.371  1.00  0.00    -0.463 OA
BRANCH   2   3
ATOM      3  C   UNL A   1      33.984  25.998  24.050  1.00  0.00     0.308 C 
ATOM      4  O   UNL A   1      34.011  25.853  25.253  1.00  0.00    -0.252 OA
BRANCH   3   5
ATOM      5  C   UNL A   1      33.885  24.888  23.060  1.00  0.00     0.150 C 
BRANCH   5   6
ATOM      6  C   UNL A   1      33.656  23.500  23.688  1.00  0.00     0.122 C 
ATOM      7  N   UNL A   1      34.740  22.453  23.810  1.00  0.00    -0.330 N 
ATOM      8  C   UNL A   1      34.296  21.358  24.667  1.00  0.00     0.148 C 
ATOM      9  C   UNL A   1      32.978  20.755  24.177  1.00  0.00     0.181 C 
ATOM     10  C   UNL A   1      32.421  22.792  23.070  1.00  0.00     0.185 C 
ATOM     11  O   UNL A   1      31.965  21.748  23.949  1.00  0.00    -0.377 OA
BRANCH   7  12
ATOM     12  C   UNL A   1      36.112  22.690  23.734  1.00  0.00     0.254 C 
ATOM     13  O   UNL A   1      36.645  22.905  22.645  1.00  0.00    -0.269 OA
BRANCH  12  14
ATOM     14  C   UNL A   1      37.024  22.622  24.974  1.00  0.00     0.045 A 
ATOM     15  C   UNL A   1      37.768  20.188  25.028  1.00  0.00     0.047 C 
ATOM     16  C   UNL A   1      38.028  21.651  25.256  1.00  0.00    -0.015 A 
ATOM     17  C   UNL A   1      39.183  22.007  26.020  1.00  0.00     0.038 A 
ATOM     18  C   UNL A   1      39.212  23.270  26.626  1.00  0.00     0.026 A 
ATOM     19  C   UNL A   1      37.030  23.789  25.752  1.00  0.00     0.014 A 
ATOM     20  C   UNL A   1      38.104  24.108  26.585  1.00  0.00     0.003 A 
BRANCH  17  21
ATOM     21  N   UNL A   1      40.170  21.075  26.309  1.00  0.00    -0.379 N 
ATOM     22  H   UNL A   1      39.962  20.131  26.123  1.00  0.00     0.160 HD
BRANCH  21  23
ATOM     23  C   UNL A   1      41.495  21.367  26.863  1.00  0.00     0.169 C 
BRANCH  23  24
ATOM     24  C   UNL A   1      42.675  20.749  26.121  1.00  0.00     0.059 A 
ATOM     25  C   UNL A   1      43.773  21.489  25.675  1.00  0.00     0.026 A 
ATOM     26  N   UNL A   1      42.573  19.422  25.844  1.00  0.00    -0.259 NA
ATOM     27  C   UNL A   1      44.766  20.881  24.916  1.00  0.00     0.004 A 
ATOM     28  C   UNL A   1      43.570  18.846  25.130  1.00  0.00     0.111 A 
ATOM     29  C   UNL A   1      44.668  19.530  24.640  1.00  0.00     0.020 A 
ENDBRANCH  23  24
ENDBRANCH  21  23
ENDBRANCH  17  21
ENDBRANCH  12  14
ENDBRANCH   7  12
ENDBRANCH   5   6
ENDBRANCH   3   5
ENDBRANCH   2   3
ENDBRANCH   1   2
BRANCH   1  30
ATOM     30  C   UNL A   1      32.316  28.978  23.200  1.00  0.00     0.202 C 
BRANCH  30  31
ATOM     31  O   UNL A   1      31.446  29.056  24.314  1.00  0.00    -0.374 OA
BRANCH  31  32
ATOM     32  C   UNL A   1      32.049  29.035  25.596  1.00  0.00     0.202 C 
BRANCH  32  33
ATOM     33  C   UNL A   1      32.228  30.405  26.278  1.00  0.00     0.261 C 
BRANCH  33  34
ATOM     34  O   UNL A   1      33.093  30.336  27.445  1.00  0.00    -0.460 OA
BRANCH  34  35
ATOM     35  C   UNL A   1      33.960  31.363  27.696  1.00  0.00     0.338 C 
ATOM     36  O   UNL A   1      33.640  32.536  27.793  1.00  0.00    -0.246 OA
BRANCH  35  37
ATOM     37  C   UNL A   1      35.376  30.873  27.743  1.00  0.00     0.060 A 
ATOM     38  C   UNL A   1      35.695  29.502  27.653  1.00  0.00     0.016 A 
ATOM     39  C   UNL A   1      36.349  31.764  28.159  1.00  0.00     0.016 A 
ATOM     40  C   UNL A   1      36.937  29.012  28.130  1.00  0.00     0.010 A 
ATOM     41  C   UNL A   1      37.489  31.262  28.756  1.00  0.00     0.010 A 
ATOM     42  C   UNL A   1      37.819  29.886  28.760  1.00  0.00    -0.014 A 
BRANCH  42  43
ATOM     43  C   UNL A   1      39.038  29.565  29.550  1.00  0.00     0.031 A 
ATOM     44  C   UNL A   1      39.879  28.424  29.042  1.00  0.00     0.074 A 
ATOM     45  C   UNL A   1      39.656  30.445  30.395  1.00  0.00     0.049 A 
ATOM     46  N   UNL A   1      41.030  28.091  29.518  1.00  0.00    -0.248 NA
ATOM     47  C   UNL A   1      39.466  27.531  27.956  1.00  0.00     0.031 C 
ATOM     48  C   UNL A   1      41.106  30.698  30.383  1.00  0.00     0.029 A 
ATOM     49  N   UNL A   1      39.197  31.360  31.370  1.00  0.00    -0.354 N 
ATOM     50  C   UNL A   1      41.639  27.240  28.622  1.00  0.00     0.074 A 
ATOM     51  C   UNL A   1      40.586  26.838  27.731  1.00  0.00     0.031 C 
ATOM     52  C   UNL A   1      41.448  31.462  31.426  1.00  0.00     0.029 A 
ATOM     53  C   UNL A   1      40.278  31.619  32.257  1.00  0.00     0.049 A 
ATOM     54  H   UNL A   1      38.294  31.746  31.426  1.00  0.00     0.167 HD
ATOM     55  C   UNL A   1      42.991  27.074  28.705  1.00  0.00     0.037 A 
ATOM     56  C   UNL A   1      40.261  31.516  33.621  1.00  0.00     0.037 A 
ATOM     57  C   UNL A   1      43.518  27.750  29.893  1.00  0.00     0.049 A 
ATOM     58  C   UNL A   1      41.332  30.666  34.199  1.00  0.00     0.074 A 
ATOM     59  C   UNL A   1      44.256  28.902  30.094  1.00  0.00     0.029 A 
ATOM     60  N   UNL A   1      43.076  27.342  31.145  1.00  0.00    -0.354 N 
ATOM     61  N   UNL A   1      42.188  30.033  33.463  1.00  0.00    -0.248 NA
ATOM     62  C   UNL A   1      41.417  30.309  35.610  1.00  0.00     0.031 C 
ATOM     63  C   UNL A   1      44.274  29.165  31.488  1.00  0.00     0.029 A 
ATOM     64  C   UNL A   1      43.557  28.170  32.137  1.00  0.00     0.049 A 
ATOM     65  H   UNL A   1      42.496  26.564  31.303  1.00  0.00     0.167 HD
ATOM     66  C   UNL A   1      42.681  28.994  34.188  1.00  0.00     0.074 A 
ATOM     67  C   UNL A   1      42.291  29.291  35.551  1.00  0.00     0.031 C 
ATOM     68  C   UNL A   1      43.222  27.924  33.539  1.00  0.00     0.037 A 
BRANCH  55  69
ATOM     69  C   UNL A   1      43.920  26.412  27.699  1.00  0.00     0.064 A 
ATOM     70  C   UNL A   1      44.423  25.111  27.958  1.00  0.00     0.173 A 
ATOM     71  C   UNL A   1      44.400  26.981  26.504  1.00  0.00     0.173 A 
ATOM     72  F   UNL A   1      44.063  24.421  29.049  1.00  0.00    -0.203 F 
ATOM     73  C   UNL A   1      45.320  24.456  27.108  1.00  0.00     0.198 A 
ATOM     74  C   UNL A   1      45.277  26.315  25.639  1.00  0.00     0.198 A 
ATOM     75  F   UNL A   1      44.069  28.210  26.109  1.00  0.00    -0.203 F 
ATOM     76  F   UNL A   1      45.774  23.237  27.430  1.00  0.00    -0.200 F 
ATOM     77  C   UNL A   1      45.743  25.055  25.942  1.00  0.00     0.200 A 
ATOM     78  F   UNL A   1      45.673  26.918  24.508  1.00  0.00    -0.200 F 
ATOM     79  F   UNL A   1      46.592  24.429  25.118  1.00  0.00    -0.200 F 
ENDBRANCH  55  69
BRANCH  56  80
ATOM     80  C   UNL A   1      38.982  31.773  34.343  1.00  0.00     0.064 A 
ATOM     81  C   UNL A   1      38.777  33.140  34.510  1.00  0.00     0.173 A 
ATOM     82  C   UNL A   1      37.901  30.975  33.951  1.00  0.00     0.173 A 
ATOM     83  F   UNL A   1      39.704  33.897  35.116  1.00  0.00    -0.203 F 
ATOM     84  C   UNL A   1      37.798  33.737  33.753  1.00  0.00     0.198 A 
ATOM     85  C   UNL A   1      36.896  31.566  33.215  1.00  0.00     0.198 A 
ATOM     86  F   UNL A   1      38.005  29.640  33.966  1.00  0.00    -0.203 F 
ATOM     87  F   UNL A   1      37.789  35.069  33.653  1.00  0.00    -0.200 F 
ATOM     88  C   UNL A   1      36.962  32.928  32.993  1.00  0.00     0.200 A 
ATOM     89  F   UNL A   1      36.029  30.819  32.519  1.00  0.00    -0.200 F 
ATOM     90  F   UNL A   1      36.404  33.379  31.873  1.00  0.00    -0.200 F 
ENDBRANCH  56  80
BRANCH  68  91
ATOM     91  C   UNL A   1      43.479  26.585  34.177  1.00  0.00     0.064 A 
ATOM     92  C   UNL A   1      44.754  26.010  34.332  1.00  0.00     0.173 A 
ATOM     93  C   UNL A   1      42.414  25.851  34.745  1.00  0.00     0.173 A 
ATOM     94  F   UNL A   1      45.873  26.681  34.033  1.00  0.00    -0.203 F 
ATOM     95  C   UNL A   1      44.929  24.734  34.866  1.00  0.00     0.198 A 
ATOM     96  C   UNL A   1      42.604  24.615  35.358  1.00  0.00     0.198 A 
ATOM     97  F   UNL A   1      41.157  26.318  34.744  1.00  0.00    -0.203 F 
ATOM     98  F   UNL A   1      46.156  24.193  34.899  1.00  0.00    -0.200 F 
ATOM     99  C   UNL A   1      43.855  24.036  35.378  1.00  0.00     0.200 A 
ATOM    100  F   UNL A   1      41.565  23.994  35.933  1.00  0.00    -0.200 F 
ATOM    101  F   UNL A   1      44.028  22.821  35.913  1.00  0.00    -0.200 F 
ENDBRANCH  68  91
ENDBRANCH  42  43
ENDBRANCH  35  37
ENDBRANCH  34  35
ENDBRANCH  33  34
ENDBRANCH  32  33
ENDBRANCH  31  32
ENDBRANCH  30  31
ENDBRANCH   1  30
TORSDOF 20
ENDMDL
MODEL 2
REMARK VINA RESULT:     -12.2      1.216      2.149
REMARK SMILES Cc1c(NCc2ccccn2)cccc1C(=O)N1CCOC[C@@H]1CC(=O)OCCOCCOC(=O)c1ccc(-c2c3nc(c(-c4c(F)c(F)c(F)c(F)c4F)c4ccc([nH]4)c(-c4c(F)c(F)c(F)c(F)c4F)c4nc(c(-c5c(F)c(F)c(F)c(F)c5F)c5ccc2[nH]5)C=C4)C=C3)cc1
REMARK SMILES IDX 28 1 27 2 25 3 26 4 24 5 23 6 18 7 19 8 20 9 22 10 21 11
REMARK SMILES IDX 16 12 17 13 15 14 1 15 2 16 3 17 12 18 14 19 13 20 4 21 5 23
REMARK SMILES IDX 6 24 7 25 11 26 8 27 10 28 9 29 29 30 30 31 31 32 32 33
REMARK SMILES IDX 33 34 34 35 35 36 36 37 37 38 98 39 38 40 97 41 39 42 40 43
REMARK SMILES IDX 41 44 91 45 42 46 96 47 90 48 92 49 43 50 95 51 89 52 88 53
REMARK SMILES IDX 44 55 76 56 56 57 75 58 57 59 60 60 74 61 93 62 58 63 59 64
REMARK SMILES IDX 73 66 94 67 61 68 45 69 46 70 54 71 47 72 48 73 52 74 55 75
REMARK SMILES IDX 49 76 50 77 53 78 51 79 77 80 78 81 86 82 79 83 80 84 84 85
REMARK SMILES IDX 87 86 81 87 82 88 85 89 83 90 62 91 63 92 71 93 64 94 65 95
REMARK SMILES IDX 69 96 72 97 66 98 67 99 70 100 68 101
REMARK H PARENT 4 22 92 54 60 65
REMARK Flexibility Score: inf
ROOT
ATOM      1  C   UNL A   1      32.848  27.807  23.652  1.00  0.00     0.261 C 
ENDROOT
BRANCH   1   2
ATOM      2  O   UNL A   1      33.924  27.273  24.396  1.00  0.00    -0.463 OA
BRANCH   2   3
ATOM      3  C   UNL A   1      33.671  26.069  24.962  1.00  0.00     0.308 C 
ATOM      4  O   UNL A   1      34.381  25.462  25.734  1.00  0.00    -0.252 OA
BRANCH   3   5
ATOM      5  C   UNL A   1      32.293  25.659  24.571  1.00  0.00     0.150 C 
BRANCH   5   6
ATOM      6  C   UNL A   1      31.708  24.515  25.421  1.00  0.00     0.122 C 
ATOM      7  N   UNL A   1      31.509  23.110  24.901  1.00  0.00    -0.330 N 
ATOM      8  C   UNL A   1      31.186  22.202  25.997  1.00  0.00     0.148 C 
ATOM      9  C   UNL A   1      29.974  22.688  26.796  1.00  0.00     0.181 C 
ATOM     10  C   UNL A   1      30.375  24.933  26.098  1.00  0.00     0.185 C 
ATOM     11  O   UNL A   1      30.095  24.059  27.207  1.00  0.00    -0.377 OA
BRANCH   7  12
ATOM     12  C   UNL A   1      32.130  22.563  23.780  1.00  0.00     0.254 C 
ATOM     13  O   UNL A   1      31.612  22.671  22.668  1.00  0.00    -0.269 OA
BRANCH  12  14
ATOM     14  C   UNL A   1      33.433  21.746  23.882  1.00  0.00     0.045 A 
ATOM     15  C   UNL A   1      35.214  23.369  23.062  1.00  0.00     0.047 C 
ATOM     16  C   UNL A   1      34.765  22.248  23.956  1.00  0.00    -0.015 A 
ATOM     17  C   UNL A   1      35.772  21.522  24.666  1.00  0.00     0.038 A 
ATOM     18  C   UNL A   1      35.460  20.236  25.124  1.00  0.00     0.026 A 
ATOM     19  C   UNL A   1      33.243  20.393  24.198  1.00  0.00     0.014 A 
ATOM     20  C   UNL A   1      34.250  19.635  24.800  1.00  0.00     0.003 A 
BRANCH  17  21
ATOM     21  N   UNL A   1      37.075  21.993  24.748  1.00  0.00    -0.379 N 
ATOM     22  H   UNL A   1      37.722  21.632  24.100  1.00  0.00     0.160 HD
BRANCH  21  23
ATOM     23  C   UNL A   1      37.576  22.978  25.709  1.00  0.00     0.169 C 
BRANCH  23  24
ATOM     24  C   UNL A   1      38.915  22.650  26.359  1.00  0.00     0.059 A 
ATOM     25  C   UNL A   1      39.624  23.554  27.153  1.00  0.00     0.026 A 
ATOM     26  N   UNL A   1      39.436  21.429  26.062  1.00  0.00    -0.259 NA
ATOM     27  C   UNL A   1      40.888  23.227  27.630  1.00  0.00     0.004 A 
ATOM     28  C   UNL A   1      40.655  21.122  26.566  1.00  0.00     0.111 A 
ATOM     29  C   UNL A   1      41.415  21.983  27.337  1.00  0.00     0.020 A 
ENDBRANCH  23  24
ENDBRANCH  21  23
ENDBRANCH  17  21
ENDBRANCH  12  14
ENDBRANCH   7  12
ENDBRANCH   5   6
ENDBRANCH   3   5
ENDBRANCH   2   3
ENDBRANCH   1   2
BRANCH   1  30
ATOM     30  C   UNL A   1      32.670  29.285  23.886  1.00  0.00     0.202 C 
BRANCH  30  31
ATOM     31  O   UNL A   1      31.467  29.479  24.609  1.00  0.00    -0.374 OA
BRANCH  31  32
ATOM     32  C   UNL A   1      31.575  29.535  26.021  1.00  0.00     0.202 C 
BRANCH  32  33
ATOM     33  C   UNL A   1      32.142  30.845  26.601  1.00  0.00     0.261 C 
BRANCH  33  34
ATOM     34  O   UNL A   1      33.201  30.611  27.570  1.00  0.00    -0.460 OA
BRANCH  34  35
ATOM     35  C   UNL A   1      34.082  31.618  27.853  1.00  0.00     0.338 C 
ATOM     36  O   UNL A   1      33.775  32.790  28.000  1.00  0.00    -0.246 OA
BRANCH  35  37
ATOM     37  C   UNL A   1      35.492  31.112  27.869  1.00  0.00     0.060 A 
ATOM     38  C   UNL A   1      35.796  29.743  27.716  1.00  0.00     0.016 A 
ATOM     39  C   UNL A   1      36.478  31.973  28.318  1.00  0.00     0.016 A 
ATOM     40  C   UNL A   1      37.035  29.219  28.162  1.00  0.00     0.010 A 
ATOM     41  C   UNL A   1      37.616  31.433  28.884  1.00  0.00     0.010 A 
ATOM     42  C   UNL A   1      37.930  30.054  28.824  1.00  0.00    -0.014 A 
BRANCH  42  43
ATOM     43  C   UNL A   1      39.151  29.686  29.590  1.00  0.00     0.031 A 
ATOM     44  C   UNL A   1      39.945  28.523  29.058  1.00  0.00     0.074 A 
ATOM     45  C   UNL A   1      39.812  30.536  30.433  1.00  0.00     0.049 A 
ATOM     46  N   UNL A   1      41.092  28.146  29.511  1.00  0.00    -0.248 NA
ATOM     47  C   UNL A   1      39.486  27.654  27.971  1.00  0.00     0.031 C 
ATOM     48  C   UNL A   1      41.269  30.741  30.400  1.00  0.00     0.029 A 
ATOM     49  N   UNL A   1      39.399  31.456  31.424  1.00  0.00    -0.354 N 
ATOM     50  C   UNL A   1      41.658  27.285  28.597  1.00  0.00     0.074 A 
ATOM     51  C   UNL A   1      40.577  26.927  27.720  1.00  0.00     0.031 C 
ATOM     52  C   UNL A   1      41.653  31.483  31.444  1.00  0.00     0.029 A 
ATOM     53  C   UNL A   1      40.503  31.670  32.295  1.00  0.00     0.049 A 
ATOM     54  H   UNL A   1      38.510  31.871  31.499  1.00  0.00     0.167 HD
ATOM     55  C   UNL A   1      43.005  27.074  28.657  1.00  0.00     0.037 A 
ATOM     56  C   UNL A   1      40.504  31.554  33.659  1.00  0.00     0.037 A 
ATOM     57  C   UNL A   1      43.574  27.721  29.842  1.00  0.00     0.049 A 
ATOM     58  C   UNL A   1      41.555  30.663  34.211  1.00  0.00     0.074 A 
ATOM     59  C   UNL A   1      44.352  28.845  30.041  1.00  0.00     0.029 A 
ATOM     60  N   UNL A   1      43.139  27.314  31.097  1.00  0.00    -0.354 N 
ATOM     61  N   UNL A   1      42.378  30.010  33.455  1.00  0.00    -0.248 NA
ATOM     62  C   UNL A   1      41.652  30.290  35.616  1.00  0.00     0.031 C 
ATOM     63  C   UNL A   1      44.401  29.094  31.438  1.00  0.00     0.029 A 
ATOM     64  C   UNL A   1      43.663  28.117  32.089  1.00  0.00     0.049 A 
ATOM     65  H   UNL A   1      42.535  26.554  31.258  1.00  0.00     0.167 HD
ATOM     66  C   UNL A   1      42.849  28.948  34.162  1.00  0.00     0.074 A 
ATOM     67  C   UNL A   1      42.490  29.245  35.534  1.00  0.00     0.031 C 
ATOM     68  C   UNL A   1      43.342  27.867  33.494  1.00  0.00     0.037 A 
BRANCH  55  69
ATOM     69  C   UNL A   1      43.895  26.391  27.629  1.00  0.00     0.064 A 
ATOM     70  C   UNL A   1      44.249  25.028  27.801  1.00  0.00     0.173 A 
ATOM     71  C   UNL A   1      44.474  26.991  26.495  1.00  0.00     0.173 A 
ATOM     72  F   UNL A   1      43.781  24.303  28.826  1.00  0.00    -0.203 F 
ATOM     73  C   UNL A   1      45.103  24.346  26.929  1.00  0.00     0.198 A 
ATOM     74  C   UNL A   1      45.307  26.301  25.606  1.00  0.00     0.198 A 
ATOM     75  F   UNL A   1      44.288  28.274  26.185  1.00  0.00    -0.203 F 
ATOM     76  F   UNL A   1      45.415  23.065  27.170  1.00  0.00    -0.200 F 
ATOM     77  C   UNL A   1      45.627  24.980  25.824  1.00  0.00     0.200 A 
ATOM     78  F   UNL A   1      45.804  26.939  24.536  1.00  0.00    -0.200 F 
ATOM     79  F   UNL A   1      46.435  24.328  24.979  1.00  0.00    -0.200 F 
ENDBRANCH  55  69
BRANCH  56  80
ATOM     80  C   UNL A   1      39.246  31.846  34.405  1.00  0.00     0.064 A 
ATOM     81  C   UNL A   1      39.062  33.219  34.540  1.00  0.00     0.173 A 
ATOM     82  C   UNL A   1      38.147  31.052  34.060  1.00  0.00     0.173 A 
ATOM     83  F   UNL A   1      40.013  33.980  35.104  1.00  0.00    -0.203 F 
ATOM     84  C   UNL A   1      38.072  33.809  33.791  1.00  0.00     0.198 A 
ATOM     85  C   UNL A   1      37.131  31.636  33.333  1.00  0.00     0.198 A 
ATOM     86  F   UNL A   1      38.234  29.716  34.107  1.00  0.00    -0.203 F 
ATOM     87  F   UNL A   1      38.077  35.138  33.657  1.00  0.00    -0.200 F 
ATOM     88  C   UNL A   1      37.208  32.992  33.074  1.00  0.00     0.200 A 
ATOM     89  F   UNL A   1      36.238  30.882  32.678  1.00  0.00    -0.200 F 
ATOM     90  F   UNL A   1      36.628  33.420  31.956  1.00  0.00    -0.200 F 
ENDBRANCH  56  80
BRANCH  68  91
ATOM     91  C   UNL A   1      43.565  26.514  34.115  1.00  0.00     0.064 A 
ATOM     92  C   UNL A   1      44.824  25.902  34.255  1.00  0.00     0.173 A 
ATOM     93  C   UNL A   1      42.483  25.804  34.681  1.00  0.00     0.173 A 
ATOM     94  F   UNL A   1      45.960  26.544  33.956  1.00  0.00    -0.203 F 
ATOM     95  C   UNL A   1      44.967  24.615  34.773  1.00  0.00     0.198 A 
ATOM     96  C   UNL A   1      42.642  24.556  35.279  1.00  0.00     0.198 A 
ATOM     97  F   UNL A   1      41.240  26.307  34.694  1.00  0.00    -0.203 F 
ATOM     98  F   UNL A   1      46.178  24.039  34.791  1.00  0.00    -0.200 F 
ATOM     99  C   UNL A   1      43.876  23.942  35.284  1.00  0.00     0.200 A 
ATOM    100  F   UNL A   1      41.590  23.958  35.854  1.00  0.00    -0.200 F 
ATOM    101  F   UNL A   1      44.018  22.716  35.804  1.00  0.00    -0.200 F 
ENDBRANCH  68  91
ENDBRANCH  42  43
ENDBRANCH  35  37
ENDBRANCH  34  35
ENDBRANCH  33  34
ENDBRANCH  32  33
ENDBRANCH  31  32
ENDBRANCH  30  31
ENDBRANCH   1  30
TORSDOF 20
ENDMDL
MODEL 3
REMARK VINA RESULT:     -12.2      3.212     10.528
REMARK SMILES Cc1c(NCc2ccccn2)cccc1C(=O)N1CCOC[C@@H]1CC(=O)OCCOCCOC(=O)c1ccc(-c2c3nc(c(-c4c(F)c(F)c(F)c(F)c4F)c4ccc([nH]4)c(-c4c(F)c(F)c(F)c(F)c4F)c4nc(c(-c5c(F)c(F)c(F)c(F)c5F)c5ccc2[nH]5)C=C4)C=C3)cc1
REMARK SMILES IDX 28 1 27 2 25 3 26 4 24 5 23 6 18 7 19 8 20 9 22 10 21 11
REMARK SMILES IDX 16 12 17 13 15 14 1 15 2 16 3 17 12 18 14 19 13 20 4 21 5 23
REMARK SMILES IDX 6 24 7 25 11 26 8 27 10 28 9 29 29 30 30 31 31 32 32 33
REMARK SMILES IDX 33 34 34 35 35 36 36 37 37 38 98 39 38 40 97 41 39 42 40 43
REMARK SMILES IDX 41 44 91 45 42 46 96 47 90 48 92 49 43 50 95 51 89 52 88 53
REMARK SMILES IDX 44 55 76 56 56 57 75 58 57 59 60 60 74 61 93 62 58 63 59 64
REMARK SMILES IDX 73 66 94 67 61 68 45 69 46 70 54 71 47 72 48 73 52 74 55 75
REMARK SMILES IDX 49 76 50 77 53 78 51 79 77 80 78 81 86 82 79 83 80 84 84 85
REMARK SMILES IDX 87 86 81 87 82 88 85 89 83 90 62 91 63 92 71 93 64 94 65 95
REMARK SMILES IDX 69 96 72 97 66 98 67 99 70 100 68 101
REMARK H PARENT 4 22 92 54 60 65
REMARK Flexibility Score: inf
ROOT
ATOM      1  C   UNL A   1      32.954  22.250  24.621  1.00  0.00     0.261 C 
ENDROOT
BRANCH   1   2
ATOM      2  O   UNL A   1      33.567  23.514  24.463  1.00  0.00    -0.463 OA
BRANCH   2   3
ATOM      3  C   UNL A   1      32.977  24.513  25.161  1.00  0.00     0.308 C 
ATOM      4  O   UNL A   1      32.233  24.399  26.111  1.00  0.00    -0.252 OA
BRANCH   3   5
ATOM      5  C   UNL A   1      33.500  25.807  24.640  1.00  0.00     0.150 C 
BRANCH   5   6
ATOM      6  C   UNL A   1      32.410  26.776  24.143  1.00  0.00     0.122 C 
ATOM      7  N   UNL A   1      31.633  27.695  25.058  1.00  0.00    -0.330 N 
ATOM      8  C   UNL A   1      30.867  28.662  24.278  1.00  0.00     0.148 C 
ATOM      9  C   UNL A   1      29.955  27.972  23.261  1.00  0.00     0.181 C 
ATOM     10  C   UNL A   1      31.367  26.050  23.251  1.00  0.00     0.185 C 
ATOM     11  O   UNL A   1      30.654  27.012  22.453  1.00  0.00    -0.377 OA
BRANCH   7  12
ATOM     12  C   UNL A   1      32.012  28.070  26.346  1.00  0.00     0.254 C 
ATOM     13  O   UNL A   1      31.443  27.586  27.326  1.00  0.00    -0.269 OA
BRANCH  12  14
ATOM     14  C   UNL A   1      33.088  29.142  26.605  1.00  0.00     0.045 A 
ATOM     15  C   UNL A   1      31.786  31.326  26.492  1.00  0.00     0.047 C 
ATOM     16  C   UNL A   1      32.887  30.477  27.061  1.00  0.00    -0.015 A 
ATOM     17  C   UNL A   1      33.886  31.128  27.851  1.00  0.00     0.038 A 
ATOM     18  C   UNL A   1      35.124  30.493  28.007  1.00  0.00     0.026 A 
ATOM     19  C   UNL A   1      34.400  28.647  26.641  1.00  0.00     0.014 A 
ATOM     20  C   UNL A   1      35.417  29.320  27.321  1.00  0.00     0.003 A 
BRANCH  17  21
ATOM     21  N   UNL A   1      33.710  32.428  28.304  1.00  0.00    -0.379 N 
ATOM     22  H   UNL A   1      32.939  32.926  27.946  1.00  0.00     0.160 HD
BRANCH  21  23
ATOM     23  C   UNL A   1      34.565  33.129  29.265  1.00  0.00     0.169 C 
BRANCH  23  24
ATOM     24  C   UNL A   1      33.924  34.309  29.986  1.00  0.00     0.059 A 
ATOM     25  C   UNL A   1      33.386  35.413  29.320  1.00  0.00     0.026 A 
ATOM     26  N   UNL A   1      33.968  34.271  31.345  1.00  0.00    -0.259 NA
ATOM     27  C   UNL A   1      32.909  36.502  30.041  1.00  0.00     0.004 A 
ATOM     28  C   UNL A   1      33.468  35.330  32.024  1.00  0.00     0.111 A 
ATOM     29  C   UNL A   1      32.944  36.460  31.423  1.00  0.00     0.020 A 
ENDBRANCH  23  24
ENDBRANCH  21  23
ENDBRANCH  17  21
ENDBRANCH  12  14
ENDBRANCH   7  12
ENDBRANCH   5   6
ENDBRANCH   3   5
ENDBRANCH   2   3
ENDBRANCH   1   2
BRANCH   1  30
ATOM     30  C   UNL A   1      33.958  21.125  24.618  1.00  0.00     0.202 C 
BRANCH  30  31
ATOM     31  O   UNL A   1      35.256  21.688  24.554  1.00  0.00    -0.374 OA
BRANCH  31  32
ATOM     32  C   UNL A   1      36.291  20.977  25.211  1.00  0.00     0.202 C 
BRANCH  32  33
ATOM     33  C   UNL A   1      37.715  21.534  25.021  1.00  0.00     0.261 C 
BRANCH  33  34
ATOM     34  O   UNL A   1      38.593  21.206  26.133  1.00  0.00    -0.460 OA
BRANCH  34  35
ATOM     35  C   UNL A   1      39.847  21.748  26.176  1.00  0.00     0.338 C 
ATOM     36  O   UNL A   1      40.843  21.240  25.687  1.00  0.00    -0.246 OA
BRANCH  35  37
ATOM     37  C   UNL A   1      39.862  23.008  26.987  1.00  0.00     0.060 A 
ATOM     38  C   UNL A   1      39.062  24.121  26.653  1.00  0.00     0.016 A 
ATOM     39  C   UNL A   1      40.884  23.168  27.907  1.00  0.00     0.016 A 
ATOM     40  C   UNL A   1      39.388  25.418  27.123  1.00  0.00     0.010 A 
ATOM     41  C   UNL A   1      41.280  24.449  28.237  1.00  0.00     0.010 A 
ATOM     42  C   UNL A   1      40.553  25.604  27.861  1.00  0.00    -0.014 A 
BRANCH  42  43
ATOM     43  C   UNL A   1      41.221  26.879  28.236  1.00  0.00     0.031 A 
ATOM     44  C   UNL A   1      40.326  27.973  28.753  1.00  0.00     0.074 A 
ATOM     45  C   UNL A   1      42.549  26.985  28.545  1.00  0.00     0.049 A 
ATOM     46  N   UNL A   1      40.740  29.091  29.245  1.00  0.00    -0.248 NA
ATOM     47  C   UNL A   1      38.863  27.905  28.728  1.00  0.00     0.031 C 
ATOM     48  C   UNL A   1      43.051  27.687  29.738  1.00  0.00     0.029 A 
ATOM     49  N   UNL A   1      43.736  26.464  27.980  1.00  0.00    -0.354 N 
ATOM     50  C   UNL A   1      39.688  29.691  29.903  1.00  0.00     0.074 A 
ATOM     51  C   UNL A   1      38.526  28.973  29.457  1.00  0.00     0.031 C 
ATOM     52  C   UNL A   1      44.384  27.784  29.688  1.00  0.00     0.029 A 
ATOM     53  C   UNL A   1      44.811  27.294  28.399  1.00  0.00     0.049 A 
ATOM     54  H   UNL A   1      43.805  25.671  27.401  1.00  0.00     0.167 HD
ATOM     55  C   UNL A   1      39.970  30.659  30.822  1.00  0.00     0.037 A 
ATOM     56  C   UNL A   1      45.741  27.896  27.597  1.00  0.00     0.037 A 
ATOM     57  C   UNL A   1      41.398  30.986  30.802  1.00  0.00     0.049 A 
ATOM     58  C   UNL A   1      45.883  29.362  27.790  1.00  0.00     0.074 A 
ATOM     59  C   UNL A   1      42.455  30.722  31.653  1.00  0.00     0.029 A 
ATOM     60  N   UNL A   1      41.949  31.495  29.633  1.00  0.00    -0.354 N 
ATOM     61  N   UNL A   1      45.147  30.025  28.623  1.00  0.00    -0.248 NA
ATOM     62  C   UNL A   1      46.711  30.219  26.952  1.00  0.00     0.031 C 
ATOM     63  C   UNL A   1      43.649  31.105  30.988  1.00  0.00     0.029 A 
ATOM     64  C   UNL A   1      43.319  31.611  29.739  1.00  0.00     0.049 A 
ATOM     65  H   UNL A   1      41.431  31.740  28.834  1.00  0.00     0.167 HD
ATOM     66  C   UNL A   1      45.136  31.327  28.233  1.00  0.00     0.074 A 
ATOM     67  C   UNL A   1      46.231  31.426  27.289  1.00  0.00     0.031 C 
ATOM     68  C   UNL A   1      44.110  32.134  28.625  1.00  0.00     0.037 A 
BRANCH  55  69
ATOM     69  C   UNL A   1      39.034  31.280  31.848  1.00  0.00     0.064 A 
ATOM     70  C   UNL A   1      38.331  32.470  31.529  1.00  0.00     0.173 A 
ATOM     71  C   UNL A   1      38.805  30.817  33.158  1.00  0.00     0.173 A 
ATOM     72  F   UNL A   1      38.429  33.043  30.322  1.00  0.00    -0.203 F 
ATOM     73  C   UNL A   1      37.493  33.128  32.435  1.00  0.00     0.198 A 
ATOM     74  C   UNL A   1      37.945  31.461  34.057  1.00  0.00     0.198 A 
ATOM     75  F   UNL A   1      39.405  29.735  33.654  1.00  0.00    -0.203 F 
ATOM     76  F   UNL A   1      36.882  34.263  32.072  1.00  0.00    -0.200 F 
ATOM     77  C   UNL A   1      37.293  32.619  33.699  1.00  0.00     0.200 A 
ATOM     78  F   UNL A   1      37.765  30.945  35.282  1.00  0.00    -0.200 F 
ATOM     79  F   UNL A   1      36.483  33.238  34.567  1.00  0.00    -0.200 F 
ENDBRANCH  55  69
BRANCH  56  80
ATOM     80  C   UNL A   1      46.127  27.229  26.320  1.00  0.00     0.064 A 
ATOM     81  C   UNL A   1      47.142  26.301  26.537  1.00  0.00     0.173 A 
ATOM     82  C   UNL A   1      45.062  26.876  25.483  1.00  0.00     0.173 A 
ATOM     83  F   UNL A   1      48.290  26.674  27.122  1.00  0.00    -0.203 F 
ATOM     84  C   UNL A   1      46.816  24.968  26.463  1.00  0.00     0.198 A 
ATOM     85  C   UNL A   1      44.741  25.540  25.375  1.00  0.00     0.198 A 
ATOM     86  F   UNL A   1      44.171  27.799  25.096  1.00  0.00    -0.203 F 
ATOM     87  F   UNL A   1      47.668  24.072  26.968  1.00  0.00    -0.200 F 
ATOM     88  C   UNL A   1      45.547  24.620  26.017  1.00  0.00     0.200 A 
ATOM     89  F   UNL A   1      43.551  25.160  24.890  1.00  0.00    -0.200 F 
ATOM     90  F   UNL A   1      44.966  23.491  26.415  1.00  0.00    -0.200 F 
ENDBRANCH  56  80
BRANCH  68  91
ATOM     91  C   UNL A   1      43.788  33.465  27.999  1.00  0.00     0.064 A 
ATOM     92  C   UNL A   1      43.735  34.682  28.702  1.00  0.00     0.173 A 
ATOM     93  C   UNL A   1      43.596  33.566  26.603  1.00  0.00     0.173 A 
ATOM     94  F   UNL A   1      44.099  34.773  29.987  1.00  0.00    -0.203 F 
ATOM     95  C   UNL A   1      43.361  35.876  28.086  1.00  0.00     0.198 A 
ATOM     96  C   UNL A   1      43.310  34.776  25.976  1.00  0.00     0.198 A 
ATOM     97  F   UNL A   1      43.702  32.499  25.798  1.00  0.00    -0.203 F 
ATOM     98  F   UNL A   1      43.229  36.988  28.824  1.00  0.00    -0.200 F 
ATOM     99  C   UNL A   1      43.149  35.923  26.724  1.00  0.00     0.200 A 
ATOM    100  F   UNL A   1      43.200  34.822  24.642  1.00  0.00    -0.200 F 
ATOM    101  F   UNL A   1      42.814  37.075  26.129  1.00  0.00    -0.200 F 
ENDBRANCH  68  91
ENDBRANCH  42  43
ENDBRANCH  35  37
ENDBRANCH  34  35
ENDBRANCH  33  34
ENDBRANCH  32  33
ENDBRANCH  31  32
ENDBRANCH  30  31
ENDBRANCH   1  30
TORSDOF 20
ENDMDL
