MODEL 1
REMARK VINA RESULT:     -12.3      0.000      0.000
REMARK SMILES O=C(OCCOCCOC(=O)[C@H]1C[C@H]2CCCC[C@@H]2[N@@H+]1C1CCS(=O)(=O)CC1)c1ccc(-c2c3nc(c(-c4c(F)c(F)c(F)c(F)c4F)c4ccc([nH]4)c(-c4c(F)c(F)c(F)c(F)c4F)c4nc(c(-c5c(F)c(F)c(F)c(F)c5F)c5ccc2[nH]5)C=C4)C=C3)cc1
REMARK SMILES IDX 5 1 4 2 3 3 2 4 1 5 29 6 30 7 91 8 31 9 90 10 32 11 33 12
REMARK SMILES IDX 34 13 84 14 35 15 89 16 83 17 85 18 36 19 88 20 82 21 81 22
REMARK SMILES IDX 37 24 69 25 49 26 68 27 50 28 53 29 67 30 86 31 51 32 52 33
REMARK SMILES IDX 66 35 87 36 54 37 38 38 39 39 47 40 40 41 41 42 45 43 48 44
REMARK SMILES IDX 42 45 43 46 46 47 44 48 70 49 71 50 79 51 72 52 73 53 77 54
REMARK SMILES IDX 80 55 74 56 75 57 78 58 76 59 55 60 56 61 64 62 57 63 58 64
REMARK SMILES IDX 62 65 65 66 59 67 60 68 63 69 61 70 6 71 7 72 8 73 9 74
REMARK SMILES IDX 10 75 11 76 12 77 13 78 20 79 14 80 19 81 15 83 18 84 16 85
REMARK SMILES IDX 17 86 21 87 22 88 28 89 23 90 27 91 24 92 25 93 26 94
REMARK H PARENT 85 23 53 34 20 82
REMARK Flexibility Score: inf
ROOT
ATOM      1  C   UNL A   1      31.397  32.172  26.596  1.00  0.00     0.202 C 
ENDROOT
BRANCH   1   2
ATOM      2  C   UNL A   1      32.670  32.915  27.021  1.00  0.00     0.261 C 
BRANCH   2   3
ATOM      3  O   UNL A   1      32.378  34.016  27.893  1.00  0.00    -0.460 OA
BRANCH   3   4
ATOM      4  C   UNL A   1      33.207  34.552  28.822  1.00  0.00     0.338 C 
ATOM      5  O   UNL A   1      32.957  35.663  29.284  1.00  0.00    -0.246 OA
BRANCH   4   6
ATOM      6  C   UNL A   1      34.434  33.846  29.293  1.00  0.00     0.060 A 
ATOM      7  C   UNL A   1      34.411  32.705  30.089  1.00  0.00     0.016 A 
ATOM      8  C   UNL A   1      35.680  34.313  28.855  1.00  0.00     0.016 A 
ATOM      9  C   UNL A   1      35.549  32.090  30.531  1.00  0.00     0.010 A 
ATOM     10  C   UNL A   1      36.854  33.655  29.238  1.00  0.00     0.010 A 
ATOM     11  C   UNL A   1      36.776  32.545  30.087  1.00  0.00    -0.014 A 
BRANCH  11  12
ATOM     12  C   UNL A   1      37.920  31.856  30.682  1.00  0.00     0.031 A 
ATOM     13  C   UNL A   1      38.160  32.060  32.140  1.00  0.00     0.074 A 
ATOM     14  C   UNL A   1      38.501  30.869  29.977  1.00  0.00     0.049 A 
ATOM     15  N   UNL A   1      39.079  31.538  32.902  1.00  0.00    -0.248 NA
ATOM     16  C   UNL A   1      37.219  32.951  32.845  1.00  0.00     0.031 C 
ATOM     17  C   UNL A   1      38.140  30.484  28.605  1.00  0.00     0.029 A 
ATOM     18  N   UNL A   1      39.459  29.962  30.331  1.00  0.00    -0.354 N 
ATOM     19  C   UNL A   1      38.847  32.059  34.165  1.00  0.00     0.074 A 
ATOM     20  C   UNL A   1      37.705  32.938  34.076  1.00  0.00     0.031 C 
ATOM     21  C   UNL A   1      38.854  29.407  28.247  1.00  0.00     0.029 A 
ATOM     22  C   UNL A   1      39.782  29.089  29.321  1.00  0.00     0.049 A 
ATOM     23  H   UNL A   1      39.876  29.937  31.222  1.00  0.00     0.167 HD
ATOM     24  C   UNL A   1      39.551  31.815  35.291  1.00  0.00     0.037 A 
ATOM     25  C   UNL A   1      40.767  28.177  29.271  1.00  0.00     0.037 A 
ATOM     26  C   UNL A   1      40.680  30.927  35.320  1.00  0.00     0.049 A 
ATOM     27  C   UNL A   1      41.626  28.039  30.499  1.00  0.00     0.074 A 
ATOM     28  C   UNL A   1      41.557  30.670  36.354  1.00  0.00     0.029 A 
ATOM     29  N   UNL A   1      41.080  30.142  34.243  1.00  0.00    -0.354 N 
ATOM     30  N   UNL A   1      41.498  28.624  31.667  1.00  0.00    -0.248 NA
ATOM     31  C   UNL A   1      42.773  27.133  30.400  1.00  0.00     0.031 C 
ATOM     32  C   UNL A   1      42.516  29.766  35.887  1.00  0.00     0.029 A 
ATOM     33  C   UNL A   1      42.202  29.410  34.582  1.00  0.00     0.049 A 
ATOM     34  H   UNL A   1      40.628  30.111  33.369  1.00  0.00     0.167 HD
ATOM     35  C   UNL A   1      42.538  28.149  32.449  1.00  0.00     0.074 A 
ATOM     36  C   UNL A   1      43.263  27.196  31.629  1.00  0.00     0.031 C 
ATOM     37  C   UNL A   1      42.879  28.471  33.723  1.00  0.00     0.037 A 
BRANCH  24  38
ATOM     38  C   UNL A   1      39.167  32.583  36.517  1.00  0.00     0.064 A 
ATOM     39  C   UNL A   1      39.739  33.825  36.830  1.00  0.00     0.173 A 
ATOM     40  C   UNL A   1      38.233  32.047  37.415  1.00  0.00     0.173 A 
ATOM     41  F   UNL A   1      40.669  34.362  36.026  1.00  0.00    -0.203 F 
ATOM     42  C   UNL A   1      39.401  34.493  38.005  1.00  0.00     0.198 A 
ATOM     43  C   UNL A   1      37.877  32.729  38.574  1.00  0.00     0.198 A 
ATOM     44  F   UNL A   1      37.674  30.850  37.174  1.00  0.00    -0.203 F 
ATOM     45  F   UNL A   1      40.000  35.652  38.313  1.00  0.00    -0.200 F 
ATOM     46  C   UNL A   1      38.465  33.948  38.873  1.00  0.00     0.200 A 
ATOM     47  F   UNL A   1      36.975  32.197  39.412  1.00  0.00    -0.200 F 
ATOM     48  F   UNL A   1      38.143  34.590  40.003  1.00  0.00    -0.200 F 
ENDBRANCH  24  38
BRANCH  25  49
ATOM     49  C   UNL A   1      41.055  27.429  28.016  1.00  0.00     0.064 A 
ATOM     50  C   UNL A   1      40.552  26.140  27.797  1.00  0.00     0.173 A 
ATOM     51  C   UNL A   1      41.897  27.970  27.029  1.00  0.00     0.173 A 
ATOM     52  F   UNL A   1      39.757  25.565  28.711  1.00  0.00    -0.203 F 
ATOM     53  C   UNL A   1      40.912  25.408  26.664  1.00  0.00     0.198 A 
ATOM     54  C   UNL A   1      42.223  27.255  25.880  1.00  0.00     0.198 A 
ATOM     55  F   UNL A   1      42.412  29.199  27.182  1.00  0.00    -0.203 F 
ATOM     56  F   UNL A   1      40.477  24.149  26.518  1.00  0.00    -0.200 F 
ATOM     57  C   UNL A   1      41.744  25.966  25.706  1.00  0.00     0.200 A 
ATOM     58  F   UNL A   1      43.014  27.808  24.951  1.00  0.00    -0.200 F 
ATOM     59  F   UNL A   1      42.099  25.257  24.626  1.00  0.00    -0.200 F 
ENDBRANCH  25  49
BRANCH  37  60
ATOM     60  C   UNL A   1      44.064  27.753  34.294  1.00  0.00     0.064 A 
ATOM     61  C   UNL A   1      43.939  26.496  34.901  1.00  0.00     0.173 A 
ATOM     62  C   UNL A   1      45.341  28.327  34.211  1.00  0.00     0.173 A 
ATOM     63  F   UNL A   1      42.734  25.918  35.018  1.00  0.00    -0.203 F 
ATOM     64  C   UNL A   1      45.049  25.855  35.442  1.00  0.00     0.198 A 
ATOM     65  C   UNL A   1      46.453  27.664  34.716  1.00  0.00     0.198 A 
ATOM     66  F   UNL A   1      45.509  29.524  33.630  1.00  0.00    -0.203 F 
ATOM     67  F   UNL A   1      44.898  24.686  36.079  1.00  0.00    -0.200 F 
ATOM     68  C   UNL A   1      46.303  26.435  35.341  1.00  0.00     0.200 A 
ATOM     69  F   UNL A   1      47.668  28.216  34.600  1.00  0.00    -0.200 F 
ATOM     70  F   UNL A   1      47.373  25.814  35.858  1.00  0.00    -0.200 F 
ENDBRANCH  37  60
ENDBRANCH  11  12
ENDBRANCH   4   6
ENDBRANCH   3   4
ENDBRANCH   2   3
ENDBRANCH   1   2
BRANCH   1  71
ATOM     71  O   UNL A   1      31.443  30.768  26.307  1.00  0.00    -0.374 OA
BRANCH  71  72
ATOM     72  C   UNL A   1      32.369  29.961  27.051  1.00  0.00     0.202 C 
BRANCH  72  73
ATOM     73  C   UNL A   1      31.830  28.540  27.241  1.00  0.00     0.261 C 
BRANCH  73  74
ATOM     74  O   UNL A   1      31.831  27.920  25.954  1.00  0.00    -0.459 OA
BRANCH  74  75
ATOM     75  C   UNL A   1      30.986  26.859  25.904  1.00  0.00     0.365 C 
ATOM     76  O   UNL A   1      30.643  26.199  26.881  1.00  0.00    -0.245 OA
BRANCH  75  77
ATOM     77  C   UNL A   1      30.454  26.611  24.486  1.00  0.00     0.296 C 
ATOM     78  C   UNL A   1      28.949  26.838  24.220  1.00  0.00     0.087 C 
ATOM     79  N   UNL A   1      31.165  27.532  23.599  1.00  0.00    -0.318 N 
ATOM     80  C   UNL A   1      28.916  27.827  23.082  1.00  0.00     0.054 C 
ATOM     81  C   UNL A   1      30.201  28.600  23.324  1.00  0.00     0.188 C 
ATOM     82  H   UNL A   1      31.989  27.967  24.014  1.00  0.00     0.349 HD
ATOM     83  C   UNL A   1      27.666  28.686  23.030  1.00  0.00     0.010 C 
ATOM     84  C   UNL A   1      30.402  29.685  22.283  1.00  0.00     0.065 C 
ATOM     85  C   UNL A   1      27.862  29.817  22.025  1.00  0.00     0.001 C 
ATOM     86  C   UNL A   1      29.158  30.594  22.286  1.00  0.00     0.006 C 
BRANCH  79  87
ATOM     87  C   UNL A   1      32.120  27.010  22.627  1.00  0.00     0.186 C 
ATOM     88  C   UNL A   1      33.594  26.977  23.135  1.00  0.00     0.081 C 
ATOM     89  C   UNL A   1      31.778  25.676  21.946  1.00  0.00     0.081 C 
ATOM     90  C   UNL A   1      34.030  25.834  24.049  1.00  0.00     0.143 C 
ATOM     91  C   UNL A   1      31.894  24.449  22.828  1.00  0.00     0.143 C 
ATOM     92  S   UNL A   1      33.531  24.224  23.483  1.00  0.00     0.150 S 
ATOM     93  O   UNL A   1      33.405  23.368  24.645  1.00  0.00    -0.229 OA
ATOM     94  O   UNL A   1      34.397  23.855  22.375  1.00  0.00    -0.229 OA
ENDBRANCH  79  87
ENDBRANCH  75  77
ENDBRANCH  74  75
ENDBRANCH  73  74
ENDBRANCH  72  73
ENDBRANCH  71  72
ENDBRANCH   1  71
TORSDOF 15
ENDMDL
MODEL 2
REMARK VINA RESULT:     -12.3      1.996      3.865
REMARK SMILES O=C(OCCOCCOC(=O)[C@H]1C[C@H]2CCCC[C@@H]2[N@@H+]1C1CCS(=O)(=O)CC1)c1ccc(-c2c3nc(c(-c4c(F)c(F)c(F)c(F)c4F)c4ccc([nH]4)c(-c4c(F)c(F)c(F)c(F)c4F)c4nc(c(-c5c(F)c(F)c(F)c(F)c5F)c5ccc2[nH]5)C=C4)C=C3)cc1
REMARK SMILES IDX 5 1 4 2 3 3 2 4 1 5 29 6 30 7 91 8 31 9 90 10 32 11 33 12
REMARK SMILES IDX 34 13 84 14 35 15 89 16 83 17 85 18 36 19 88 20 82 21 81 22
REMARK SMILES IDX 37 24 69 25 49 26 68 27 50 28 53 29 67 30 86 31 51 32 52 33
REMARK SMILES IDX 66 35 87 36 54 37 38 38 39 39 47 40 40 41 41 42 45 43 48 44
REMARK SMILES IDX 42 45 43 46 46 47 44 48 70 49 71 50 79 51 72 52 73 53 77 54
REMARK SMILES IDX 80 55 74 56 75 57 78 58 76 59 55 60 56 61 64 62 57 63 58 64
REMARK SMILES IDX 62 65 65 66 59 67 60 68 63 69 61 70 6 71 7 72 8 73 9 74
REMARK SMILES IDX 10 75 11 76 12 77 13 78 20 79 14 80 19 81 15 83 18 84 16 85
REMARK SMILES IDX 17 86 21 87 22 88 28 89 23 90 27 91 24 92 25 93 26 94
REMARK H PARENT 85 23 53 34 20 82
REMARK Flexibility Score: inf
ROOT
ATOM      1  C   UNL A   1      32.137  29.428  24.753  1.00  0.00     0.202 C 
ENDROOT
BRANCH   1   2
ATOM      2  C   UNL A   1      31.697  30.466  25.794  1.00  0.00     0.261 C 
BRANCH   2   3
ATOM      3  O   UNL A   1      32.523  30.427  26.966  1.00  0.00    -0.460 OA
BRANCH   3   4
ATOM      4  C   UNL A   1      33.370  31.397  27.390  1.00  0.00     0.338 C 
ATOM      5  O   UNL A   1      33.044  32.576  27.273  1.00  0.00    -0.246 OA
BRANCH   4   6
ATOM      6  C   UNL A   1      34.705  31.083  27.978  1.00  0.00     0.060 A 
ATOM      7  C   UNL A   1      35.075  29.818  28.423  1.00  0.00     0.016 A 
ATOM      8  C   UNL A   1      35.668  32.100  28.024  1.00  0.00     0.016 A 
ATOM      9  C   UNL A   1      36.295  29.559  28.983  1.00  0.00     0.010 A 
ATOM     10  C   UNL A   1      36.946  31.838  28.529  1.00  0.00     0.010 A 
ATOM     11  C   UNL A   1      37.246  30.561  29.015  1.00  0.00    -0.014 A 
BRANCH  11  12
ATOM     12  C   UNL A   1      38.482  30.188  29.702  1.00  0.00     0.031 A 
ATOM     13  C   UNL A   1      38.661  30.669  31.102  1.00  0.00     0.074 A 
ATOM     14  C   UNL A   1      39.237  29.214  29.162  1.00  0.00     0.049 A 
ATOM     15  N   UNL A   1      39.643  30.447  31.928  1.00  0.00    -0.248 NA
ATOM     16  C   UNL A   1      37.569  31.488  31.663  1.00  0.00     0.031 C 
ATOM     17  C   UNL A   1      38.970  28.551  27.877  1.00  0.00     0.029 A 
ATOM     18  N   UNL A   1      40.331  28.558  29.649  1.00  0.00    -0.354 N 
ATOM     19  C   UNL A   1      39.305  31.121  33.090  1.00  0.00     0.074 A 
ATOM     20  C   UNL A   1      38.030  31.762  32.873  1.00  0.00     0.031 C 
ATOM     21  C   UNL A   1      39.865  27.570  27.693  1.00  0.00     0.029 A 
ATOM     22  C   UNL A   1      40.816  27.599  28.793  1.00  0.00     0.049 A 
ATOM     23  H   UNL A   1      40.732  28.753  30.526  1.00  0.00     0.167 HD
ATOM     24  C   UNL A   1      40.022  31.191  34.232  1.00  0.00     0.037 A 
ATOM     25  C   UNL A   1      41.945  26.876  28.881  1.00  0.00     0.037 A 
ATOM     26  C   UNL A   1      41.288  30.530  34.393  1.00  0.00     0.049 A 
ATOM     27  C   UNL A   1      42.795  27.093  30.103  1.00  0.00     0.074 A 
ATOM     28  C   UNL A   1      42.179  30.602  35.443  1.00  0.00     0.029 A 
ATOM     29  N   UNL A   1      41.834  29.658  33.456  1.00  0.00    -0.354 N 
ATOM     30  N   UNL A   1      42.550  27.832  31.161  1.00  0.00    -0.248 NA
ATOM     31  C   UNL A   1      44.083  26.396  30.141  1.00  0.00     0.031 C 
ATOM     32  C   UNL A   1      43.287  29.813  35.119  1.00  0.00     0.029 A 
ATOM     33  C   UNL A   1      43.061  29.198  33.896  1.00  0.00     0.049 A 
ATOM     34  H   UNL A   1      41.409  29.407  32.604  1.00  0.00     0.167 HD
ATOM     35  C   UNL A   1      43.643  27.679  31.997  1.00  0.00     0.074 A 
ATOM     36  C   UNL A   1      44.535  26.745  31.336  1.00  0.00     0.031 C 
ATOM     37  C   UNL A   1      43.903  28.261  33.195  1.00  0.00     0.037 A 
BRANCH  24  38
ATOM     38  C   UNL A   1      39.493  32.073  35.319  1.00  0.00     0.064 A 
ATOM     39  C   UNL A   1      39.856  33.424  35.430  1.00  0.00     0.173 A 
ATOM     40  C   UNL A   1      38.630  31.545  36.291  1.00  0.00     0.173 A 
ATOM     41  F   UNL A   1      40.712  33.967  34.551  1.00  0.00    -0.203 F 
ATOM     42  C   UNL A   1      39.388  34.207  36.483  1.00  0.00     0.198 A 
ATOM     43  C   UNL A   1      38.142  32.337  37.326  1.00  0.00     0.198 A 
ATOM     44  F   UNL A   1      38.270  30.253  36.244  1.00  0.00    -0.203 F 
ATOM     45  F   UNL A   1      39.791  35.480  36.602  1.00  0.00    -0.200 F 
ATOM     46  C   UNL A   1      38.526  33.665  37.426  1.00  0.00     0.200 A 
ATOM     47  F   UNL A   1      37.313  31.809  38.237  1.00  0.00    -0.200 F 
ATOM     48  F   UNL A   1      38.078  34.418  38.439  1.00  0.00    -0.200 F 
ENDBRANCH  24  38
BRANCH  25  49
ATOM     49  C   UNL A   1      42.378  25.992  27.764  1.00  0.00     0.064 A 
ATOM     50  C   UNL A   1      43.314  26.415  26.811  1.00  0.00     0.173 A 
ATOM     51  C   UNL A   1      41.813  24.717  27.591  1.00  0.00     0.173 A 
ATOM     52  F   UNL A   1      43.875  27.629  26.915  1.00  0.00    -0.203 F 
ATOM     53  C   UNL A   1      43.635  25.618  25.711  1.00  0.00     0.198 A 
ATOM     54  C   UNL A   1      42.164  23.906  26.515  1.00  0.00     0.198 A 
ATOM     55  F   UNL A   1      40.908  24.255  28.468  1.00  0.00    -0.203 F 
ATOM     56  F   UNL A   1      44.475  26.081  24.776  1.00  0.00    -0.200 F 
ATOM     57  C   UNL A   1      43.062  24.364  25.565  1.00  0.00     0.200 A 
ATOM     58  F   UNL A   1      41.618  22.689  26.390  1.00  0.00    -0.200 F 
ATOM     59  F   UNL A   1      43.361  23.606  24.501  1.00  0.00    -0.200 F 
ENDBRANCH  25  49
BRANCH  37  60
ATOM     60  C   UNL A   1      45.185  27.864  33.862  1.00  0.00     0.064 A 
ATOM     61  C   UNL A   1      45.254  26.759  34.722  1.00  0.00     0.173 A 
ATOM     62  C   UNL A   1      46.360  28.590  33.616  1.00  0.00     0.173 A 
ATOM     63  F   UNL A   1      44.151  26.047  34.998  1.00  0.00    -0.203 F 
ATOM     64  C   UNL A   1      46.450  26.419  35.345  1.00  0.00     0.198 A 
ATOM     65  C   UNL A   1      47.561  28.220  34.209  1.00  0.00     0.198 A 
ATOM     66  F   UNL A   1      46.343  29.648  32.792  1.00  0.00    -0.203 F 
ATOM     67  F   UNL A   1      46.480  25.401  36.217  1.00  0.00    -0.200 F 
ATOM     68  C   UNL A   1      47.602  27.143  35.082  1.00  0.00     0.200 A 
ATOM     69  F   UNL A   1      48.678  28.909  33.938  1.00  0.00    -0.200 F 
ATOM     70  F   UNL A   1      48.754  26.810  35.679  1.00  0.00    -0.200 F 
ENDBRANCH  37  60
ENDBRANCH  11  12
ENDBRANCH   4   6
ENDBRANCH   3   4
ENDBRANCH   2   3
ENDBRANCH   1   2
BRANCH   1  71
ATOM     71  O   UNL A   1      33.524  29.289  24.413  1.00  0.00    -0.374 OA
BRANCH  71  72
ATOM     72  C   UNL A   1      33.847  28.659  23.165  1.00  0.00     0.202 C 
BRANCH  72  73
ATOM     73  C   UNL A   1      32.881  27.509  22.863  1.00  0.00     0.261 C 
BRANCH  73  74
ATOM     74  O   UNL A   1      33.457  26.326  23.418  1.00  0.00    -0.459 OA
BRANCH  74  75
ATOM     75  C   UNL A   1      33.509  25.317  22.511  1.00  0.00     0.365 C 
ATOM     76  O   UNL A   1      33.527  25.478  21.294  1.00  0.00    -0.245 OA
BRANCH  75  77
ATOM     77  C   UNL A   1      33.604  23.941  23.184  1.00  0.00     0.296 C 
ATOM     78  C   UNL A   1      34.703  22.966  22.704  1.00  0.00     0.087 C 
ATOM     79  N   UNL A   1      33.867  24.179  24.603  1.00  0.00    -0.318 N 
ATOM     80  C   UNL A   1      35.471  22.625  23.955  1.00  0.00     0.054 C 
ATOM     81  C   UNL A   1      35.293  23.895  24.769  1.00  0.00     0.188 C 
ATOM     82  H   UNL A   1      33.711  25.141  24.905  1.00  0.00     0.349 HD
ATOM     83  C   UNL A   1      36.917  22.226  23.719  1.00  0.00     0.010 C 
ATOM     84  C   UNL A   1      35.995  23.800  26.110  1.00  0.00     0.065 C 
ATOM     85  C   UNL A   1      37.658  22.173  25.051  1.00  0.00     0.001 C 
ATOM     86  C   UNL A   1      37.478  23.464  25.858  1.00  0.00     0.006 C 
BRANCH  79  87
ATOM     87  C   UNL A   1      32.841  23.866  25.592  1.00  0.00     0.186 C 
ATOM     88  C   UNL A   1      32.602  24.992  26.644  1.00  0.00     0.081 C 
ATOM     89  C   UNL A   1      31.490  23.351  25.071  1.00  0.00     0.081 C 
ATOM     90  C   UNL A   1      31.739  26.189  26.254  1.00  0.00     0.143 C 
ATOM     91  C   UNL A   1      30.620  24.388  24.390  1.00  0.00     0.143 C 
ATOM     92  S   UNL A   1      30.212  25.752  25.456  1.00  0.00     0.150 S 
ATOM     93  O   UNL A   1      29.830  26.856  24.599  1.00  0.00    -0.229 OA
ATOM     94  O   UNL A   1      29.305  25.251  26.476  1.00  0.00    -0.229 OA
ENDBRANCH  79  87
ENDBRANCH  75  77
ENDBRANCH  74  75
ENDBRANCH  73  74
ENDBRANCH  72  73
ENDBRANCH  71  72
ENDBRANCH   1  71
TORSDOF 15
ENDMDL
MODEL 3
REMARK VINA RESULT:     -12.2      0.933      1.934
REMARK SMILES O=C(OCCOCCOC(=O)[C@H]1C[C@H]2CCCC[C@@H]2[N@@H+]1C1CCS(=O)(=O)CC1)c1ccc(-c2c3nc(c(-c4c(F)c(F)c(F)c(F)c4F)c4ccc([nH]4)c(-c4c(F)c(F)c(F)c(F)c4F)c4nc(c(-c5c(F)c(F)c(F)c(F)c5F)c5ccc2[nH]5)C=C4)C=C3)cc1
REMARK SMILES IDX 5 1 4 2 3 3 2 4 1 5 29 6 30 7 91 8 31 9 90 10 32 11 33 12
REMARK SMILES IDX 34 13 84 14 35 15 89 16 83 17 85 18 36 19 88 20 82 21 81 22
REMARK SMILES IDX 37 24 69 25 49 26 68 27 50 28 53 29 67 30 86 31 51 32 52 33
REMARK SMILES IDX 66 35 87 36 54 37 38 38 39 39 47 40 40 41 41 42 45 43 48 44
REMARK SMILES IDX 42 45 43 46 46 47 44 48 70 49 71 50 79 51 72 52 73 53 77 54
REMARK SMILES IDX 80 55 74 56 75 57 78 58 76 59 55 60 56 61 64 62 57 63 58 64
REMARK SMILES IDX 62 65 65 66 59 67 60 68 63 69 61 70 6 71 7 72 8 73 9 74
REMARK SMILES IDX 10 75 11 76 12 77 13 78 20 79 14 80 19 81 15 83 18 84 16 85
REMARK SMILES IDX 17 86 21 87 22 88 28 89 23 90 27 91 24 92 25 93 26 94
REMARK H PARENT 85 23 53 34 20 82
REMARK Flexibility Score: inf
ROOT
ATOM      1  C   UNL A   1      31.342  32.318  26.569  1.00  0.00     0.202 C 
ENDROOT
BRANCH   1   2
ATOM      2  C   UNL A   1      32.566  32.960  27.235  1.00  0.00     0.261 C 
BRANCH   2   3
ATOM      3  O   UNL A   1      32.230  34.186  27.898  1.00  0.00    -0.460 OA
BRANCH   3   4
ATOM      4  C   UNL A   1      33.029  34.903  28.725  1.00  0.00     0.338 C 
ATOM      5  O   UNL A   1      32.788  36.092  28.918  1.00  0.00    -0.246 OA
BRANCH   4   6
ATOM      6  C   UNL A   1      34.216  34.301  29.399  1.00  0.00     0.060 A 
ATOM      7  C   UNL A   1      35.531  34.556  29.022  1.00  0.00     0.016 A 
ATOM      8  C   UNL A   1      34.004  33.486  30.519  1.00  0.00     0.016 A 
ATOM      9  C   UNL A   1      36.603  33.971  29.637  1.00  0.00     0.010 A 
ATOM     10  C   UNL A   1      35.091  32.935  31.206  1.00  0.00     0.010 A 
ATOM     11  C   UNL A   1      36.391  33.179  30.749  1.00  0.00    -0.014 A 
BRANCH  11  12
ATOM     12  C   UNL A   1      37.602  32.552  31.276  1.00  0.00     0.031 A 
ATOM     13  C   UNL A   1      38.009  32.906  32.666  1.00  0.00     0.074 A 
ATOM     14  C   UNL A   1      38.107  31.496  30.613  1.00  0.00     0.049 A 
ATOM     15  N   UNL A   1      39.014  32.463  33.366  1.00  0.00    -0.248 NA
ATOM     16  C   UNL A   1      37.148  33.868  33.381  1.00  0.00     0.031 C 
ATOM     17  C   UNL A   1      37.592  30.971  29.340  1.00  0.00     0.029 A 
ATOM     18  N   UNL A   1      39.108  30.628  30.946  1.00  0.00    -0.354 N 
ATOM     19  C   UNL A   1      38.926  33.113  34.587  1.00  0.00     0.074 A 
ATOM     20  C   UNL A   1      37.774  33.981  34.541  1.00  0.00     0.031 C 
ATOM     21  C   UNL A   1      38.270  29.861  29.015  1.00  0.00     0.029 A 
ATOM     22  C   UNL A   1      39.319  29.654  30.000  1.00  0.00     0.049 A 
ATOM     23  H   UNL A   1      39.626  30.694  31.780  1.00  0.00     0.167 HD
ATOM     24  C   UNL A   1      39.758  32.985  35.642  1.00  0.00     0.037 A 
ATOM     25  C   UNL A   1      40.301  28.739  29.930  1.00  0.00     0.037 A 
ATOM     26  C   UNL A   1      40.892  32.102  35.631  1.00  0.00     0.049 A 
ATOM     27  C   UNL A   1      41.298  28.726  31.057  1.00  0.00     0.074 A 
ATOM     28  C   UNL A   1      41.885  31.951  36.577  1.00  0.00     0.029 A 
ATOM     29  N   UNL A   1      41.171  31.208  34.602  1.00  0.00    -0.354 N 
ATOM     30  N   UNL A   1      41.301  29.430  32.166  1.00  0.00    -0.248 NA
ATOM     31  C   UNL A   1      42.434  27.813  30.919  1.00  0.00     0.031 C 
ATOM     32  C   UNL A   1      42.792  31.001  36.097  1.00  0.00     0.029 A 
ATOM     33  C   UNL A   1      42.332  30.513  34.882  1.00  0.00     0.049 A 
ATOM     34  H   UNL A   1      40.621  31.088  33.794  1.00  0.00     0.167 HD
ATOM     35  C   UNL A   1      42.429  29.036  32.866  1.00  0.00     0.074 A 
ATOM     36  C   UNL A   1      43.063  28.001  32.069  1.00  0.00     0.031 C 
ATOM     37  C   UNL A   1      42.913  29.487  34.051  1.00  0.00     0.037 A 
BRANCH  24  38
ATOM     38  C   UNL A   1      39.513  33.877  36.819  1.00  0.00     0.064 A 
ATOM     39  C   UNL A   1      40.015  35.186  36.882  1.00  0.00     0.173 A 
ATOM     40  C   UNL A   1      38.788  33.399  37.920  1.00  0.00     0.173 A 
ATOM     41  F   UNL A   1      40.751  35.676  35.874  1.00  0.00    -0.203 F 
ATOM     42  C   UNL A   1      39.815  35.975  38.013  1.00  0.00     0.198 A 
ATOM     43  C   UNL A   1      38.566  34.200  39.037  1.00  0.00     0.198 A 
ATOM     44  F   UNL A   1      38.306  32.147  37.920  1.00  0.00    -0.203 F 
ATOM     45  F   UNL A   1      40.351  37.202  38.076  1.00  0.00    -0.200 F 
ATOM     46  C   UNL A   1      39.085  35.484  39.086  1.00  0.00     0.200 A 
ATOM     47  F   UNL A   1      37.864  33.721  40.073  1.00  0.00    -0.200 F 
ATOM     48  F   UNL A   1      38.895  36.243  40.173  1.00  0.00    -0.200 F 
ENDBRANCH  24  38
BRANCH  25  49
ATOM     49  C   UNL A   1      40.448  27.864  28.735  1.00  0.00     0.064 A 
ATOM     50  C   UNL A   1      41.172  28.274  27.607  1.00  0.00     0.173 A 
ATOM     51  C   UNL A   1      39.810  26.613  28.672  1.00  0.00     0.173 A 
ATOM     52  F   UNL A   1      41.788  29.465  27.603  1.00  0.00    -0.203 F 
ATOM     53  C   UNL A   1      41.217  27.488  26.454  1.00  0.00     0.198 A 
ATOM     54  C   UNL A   1      39.889  25.812  27.535  1.00  0.00     0.198 A 
ATOM     55  F   UNL A   1      39.099  26.164  29.718  1.00  0.00    -0.203 F 
ATOM     56  F   UNL A   1      41.853  27.941  25.365  1.00  0.00    -0.200 F 
ATOM     57  C   UNL A   1      40.579  26.258  26.420  1.00  0.00     0.200 A 
ATOM     58  F   UNL A   1      39.283  24.618  27.517  1.00  0.00    -0.200 F 
ATOM     59  F   UNL A   1      40.612  25.513  25.307  1.00  0.00    -0.200 F 
ENDBRANCH  25  49
BRANCH  37  60
ATOM     60  C   UNL A   1      44.163  28.830  34.552  1.00  0.00     0.064 A 
ATOM     61  C   UNL A   1      45.433  29.350  34.263  1.00  0.00     0.173 A 
ATOM     62  C   UNL A   1      44.082  27.678  35.347  1.00  0.00     0.173 A 
ATOM     63  F   UNL A   1      45.558  30.440  33.491  1.00  0.00    -0.203 F 
ATOM     64  C   UNL A   1      46.581  28.713  34.721  1.00  0.00     0.198 A 
ATOM     65  C   UNL A   1      45.231  27.070  35.838  1.00  0.00     0.198 A 
ATOM     66  F   UNL A   1      42.888  27.151  35.657  1.00  0.00    -0.203 F 
ATOM     67  F   UNL A   1      47.787  29.187  34.377  1.00  0.00    -0.200 F 
ATOM     68  C   UNL A   1      46.479  27.581  35.514  1.00  0.00     0.200 A 
ATOM     69  F   UNL A   1      45.131  25.987  36.621  1.00  0.00    -0.200 F 
ATOM     70  F   UNL A   1      47.587  26.973  35.960  1.00  0.00    -0.200 F 
ENDBRANCH  37  60
ENDBRANCH  11  12
ENDBRANCH   4   6
ENDBRANCH   3   4
ENDBRANCH   2   3
ENDBRANCH   1   2
BRANCH   1  71
ATOM     71  O   UNL A   1      31.454  31.035  25.936  1.00  0.00    -0.374 OA
BRANCH  71  72
ATOM     72  C   UNL A   1      32.410  30.106  26.470  1.00  0.00     0.202 C 
BRANCH  72  73
ATOM     73  C   UNL A   1      31.728  28.805  26.904  1.00  0.00     0.261 C 
BRANCH  73  74
ATOM     74  O   UNL A   1      32.047  27.821  25.918  1.00  0.00    -0.459 OA
BRANCH  74  75
ATOM     75  C   UNL A   1      31.142  26.809  25.905  1.00  0.00     0.365 C 
ATOM     76  O   UNL A   1      30.774  26.194  26.902  1.00  0.00    -0.245 OA
BRANCH  75  77
ATOM     77  C   UNL A   1      30.581  26.555  24.499  1.00  0.00     0.296 C 
ATOM     78  C   UNL A   1      29.072  26.791  24.261  1.00  0.00     0.087 C 
ATOM     79  N   UNL A   1      31.280  27.465  23.592  1.00  0.00    -0.318 N 
ATOM     80  C   UNL A   1      29.025  27.772  23.118  1.00  0.00     0.054 C 
ATOM     81  C   UNL A   1      30.320  28.537  23.329  1.00  0.00     0.188 C 
ATOM     82  H   UNL A   1      32.116  27.896  23.988  1.00  0.00     0.349 HD
ATOM     83  C   UNL A   1      27.779  28.640  23.084  1.00  0.00     0.010 C 
ATOM     84  C   UNL A   1      30.508  29.614  22.277  1.00  0.00     0.065 C 
ATOM     85  C   UNL A   1      27.964  29.763  22.067  1.00  0.00     0.001 C 
ATOM     86  C   UNL A   1      29.270  30.532  22.297  1.00  0.00     0.006 C 
BRANCH  79  87
ATOM     87  C   UNL A   1      32.213  26.929  22.606  1.00  0.00     0.186 C 
ATOM     88  C   UNL A   1      33.683  26.815  23.112  1.00  0.00     0.081 C 
ATOM     89  C   UNL A   1      31.813  25.631  21.886  1.00  0.00     0.081 C 
ATOM     90  C   UNL A   1      34.067  25.629  23.992  1.00  0.00     0.143 C 
ATOM     91  C   UNL A   1      31.873  24.376  22.733  1.00  0.00     0.143 C 
ATOM     92  S   UNL A   1      33.498  24.059  23.381  1.00  0.00     0.150 S 
ATOM     93  O   UNL A   1      33.333  23.177  24.518  1.00  0.00    -0.229 OA
ATOM     94  O   UNL A   1      34.348  23.685  22.262  1.00  0.00    -0.229 OA
ENDBRANCH  79  87
ENDBRANCH  75  77
ENDBRANCH  74  75
ENDBRANCH  73  74
ENDBRANCH  72  73
ENDBRANCH  71  72
ENDBRANCH   1  71
TORSDOF 15
ENDMDL
