MODEL 1
REMARK VINA RESULT:      -9.2      0.000      0.000
REMARK SMILES COc1cccc([C@@]([NH3+])(C(=O)OCCOCCOC(=O)c2ccc(-c3c4nc(c(-c5c(F)c(F)c(F)c(F)c5F)c5ccc([nH]5)c(-c5c(F)c(F)c(F)c(F)c5F)c5nc(c(-c6c(F)c(F)c(F)c(F)c6F)c6ccc3[nH]6)C=C5)C=C4)cc2)C(F)(F)F)c1
REMARK SMILES IDX 15 1 14 2 13 3 12 4 10 5 11 6 8 7 7 8 3 9 4 10 88 11 5 12
REMARK SMILES IDX 6 13 2 14 1 15 9 16 84 20 85 21 86 22 87 23 16 24 17 25
REMARK SMILES IDX 18 26 19 27 20 28 21 29 22 30 83 31 23 32 82 33 24 34 25 35
REMARK SMILES IDX 26 36 76 37 27 38 81 39 75 40 77 41 28 42 80 43 74 44 73 45
REMARK SMILES IDX 29 47 61 48 41 49 60 50 42 51 45 52 59 53 78 54 43 55 44 56
REMARK SMILES IDX 58 58 79 59 46 60 30 61 31 62 39 63 32 64 33 65 37 66 40 67
REMARK SMILES IDX 34 68 35 69 38 70 36 71 62 72 63 73 71 74 64 75 65 76 69 77
REMARK SMILES IDX 72 78 66 79 67 80 70 81 68 82 47 83 48 84 56 85 49 86 50 87
REMARK SMILES IDX 54 88 57 89 51 90 52 91 55 92 53 93
REMARK H PARENT 9 17 9 18 9 19 77 46 45 57
REMARK Flexibility Score: inf
ROOT
ATOM      1  O   UNL A   1      42.301  20.144  25.416  1.00  0.00    -0.374 OA
ENDROOT
BRANCH   1   2
ATOM      2  C   UNL A   1      43.421  19.263  25.333  1.00  0.00     0.202 C 
BRANCH   2   3
ATOM      3  C   UNL A   1      44.681  19.848  24.694  1.00  0.00     0.261 C 
BRANCH   3   4
ATOM      4  O   UNL A   1      44.498  21.244  24.411  1.00  0.00    -0.458 OA
BRANCH   4   5
ATOM      5  C   UNL A   1      44.988  22.107  25.342  1.00  0.00     0.382 C 
ATOM      6  O   UNL A   1      46.081  21.954  25.882  1.00  0.00    -0.244 OA
BRANCH   5   7
ATOM      7  C   UNL A   1      44.037  23.274  25.701  1.00  0.00     0.314 C 
BRANCH   7   8
ATOM      8  C   UNL A   1      44.566  24.705  25.400  1.00  0.00     0.037 A 
ATOM      9  C   UNL A   1      46.380  26.362  25.272  1.00  0.00     0.119 A 
ATOM     10  C   UNL A   1      45.442  27.376  25.095  1.00  0.00     0.046 A 
ATOM     11  C   UNL A   1      45.943  25.038  25.410  1.00  0.00     0.057 A 
ATOM     12  C   UNL A   1      44.084  27.079  25.050  1.00  0.00     0.004 A 
ATOM     13  C   UNL A   1      43.651  25.760  25.211  1.00  0.00     0.011 A 
BRANCH   9  14
ATOM     14  O   UNL A   1      47.675  26.796  25.335  1.00  0.00    -0.497 OA
ATOM     15  C   UNL A   1      48.705  25.815  25.337  1.00  0.00     0.278 C 
ENDBRANCH   9  14
ENDBRANCH   7   8
BRANCH   7  16
ATOM     16  N   UNL A   1      42.790  23.081  24.859  1.00  0.00    -0.332 N 
ATOM     17  H   UNL A   1      42.557  22.088  24.820  1.00  0.00     0.346 HD
ATOM     18  H   UNL A   1      42.961  23.427  23.915  1.00  0.00     0.346 HD
ATOM     19  H   UNL A   1      42.015  23.597  25.275  1.00  0.00     0.346 HD
ENDBRANCH   7  16
BRANCH   7  20
ATOM     20  C   UNL A   1      43.780  23.015  27.222  1.00  0.00     0.460 C 
ATOM     21  F   UNL A   1      44.784  23.471  28.007  1.00  0.00    -0.164 F 
ATOM     22  F   UNL A   1      42.640  23.641  27.630  1.00  0.00    -0.164 F 
ATOM     23  F   UNL A   1      43.587  21.708  27.516  1.00  0.00    -0.164 F 
ENDBRANCH   7  20
ENDBRANCH   5   7
ENDBRANCH   4   5
ENDBRANCH   3   4
ENDBRANCH   2   3
ENDBRANCH   1   2
BRANCH   1  24
ATOM     24  C   UNL A   1      41.208  19.757  26.250  1.00  0.00     0.202 C 
BRANCH  24  25
ATOM     25  C   UNL A   1      40.474  20.879  26.994  1.00  0.00     0.261 C 
BRANCH  25  26
ATOM     26  O   UNL A   1      40.434  22.108  26.247  1.00  0.00    -0.460 OA
BRANCH  26  27
ATOM     27  C   UNL A   1      39.247  22.754  26.294  1.00  0.00     0.338 C 
ATOM     28  O   UNL A   1      38.139  22.290  26.050  1.00  0.00    -0.246 OA
BRANCH  27  29
ATOM     29  C   UNL A   1      39.406  24.110  26.848  1.00  0.00     0.060 A 
ATOM     30  C   UNL A   1      40.050  25.058  26.041  1.00  0.00     0.016 A 
ATOM     31  C   UNL A   1      39.051  24.424  28.162  1.00  0.00     0.016 A 
ATOM     32  C   UNL A   1      40.413  26.293  26.568  1.00  0.00     0.010 A 
ATOM     33  C   UNL A   1      39.424  25.665  28.694  1.00  0.00     0.010 A 
ATOM     34  C   UNL A   1      40.153  26.581  27.914  1.00  0.00    -0.014 A 
BRANCH  34  35
ATOM     35  C   UNL A   1      40.825  27.752  28.532  1.00  0.00     0.031 A 
ATOM     36  C   UNL A   1      39.986  28.929  28.952  1.00  0.00     0.074 A 
ATOM     37  C   UNL A   1      42.144  27.738  28.792  1.00  0.00     0.049 A 
ATOM     38  N   UNL A   1      40.345  30.035  29.553  1.00  0.00    -0.248 NA
ATOM     39  C   UNL A   1      38.548  28.847  28.654  1.00  0.00     0.031 C 
ATOM     40  C   UNL A   1      43.056  26.642  28.471  1.00  0.00     0.029 A 
ATOM     41  N   UNL A   1      42.942  28.677  29.395  1.00  0.00    -0.354 N 
ATOM     42  C   UNL A   1      39.180  30.777  29.707  1.00  0.00     0.074 A 
ATOM     43  C   UNL A   1      38.109  30.013  29.105  1.00  0.00     0.031 C 
ATOM     44  C   UNL A   1      44.293  26.972  28.880  1.00  0.00     0.029 A 
ATOM     45  C   UNL A   1      44.261  28.308  29.476  1.00  0.00     0.049 A 
ATOM     46  H   UNL A   1      42.601  29.535  29.738  1.00  0.00     0.167 HD
ATOM     47  C   UNL A   1      39.014  31.979  30.308  1.00  0.00     0.037 A 
ATOM     48  C   UNL A   1      45.321  28.977  29.969  1.00  0.00     0.037 A 
ATOM     49  C   UNL A   1      40.076  32.739  30.910  1.00  0.00     0.049 A 
ATOM     50  C   UNL A   1      45.118  30.334  30.592  1.00  0.00     0.074 A 
ATOM     51  C   UNL A   1      40.007  33.968  31.545  1.00  0.00     0.029 A 
ATOM     52  N   UNL A   1      41.403  32.341  30.951  1.00  0.00    -0.354 N 
ATOM     53  N   UNL A   1      44.010  31.015  30.752  1.00  0.00    -0.248 NA
ATOM     54  C   UNL A   1      46.315  31.009  31.113  1.00  0.00     0.031 C 
ATOM     55  C   UNL A   1      41.301  34.331  31.935  1.00  0.00     0.029 A 
ATOM     56  C   UNL A   1      42.167  33.307  31.587  1.00  0.00     0.049 A 
ATOM     57  H   UNL A   1      41.752  31.497  30.583  1.00  0.00     0.167 HD
ATOM     58  C   UNL A   1      44.368  32.179  31.421  1.00  0.00     0.074 A 
ATOM     59  C   UNL A   1      45.797  32.108  31.644  1.00  0.00     0.031 C 
ATOM     60  C   UNL A   1      43.585  33.212  31.817  1.00  0.00     0.037 A 
BRANCH  47  61
ATOM     61  C   UNL A   1      37.629  32.556  30.324  1.00  0.00     0.064 A 
ATOM     62  C   UNL A   1      37.180  33.420  29.313  1.00  0.00     0.173 A 
ATOM     63  C   UNL A   1      36.730  32.219  31.347  1.00  0.00     0.173 A 
ATOM     64  F   UNL A   1      38.007  33.785  28.321  1.00  0.00    -0.203 F 
ATOM     65  C   UNL A   1      35.891  33.943  29.339  1.00  0.00     0.198 A 
ATOM     66  C   UNL A   1      35.433  32.724  31.356  1.00  0.00     0.198 A 
ATOM     67  F   UNL A   1      37.110  31.396  32.335  1.00  0.00    -0.203 F 
ATOM     68  F   UNL A   1      35.497  34.800  28.387  1.00  0.00    -0.200 F 
ATOM     69  C   UNL A   1      35.016  33.589  30.357  1.00  0.00     0.200 A 
ATOM     70  F   UNL A   1      34.587  32.373  32.334  1.00  0.00    -0.200 F 
ATOM     71  F   UNL A   1      33.773  34.090  30.378  1.00  0.00    -0.200 F 
ENDBRANCH  47  61
BRANCH  48  72
ATOM     72  C   UNL A   1      46.677  28.371  29.904  1.00  0.00     0.064 A 
ATOM     73  C   UNL A   1      47.493  28.536  28.776  1.00  0.00     0.173 A 
ATOM     74  C   UNL A   1      47.175  27.597  30.962  1.00  0.00     0.173 A 
ATOM     75  F   UNL A   1      47.050  29.246  27.728  1.00  0.00    -0.203 F 
ATOM     76  C   UNL A   1      48.747  27.931  28.701  1.00  0.00     0.198 A 
ATOM     77  C   UNL A   1      48.438  27.015  30.897  1.00  0.00     0.198 A 
ATOM     78  F   UNL A   1      46.431  27.407  32.063  1.00  0.00    -0.203 F 
ATOM     79  F   UNL A   1      49.485  28.065  27.591  1.00  0.00    -0.200 F 
ATOM     80  C   UNL A   1      49.219  27.176  29.763  1.00  0.00     0.200 A 
ATOM     81  F   UNL A   1      48.896  26.294  31.929  1.00  0.00    -0.200 F 
ATOM     82  F   UNL A   1      50.425  26.595  29.689  1.00  0.00    -0.200 F 
ENDBRANCH  48  72
BRANCH  60  83
ATOM     83  C   UNL A   1      44.245  34.326  32.577  1.00  0.00     0.064 A 
ATOM     84  C   UNL A   1      44.759  35.458  31.929  1.00  0.00     0.173 A 
ATOM     85  C   UNL A   1      44.334  34.272  33.976  1.00  0.00     0.173 A 
ATOM     86  F   UNL A   1      44.709  35.552  30.591  1.00  0.00    -0.203 F 
ATOM     87  C   UNL A   1      45.364  36.483  32.652  1.00  0.00     0.198 A 
ATOM     88  C   UNL A   1      44.915  35.311  34.698  1.00  0.00     0.198 A 
ATOM     89  F   UNL A   1      43.850  33.215  34.644  1.00  0.00    -0.203 F 
ATOM     90  F   UNL A   1      45.893  37.534  32.008  1.00  0.00    -0.200 F 
ATOM     91  C   UNL A   1      45.437  36.411  34.035  1.00  0.00     0.200 A 
ATOM     92  F   UNL A   1      44.973  35.246  36.035  1.00  0.00    -0.200 F 
ATOM     93  F   UNL A   1      46.018  37.400  34.729  1.00  0.00    -0.200 F 
ENDBRANCH  60  83
ENDBRANCH  34  35
ENDBRANCH  27  29
ENDBRANCH  26  27
ENDBRANCH  25  26
ENDBRANCH  24  25
ENDBRANCH   1  24
TORSDOF 18
ENDMDL
MODEL 2
REMARK VINA RESULT:      -9.2      0.737      7.599
REMARK SMILES COc1cccc([C@@]([NH3+])(C(=O)OCCOCCOC(=O)c2ccc(-c3c4nc(c(-c5c(F)c(F)c(F)c(F)c5F)c5ccc([nH]5)c(-c5c(F)c(F)c(F)c(F)c5F)c5nc(c(-c6c(F)c(F)c(F)c(F)c6F)c6ccc3[nH]6)C=C5)C=C4)cc2)C(F)(F)F)c1
REMARK SMILES IDX 15 1 14 2 13 3 12 4 10 5 11 6 8 7 7 8 3 9 4 10 88 11 5 12
REMARK SMILES IDX 6 13 2 14 1 15 9 16 84 20 85 21 86 22 87 23 16 24 17 25
REMARK SMILES IDX 18 26 19 27 20 28 21 29 22 30 83 31 23 32 82 33 24 34 25 35
REMARK SMILES IDX 26 36 76 37 27 38 81 39 75 40 77 41 28 42 80 43 74 44 73 45
REMARK SMILES IDX 29 47 61 48 41 49 60 50 42 51 45 52 59 53 78 54 43 55 44 56
REMARK SMILES IDX 58 58 79 59 46 60 30 61 31 62 39 63 32 64 33 65 37 66 40 67
REMARK SMILES IDX 34 68 35 69 38 70 36 71 62 72 63 73 71 74 64 75 65 76 69 77
REMARK SMILES IDX 72 78 66 79 67 80 70 81 68 82 47 83 48 84 56 85 49 86 50 87
REMARK SMILES IDX 54 88 57 89 51 90 52 91 55 92 53 93
REMARK H PARENT 9 17 9 18 9 19 77 46 45 57
REMARK Flexibility Score: inf
ROOT
ATOM      1  O   UNL A   1      42.345  20.007  25.331  1.00  0.00    -0.374 OA
ENDROOT
BRANCH   1   2
ATOM      2  C   UNL A   1      43.513  19.187  25.293  1.00  0.00     0.202 C 
BRANCH   2   3
ATOM      3  C   UNL A   1      44.773  19.850  24.737  1.00  0.00     0.261 C 
BRANCH   3   4
ATOM      4  O   UNL A   1      44.534  21.243  24.477  1.00  0.00    -0.458 OA
BRANCH   4   5
ATOM      5  C   UNL A   1      44.986  22.108  25.423  1.00  0.00     0.382 C 
ATOM      6  O   UNL A   1      46.082  21.988  25.967  1.00  0.00    -0.244 OA
BRANCH   5   7
ATOM      7  C   UNL A   1      43.990  23.233  25.796  1.00  0.00     0.314 C 
BRANCH   7   8
ATOM      8  C   UNL A   1      44.493  24.689  25.584  1.00  0.00     0.037 A 
ATOM      9  C   UNL A   1      44.104  27.061  25.060  1.00  0.00     0.119 A 
ATOM     10  C   UNL A   1      45.477  27.263  24.953  1.00  0.00     0.046 A 
ATOM     11  C   UNL A   1      43.620  25.787  25.385  1.00  0.00     0.057 A 
ATOM     12  C   UNL A   1      46.363  26.213  25.172  1.00  0.00     0.004 A 
ATOM     13  C   UNL A   1      45.875  24.939  25.473  1.00  0.00     0.011 A 
BRANCH   9  14
ATOM     14  O   UNL A   1      43.348  28.167  24.783  1.00  0.00    -0.497 OA
ATOM     15  C   UNL A   1      42.068  28.265  25.396  1.00  0.00     0.278 C 
ENDBRANCH   9  14
ENDBRANCH   7   8
BRANCH   7  16
ATOM     16  N   UNL A   1      42.786  23.050  24.892  1.00  0.00    -0.332 N 
ATOM     17  H   UNL A   1      42.343  23.955  24.727  1.00  0.00     0.346 HD
ATOM     18  H   UNL A   1      42.119  22.421  25.338  1.00  0.00     0.346 HD
ATOM     19  H   UNL A   1      43.086  22.652  24.001  1.00  0.00     0.346 HD
ENDBRANCH   7  16
BRANCH   7  20
ATOM     20  C   UNL A   1      43.676  22.895  27.290  1.00  0.00     0.460 C 
ATOM     21  F   UNL A   1      44.636  23.335  28.138  1.00  0.00    -0.164 F 
ATOM     22  F   UNL A   1      42.506  23.475  27.678  1.00  0.00    -0.164 F 
ATOM     23  F   UNL A   1      43.504  21.572  27.514  1.00  0.00    -0.164 F 
ENDBRANCH   7  20
ENDBRANCH   5   7
ENDBRANCH   4   5
ENDBRANCH   3   4
ENDBRANCH   2   3
ENDBRANCH   1   2
BRANCH   1  24
ATOM     24  C   UNL A   1      41.256  19.580  26.150  1.00  0.00     0.202 C 
BRANCH  24  25
ATOM     25  C   UNL A   1      40.506  20.669  26.927  1.00  0.00     0.261 C 
BRANCH  25  26
ATOM     26  O   UNL A   1      40.513  21.939  26.251  1.00  0.00    -0.460 OA
BRANCH  26  27
ATOM     27  C   UNL A   1      39.301  22.532  26.160  1.00  0.00     0.338 C 
ATOM     28  O   UNL A   1      38.258  22.032  25.755  1.00  0.00    -0.246 OA
BRANCH  27  29
ATOM     29  C   UNL A   1      39.321  23.871  26.775  1.00  0.00     0.060 A 
ATOM     30  C   UNL A   1      39.943  24.897  26.051  1.00  0.00     0.016 A 
ATOM     31  C   UNL A   1      38.858  24.100  28.074  1.00  0.00     0.016 A 
ATOM     32  C   UNL A   1      40.177  26.131  26.649  1.00  0.00     0.010 A 
ATOM     33  C   UNL A   1      39.101  25.341  28.677  1.00  0.00     0.010 A 
ATOM     34  C   UNL A   1      39.809  26.341  27.984  1.00  0.00    -0.014 A 
BRANCH  34  35
ATOM     35  C   UNL A   1      40.349  27.529  28.691  1.00  0.00     0.031 A 
ATOM     36  C   UNL A   1      41.824  27.585  28.988  1.00  0.00     0.074 A 
ATOM     37  C   UNL A   1      39.562  28.577  28.990  1.00  0.00     0.049 A 
ATOM     38  N   UNL A   1      42.526  28.538  29.547  1.00  0.00    -0.248 NA
ATOM     39  C   UNL A   1      42.615  26.406  28.600  1.00  0.00     0.031 C 
ATOM     40  C   UNL A   1      38.129  28.661  28.718  1.00  0.00     0.029 A 
ATOM     41  N   UNL A   1      39.865  29.777  29.584  1.00  0.00    -0.354 N 
ATOM     42  C   UNL A   1      43.836  28.076  29.576  1.00  0.00     0.074 A 
ATOM     43  C   UNL A   1      43.828  26.744  29.011  1.00  0.00     0.031 C 
ATOM     44  C   UNL A   1      37.674  29.852  29.146  1.00  0.00     0.029 A 
ATOM     45  C   UNL A   1      38.781  30.604  29.736  1.00  0.00     0.049 A 
ATOM     46  H   UNL A   1      40.774  30.021  29.873  1.00  0.00     0.167 HD
ATOM     47  C   UNL A   1      44.948  28.709  30.019  1.00  0.00     0.037 A 
ATOM     48  C   UNL A   1      38.694  31.827  30.294  1.00  0.00     0.037 A 
ATOM     49  C   UNL A   1      44.960  30.034  30.578  1.00  0.00     0.049 A 
ATOM     50  C   UNL A   1      39.939  32.492  30.822  1.00  0.00     0.074 A 
ATOM     51  C   UNL A   1      46.037  30.762  31.054  1.00  0.00     0.029 A 
ATOM     52  N   UNL A   1      43.837  30.832  30.736  1.00  0.00    -0.354 N 
ATOM     53  N   UNL A   1      41.175  32.056  30.824  1.00  0.00    -0.248 NA
ATOM     54  C   UNL A   1      39.775  33.827  31.416  1.00  0.00     0.031 C 
ATOM     55  C   UNL A   1      45.558  31.985  31.537  1.00  0.00     0.029 A 
ATOM     56  C   UNL A   1      44.192  32.039  31.317  1.00  0.00     0.049 A 
ATOM     57  H   UNL A   1      42.922  30.578  30.474  1.00  0.00     0.167 HD
ATOM     58  C   UNL A   1      41.939  33.072  31.384  1.00  0.00     0.074 A 
ATOM     59  C   UNL A   1      41.028  34.151  31.703  1.00  0.00     0.031 C 
ATOM     60  C   UNL A   1      43.275  33.110  31.611  1.00  0.00     0.037 A 
BRANCH  47  61
ATOM     61  C   UNL A   1      46.247  27.961  29.935  1.00  0.00     0.064 A 
ATOM     62  C   UNL A   1      46.709  27.169  30.997  1.00  0.00     0.173 A 
ATOM     63  C   UNL A   1      47.023  28.016  28.768  1.00  0.00     0.173 A 
ATOM     64  F   UNL A   1      46.010  27.097  32.140  1.00  0.00    -0.203 F 
ATOM     65  C   UNL A   1      47.913  26.477  30.901  1.00  0.00     0.198 A 
ATOM     66  C   UNL A   1      48.214  27.302  28.667  1.00  0.00     0.198 A 
ATOM     67  F   UNL A   1      46.624  28.757  27.724  1.00  0.00    -0.203 F 
ATOM     68  F   UNL A   1      48.357  25.761  31.943  1.00  0.00    -0.200 F 
ATOM     69  C   UNL A   1      48.661  26.540  29.734  1.00  0.00     0.200 A 
ATOM     70  F   UNL A   1      48.930  27.355  27.535  1.00  0.00    -0.200 F 
ATOM     71  F   UNL A   1      49.818  25.869  29.642  1.00  0.00    -0.200 F 
ENDBRANCH  47  61
BRANCH  48  72
ATOM     72  C   UNL A   1      37.378  32.513  30.376  1.00  0.00     0.064 A 
ATOM     73  C   UNL A   1      36.508  32.287  31.452  1.00  0.00     0.173 A 
ATOM     74  C   UNL A   1      36.956  33.393  29.369  1.00  0.00     0.173 A 
ATOM     75  F   UNL A   1      36.855  31.435  32.426  1.00  0.00    -0.203 F 
ATOM     76  C   UNL A   1      35.256  32.900  31.505  1.00  0.00     0.198 A 
ATOM     77  C   UNL A   1      35.717  34.025  29.436  1.00  0.00     0.198 A 
ATOM     78  F   UNL A   1      37.752  33.640  28.317  1.00  0.00    -0.203 F 
ATOM     79  F   UNL A   1      34.424  32.629  32.520  1.00  0.00    -0.200 F 
ATOM     80  C   UNL A   1      34.865  33.771  30.500  1.00  0.00     0.200 A 
ATOM     81  F   UNL A   1      35.347  34.873  28.468  1.00  0.00    -0.200 F 
ATOM     82  F   UNL A   1      33.662  34.359  30.552  1.00  0.00    -0.200 F 
ENDBRANCH  48  72
BRANCH  60  83
ATOM     83  C   UNL A   1      43.841  34.374  32.187  1.00  0.00     0.064 A 
ATOM     84  C   UNL A   1      44.022  34.541  33.568  1.00  0.00     0.173 A 
ATOM     85  C   UNL A   1      44.239  35.421  31.341  1.00  0.00     0.173 A 
ATOM     86  F   UNL A   1      43.646  33.575  34.419  1.00  0.00    -0.203 F 
ATOM     87  C   UNL A   1      44.553  35.721  34.083  1.00  0.00     0.198 A 
ATOM     88  C   UNL A   1      44.794  36.588  31.858  1.00  0.00     0.198 A 
ATOM     89  F   UNL A   1      44.095  35.308  30.013  1.00  0.00    -0.203 F 
ATOM     90  F   UNL A   1      44.671  35.878  35.409  1.00  0.00    -0.200 F 
ATOM     91  C   UNL A   1      44.943  36.741  33.227  1.00  0.00     0.200 A 
ATOM     92  F   UNL A   1      45.183  37.567  31.029  1.00  0.00    -0.200 F 
ATOM     93  F   UNL A   1      45.456  37.875  33.726  1.00  0.00    -0.200 F 
ENDBRANCH  60  83
ENDBRANCH  34  35
ENDBRANCH  27  29
ENDBRANCH  26  27
ENDBRANCH  25  26
ENDBRANCH  24  25
ENDBRANCH   1  24
TORSDOF 18
ENDMDL
MODEL 3
REMARK VINA RESULT:      -9.0      5.276      9.221
REMARK SMILES COc1cccc([C@@]([NH3+])(C(=O)OCCOCCOC(=O)c2ccc(-c3c4nc(c(-c5c(F)c(F)c(F)c(F)c5F)c5ccc([nH]5)c(-c5c(F)c(F)c(F)c(F)c5F)c5nc(c(-c6c(F)c(F)c(F)c(F)c6F)c6ccc3[nH]6)C=C5)C=C4)cc2)C(F)(F)F)c1
REMARK SMILES IDX 15 1 14 2 13 3 12 4 10 5 11 6 8 7 7 8 3 9 4 10 88 11 5 12
REMARK SMILES IDX 6 13 2 14 1 15 9 16 84 20 85 21 86 22 87 23 16 24 17 25
REMARK SMILES IDX 18 26 19 27 20 28 21 29 22 30 83 31 23 32 82 33 24 34 25 35
REMARK SMILES IDX 26 36 76 37 27 38 81 39 75 40 77 41 28 42 80 43 74 44 73 45
REMARK SMILES IDX 29 47 61 48 41 49 60 50 42 51 45 52 59 53 78 54 43 55 44 56
REMARK SMILES IDX 58 58 79 59 46 60 30 61 31 62 39 63 32 64 33 65 37 66 40 67
REMARK SMILES IDX 34 68 35 69 38 70 36 71 62 72 63 73 71 74 64 75 65 76 69 77
REMARK SMILES IDX 72 78 66 79 67 80 70 81 68 82 47 83 48 84 56 85 49 86 50 87
REMARK SMILES IDX 54 88 57 89 51 90 52 91 55 92 53 93
REMARK H PARENT 9 17 9 18 9 19 77 46 45 57
REMARK Flexibility Score: inf
ROOT
ATOM      1  O   UNL A   1      31.970  29.271  26.044  1.00  0.00    -0.374 OA
ENDROOT
BRANCH   1   2
ATOM      2  C   UNL A   1      31.482  28.073  25.441  1.00  0.00     0.202 C 
BRANCH   2   3
ATOM      3  C   UNL A   1      31.214  26.910  26.396  1.00  0.00     0.261 C 
BRANCH   3   4
ATOM      4  O   UNL A   1      30.927  25.711  25.658  1.00  0.00    -0.458 OA
BRANCH   4   5
ATOM      5  C   UNL A   1      31.568  24.588  26.078  1.00  0.00     0.382 C 
ATOM      6  O   UNL A   1      31.355  24.069  27.171  1.00  0.00    -0.244 OA
BRANCH   5   7
ATOM      7  C   UNL A   1      32.623  24.040  25.086  1.00  0.00     0.314 C 
BRANCH   7   8
ATOM      8  C   UNL A   1      32.431  22.567  24.628  1.00  0.00     0.037 A 
ATOM      9  C   UNL A   1      32.521  20.142  25.034  1.00  0.00     0.119 A 
ATOM     10  C   UNL A   1      32.320  19.906  23.677  1.00  0.00     0.046 A 
ATOM     11  C   UNL A   1      32.563  21.461  25.504  1.00  0.00     0.057 A 
ATOM     12  C   UNL A   1      32.156  20.969  22.795  1.00  0.00     0.004 A 
ATOM     13  C   UNL A   1      32.222  22.283  23.264  1.00  0.00     0.011 A 
BRANCH   9  14
ATOM     14  O   UNL A   1      32.704  19.011  25.782  1.00  0.00    -0.497 OA
ATOM     15  C   UNL A   1      32.525  17.755  25.140  1.00  0.00     0.278 C 
ENDBRANCH   9  14
ENDBRANCH   7   8
BRANCH   7  16
ATOM     16  N   UNL A   1      32.525  24.902  23.842  1.00  0.00    -0.332 N 
ATOM     17  H   UNL A   1      33.460  25.065  23.466  1.00  0.00     0.346 HD
ATOM     18  H   UNL A   1      32.094  25.795  24.081  1.00  0.00     0.346 HD
ATOM     19  H   UNL A   1      31.955  24.426  23.143  1.00  0.00     0.346 HD
ENDBRANCH   7  16
BRANCH   7  20
ATOM     20  C   UNL A   1      33.952  24.276  25.877  1.00  0.00     0.460 C 
ATOM     21  F   UNL A   1      34.059  23.481  26.968  1.00  0.00    -0.164 F 
ATOM     22  F   UNL A   1      35.033  24.018  25.089  1.00  0.00    -0.164 F 
ATOM     23  F   UNL A   1      34.112  25.557  26.283  1.00  0.00    -0.164 F 
ENDBRANCH   7  20
ENDBRANCH   5   7
ENDBRANCH   4   5
ENDBRANCH   3   4
ENDBRANCH   2   3
ENDBRANCH   1   2
BRANCH   1  24
ATOM     24  C   UNL A   1      31.405  30.511  25.618  1.00  0.00     0.202 C 
BRANCH  24  25
ATOM     25  C   UNL A   1      31.615  31.721  26.537  1.00  0.00     0.261 C 
BRANCH  25  26
ATOM     26  O   UNL A   1      32.617  31.488  27.543  1.00  0.00    -0.460 OA
BRANCH  26  27
ATOM     27  C   UNL A   1      33.478  32.514  27.725  1.00  0.00     0.338 C 
ATOM     28  O   UNL A   1      33.205  33.706  27.810  1.00  0.00    -0.246 OA
BRANCH  27  29
ATOM     29  C   UNL A   1      34.842  32.019  27.980  1.00  0.00     0.060 A 
ATOM     30  C   UNL A   1      35.005  30.633  28.104  1.00  0.00     0.016 A 
ATOM     31  C   UNL A   1      35.915  32.882  28.215  1.00  0.00     0.016 A 
ATOM     32  C   UNL A   1      36.217  30.108  28.542  1.00  0.00     0.010 A 
ATOM     33  C   UNL A   1      37.133  32.353  28.663  1.00  0.00     0.010 A 
ATOM     34  C   UNL A   1      37.269  30.970  28.878  1.00  0.00    -0.014 A 
BRANCH  34  35
ATOM     35  C   UNL A   1      38.421  30.420  29.637  1.00  0.00     0.031 A 
ATOM     36  C   UNL A   1      38.594  30.821  31.078  1.00  0.00     0.074 A 
ATOM     37  C   UNL A   1      39.250  29.518  29.084  1.00  0.00     0.049 A 
ATOM     38  N   UNL A   1      39.491  30.431  31.949  1.00  0.00    -0.248 NA
ATOM     39  C   UNL A   1      37.624  31.791  31.609  1.00  0.00     0.031 C 
ATOM     40  C   UNL A   1      39.163  29.021  27.714  1.00  0.00     0.029 A 
ATOM     41  N   UNL A   1      40.327  28.855  29.618  1.00  0.00    -0.354 N 
ATOM     42  C   UNL A   1      39.191  31.105  33.126  1.00  0.00     0.074 A 
ATOM     43  C   UNL A   1      38.053  31.954  32.852  1.00  0.00     0.031 C 
ATOM     44  C   UNL A   1      40.149  28.129  27.511  1.00  0.00     0.029 A 
ATOM     45  C   UNL A   1      40.944  28.007  28.733  1.00  0.00     0.049 A 
ATOM     46  H   UNL A   1      40.628  28.976  30.547  1.00  0.00     0.167 HD
ATOM     47  C   UNL A   1      39.800  31.013  34.333  1.00  0.00     0.037 A 
ATOM     48  C   UNL A   1      42.030  27.227  28.892  1.00  0.00     0.037 A 
ATOM     49  C   UNL A   1      40.930  30.167  34.611  1.00  0.00     0.049 A 
ATOM     50  C   UNL A   1      42.719  27.177  30.232  1.00  0.00     0.074 A 
ATOM     51  C   UNL A   1      41.616  30.005  35.802  1.00  0.00     0.029 A 
ATOM     52  N   UNL A   1      41.540  29.339  33.681  1.00  0.00    -0.354 N 
ATOM     53  N   UNL A   1      42.414  27.801  31.344  1.00  0.00    -0.248 NA
ATOM     54  C   UNL A   1      43.896  26.304  30.340  1.00  0.00     0.031 C 
ATOM     55  C   UNL A   1      42.667  29.107  35.582  1.00  0.00     0.029 A 
ATOM     56  C   UNL A   1      42.605  28.674  34.267  1.00  0.00     0.049 A 
ATOM     57  H   UNL A   1      41.258  29.239  32.743  1.00  0.00     0.167 HD
ATOM     58  C   UNL A   1      43.337  27.371  32.290  1.00  0.00     0.074 A 
ATOM     59  C   UNL A   1      44.208  26.426  31.622  1.00  0.00     0.031 C 
ATOM     60  C   UNL A   1      43.451  27.724  33.593  1.00  0.00     0.037 A 
BRANCH  47  61
ATOM     61  C   UNL A   1      39.265  31.872  35.442  1.00  0.00     0.064 A 
ATOM     62  C   UNL A   1      38.399  31.357  36.418  1.00  0.00     0.173 A 
ATOM     63  C   UNL A   1      39.647  33.218  35.544  1.00  0.00     0.173 A 
ATOM     64  F   UNL A   1      37.992  30.080  36.354  1.00  0.00    -0.203 F 
ATOM     65  C   UNL A   1      37.916  32.165  37.443  1.00  0.00     0.198 A 
ATOM     66  C   UNL A   1      39.182  34.016  36.586  1.00  0.00     0.198 A 
ATOM     67  F   UNL A   1      40.475  33.757  34.638  1.00  0.00    -0.203 F 
ATOM     68  F   UNL A   1      37.055  31.665  38.340  1.00  0.00    -0.200 F 
ATOM     69  C   UNL A   1      38.313  33.492  37.530  1.00  0.00     0.200 A 
ATOM     70  F   UNL A   1      39.575  35.295  36.674  1.00  0.00    -0.200 F 
ATOM     71  F   UNL A   1      37.850  34.268  38.521  1.00  0.00    -0.200 F 
ENDBRANCH  47  61
BRANCH  48  72
ATOM     72  C   UNL A   1      42.535  26.417  27.754  1.00  0.00     0.064 A 
ATOM     73  C   UNL A   1      43.529  26.910  26.896  1.00  0.00     0.173 A 
ATOM     74  C   UNL A   1      42.019  25.140  27.488  1.00  0.00     0.173 A 
ATOM     75  F   UNL A   1      44.035  28.135  27.093  1.00  0.00    -0.203 F 
ATOM     76  C   UNL A   1      43.970  26.165  25.803  1.00  0.00     0.198 A 
ATOM     77  C   UNL A   1      42.479  24.386  26.412  1.00  0.00     0.198 A 
ATOM     78  F   UNL A   1      41.065  24.624  28.279  1.00  0.00    -0.203 F 
ATOM     79  F   UNL A   1      44.885  26.680  24.971  1.00  0.00    -0.200 F 
ATOM     80  C   UNL A   1      43.449  24.902  25.566  1.00  0.00     0.200 A 
ATOM     81  F   UNL A   1      41.980  23.162  26.192  1.00  0.00    -0.200 F 
ATOM     82  F   UNL A   1      43.874  24.187  24.515  1.00  0.00    -0.200 F 
ENDBRANCH  48  72
BRANCH  60  83
ATOM     83  C   UNL A   1      44.524  27.051  34.399  1.00  0.00     0.064 A 
ATOM     84  C   UNL A   1      45.802  27.610  34.539  1.00  0.00     0.173 A 
ATOM     85  C   UNL A   1      44.257  25.845  35.065  1.00  0.00     0.173 A 
ATOM     86  F   UNL A   1      46.111  28.755  33.912  1.00  0.00    -0.203 F 
ATOM     87  C   UNL A   1      46.783  26.972  35.295  1.00  0.00     0.198 A 
ATOM     88  C   UNL A   1      45.232  25.224  35.841  1.00  0.00     0.198 A 
ATOM     89  F   UNL A   1      43.048  25.273  34.970  1.00  0.00    -0.203 F 
ATOM     90  F   UNL A   1      48.013  27.500  35.375  1.00  0.00    -0.200 F 
ATOM     91  C   UNL A   1      46.496  25.783  35.948  1.00  0.00     0.200 A 
ATOM     92  F   UNL A   1      44.948  24.082  36.483  1.00  0.00    -0.200 F 
ATOM     93  F   UNL A   1      47.441  25.172  36.676  1.00  0.00    -0.200 F 
ENDBRANCH  60  83
ENDBRANCH  34  35
ENDBRANCH  27  29
ENDBRANCH  26  27
ENDBRANCH  25  26
ENDBRANCH  24  25
ENDBRANCH   1  24
TORSDOF 18
ENDMDL
