MODEL 1
REMARK VINA RESULT:     -13.6      0.000      0.000
REMARK SMILES Cc1ccc(C2=NN(C(=O)CCC(=O)OCCOCCOC(=O)c3ccc(-c4c5nc(c(-c6c(F)c(F)c(F)c(F)c6F)c6ccc([nH]6)c(-c6c(F)c(F)c(F)c(F)c6F)c6nc(c(-c7c(F)c(F)c(F)c(F)c7F)c7ccc4[nH]7)C=C6)C=C5)cc3)[C@H](C[C@H]3C=c4cccc(C)c4=NC3=O)C2)cc1
REMARK SMILES IDX 16 1 15 2 13 3 14 4 12 5 11 6 9 7 10 8 8 9 6 10 7 11 101 12
REMARK SMILES IDX 87 13 5 14 1 15 2 16 3 17 103 18 4 19 102 20 88 21 89 22
REMARK SMILES IDX 90 23 99 24 91 25 98 26 100 27 92 28 97 29 93 30 95 31 94 32
REMARK SMILES IDX 96 33 17 34 18 35 19 36 20 37 21 38 22 39 23 40 24 41 25 42
REMARK SMILES IDX 86 43 26 44 85 45 27 46 28 47 29 48 79 49 30 50 84 51 78 52
REMARK SMILES IDX 80 53 31 54 83 55 77 56 76 57 32 59 64 60 44 61 63 62 45 63
REMARK SMILES IDX 48 64 62 65 81 66 46 67 47 68 61 70 82 71 49 72 33 73 34 74
REMARK SMILES IDX 42 75 35 76 36 77 40 78 43 79 37 80 38 81 41 82 39 83 65 84
REMARK SMILES IDX 66 85 74 86 67 87 68 88 72 89 75 90 69 91 70 92 73 93 71 94
REMARK SMILES IDX 50 95 51 96 59 97 52 98 53 99 57 100 60 101 54 102 55 103
REMARK SMILES IDX 58 104 56 105
REMARK H PARENT 80 58 48 69
REMARK Flexibility Score: inf
ROOT
ATOM      1  C   UNL A   1      44.211  25.424  28.104  1.00  0.00     0.261 C 
ENDROOT
BRANCH   1   2
ATOM      2  O   UNL A   1      42.995  25.576  27.402  1.00  0.00    -0.463 OA
BRANCH   2   3
ATOM      3  C   UNL A   1      42.315  26.682  27.732  1.00  0.00     0.306 C 
ATOM      4  O   UNL A   1      42.511  27.367  28.741  1.00  0.00    -0.252 OA
BRANCH   3   5
ATOM      5  C   UNL A   1      41.253  26.968  26.726  1.00  0.00     0.132 C 
BRANCH   5   6
ATOM      6  C   UNL A   1      39.821  26.853  27.225  1.00  0.00     0.114 C 
BRANCH   6   7
ATOM      7  C   UNL A   1      39.269  25.552  27.893  1.00  0.00     0.243 C 
ATOM      8  O   UNL A   1      39.042  25.701  29.107  1.00  0.00    -0.273 OA
BRANCH   7   9
ATOM      9  N   UNL A   1      38.838  24.349  27.232  1.00  0.00    -0.230 N 
ATOM     10  C   UNL A   1      39.786  22.439  26.575  1.00  0.00     0.070 C 
ATOM     11  N   UNL A   1      39.766  23.252  27.570  1.00  0.00    -0.174 NA
ATOM     12  C   UNL A   1      38.776  22.802  25.534  1.00  0.00     0.086 C 
ATOM     13  C   UNL A   1      37.589  23.782  25.998  1.00  0.00     0.118 C 
BRANCH  10  14
ATOM     14  C   UNL A   1      40.819  21.350  26.208  1.00  0.00    -0.002 A 
ATOM     15  C   UNL A   1      44.303  18.742  25.646  1.00  0.00     0.044 C 
ATOM     16  C   UNL A   1      43.086  19.608  25.831  1.00  0.00    -0.051 A 
ATOM     17  C   UNL A   1      41.784  19.108  26.017  1.00  0.00     0.004 A 
ATOM     18  C   UNL A   1      43.239  20.978  25.759  1.00  0.00     0.004 A 
ATOM     19  C   UNL A   1      40.662  19.969  26.239  1.00  0.00     0.010 A 
ATOM     20  C   UNL A   1      42.122  21.803  25.898  1.00  0.00     0.010 A 
ENDBRANCH  10  14
BRANCH  13  21
ATOM     21  C   UNL A   1      35.613  23.327  26.468  1.00  0.00     0.045 C 
BRANCH  21  22
ATOM     22  C   UNL A   1      34.103  24.575  26.232  1.00  0.00     0.106 C 
ATOM     23  C   UNL A   1      34.092  25.772  25.088  1.00  0.00    -0.003 C 
ATOM     24  C   UNL A   1      32.667  23.944  26.160  1.00  0.00     0.253 C 
ATOM     25  C   UNL A   1      33.328  25.722  23.985  1.00  0.00    -0.003 A 
ATOM     26  N   UNL A   1      31.704  24.390  25.238  1.00  0.00    -0.212 NA
ATOM     27  O   UNL A   1      32.406  23.025  26.938  1.00  0.00    -0.272 OA
ATOM     28  C   UNL A   1      33.725  26.062  22.615  1.00  0.00     0.010 A 
ATOM     29  C   UNL A   1      31.996  25.165  24.242  1.00  0.00     0.077 A 
ATOM     30  C   UNL A   1      32.805  26.112  21.640  1.00  0.00     0.001 A 
ATOM     31  C   UNL A   1      31.001  25.742  23.245  1.00  0.00    -0.025 A 
ATOM     32  C   UNL A   1      31.415  26.140  22.021  1.00  0.00     0.005 A 
ATOM     33  C   UNL A   1      29.675  26.156  23.779  1.00  0.00     0.047 C 
ENDBRANCH  21  22
ENDBRANCH  13  21
ENDBRANCH   7   9
ENDBRANCH   6   7
ENDBRANCH   5   6
ENDBRANCH   3   5
ENDBRANCH   2   3
ENDBRANCH   1   2
BRANCH   1  34
ATOM     34  C   UNL A   1      45.382  25.977  27.349  1.00  0.00     0.202 C 
BRANCH  34  35
ATOM     35  O   UNL A   1      45.356  25.887  25.945  1.00  0.00    -0.374 OA
BRANCH  35  36
ATOM     36  C   UNL A   1      46.322  26.399  24.984  1.00  0.00     0.202 C 
BRANCH  36  37
ATOM     37  C   UNL A   1      47.276  27.885  24.992  1.00  0.00     0.261 C 
BRANCH  37  38
ATOM     38  O   UNL A   1      47.722  29.274  26.252  1.00  0.00    -0.460 OA
BRANCH  38  39
ATOM     39  C   UNL A   1      47.050  30.137  27.586  1.00  0.00     0.338 C 
ATOM     40  O   UNL A   1      47.438  29.753  28.688  1.00  0.00    -0.246 OA
BRANCH  39  41
ATOM     41  C   UNL A   1      45.666  31.387  27.534  1.00  0.00     0.060 A 
ATOM     42  C   UNL A   1      45.624  32.535  28.394  1.00  0.00     0.016 A 
ATOM     43  C   UNL A   1      44.348  31.150  27.126  1.00  0.00     0.016 A 
ATOM     44  C   UNL A   1      44.490  32.782  29.314  1.00  0.00     0.010 A 
ATOM     45  C   UNL A   1      43.209  31.456  27.956  1.00  0.00     0.010 A 
ATOM     46  C   UNL A   1      43.301  32.062  29.220  1.00  0.00    -0.014 A 
BRANCH  46  47
ATOM     47  C   UNL A   1      42.201  31.775  30.288  1.00  0.00     0.031 A 
ATOM     48  C   UNL A   1      40.950  32.681  30.333  1.00  0.00     0.074 A 
ATOM     49  C   UNL A   1      42.034  30.590  31.008  1.00  0.00     0.049 A 
ATOM     50  N   UNL A   1      39.912  32.486  31.093  1.00  0.00    -0.248 NA
ATOM     51  C   UNL A   1      40.773  33.896  29.539  1.00  0.00     0.031 C 
ATOM     52  C   UNL A   1      40.689  30.004  31.307  1.00  0.00     0.029 A 
ATOM     53  N   UNL A   1      42.856  29.506  31.410  1.00  0.00    -0.354 N 
ATOM     54  C   UNL A   1      38.863  33.273  30.669  1.00  0.00     0.074 A 
ATOM     55  C   UNL A   1      39.498  34.230  29.798  1.00  0.00     0.031 C 
ATOM     56  C   UNL A   1      40.774  28.784  31.842  1.00  0.00     0.029 A 
ATOM     57  C   UNL A   1      42.137  28.573  32.235  1.00  0.00     0.049 A 
ATOM     58  H   UNL A   1      43.802  29.405  31.156  1.00  0.00     0.167 HD
ATOM     59  C   UNL A   1      37.574  32.977  31.043  1.00  0.00     0.037 A 
ATOM     60  C   UNL A   1      42.448  28.109  33.498  1.00  0.00     0.037 A 
ATOM     61  C   UNL A   1      37.516  31.864  32.003  1.00  0.00     0.049 A 
ATOM     62  C   UNL A   1      41.543  28.724  34.530  1.00  0.00     0.074 A 
ATOM     63  C   UNL A   1      37.032  30.567  31.997  1.00  0.00     0.029 A 
ATOM     64  N   UNL A   1      38.187  32.002  33.206  1.00  0.00    -0.354 N 
ATOM     65  N   UNL A   1      40.307  29.079  34.341  1.00  0.00    -0.248 NA
ATOM     66  C   UNL A   1      42.108  29.202  35.791  1.00  0.00     0.031 C 
ATOM     67  C   UNL A   1      37.480  29.922  33.197  1.00  0.00     0.029 A 
ATOM     68  C   UNL A   1      38.167  30.847  33.967  1.00  0.00     0.049 A 
ATOM     69  H   UNL A   1      38.632  32.833  33.490  1.00  0.00     0.167 HD
ATOM     70  C   UNL A   1      40.017  30.037  35.269  1.00  0.00     0.074 A 
ATOM     71  C   UNL A   1      41.174  30.082  36.150  1.00  0.00     0.031 C 
ATOM     72  C   UNL A   1      38.913  30.834  35.220  1.00  0.00     0.037 A 
BRANCH  59  73
ATOM     73  C   UNL A   1      36.292  33.644  30.538  1.00  0.00     0.064 A 
ATOM     74  C   UNL A   1      36.013  33.714  29.147  1.00  0.00     0.173 A 
ATOM     75  C   UNL A   1      35.329  34.281  31.346  1.00  0.00     0.173 A 
ATOM     76  F   UNL A   1      36.840  33.167  28.245  1.00  0.00    -0.203 F 
ATOM     77  C   UNL A   1      34.872  34.347  28.628  1.00  0.00     0.198 A 
ATOM     78  C   UNL A   1      34.161  34.864  30.830  1.00  0.00     0.198 A 
ATOM     79  F   UNL A   1      35.500  34.420  32.665  1.00  0.00    -0.203 F 
ATOM     80  F   UNL A   1      34.688  34.411  27.301  1.00  0.00    -0.200 F 
ATOM     81  C   UNL A   1      33.937  34.906  29.472  1.00  0.00     0.200 A 
ATOM     82  F   UNL A   1      33.264  35.403  31.669  1.00  0.00    -0.200 F 
ATOM     83  F   UNL A   1      32.836  35.494  28.982  1.00  0.00    -0.200 F 
ENDBRANCH  59  73
BRANCH  60  84
ATOM     84  C   UNL A   1      43.862  27.793  33.902  1.00  0.00     0.064 A 
ATOM     85  C   UNL A   1      44.219  26.452  33.708  1.00  0.00     0.173 A 
ATOM     86  C   UNL A   1      44.760  28.782  33.514  1.00  0.00     0.173 A 
ATOM     87  F   UNL A   1      43.566  25.468  34.337  1.00  0.00    -0.203 F 
ATOM     88  C   UNL A   1      45.018  26.156  32.641  1.00  0.00     0.198 A 
ATOM     89  C   UNL A   1      45.425  28.529  32.354  1.00  0.00     0.198 A 
ATOM     90  F   UNL A   1      44.557  30.064  33.853  1.00  0.00    -0.203 F 
ATOM     91  F   UNL A   1      45.088  24.910  32.162  1.00  0.00    -0.200 F 
ATOM     92  C   UNL A   1      45.337  27.235  31.851  1.00  0.00     0.200 A 
ATOM     93  F   UNL A   1      45.611  29.578  31.535  1.00  0.00    -0.200 F 
ATOM     94  F   UNL A   1      44.770  27.175  30.651  1.00  0.00    -0.200 F 
ENDBRANCH  60  84
BRANCH  72  95
ATOM     95  C   UNL A   1      38.590  31.728  36.389  1.00  0.00     0.064 A 
ATOM     96  C   UNL A   1      37.848  31.251  37.490  1.00  0.00     0.173 A 
ATOM     97  C   UNL A   1      38.942  33.087  36.441  1.00  0.00     0.173 A 
ATOM     98  F   UNL A   1      37.286  30.033  37.477  1.00  0.00    -0.203 F 
ATOM     99  C   UNL A   1      37.660  32.008  38.640  1.00  0.00     0.198 A 
ATOM    100  C   UNL A   1      38.668  33.873  37.560  1.00  0.00     0.198 A 
ATOM    101  F   UNL A   1      39.571  33.700  35.431  1.00  0.00    -0.203 F 
ATOM    102  F   UNL A   1      37.082  31.448  39.712  1.00  0.00    -0.200 F 
ATOM    103  C   UNL A   1      38.072  33.322  38.676  1.00  0.00     0.200 A 
ATOM    104  F   UNL A   1      39.007  35.170  37.552  1.00  0.00    -0.200 F 
ATOM    105  F   UNL A   1      37.878  34.060  39.775  1.00  0.00    -0.200 F 
ENDBRANCH  72  95
ENDBRANCH  46  47
ENDBRANCH  39  41
ENDBRANCH  38  39
ENDBRANCH  37  38
ENDBRANCH  36  37
ENDBRANCH  35  36
ENDBRANCH  34  35
ENDBRANCH   1  34
TORSDOF 20
ENDMDL
MODEL 2
REMARK VINA RESULT:     -13.1      3.486      8.649
REMARK SMILES Cc1ccc(C2=NN(C(=O)CCC(=O)OCCOCCOC(=O)c3ccc(-c4c5nc(c(-c6c(F)c(F)c(F)c(F)c6F)c6ccc([nH]6)c(-c6c(F)c(F)c(F)c(F)c6F)c6nc(c(-c7c(F)c(F)c(F)c(F)c7F)c7ccc4[nH]7)C=C6)C=C5)cc3)[C@H](C[C@H]3C=c4cccc(C)c4=NC3=O)C2)cc1
REMARK SMILES IDX 16 1 15 2 13 3 14 4 12 5 11 6 9 7 10 8 8 9 6 10 7 11 101 12
REMARK SMILES IDX 87 13 5 14 1 15 2 16 3 17 103 18 4 19 102 20 88 21 89 22
REMARK SMILES IDX 90 23 99 24 91 25 98 26 100 27 92 28 97 29 93 30 95 31 94 32
REMARK SMILES IDX 96 33 17 34 18 35 19 36 20 37 21 38 22 39 23 40 24 41 25 42
REMARK SMILES IDX 86 43 26 44 85 45 27 46 28 47 29 48 79 49 30 50 84 51 78 52
REMARK SMILES IDX 80 53 31 54 83 55 77 56 76 57 32 59 64 60 44 61 63 62 45 63
REMARK SMILES IDX 48 64 62 65 81 66 46 67 47 68 61 70 82 71 49 72 33 73 34 74
REMARK SMILES IDX 42 75 35 76 36 77 40 78 43 79 37 80 38 81 41 82 39 83 65 84
REMARK SMILES IDX 66 85 74 86 67 87 68 88 72 89 75 90 69 91 70 92 73 93 71 94
REMARK SMILES IDX 50 95 51 96 59 97 52 98 53 99 57 100 60 101 54 102 55 103
REMARK SMILES IDX 58 104 56 105
REMARK H PARENT 80 58 48 69
REMARK Flexibility Score: inf
ROOT
ATOM      1  C   UNL A   1      39.405  28.133  28.660  1.00  0.00     0.261 C 
ENDROOT
BRANCH   1   2
ATOM      2  O   UNL A   1      38.520  29.116  28.164  1.00  0.00    -0.463 OA
BRANCH   2   3
ATOM      3  C   UNL A   1      37.304  29.082  28.727  1.00  0.00     0.306 C 
ATOM      4  O   UNL A   1      37.080  29.016  29.940  1.00  0.00    -0.252 OA
BRANCH   3   5
ATOM      5  C   UNL A   1      36.239  29.105  27.684  1.00  0.00     0.132 C 
BRANCH   5   6
ATOM      6  C   UNL A   1      35.328  30.322  27.696  1.00  0.00     0.114 C 
BRANCH   6   7
ATOM      7  C   UNL A   1      33.823  30.246  27.281  1.00  0.00     0.243 C 
ATOM      8  O   UNL A   1      33.182  31.254  27.632  1.00  0.00    -0.273 OA
BRANCH   7   9
ATOM      9  N   UNL A   1      33.206  29.278  26.414  1.00  0.00    -0.230 N 
ATOM     10  C   UNL A   1      31.735  29.317  24.737  1.00  0.00     0.070 C 
ATOM     11  N   UNL A   1      32.765  29.949  25.176  1.00  0.00    -0.174 NA
ATOM     12  C   UNL A   1      31.460  28.077  25.526  1.00  0.00     0.086 C 
ATOM     13  C   UNL A   1      32.673  27.512  26.418  1.00  0.00     0.118 C 
BRANCH  10  14
ATOM     14  C   UNL A   1      30.655  29.766  23.727  1.00  0.00    -0.002 A 
ATOM     15  C   UNL A   1      27.792  31.847  21.134  1.00  0.00     0.044 C 
ATOM     16  C   UNL A   1      28.773  31.105  22.000  1.00  0.00    -0.051 A 
ATOM     17  C   UNL A   1      29.514  29.987  21.573  1.00  0.00     0.004 A 
ATOM     18  C   UNL A   1      28.922  31.504  23.314  1.00  0.00     0.004 A 
ATOM     19  C   UNL A   1      30.474  29.341  22.416  1.00  0.00     0.010 A 
ATOM     20  C   UNL A   1      29.804  30.814  24.147  1.00  0.00     0.010 A 
ENDBRANCH  10  14
BRANCH  13  21
ATOM     21  C   UNL A   1      33.948  25.910  26.044  1.00  0.00     0.045 C 
BRANCH  21  22
ATOM     22  C   UNL A   1      33.836  24.754  24.450  1.00  0.00     0.106 C 
ATOM     23  C   UNL A   1      34.602  23.290  24.340  1.00  0.00    -0.003 C 
ATOM     24  C   UNL A   1      32.402  24.495  23.862  1.00  0.00     0.253 C 
ATOM     25  C   UNL A   1      33.951  22.118  24.390  1.00  0.00    -0.003 A 
ATOM     26  N   UNL A   1      32.000  23.224  23.415  1.00  0.00    -0.212 NA
ATOM     27  O   UNL A   1      31.623  25.448  23.813  1.00  0.00    -0.272 OA
ATOM     28  C   UNL A   1      34.340  20.918  25.139  1.00  0.00     0.010 A 
ATOM     29  C   UNL A   1      32.673  22.148  23.671  1.00  0.00     0.077 A 
ATOM     30  C   UNL A   1      33.669  19.770  24.965  1.00  0.00     0.001 A 
ATOM     31  C   UNL A   1      32.340  20.751  23.166  1.00  0.00    -0.025 A 
ATOM     32  C   UNL A   1      32.795  19.661  23.824  1.00  0.00     0.005 A 
ATOM     33  C   UNL A   1      31.807  20.644  21.781  1.00  0.00     0.047 C 
ENDBRANCH  21  22
ENDBRANCH  13  21
ENDBRANCH   7   9
ENDBRANCH   6   7
ENDBRANCH   5   6
ENDBRANCH   3   5
ENDBRANCH   2   3
ENDBRANCH   1   2
BRANCH   1  34
ATOM     34  C   UNL A   1      39.989  27.286  27.569  1.00  0.00     0.202 C 
BRANCH  34  35
ATOM     35  O   UNL A   1      40.355  25.967  27.891  1.00  0.00    -0.374 OA
BRANCH  35  36
ATOM     36  C   UNL A   1      40.621  24.852  26.993  1.00  0.00     0.202 C 
BRANCH  36  37
ATOM     37  C   UNL A   1      42.032  23.799  26.853  1.00  0.00     0.261 C 
BRANCH  37  38
ATOM     38  O   UNL A   1      43.920  23.999  26.523  1.00  0.00    -0.460 OA
BRANCH  38  39
ATOM     39  C   UNL A   1      45.025  24.954  25.604  1.00  0.00     0.338 C 
ATOM     40  O   UNL A   1      45.962  24.323  25.120  1.00  0.00    -0.246 OA
BRANCH  39  41
ATOM     41  C   UNL A   1      45.067  26.815  25.477  1.00  0.00     0.060 A 
ATOM     42  C   UNL A   1      46.086  27.612  26.098  1.00  0.00     0.016 A 
ATOM     43  C   UNL A   1      43.967  27.659  25.282  1.00  0.00     0.016 A 
ATOM     44  C   UNL A   1      45.760  28.671  27.081  1.00  0.00     0.010 A 
ATOM     45  C   UNL A   1      43.661  28.756  26.168  1.00  0.00     0.010 A 
ATOM     46  C   UNL A   1      44.454  29.117  27.270  1.00  0.00    -0.014 A 
BRANCH  46  47
ATOM     47  C   UNL A   1      43.787  29.812  28.497  1.00  0.00     0.031 A 
ATOM     48  C   UNL A   1      43.282  28.937  29.667  1.00  0.00     0.074 A 
ATOM     49  C   UNL A   1      43.883  31.163  28.838  1.00  0.00     0.049 A 
ATOM     50  N   UNL A   1      42.814  29.391  30.792  1.00  0.00    -0.248 NA
ATOM     51  C   UNL A   1      43.245  27.475  29.658  1.00  0.00     0.031 C 
ATOM     52  C   UNL A   1      44.027  31.637  30.250  1.00  0.00     0.029 A 
ATOM     53  N   UNL A   1      44.141  32.380  28.155  1.00  0.00    -0.354 N 
ATOM     54  C   UNL A   1      42.754  28.376  31.722  1.00  0.00     0.074 A 
ATOM     55  C   UNL A   1      42.893  27.185  30.921  1.00  0.00     0.031 C 
ATOM     56  C   UNL A   1      44.284  32.944  30.324  1.00  0.00     0.029 A 
ATOM     57  C   UNL A   1      44.028  33.514  29.033  1.00  0.00     0.049 A 
ATOM     58  H   UNL A   1      44.368  32.440  27.199  1.00  0.00     0.167 HD
ATOM     59  C   UNL A   1      42.668  28.662  33.064  1.00  0.00     0.037 A 
ATOM     60  C   UNL A   1      43.247  34.644  28.898  1.00  0.00     0.037 A 
ATOM     61  C   UNL A   1      42.521  30.104  33.315  1.00  0.00     0.049 A 
ATOM     62  C   UNL A   1      42.085  34.607  29.854  1.00  0.00     0.074 A 
ATOM     63  C   UNL A   1      43.288  31.096  33.902  1.00  0.00     0.029 A 
ATOM     64  N   UNL A   1      41.430  30.755  32.767  1.00  0.00    -0.354 N 
ATOM     65  N   UNL A   1      42.088  34.053  31.028  1.00  0.00    -0.248 NA
ATOM     66  C   UNL A   1      40.757  35.001  29.389  1.00  0.00     0.031 C 
ATOM     67  C   UNL A   1      42.656  32.356  33.638  1.00  0.00     0.029 A 
ATOM     68  C   UNL A   1      41.469  32.124  32.964  1.00  0.00     0.049 A 
ATOM     69  H   UNL A   1      40.704  30.295  32.288  1.00  0.00     0.167 HD
ATOM     70  C   UNL A   1      40.791  33.756  31.335  1.00  0.00     0.074 A 
ATOM     71  C   UNL A   1      39.996  34.365  30.279  1.00  0.00     0.031 C 
ATOM     72  C   UNL A   1      40.419  32.937  32.359  1.00  0.00     0.037 A 
BRANCH  59  73
ATOM     73  C   UNL A   1      42.753  27.668  34.225  1.00  0.00     0.064 A 
ATOM     74  C   UNL A   1      43.990  27.420  34.876  1.00  0.00     0.173 A 
ATOM     75  C   UNL A   1      41.684  26.887  34.710  1.00  0.00     0.173 A 
ATOM     76  F   UNL A   1      45.104  28.073  34.519  1.00  0.00    -0.203 F 
ATOM     77  C   UNL A   1      44.131  26.491  35.920  1.00  0.00     0.198 A 
ATOM     78  C   UNL A   1      41.815  26.000  35.791  1.00  0.00     0.198 A 
ATOM     79  F   UNL A   1      40.481  26.901  34.128  1.00  0.00    -0.203 F 
ATOM     80  F   UNL A   1      45.337  26.275  36.466  1.00  0.00    -0.200 F 
ATOM     81  C   UNL A   1      43.038  25.795  36.389  1.00  0.00     0.200 A 
ATOM     82  F   UNL A   1      40.738  25.332  36.233  1.00  0.00    -0.200 F 
ATOM     83  F   UNL A   1      43.164  24.921  37.399  1.00  0.00    -0.200 F 
ENDBRANCH  59  73
BRANCH  60  84
ATOM     84  C   UNL A   1      43.039  35.311  27.565  1.00  0.00     0.064 A 
ATOM     85  C   UNL A   1      43.153  36.707  27.608  1.00  0.00     0.173 A 
ATOM     86  C   UNL A   1      43.657  34.626  26.525  1.00  0.00     0.173 A 
ATOM     87  F   UNL A   1      42.337  37.442  28.373  1.00  0.00    -0.203 F 
ATOM     88  C   UNL A   1      44.298  37.265  27.115  1.00  0.00     0.198 A 
ATOM     89  C   UNL A   1      44.876  35.111  26.164  1.00  0.00     0.198 A 
ATOM     90  F   UNL A   1      43.418  33.321  26.325  1.00  0.00    -0.203 F 
ATOM     91  F   UNL A   1      44.657  38.507  27.456  1.00  0.00    -0.200 F 
ATOM     92  C   UNL A   1      45.230  36.357  26.672  1.00  0.00     0.200 A 
ATOM     93  F   UNL A   1      45.813  34.197  25.859  1.00  0.00    -0.200 F 
ATOM     94  F   UNL A   1      46.315  36.324  27.437  1.00  0.00    -0.200 F 
ENDBRANCH  60  84
BRANCH  72  95
ATOM     95  C   UNL A   1      38.964  32.825  32.730  1.00  0.00     0.064 A 
ATOM     96  C   UNL A   1      38.447  33.479  33.869  1.00  0.00     0.173 A 
ATOM     97  C   UNL A   1      38.046  32.032  32.022  1.00  0.00     0.173 A 
ATOM     98  F   UNL A   1      39.254  34.106  34.738  1.00  0.00    -0.203 F 
ATOM     99  C   UNL A   1      37.088  33.510  34.152  1.00  0.00     0.198 A 
ATOM    100  C   UNL A   1      36.695  31.989  32.365  1.00  0.00     0.198 A 
ATOM    101  F   UNL A   1      38.409  31.285  30.972  1.00  0.00    -0.203 F 
ATOM    102  F   UNL A   1      36.639  34.274  35.158  1.00  0.00    -0.200 F 
ATOM    103  C   UNL A   1      36.209  32.764  33.398  1.00  0.00     0.200 A 
ATOM    104  F   UNL A   1      35.863  31.200  31.670  1.00  0.00    -0.200 F 
ATOM    105  F   UNL A   1      34.900  32.777  33.678  1.00  0.00    -0.200 F 
ENDBRANCH  72  95
ENDBRANCH  46  47
ENDBRANCH  39  41
ENDBRANCH  38  39
ENDBRANCH  37  38
ENDBRANCH  36  37
ENDBRANCH  35  36
ENDBRANCH  34  35
ENDBRANCH   1  34
TORSDOF 20
ENDMDL
MODEL 3
REMARK VINA RESULT:     -13.0      8.075     14.970
REMARK SMILES Cc1ccc(C2=NN(C(=O)CCC(=O)OCCOCCOC(=O)c3ccc(-c4c5nc(c(-c6c(F)c(F)c(F)c(F)c6F)c6ccc([nH]6)c(-c6c(F)c(F)c(F)c(F)c6F)c6nc(c(-c7c(F)c(F)c(F)c(F)c7F)c7ccc4[nH]7)C=C6)C=C5)cc3)[C@H](C[C@H]3C=c4cccc(C)c4=NC3=O)C2)cc1
REMARK SMILES IDX 16 1 15 2 13 3 14 4 12 5 11 6 9 7 10 8 8 9 6 10 7 11 101 12
REMARK SMILES IDX 87 13 5 14 1 15 2 16 3 17 103 18 4 19 102 20 88 21 89 22
REMARK SMILES IDX 90 23 99 24 91 25 98 26 100 27 92 28 97 29 93 30 95 31 94 32
REMARK SMILES IDX 96 33 17 34 18 35 19 36 20 37 21 38 22 39 23 40 24 41 25 42
REMARK SMILES IDX 86 43 26 44 85 45 27 46 28 47 29 48 79 49 30 50 84 51 78 52
REMARK SMILES IDX 80 53 31 54 83 55 77 56 76 57 32 59 64 60 44 61 63 62 45 63
REMARK SMILES IDX 48 64 62 65 81 66 46 67 47 68 61 70 82 71 49 72 33 73 34 74
REMARK SMILES IDX 42 75 35 76 36 77 40 78 43 79 37 80 38 81 41 82 39 83 65 84
REMARK SMILES IDX 66 85 74 86 67 87 68 88 72 89 75 90 69 91 70 92 73 93 71 94
REMARK SMILES IDX 50 95 51 96 59 97 52 98 53 99 57 100 60 101 54 102 55 103
REMARK SMILES IDX 58 104 56 105
REMARK H PARENT 80 58 48 69
REMARK Flexibility Score: inf
ROOT
ATOM      1  C   UNL A   1      47.765  20.554  34.976  1.00  0.00     0.261 C 
ENDROOT
BRANCH   1   2
ATOM      2  O   UNL A   1      48.375  21.179  36.086  1.00  0.00    -0.463 OA
BRANCH   2   3
ATOM      3  C   UNL A   1      49.711  21.085  36.093  1.00  0.00     0.306 C 
ATOM      4  O   UNL A   1      50.377  20.314  35.393  1.00  0.00    -0.252 OA
BRANCH   3   5
ATOM      5  C   UNL A   1      50.301  22.024  37.089  1.00  0.00     0.132 C 
BRANCH   5   6
ATOM      6  C   UNL A   1      49.305  22.803  37.933  1.00  0.00     0.114 C 
BRANCH   6   7
ATOM      7  C   UNL A   1      48.725  22.244  39.273  1.00  0.00     0.243 C 
ATOM      8  O   UNL A   1      48.117  23.112  39.926  1.00  0.00    -0.273 OA
BRANCH   7   9
ATOM      9  N   UNL A   1      48.662  20.868  39.689  1.00  0.00    -0.230 N 
ATOM     10  C   UNL A   1      49.805  19.546  41.075  1.00  0.00     0.070 C 
ATOM     11  N   UNL A   1      49.311  20.730  41.007  1.00  0.00    -0.174 NA
ATOM     12  C   UNL A   1      49.419  18.709  39.897  1.00  0.00     0.086 C 
ATOM     13  C   UNL A   1      48.157  19.217  39.040  1.00  0.00     0.118 C 
BRANCH  10  14
ATOM     14  C   UNL A   1      50.885  18.977  42.022  1.00  0.00    -0.002 A 
ATOM     15  C   UNL A   1      54.511  17.794  44.192  1.00  0.00     0.044 C 
ATOM     16  C   UNL A   1      53.248  18.193  43.478  1.00  0.00    -0.051 A 
ATOM     17  C   UNL A   1      52.044  18.520  44.129  1.00  0.00     0.004 A 
ATOM     18  C   UNL A   1      53.245  18.187  42.097  1.00  0.00     0.004 A 
ATOM     19  C   UNL A   1      50.880  18.943  43.412  1.00  0.00     0.010 A 
ATOM     20  C   UNL A   1      52.077  18.525  41.411  1.00  0.00     0.010 A 
ENDBRANCH  10  14
BRANCH  13  21
ATOM     21  C   UNL A   1      46.197  18.516  39.041  1.00  0.00     0.045 C 
BRANCH  21  22
ATOM     22  C   UNL A   1      45.632  16.808  39.850  1.00  0.00     0.106 C 
ATOM     23  C   UNL A   1      46.188  16.276  41.316  1.00  0.00    -0.003 C 
ATOM     24  C   UNL A   1      44.089  16.515  39.882  1.00  0.00     0.253 C 
ATOM     25  C   UNL A   1      45.431  16.261  42.424  1.00  0.00    -0.003 A 
ATOM     26  N   UNL A   1      43.461  15.951  41.007  1.00  0.00    -0.212 NA
ATOM     27  O   UNL A   1      43.430  16.808  38.883  1.00  0.00    -0.272 OA
ATOM     28  C   UNL A   1      45.824  16.683  43.773  1.00  0.00     0.010 A 
ATOM     29  C   UNL A   1      44.046  15.858  42.159  1.00  0.00     0.077 A 
ATOM     30  C   UNL A   1      45.006  16.462  44.812  1.00  0.00     0.001 A 
ATOM     31  C   UNL A   1      43.460  15.202  43.401  1.00  0.00    -0.025 A 
ATOM     32  C   UNL A   1      43.911  15.540  44.629  1.00  0.00     0.005 A 
ATOM     33  C   UNL A   1      42.648  13.972  43.194  1.00  0.00     0.047 C 
ENDBRANCH  21  22
ENDBRANCH  13  21
ENDBRANCH   7   9
ENDBRANCH   6   7
ENDBRANCH   5   6
ENDBRANCH   3   5
ENDBRANCH   2   3
ENDBRANCH   1   2
BRANCH   1  34
ATOM     34  C   UNL A   1      46.501  19.837  35.345  1.00  0.00     0.202 C 
BRANCH  34  35
ATOM     35  O   UNL A   1      45.280  20.463  35.034  1.00  0.00    -0.374 OA
BRANCH  35  36
ATOM     36  C   UNL A   1      45.006  21.881  34.851  1.00  0.00     0.202 C 
BRANCH  36  37
ATOM     37  C   UNL A   1      43.529  22.713  34.356  1.00  0.00     0.261 C 
BRANCH  37  38
ATOM     38  O   UNL A   1      42.074  23.643  35.211  1.00  0.00    -0.460 OA
BRANCH  38  39
ATOM     39  C   UNL A   1      41.575  25.237  35.645  1.00  0.00     0.338 C 
ATOM     40  O   UNL A   1      40.585  25.280  36.372  1.00  0.00    -0.246 OA
BRANCH  39  41
ATOM     41  C   UNL A   1      42.220  26.844  34.952  1.00  0.00     0.060 A 
ATOM     42  C   UNL A   1      41.400  27.748  34.197  1.00  0.00     0.016 A 
ATOM     43  C   UNL A   1      43.546  27.126  34.601  1.00  0.00     0.016 A 
ATOM     44  C   UNL A   1      41.749  28.152  32.815  1.00  0.00     0.010 A 
ATOM     45  C   UNL A   1      43.921  27.603  33.292  1.00  0.00     0.010 A 
ATOM     46  C   UNL A   1      43.001  27.881  32.268  1.00  0.00    -0.014 A 
BRANCH  46  47
ATOM     47  C   UNL A   1      43.451  27.750  30.780  1.00  0.00     0.031 A 
ATOM     48  C   UNL A   1      43.703  26.341  30.198  1.00  0.00     0.074 A 
ATOM     49  C   UNL A   1      43.336  28.728  29.789  1.00  0.00     0.049 A 
ATOM     50  N   UNL A   1      43.968  26.083  28.951  1.00  0.00    -0.248 NA
ATOM     51  C   UNL A   1      43.695  25.104  30.979  1.00  0.00     0.031 C 
ATOM     52  C   UNL A   1      42.947  28.414  28.379  1.00  0.00     0.029 A 
ATOM     53  N   UNL A   1      43.247  30.144  29.748  1.00  0.00    -0.354 N 
ATOM     54  C   UNL A   1      43.824  24.734  28.707  1.00  0.00     0.074 A 
ATOM     55  C   UNL A   1      43.797  24.160  30.029  1.00  0.00     0.031 C 
ATOM     56  C   UNL A   1      42.723  29.515  27.657  1.00  0.00     0.029 A 
ATOM     57  C   UNL A   1      43.231  30.634  28.396  1.00  0.00     0.049 A 
ATOM     58  H   UNL A   1      43.203  30.719  30.545  1.00  0.00     0.167 HD
ATOM     59  C   UNL A   1      43.669  24.270  27.423  1.00  0.00     0.037 A 
ATOM     60  C   UNL A   1      44.059  31.562  27.797  1.00  0.00     0.037 A 
ATOM     61  C   UNL A   1      43.811  25.341  26.425  1.00  0.00     0.049 A 
ATOM     62  C   UNL A   1      45.022  30.891  26.856  1.00  0.00     0.074 A 
ATOM     63  C   UNL A   1      42.980  25.972  25.514  1.00  0.00     0.029 A 
ATOM     64  N   UNL A   1      45.005  26.040  26.382  1.00  0.00    -0.354 N 
ATOM     65  N   UNL A   1      44.784  29.813  26.171  1.00  0.00    -0.248 NA
ATOM     66  C   UNL A   1      46.425  31.300  26.848  1.00  0.00     0.031 C 
ATOM     67  C   UNL A   1      43.690  27.096  24.974  1.00  0.00     0.029 A 
ATOM     68  C   UNL A   1      44.974  27.100  25.495  1.00  0.00     0.049 A 
ATOM     69  H   UNL A   1      45.792  25.808  26.925  1.00  0.00     0.167 HD
ATOM     70  C   UNL A   1      45.992  29.241  25.890  1.00  0.00     0.074 A 
ATOM     71  C   UNL A   1      46.987  30.205  26.336  1.00  0.00     0.031 C 
ATOM     72  C   UNL A   1      46.142  27.971  25.420  1.00  0.00     0.037 A 
BRANCH  59  73
ATOM     73  C   UNL A   1      43.339  22.837  26.994  1.00  0.00     0.064 A 
ATOM     74  C   UNL A   1      44.144  22.165  26.037  1.00  0.00     0.173 A 
ATOM     75  C   UNL A   1      42.226  22.090  27.431  1.00  0.00     0.173 A 
ATOM     76  F   UNL A   1      45.232  22.748  25.514  1.00  0.00    -0.203 F 
ATOM     77  C   UNL A   1      43.864  20.867  25.581  1.00  0.00     0.198 A 
ATOM     78  C   UNL A   1      41.980  20.772  27.016  1.00  0.00     0.198 A 
ATOM     79  F   UNL A   1      41.296  22.618  28.233  1.00  0.00    -0.203 F 
ATOM     80  F   UNL A   1      44.644  20.304  24.646  1.00  0.00    -0.200 F 
ATOM     81  C   UNL A   1      42.792  20.164  26.085  1.00  0.00     0.200 A 
ATOM     82  F   UNL A   1      40.930  20.105  27.519  1.00  0.00    -0.200 F 
ATOM     83  F   UNL A   1      42.532  18.916  25.667  1.00  0.00    -0.200 F 
ENDBRANCH  59  73
BRANCH  60  84
ATOM     84  C   UNL A   1      44.531  32.792  28.525  1.00  0.00     0.064 A 
ATOM     85  C   UNL A   1      43.824  33.954  28.189  1.00  0.00     0.173 A 
ATOM     86  C   UNL A   1      44.802  32.545  29.866  1.00  0.00     0.173 A 
ATOM     87  F   UNL A   1      43.810  34.411  26.931  1.00  0.00    -0.203 F 
ATOM     88  C   UNL A   1      42.905  34.419  29.085  1.00  0.00     0.198 A 
ATOM     89  C   UNL A   1      43.798  32.871  30.724  1.00  0.00     0.198 A 
ATOM     90  F   UNL A   1      45.638  31.559  30.227  1.00  0.00    -0.203 F 
ATOM     91  F   UNL A   1      41.938  35.260  28.703  1.00  0.00    -0.200 F 
ATOM     92  C   UNL A   1      42.760  33.640  30.208  1.00  0.00     0.200 A 
ATOM     93  F   UNL A   1      43.589  32.022  31.745  1.00  0.00    -0.200 F 
ATOM     94  F   UNL A   1      41.580  33.032  30.259  1.00  0.00    -0.200 F 
ENDBRANCH  60  84
BRANCH  72  95
ATOM     95  C   UNL A   1      47.499  27.502  24.965  1.00  0.00     0.064 A 
ATOM     96  C   UNL A   1      47.910  27.643  23.623  1.00  0.00     0.173 A 
ATOM     97  C   UNL A   1      48.414  26.851  25.810  1.00  0.00     0.173 A 
ATOM     98  F   UNL A   1      47.060  28.069  22.675  1.00  0.00    -0.203 F 
ATOM     99  C   UNL A   1      49.204  27.353  23.209  1.00  0.00     0.198 A 
ATOM    100  C   UNL A   1      49.681  26.473  25.368  1.00  0.00     0.198 A 
ATOM    101  F   UNL A   1      48.128  26.569  27.087  1.00  0.00    -0.203 F 
ATOM    102  F   UNL A   1      49.580  27.651  21.958  1.00  0.00    -0.200 F 
ATOM    103  C   UNL A   1      50.092  26.766  24.084  1.00  0.00     0.200 A 
ATOM    104  F   UNL A   1      50.508  25.836  26.208  1.00  0.00    -0.200 F 
ATOM    105  F   UNL A   1      51.334  26.469  23.685  1.00  0.00    -0.200 F 
ENDBRANCH  72  95
ENDBRANCH  46  47
ENDBRANCH  39  41
ENDBRANCH  38  39
ENDBRANCH  37  38
ENDBRANCH  36  37
ENDBRANCH  35  36
ENDBRANCH  34  35
ENDBRANCH   1  34
TORSDOF 20
ENDMDL
