MODEL 1
REMARK VINA RESULT:     -13.1      0.000      0.000
REMARK SMILES C[C@H](C(=O)OCCOCCOC(=O)c1ccc(-c2c3nc(c(-c4c(F)c(F)c(F)c(F)c4F)c4ccc([nH]4)c(-c4c(F)c(F)c(F)c(F)c4F)c4nc(c(-c5c(F)c(F)c(F)c(F)c5F)c5ccc2[nH]5)C=C4)C=C3)cc1)c1ccc2c3cc(Cl)ccc3n(C(=O)c3ccc(Cl)cc3)c2c1
REMARK SMILES IDX 7 1 6 2 5 3 3 4 4 5 2 6 1 7 77 8 78 9 99 10 79 11 98 12
REMARK SMILES IDX 80 13 88 14 81 15 87 16 82 17 86 18 83 19 85 20 84 21 89 22
REMARK SMILES IDX 90 23 91 24 92 25 97 26 93 27 96 28 94 29 95 30 8 31 9 32
REMARK SMILES IDX 10 33 11 34 12 35 13 36 14 37 15 38 76 39 16 40 75 41 17 42
REMARK SMILES IDX 18 43 19 44 69 45 20 46 74 47 68 48 70 49 21 50 73 51 67 52
REMARK SMILES IDX 66 53 22 55 54 56 34 57 53 58 35 59 38 60 52 61 71 62 36 63
REMARK SMILES IDX 37 64 51 66 72 67 39 68 23 69 24 70 32 71 25 72 26 73 30 74
REMARK SMILES IDX 33 75 27 76 28 77 31 78 29 79 55 80 56 81 64 82 57 83 58 84
REMARK SMILES IDX 62 85 65 86 59 87 60 88 63 89 61 90 40 91 41 92 49 93 42 94
REMARK SMILES IDX 43 95 47 96 50 97 44 98 45 99 48 100 46 101
REMARK H PARENT 70 54 38 65
REMARK Flexibility Score: inf
ROOT
ATOM      1  C   UNL A   1      35.389  20.485  25.021  1.00  0.00     0.202 C 
ENDROOT
BRANCH   1   2
ATOM      2  C   UNL A   1      34.000  19.871  25.212  1.00  0.00     0.261 C 
BRANCH   2   3
ATOM      3  O   UNL A   1      33.096  20.322  24.188  1.00  0.00    -0.463 OA
BRANCH   3   4
ATOM      4  C   UNL A   1      32.368  21.436  24.464  1.00  0.00     0.313 C 
ATOM      5  O   UNL A   1      31.569  21.527  25.390  1.00  0.00    -0.252 OA
BRANCH   4   6
ATOM      6  C   UNL A   1      32.685  22.609  23.544  1.00  0.00     0.126 C 
ATOM      7  C   UNL A   1      31.590  22.780  22.487  1.00  0.00     0.025 C 
BRANCH   6   8
ATOM      8  C   UNL A   1      33.019  23.936  24.215  1.00  0.00    -0.032 A 
ATOM      9  C   UNL A   1      34.100  24.118  25.084  1.00  0.00     0.005 A 
ATOM     10  C   UNL A   1      32.152  25.010  23.992  1.00  0.00     0.032 A 
ATOM     11  C   UNL A   1      34.375  25.367  25.660  1.00  0.00     0.011 A 
ATOM     12  C   UNL A   1      32.359  26.221  24.675  1.00  0.00     0.057 A 
ATOM     13  C   UNL A   1      33.491  26.442  25.442  1.00  0.00     0.008 A 
ATOM     14  N   UNL A   1      31.539  27.350  24.752  1.00  0.00    -0.276 N 
ATOM     15  C   UNL A   1      33.449  27.798  25.869  1.00  0.00     0.009 A 
ATOM     16  C   UNL A   1      32.201  28.328  25.500  1.00  0.00     0.057 A 
ATOM     17  C   UNL A   1      34.357  28.591  26.605  1.00  0.00     0.031 A 
ATOM     18  C   UNL A   1      31.794  29.587  25.983  1.00  0.00     0.029 A 
ATOM     19  C   UNL A   1      33.974  29.863  27.016  1.00  0.00     0.041 A 
ATOM     20  C   UNL A   1      32.702  30.345  26.735  1.00  0.00     0.023 A 
ATOM     21  Cl  UNL A   1      35.079  30.827  27.919  1.00  0.00    -0.084 Cl
BRANCH  14  22
ATOM     22  C   UNL A   1      30.214  27.336  24.255  1.00  0.00     0.262 C 
ATOM     23  O   UNL A   1      29.542  26.355  24.587  1.00  0.00    -0.268 OA
BRANCH  22  24
ATOM     24  C   UNL A   1      29.551  28.288  23.322  1.00  0.00     0.040 A 
ATOM     25  C   UNL A   1      30.404  29.113  22.560  1.00  0.00     0.015 A 
ATOM     26  C   UNL A   1      28.172  28.499  23.243  1.00  0.00     0.015 A 
ATOM     27  C   UNL A   1      29.901  30.105  21.720  1.00  0.00     0.021 A 
ATOM     28  C   UNL A   1      27.664  29.477  22.374  1.00  0.00     0.021 A 
ATOM     29  C   UNL A   1      28.527  30.276  21.621  1.00  0.00     0.041 A 
ATOM     30  Cl  UNL A   1      27.896  31.492  20.583  1.00  0.00    -0.084 Cl
ENDBRANCH  22  24
ENDBRANCH  14  22
ENDBRANCH   6   8
ENDBRANCH   4   6
ENDBRANCH   3   4
ENDBRANCH   2   3
ENDBRANCH   1   2
BRANCH   1  31
ATOM     31  O   UNL A   1      36.485  19.568  24.980  1.00  0.00    -0.374 OA
BRANCH  31  32
ATOM     32  C   UNL A   1      37.765  20.108  24.663  1.00  0.00     0.202 C 
BRANCH  32  33
ATOM     33  C   UNL A   1      38.929  19.672  25.562  1.00  0.00     0.261 C 
BRANCH  33  34
ATOM     34  O   UNL A   1      39.879  20.736  25.757  1.00  0.00    -0.460 OA
BRANCH  34  35
ATOM     35  C   UNL A   1      40.552  20.681  26.927  1.00  0.00     0.338 C 
ATOM     36  O   UNL A   1      41.031  19.685  27.459  1.00  0.00    -0.246 OA
BRANCH  35  37
ATOM     37  C   UNL A   1      40.813  22.037  27.441  1.00  0.00     0.060 A 
ATOM     38  C   UNL A   1      40.082  23.083  26.863  1.00  0.00     0.016 A 
ATOM     39  C   UNL A   1      41.802  22.303  28.391  1.00  0.00     0.016 A 
ATOM     40  C   UNL A   1      40.386  24.404  27.177  1.00  0.00     0.010 A 
ATOM     41  C   UNL A   1      42.106  23.634  28.705  1.00  0.00     0.010 A 
ATOM     42  C   UNL A   1      41.431  24.690  28.064  1.00  0.00    -0.014 A 
BRANCH  42  43
ATOM     43  C   UNL A   1      41.909  26.091  28.184  1.00  0.00     0.031 A 
ATOM     44  C   UNL A   1      43.215  26.476  27.541  1.00  0.00     0.074 A 
ATOM     45  C   UNL A   1      41.163  27.024  28.799  1.00  0.00     0.049 A 
ATOM     46  N   UNL A   1      43.822  27.636  27.517  1.00  0.00    -0.248 NA
ATOM     47  C   UNL A   1      43.932  25.410  26.824  1.00  0.00     0.031 C 
ATOM     48  C   UNL A   1      39.859  26.790  29.415  1.00  0.00     0.029 A 
ATOM     49  N   UNL A   1      41.397  28.362  29.003  1.00  0.00    -0.354 N 
ATOM     50  C   UNL A   1      44.993  27.436  26.796  1.00  0.00     0.074 A 
ATOM     51  C   UNL A   1      45.027  26.038  26.423  1.00  0.00     0.031 C 
ATOM     52  C   UNL A   1      39.407  27.945  29.931  1.00  0.00     0.029 A 
ATOM     53  C   UNL A   1      40.405  28.992  29.714  1.00  0.00     0.049 A 
ATOM     54  H   UNL A   1      42.200  28.825  28.672  1.00  0.00     0.167 HD
ATOM     55  C   UNL A   1      45.947  28.338  26.465  1.00  0.00     0.037 A 
ATOM     56  C   UNL A   1      40.324  30.262  30.155  1.00  0.00     0.037 A 
ATOM     57  C   UNL A   1      45.906  29.732  26.826  1.00  0.00     0.049 A 
ATOM     58  C   UNL A   1      41.438  31.228  29.839  1.00  0.00     0.074 A 
ATOM     59  C   UNL A   1      46.813  30.730  26.515  1.00  0.00     0.029 A 
ATOM     60  N   UNL A   1      44.908  30.322  27.589  1.00  0.00    -0.354 N 
ATOM     61  N   UNL A   1      42.527  31.038  29.134  1.00  0.00    -0.248 NA
ATOM     62  C   UNL A   1      41.307  32.589  30.380  1.00  0.00     0.031 C 
ATOM     63  C   UNL A   1      46.396  31.910  27.140  1.00  0.00     0.029 A 
ATOM     64  C   UNL A   1      45.195  31.663  27.785  1.00  0.00     0.049 A 
ATOM     65  H   UNL A   1      44.114  29.856  27.937  1.00  0.00     0.167 HD
ATOM     66  C   UNL A   1      43.192  32.257  29.120  1.00  0.00     0.074 A 
ATOM     67  C   UNL A   1      42.377  33.185  29.875  1.00  0.00     0.031 C 
ATOM     68  C   UNL A   1      44.370  32.580  28.532  1.00  0.00     0.037 A 
BRANCH  55  69
ATOM     69  C   UNL A   1      47.138  27.843  25.695  1.00  0.00     0.064 A 
ATOM     70  C   UNL A   1      47.161  27.824  24.292  1.00  0.00     0.173 A 
ATOM     71  C   UNL A   1      48.292  27.420  26.374  1.00  0.00     0.173 A 
ATOM     72  F   UNL A   1      46.081  28.206  23.594  1.00  0.00    -0.203 F 
ATOM     73  C   UNL A   1      48.283  27.377  23.600  1.00  0.00     0.198 A 
ATOM     74  C   UNL A   1      49.422  27.004  25.678  1.00  0.00     0.198 A 
ATOM     75  F   UNL A   1      48.326  27.424  27.715  1.00  0.00    -0.203 F 
ATOM     76  F   UNL A   1      48.265  27.324  22.260  1.00  0.00    -0.200 F 
ATOM     77  C   UNL A   1      49.415  26.975  24.292  1.00  0.00     0.200 A 
ATOM     78  F   UNL A   1      50.521  26.631  26.349  1.00  0.00    -0.200 F 
ATOM     79  F   UNL A   1      50.498  26.554  23.624  1.00  0.00    -0.200 F 
ENDBRANCH  55  69
BRANCH  56  80
ATOM     80  C   UNL A   1      39.151  30.696  30.959  1.00  0.00     0.064 A 
ATOM     81  C   UNL A   1      39.080  30.441  32.335  1.00  0.00     0.173 A 
ATOM     82  C   UNL A   1      38.063  31.350  30.362  1.00  0.00     0.173 A 
ATOM     83  F   UNL A   1      40.083  29.795  32.950  1.00  0.00    -0.203 F 
ATOM     84  C   UNL A   1      37.958  30.804  33.079  1.00  0.00     0.198 A 
ATOM     85  C   UNL A   1      36.956  31.741  31.111  1.00  0.00     0.198 A 
ATOM     86  F   UNL A   1      38.077  31.615  29.047  1.00  0.00    -0.203 F 
ATOM     87  F   UNL A   1      37.895  30.502  34.382  1.00  0.00    -0.200 F 
ATOM     88  C   UNL A   1      36.900  31.460  32.467  1.00  0.00     0.200 A 
ATOM     89  F   UNL A   1      35.942  32.385  30.518  1.00  0.00    -0.200 F 
ATOM     90  F   UNL A   1      35.823  31.810  33.182  1.00  0.00    -0.200 F 
ENDBRANCH  56  80
BRANCH  68  91
ATOM     91  C   UNL A   1      44.833  34.007  28.641  1.00  0.00     0.064 A 
ATOM     92  C   UNL A   1      44.450  34.982  27.709  1.00  0.00     0.173 A 
ATOM     93  C   UNL A   1      45.636  34.411  29.718  1.00  0.00     0.173 A 
ATOM     94  F   UNL A   1      43.693  34.647  26.652  1.00  0.00    -0.203 F 
ATOM     95  C   UNL A   1      44.879  36.302  27.834  1.00  0.00     0.198 A 
ATOM     96  C   UNL A   1      46.035  35.737  29.860  1.00  0.00     0.198 A 
ATOM     97  F   UNL A   1      46.024  33.521  30.644  1.00  0.00    -0.203 F 
ATOM     98  F   UNL A   1      44.544  37.205  26.902  1.00  0.00    -0.200 F 
ATOM     99  C   UNL A   1      45.663  36.679  28.913  1.00  0.00     0.200 A 
ATOM    100  F   UNL A   1      46.779  36.103  30.913  1.00  0.00    -0.200 F 
ATOM    101  F   UNL A   1      46.068  37.951  29.037  1.00  0.00    -0.200 F 
ENDBRANCH  68  91
ENDBRANCH  42  43
ENDBRANCH  35  37
ENDBRANCH  34  35
ENDBRANCH  33  34
ENDBRANCH  32  33
ENDBRANCH  31  32
ENDBRANCH   1  31
TORSDOF 17
ENDMDL
MODEL 2
REMARK VINA RESULT:     -13.0      4.662     10.618
REMARK SMILES C[C@H](C(=O)OCCOCCOC(=O)c1ccc(-c2c3nc(c(-c4c(F)c(F)c(F)c(F)c4F)c4ccc([nH]4)c(-c4c(F)c(F)c(F)c(F)c4F)c4nc(c(-c5c(F)c(F)c(F)c(F)c5F)c5ccc2[nH]5)C=C4)C=C3)cc1)c1ccc2c3cc(Cl)ccc3n(C(=O)c3ccc(Cl)cc3)c2c1
REMARK SMILES IDX 7 1 6 2 5 3 3 4 4 5 2 6 1 7 77 8 78 9 99 10 79 11 98 12
REMARK SMILES IDX 80 13 88 14 81 15 87 16 82 17 86 18 83 19 85 20 84 21 89 22
REMARK SMILES IDX 90 23 91 24 92 25 97 26 93 27 96 28 94 29 95 30 8 31 9 32
REMARK SMILES IDX 10 33 11 34 12 35 13 36 14 37 15 38 76 39 16 40 75 41 17 42
REMARK SMILES IDX 18 43 19 44 69 45 20 46 74 47 68 48 70 49 21 50 73 51 67 52
REMARK SMILES IDX 66 53 22 55 54 56 34 57 53 58 35 59 38 60 52 61 71 62 36 63
REMARK SMILES IDX 37 64 51 66 72 67 39 68 23 69 24 70 32 71 25 72 26 73 30 74
REMARK SMILES IDX 33 75 27 76 28 77 31 78 29 79 55 80 56 81 64 82 57 83 58 84
REMARK SMILES IDX 62 85 65 86 59 87 60 88 63 89 61 90 40 91 41 92 49 93 42 94
REMARK SMILES IDX 43 95 47 96 50 97 44 98 45 99 48 100 46 101
REMARK H PARENT 70 54 38 65
REMARK Flexibility Score: inf
ROOT
ATOM      1  C   UNL A   1      32.575  29.325  25.294  1.00  0.00     0.202 C 
ENDROOT
BRANCH   1   2
ATOM      2  C   UNL A   1      31.712  28.180  25.831  1.00  0.00     0.261 C 
BRANCH   2   3
ATOM      3  O   UNL A   1      30.792  27.719  24.827  1.00  0.00    -0.463 OA
BRANCH   3   4
ATOM      4  C   UNL A   1      31.274  26.832  23.917  1.00  0.00     0.313 C 
ATOM      5  O   UNL A   1      31.739  27.145  22.826  1.00  0.00    -0.252 OA
BRANCH   4   6
ATOM      6  C   UNL A   1      31.248  25.389  24.406  1.00  0.00     0.126 C 
ATOM      7  C   UNL A   1      30.377  24.522  23.493  1.00  0.00     0.025 C 
BRANCH   6   8
ATOM      8  C   UNL A   1      32.597  24.731  24.672  1.00  0.00    -0.032 A 
ATOM      9  C   UNL A   1      33.780  25.442  24.897  1.00  0.00     0.005 A 
ATOM     10  C   UNL A   1      32.656  23.334  24.625  1.00  0.00     0.032 A 
ATOM     11  C   UNL A   1      34.993  24.787  25.156  1.00  0.00     0.011 A 
ATOM     12  C   UNL A   1      33.898  22.688  24.756  1.00  0.00     0.057 A 
ATOM     13  C   UNL A   1      35.048  23.381  25.094  1.00  0.00     0.008 A 
ATOM     14  N   UNL A   1      34.224  21.343  24.565  1.00  0.00    -0.276 N 
ATOM     15  C   UNL A   1      36.078  22.417  25.279  1.00  0.00     0.009 A 
ATOM     16  C   UNL A   1      35.577  21.168  24.875  1.00  0.00     0.057 A 
ATOM     17  C   UNL A   1      37.423  22.531  25.694  1.00  0.00     0.031 A 
ATOM     18  C   UNL A   1      36.442  20.065  24.742  1.00  0.00     0.029 A 
ATOM     19  C   UNL A   1      38.253  21.417  25.629  1.00  0.00     0.041 A 
ATOM     20  C   UNL A   1      37.780  20.209  25.135  1.00  0.00     0.023 A 
ATOM     21  Cl  UNL A   1      39.896  21.558  26.129  1.00  0.00    -0.084 Cl
BRANCH  14  22
ATOM     22  C   UNL A   1      33.302  20.433  23.997  1.00  0.00     0.262 C 
ATOM     23  O   UNL A   1      32.469  20.938  23.239  1.00  0.00    -0.268 OA
BRANCH  22  24
ATOM     24  C   UNL A   1      33.143  18.974  24.252  1.00  0.00     0.040 A 
ATOM     25  C   UNL A   1      32.741  18.608  25.554  1.00  0.00     0.015 A 
ATOM     26  C   UNL A   1      33.476  17.964  23.347  1.00  0.00     0.015 A 
ATOM     27  C   UNL A   1      32.646  17.272  25.939  1.00  0.00     0.021 A 
ATOM     28  C   UNL A   1      33.350  16.618  23.725  1.00  0.00     0.021 A 
ATOM     29  C   UNL A   1      32.941  16.278  25.016  1.00  0.00     0.041 A 
ATOM     30  Cl  UNL A   1      32.821  14.627  25.479  1.00  0.00    -0.084 Cl
ENDBRANCH  22  24
ENDBRANCH  14  22
ENDBRANCH   6   8
ENDBRANCH   4   6
ENDBRANCH   3   4
ENDBRANCH   2   3
ENDBRANCH   1   2
BRANCH   1  31
ATOM     31  O   UNL A   1      32.690  30.476  26.133  1.00  0.00    -0.374 OA
BRANCH  31  32
ATOM     32  C   UNL A   1      31.487  31.183  26.426  1.00  0.00     0.202 C 
BRANCH  32  33
ATOM     33  C   UNL A   1      31.651  32.613  26.956  1.00  0.00     0.261 C 
BRANCH  33  34
ATOM     34  O   UNL A   1      33.013  33.070  26.843  1.00  0.00    -0.460 OA
BRANCH  34  35
ATOM     35  C   UNL A   1      33.543  33.544  27.992  1.00  0.00     0.338 C 
ATOM     36  O   UNL A   1      33.019  34.320  28.784  1.00  0.00    -0.246 OA
BRANCH  35  37
ATOM     37  C   UNL A   1      34.813  32.863  28.298  1.00  0.00     0.060 A 
ATOM     38  C   UNL A   1      34.733  31.517  28.678  1.00  0.00     0.016 A 
ATOM     39  C   UNL A   1      36.040  33.530  28.306  1.00  0.00     0.016 A 
ATOM     40  C   UNL A   1      35.865  30.852  29.138  1.00  0.00     0.010 A 
ATOM     41  C   UNL A   1      37.179  32.859  28.771  1.00  0.00     0.010 A 
ATOM     42  C   UNL A   1      37.086  31.532  29.232  1.00  0.00    -0.014 A 
BRANCH  42  43
ATOM     43  C   UNL A   1      38.211  30.894  29.963  1.00  0.00     0.031 A 
ATOM     44  C   UNL A   1      38.404  31.206  31.423  1.00  0.00     0.074 A 
ATOM     45  C   UNL A   1      39.008  29.999  29.356  1.00  0.00     0.049 A 
ATOM     46  N   UNL A   1      39.313  30.765  32.256  1.00  0.00    -0.248 NA
ATOM     47  C   UNL A   1      37.441  32.140  32.027  1.00  0.00     0.031 C 
ATOM     48  C   UNL A   1      38.891  29.573  27.963  1.00  0.00     0.029 A 
ATOM     49  N   UNL A   1      40.076  29.284  29.839  1.00  0.00    -0.354 N 
ATOM     50  C   UNL A   1      39.038  31.374  33.474  1.00  0.00     0.074 A 
ATOM     51  C   UNL A   1      37.896  32.238  33.267  1.00  0.00     0.031 C 
ATOM     52  C   UNL A   1      39.852  28.671  27.702  1.00  0.00     0.029 A 
ATOM     53  C   UNL A   1      40.673  28.482  28.897  1.00  0.00     0.049 A 
ATOM     54  H   UNL A   1      40.385  29.340  30.772  1.00  0.00     0.167 HD
ATOM     55  C   UNL A   1      39.673  31.218  34.660  1.00  0.00     0.037 A 
ATOM     56  C   UNL A   1      41.768  27.703  28.986  1.00  0.00     0.037 A 
ATOM     57  C   UNL A   1      40.803  30.348  34.868  1.00  0.00     0.049 A 
ATOM     58  C   UNL A   1      42.504  27.607  30.299  1.00  0.00     0.074 A 
ATOM     59  C   UNL A   1      41.499  30.103  36.039  1.00  0.00     0.029 A 
ATOM     60  N   UNL A   1      41.409  29.590  33.877  1.00  0.00    -0.354 N 
ATOM     61  N   UNL A   1      42.221  28.164  31.452  1.00  0.00    -0.248 NA
ATOM     62  C   UNL A   1      43.712  26.770  30.321  1.00  0.00     0.031 C 
ATOM     63  C   UNL A   1      42.562  29.245  35.744  1.00  0.00     0.029 A 
ATOM     64  C   UNL A   1      42.490  28.902  34.403  1.00  0.00     0.049 A 
ATOM     65  H   UNL A   1      41.113  29.547  32.939  1.00  0.00     0.167 HD
ATOM     66  C   UNL A   1      43.193  27.721  32.340  1.00  0.00     0.074 A 
ATOM     67  C   UNL A   1      44.065  26.836  31.597  1.00  0.00     0.031 C 
ATOM     68  C   UNL A   1      43.346  28.017  33.655  1.00  0.00     0.037 A 
BRANCH  55  69
ATOM     69  C   UNL A   1      39.182  32.028  35.826  1.00  0.00     0.064 A 
ATOM     70  C   UNL A   1      38.271  31.511  36.759  1.00  0.00     0.173 A 
ATOM     71  C   UNL A   1      39.665  33.329  36.035  1.00  0.00     0.173 A 
ATOM     72  F   UNL A   1      37.768  30.277  36.600  1.00  0.00    -0.203 F 
ATOM     73  C   UNL A   1      37.843  32.274  37.842  1.00  0.00     0.198 A 
ATOM     74  C   UNL A   1      39.260  34.077  37.136  1.00  0.00     0.198 A 
ATOM     75  F   UNL A   1      40.543  33.871  35.177  1.00  0.00    -0.203 F 
ATOM     76  F   UNL A   1      36.936  31.776  38.694  1.00  0.00    -0.200 F 
ATOM     77  C   UNL A   1      38.343  33.553  38.034  1.00  0.00     0.200 A 
ATOM     78  F   UNL A   1      39.756  35.308  37.328  1.00  0.00    -0.200 F 
ATOM     79  F   UNL A   1      37.937  34.283  39.083  1.00  0.00    -0.200 F 
ENDBRANCH  55  69
BRANCH  56  80
ATOM     80  C   UNL A   1      42.250  26.959  27.792  1.00  0.00     0.064 A 
ATOM     81  C   UNL A   1      41.885  25.623  27.575  1.00  0.00     0.173 A 
ATOM     82  C   UNL A   1      43.109  27.559  26.860  1.00  0.00     0.173 A 
ATOM     83  F   UNL A   1      41.087  24.995  28.452  1.00  0.00    -0.203 F 
ATOM     84  C   UNL A   1      42.377  24.911  26.482  1.00  0.00     0.198 A 
ATOM     85  C   UNL A   1      43.574  26.857  25.751  1.00  0.00     0.198 A 
ATOM     86  F   UNL A   1      43.492  28.834  27.023  1.00  0.00    -0.203 F 
ATOM     87  F   UNL A   1      42.054  23.620  26.327  1.00  0.00    -0.200 F 
ATOM     88  C   UNL A   1      43.216  25.530  25.568  1.00  0.00     0.200 A 
ATOM     89  F   UNL A   1      44.374  27.463  24.864  1.00  0.00    -0.200 F 
ATOM     90  F   UNL A   1      43.687  24.846  24.517  1.00  0.00    -0.200 F 
ENDBRANCH  56  80
BRANCH  68  91
ATOM     91  C   UNL A   1      44.474  27.347  34.389  1.00  0.00     0.064 A 
ATOM     92  C   UNL A   1      44.314  26.102  35.015  1.00  0.00     0.173 A 
ATOM     93  C   UNL A   1      45.745  27.941  34.431  1.00  0.00     0.173 A 
ATOM     94  F   UNL A   1      43.116  25.496  35.017  1.00  0.00    -0.203 F 
ATOM     95  C   UNL A   1      45.375  25.492  35.681  1.00  0.00     0.198 A 
ATOM     96  C   UNL A   1      46.812  27.313  35.067  1.00  0.00     0.198 A 
ATOM     97  F   UNL A   1      45.957  29.128  33.842  1.00  0.00    -0.203 F 
ATOM     98  F   UNL A   1      45.184  24.328  36.316  1.00  0.00    -0.200 F 
ATOM     99  C   UNL A   1      46.624  26.094  35.699  1.00  0.00     0.200 A 
ATOM    100  F   UNL A   1      48.022  27.889  35.069  1.00  0.00    -0.200 F 
ATOM    101  F   UNL A   1      47.646  25.501  36.332  1.00  0.00    -0.200 F 
ENDBRANCH  68  91
ENDBRANCH  42  43
ENDBRANCH  35  37
ENDBRANCH  34  35
ENDBRANCH  33  34
ENDBRANCH  32  33
ENDBRANCH  31  32
ENDBRANCH   1  31
TORSDOF 17
ENDMDL
MODEL 3
REMARK VINA RESULT:     -12.8      0.507      6.950
REMARK SMILES C[C@H](C(=O)OCCOCCOC(=O)c1ccc(-c2c3nc(c(-c4c(F)c(F)c(F)c(F)c4F)c4ccc([nH]4)c(-c4c(F)c(F)c(F)c(F)c4F)c4nc(c(-c5c(F)c(F)c(F)c(F)c5F)c5ccc2[nH]5)C=C4)C=C3)cc1)c1ccc2c3cc(Cl)ccc3n(C(=O)c3ccc(Cl)cc3)c2c1
REMARK SMILES IDX 7 1 6 2 5 3 3 4 4 5 2 6 1 7 77 8 78 9 99 10 79 11 98 12
REMARK SMILES IDX 80 13 88 14 81 15 87 16 82 17 86 18 83 19 85 20 84 21 89 22
REMARK SMILES IDX 90 23 91 24 92 25 97 26 93 27 96 28 94 29 95 30 8 31 9 32
REMARK SMILES IDX 10 33 11 34 12 35 13 36 14 37 15 38 76 39 16 40 75 41 17 42
REMARK SMILES IDX 18 43 19 44 69 45 20 46 74 47 68 48 70 49 21 50 73 51 67 52
REMARK SMILES IDX 66 53 22 55 54 56 34 57 53 58 35 59 38 60 52 61 71 62 36 63
REMARK SMILES IDX 37 64 51 66 72 67 39 68 23 69 24 70 32 71 25 72 26 73 30 74
REMARK SMILES IDX 33 75 27 76 28 77 31 78 29 79 55 80 56 81 64 82 57 83 58 84
REMARK SMILES IDX 62 85 65 86 59 87 60 88 63 89 61 90 40 91 41 92 49 93 42 94
REMARK SMILES IDX 43 95 47 96 50 97 44 98 45 99 48 100 46 101
REMARK H PARENT 70 54 38 65
REMARK Flexibility Score: inf
ROOT
ATOM      1  C   UNL A   1      35.958  21.518  24.733  1.00  0.00     0.202 C 
ENDROOT
BRANCH   1   2
ATOM      2  C   UNL A   1      34.844  20.530  25.088  1.00  0.00     0.261 C 
BRANCH   2   3
ATOM      3  O   UNL A   1      33.755  20.630  24.154  1.00  0.00    -0.463 OA
BRANCH   3   4
ATOM      4  C   UNL A   1      32.721  21.438  24.506  1.00  0.00     0.313 C 
ATOM      5  O   UNL A   1      31.988  21.242  25.469  1.00  0.00    -0.252 OA
BRANCH   4   6
ATOM      6  C   UNL A   1      32.587  22.670  23.619  1.00  0.00     0.126 C 
ATOM      7  C   UNL A   1      31.221  22.695  22.926  1.00  0.00     0.025 C 
BRANCH   6   8
ATOM      8  C   UNL A   1      32.905  24.015  24.262  1.00  0.00    -0.032 A 
ATOM      9  C   UNL A   1      33.960  24.220  25.157  1.00  0.00     0.005 A 
ATOM     10  C   UNL A   1      32.050  25.086  23.983  1.00  0.00     0.032 A 
ATOM     11  C   UNL A   1      34.222  25.484  25.706  1.00  0.00     0.011 A 
ATOM     12  C   UNL A   1      32.240  26.315  24.637  1.00  0.00     0.057 A 
ATOM     13  C   UNL A   1      33.349  26.554  25.431  1.00  0.00     0.008 A 
ATOM     14  N   UNL A   1      31.422  27.447  24.657  1.00  0.00    -0.276 N 
ATOM     15  C   UNL A   1      33.299  27.922  25.817  1.00  0.00     0.009 A 
ATOM     16  C   UNL A   1      32.065  28.444  25.396  1.00  0.00     0.057 A 
ATOM     17  C   UNL A   1      34.188  28.733  26.557  1.00  0.00     0.031 A 
ATOM     18  C   UNL A   1      31.648  29.718  25.830  1.00  0.00     0.029 A 
ATOM     19  C   UNL A   1      33.797  30.018  26.921  1.00  0.00     0.041 A 
ATOM     20  C   UNL A   1      32.536  30.495  26.588  1.00  0.00     0.023 A 
ATOM     21  Cl  UNL A   1      34.877  31.004  27.829  1.00  0.00    -0.084 Cl
BRANCH  14  22
ATOM     22  C   UNL A   1      30.113  27.423  24.120  1.00  0.00     0.262 C 
ATOM     23  O   UNL A   1      29.452  26.420  24.403  1.00  0.00    -0.268 OA
BRANCH  22  24
ATOM     24  C   UNL A   1      29.457  28.389  23.197  1.00  0.00     0.040 A 
ATOM     25  C   UNL A   1      30.318  29.182  22.408  1.00  0.00     0.015 A 
ATOM     26  C   UNL A   1      28.085  28.644  23.150  1.00  0.00     0.015 A 
ATOM     27  C   UNL A   1      29.826  30.185  21.574  1.00  0.00     0.021 A 
ATOM     28  C   UNL A   1      27.587  29.633  22.286  1.00  0.00     0.021 A 
ATOM     29  C   UNL A   1      28.456  30.399  21.507  1.00  0.00     0.041 A 
ATOM     30  Cl  UNL A   1      27.839  31.628  20.477  1.00  0.00    -0.084 Cl
ENDBRANCH  22  24
ENDBRANCH  14  22
ENDBRANCH   6   8
ENDBRANCH   4   6
ENDBRANCH   3   4
ENDBRANCH   2   3
ENDBRANCH   1   2
BRANCH   1  31
ATOM     31  O   UNL A   1      37.268  21.187  25.200  1.00  0.00    -0.374 OA
BRANCH  31  32
ATOM     32  C   UNL A   1      37.672  19.826  25.073  1.00  0.00     0.202 C 
BRANCH  32  33
ATOM     33  C   UNL A   1      39.129  19.513  25.437  1.00  0.00     0.261 C 
BRANCH  33  34
ATOM     34  O   UNL A   1      39.868  20.709  25.753  1.00  0.00    -0.460 OA
BRANCH  34  35
ATOM     35  C   UNL A   1      40.458  20.700  26.968  1.00  0.00     0.338 C 
ATOM     36  O   UNL A   1      40.822  19.719  27.606  1.00  0.00    -0.246 OA
BRANCH  35  37
ATOM     37  C   UNL A   1      40.792  22.070  27.393  1.00  0.00     0.060 A 
ATOM     38  C   UNL A   1      40.269  23.116  26.622  1.00  0.00     0.016 A 
ATOM     39  C   UNL A   1      41.661  22.338  28.453  1.00  0.00     0.016 A 
ATOM     40  C   UNL A   1      40.669  24.428  26.859  1.00  0.00     0.010 A 
ATOM     41  C   UNL A   1      42.063  23.658  28.690  1.00  0.00     0.010 A 
ATOM     42  C   UNL A   1      41.605  24.702  27.864  1.00  0.00    -0.014 A 
BRANCH  42  43
ATOM     43  C   UNL A   1      42.213  26.056  27.931  1.00  0.00     0.031 A 
ATOM     44  C   UNL A   1      41.489  27.146  28.675  1.00  0.00     0.074 A 
ATOM     45  C   UNL A   1      43.421  26.297  27.395  1.00  0.00     0.049 A 
ATOM     46  N   UNL A   1      41.832  28.396  28.863  1.00  0.00    -0.248 NA
ATOM     47  C   UNL A   1      40.207  26.777  29.295  1.00  0.00     0.031 C 
ATOM     48  C   UNL A   1      44.244  25.313  26.695  1.00  0.00     0.029 A 
ATOM     49  N   UNL A   1      44.168  27.448  27.360  1.00  0.00    -0.354 N 
ATOM     50  C   UNL A   1      40.806  28.962  29.610  1.00  0.00     0.074 A 
ATOM     51  C   UNL A   1      39.814  27.930  29.818  1.00  0.00     0.031 C 
ATOM     52  C   UNL A   1      45.384  25.903  26.297  1.00  0.00     0.029 A 
ATOM     53  C   UNL A   1      45.355  27.314  26.681  1.00  0.00     0.049 A 
ATOM     54  H   UNL A   1      43.880  28.291  27.780  1.00  0.00     0.167 HD
ATOM     55  C   UNL A   1      40.706  30.225  30.089  1.00  0.00     0.037 A 
ATOM     56  C   UNL A   1      46.298  28.230  26.388  1.00  0.00     0.037 A 
ATOM     57  C   UNL A   1      41.700  31.249  29.891  1.00  0.00     0.049 A 
ATOM     58  C   UNL A   1      46.124  29.649  26.866  1.00  0.00     0.074 A 
ATOM     59  C   UNL A   1      41.701  32.552  30.359  1.00  0.00     0.029 A 
ATOM     60  N   UNL A   1      42.866  31.087  29.156  1.00  0.00    -0.354 N 
ATOM     61  N   UNL A   1      45.166  30.169  27.595  1.00  0.00    -0.248 NA
ATOM     62  C   UNL A   1      47.169  30.610  26.483  1.00  0.00     0.031 C 
ATOM     63  C   UNL A   1      42.836  33.196  29.857  1.00  0.00     0.029 A 
ATOM     64  C   UNL A   1      43.577  32.277  29.131  1.00  0.00     0.049 A 
ATOM     65  H   UNL A   1      43.146  30.251  28.719  1.00  0.00     0.167 HD
ATOM     66  C   UNL A   1      45.507  31.503  27.783  1.00  0.00     0.074 A 
ATOM     67  C   UNL A   1      46.769  31.709  27.104  1.00  0.00     0.031 C 
ATOM     68  C   UNL A   1      44.837  32.468  28.459  1.00  0.00     0.037 A 
BRANCH  55  69
ATOM     69  C   UNL A   1      39.463  30.586  30.850  1.00  0.00     0.064 A 
ATOM     70  C   UNL A   1      38.356  31.181  30.227  1.00  0.00     0.173 A 
ATOM     71  C   UNL A   1      39.363  30.291  32.219  1.00  0.00     0.173 A 
ATOM     72  F   UNL A   1      38.403  31.495  28.923  1.00  0.00    -0.203 F 
ATOM     73  C   UNL A   1      37.207  31.491  30.950  1.00  0.00     0.198 A 
ATOM     74  C   UNL A   1      38.201  30.573  32.931  1.00  0.00     0.198 A 
ATOM     75  F   UNL A   1      40.390  29.717  32.864  1.00  0.00    -0.203 F 
ATOM     76  F   UNL A   1      36.179  32.102  30.343  1.00  0.00    -0.200 F 
ATOM     77  C   UNL A   1      37.127  31.180  32.299  1.00  0.00     0.200 A 
ATOM     78  F   UNL A   1      38.121  30.258  34.231  1.00  0.00    -0.200 F 
ATOM     79  F   UNL A   1      36.016  31.469  32.991  1.00  0.00    -0.200 F 
ENDBRANCH  55  69
BRANCH  56  80
ATOM     80  C   UNL A   1      47.488  27.842  25.586  1.00  0.00     0.064 A 
ATOM     81  C   UNL A   1      48.707  27.527  26.203  1.00  0.00     0.173 A 
ATOM     82  C   UNL A   1      47.440  27.805  24.185  1.00  0.00     0.173 A 
ATOM     83  F   UNL A   1      48.812  27.573  27.540  1.00  0.00    -0.203 F 
ATOM     84  C   UNL A   1      49.836  27.211  25.449  1.00  0.00     0.198 A 
ATOM     85  C   UNL A   1      48.559  27.458  23.433  1.00  0.00     0.198 A 
ATOM     86  F   UNL A   1      46.299  28.101  23.544  1.00  0.00    -0.203 F 
ATOM     87  F   UNL A   1      51.001  26.966  26.063  1.00  0.00    -0.200 F 
ATOM     88  C   UNL A   1      49.759  27.171  24.065  1.00  0.00     0.200 A 
ATOM     89  F   UNL A   1      48.477  27.408  22.097  1.00  0.00    -0.200 F 
ATOM     90  F   UNL A   1      50.844  26.865  23.341  1.00  0.00    -0.200 F 
ENDBRANCH  56  80
BRANCH  68  91
ATOM     91  C   UNL A   1      45.473  33.828  28.539  1.00  0.00     0.064 A 
ATOM     92  C   UNL A   1      46.386  34.160  29.551  1.00  0.00     0.173 A 
ATOM     93  C   UNL A   1      45.197  34.799  27.563  1.00  0.00     0.173 A 
ATOM     94  F   UNL A   1      46.675  33.274  30.517  1.00  0.00    -0.203 F 
ATOM     95  C   UNL A   1      46.974  35.422  29.601  1.00  0.00     0.198 A 
ATOM     96  C   UNL A   1      45.813  36.046  27.596  1.00  0.00     0.198 A 
ATOM     97  F   UNL A   1      44.339  34.531  26.568  1.00  0.00    -0.203 F 
ATOM     98  F   UNL A   1      47.802  35.734  30.608  1.00  0.00    -0.200 F 
ATOM     99  C   UNL A   1      46.693  36.360  28.619  1.00  0.00     0.200 A 
ATOM    100  F   UNL A   1      45.552  36.945  26.637  1.00  0.00    -0.200 F 
ATOM    101  F   UNL A   1      47.267  37.571  28.664  1.00  0.00    -0.200 F 
ENDBRANCH  68  91
ENDBRANCH  42  43
ENDBRANCH  35  37
ENDBRANCH  34  35
ENDBRANCH  33  34
ENDBRANCH  32  33
ENDBRANCH  31  32
ENDBRANCH   1  31
TORSDOF 17
ENDMDL
