MODEL 1
REMARK VINA RESULT:      -9.7      0.000      0.000
REMARK SMILES Cc1c(CC(=O)N[C@H](CO)C(=O)OCCOCCOC(=O)c2ccc(-c3c4nc(c(-c5c(F)c(F)c(F)c(F)c5F)c5ccc([nH]5)c(-c5c(F)c(F)c(F)c(F)c5F)c5nc(c(-c6c(F)c(F)c(F)c(F)c6F)c6ccc3[nH]6)C=C5)C=C4)cc2)cc(-c2ccc(S(C)(=O)=O)cc2)n1-c1ccc(F)cc1
REMARK SMILES IDX 14 1 13 2 11 3 12 4 8 5 7 6 5 7 6 8 4 10 3 11 1 12 2 13
REMARK SMILES IDX 97 14 85 15 86 16 98 17 99 18 104 19 100 20 103 21 101 22
REMARK SMILES IDX 102 23 87 24 88 25 96 26 89 27 95 28 90 29 91 30 92 31 93 32
REMARK SMILES IDX 94 33 9 34 10 35 15 37 16 38 17 39 18 40 19 41 20 42 21 43
REMARK SMILES IDX 22 44 23 45 84 46 24 47 83 48 25 49 26 50 27 51 77 52 28 53
REMARK SMILES IDX 82 54 76 55 78 56 29 57 81 58 75 59 74 60 30 62 62 63 42 64
REMARK SMILES IDX 61 65 43 66 46 67 60 68 79 69 44 70 45 71 59 73 80 74 47 75
REMARK SMILES IDX 31 76 32 77 40 78 33 79 34 80 38 81 41 82 35 83 36 84 39 85
REMARK SMILES IDX 37 86 63 87 64 88 72 89 65 90 66 91 70 92 73 93 67 94 68 95
REMARK SMILES IDX 71 96 69 97 48 98 49 99 57 100 50 101 51 102 55 103 58 104
REMARK SMILES IDX 52 105 53 106 56 107 54 108
REMARK H PARENT 7 9 10 36 78 61 46 72
REMARK Flexibility Score: inf
ROOT
ATOM      1  C   UNL A   1      46.819  30.682  26.742  1.00  0.00     0.261 C 
ENDROOT
BRANCH   1   2
ATOM      2  O   UNL A   1      46.622  32.001  26.191  1.00  0.00    -0.462 OA
BRANCH   2   3
ATOM      3  C   UNL A   1      47.391  32.992  26.720  1.00  0.00     0.331 C 
ATOM      4  O   UNL A   1      48.365  32.796  27.440  1.00  0.00    -0.250 OA
BRANCH   3   5
ATOM      5  C   UNL A   1      46.851  34.409  26.436  1.00  0.00     0.218 C 
BRANCH   5   6
ATOM      6  N   UNL A   1      45.442  34.300  26.049  1.00  0.00    -0.341 N 
ATOM      7  C   UNL A   1      44.335  34.764  26.696  1.00  0.00     0.225 C 
ATOM      8  O   UNL A   1      43.245  34.621  26.135  1.00  0.00    -0.275 OA
ATOM      9  H   UNL A   1      45.270  33.827  25.203  1.00  0.00     0.164 HD
BRANCH   7  10
ATOM     10  C   UNL A   1      44.443  35.436  28.060  1.00  0.00     0.137 C 
BRANCH  10  11
ATOM     11  C   UNL A   1      44.152  36.909  28.008  1.00  0.00    -0.017 A 
ATOM     12  C   UNL A   1      43.677  37.299  30.516  1.00  0.00     0.065 C 
ATOM     13  C   UNL A   1      43.857  37.725  29.093  1.00  0.00     0.024 A 
ATOM     14  N   UNL A   1      43.656  39.018  28.631  1.00  0.00    -0.314 N 
ATOM     15  C   UNL A   1      44.071  37.727  26.851  1.00  0.00     0.033 A 
ATOM     16  C   UNL A   1      43.780  39.025  27.240  1.00  0.00     0.053 A 
BRANCH  14  17
ATOM     17  C   UNL A   1      43.361  40.151  29.438  1.00  0.00     0.046 A 
ATOM     18  C   UNL A   1      42.026  40.470  29.724  1.00  0.00     0.029 A 
ATOM     19  C   UNL A   1      44.405  40.970  29.883  1.00  0.00     0.029 A 
ATOM     20  C   UNL A   1      41.737  41.624  30.448  1.00  0.00     0.041 A 
ATOM     21  C   UNL A   1      44.104  42.130  30.596  1.00  0.00     0.041 A 
ATOM     22  C   UNL A   1      42.776  42.448  30.869  1.00  0.00     0.123 A 
ATOM     23  F   UNL A   1      42.491  43.570  31.541  1.00  0.00    -0.207 F 
ENDBRANCH  14  17
BRANCH  16  24
ATOM     24  C   UNL A   1      43.671  40.226  26.395  1.00  0.00    -0.001 A 
ATOM     25  C   UNL A   1      42.439  40.613  25.842  1.00  0.00     0.011 A 
ATOM     26  C   UNL A   1      44.815  40.977  26.094  1.00  0.00     0.011 A 
ATOM     27  C   UNL A   1      42.358  41.694  24.959  1.00  0.00     0.021 A 
ATOM     28  C   UNL A   1      44.742  42.062  25.214  1.00  0.00     0.021 A 
ATOM     29  C   UNL A   1      43.518  42.401  24.635  1.00  0.00     0.067 A 
BRANCH  29  30
ATOM     30  S   UNL A   1      43.399  43.775  23.510  1.00  0.00     0.175 S 
ATOM     31  C   UNL A   1      44.249  43.226  22.052  1.00  0.00     0.163 C 
ATOM     32  O   UNL A   1      42.016  43.956  23.201  1.00  0.00    -0.224 OA
ATOM     33  O   UNL A   1      44.197  44.869  24.081  1.00  0.00    -0.224 OA
ENDBRANCH  29  30
ENDBRANCH  16  24
ENDBRANCH  10  11
ENDBRANCH   7  10
ENDBRANCH   5   6
BRANCH   5  34
ATOM     34  C   UNL A   1      47.678  35.245  25.449  1.00  0.00     0.193 C 
BRANCH  34  35
ATOM     35  O   UNL A   1      48.918  34.644  25.083  1.00  0.00    -0.394 OA
ATOM     36  H   UNL A   1      48.919  34.459  24.131  1.00  0.00     0.210 HD
ENDBRANCH  34  35
ENDBRANCH   5  34
ENDBRANCH   3   5
ENDBRANCH   2   3
ENDBRANCH   1   2
BRANCH   1  37
ATOM     37  C   UNL A   1      45.609  29.750  26.518  1.00  0.00     0.202 C 
BRANCH  37  38
ATOM     38  O   UNL A   1      45.690  28.875  25.400  1.00  0.00    -0.374 OA
BRANCH  38  39
ATOM     39  C   UNL A   1      45.596  27.480  25.703  1.00  0.00     0.202 C 
BRANCH  39  40
ATOM     40  C   UNL A   1      44.263  26.910  26.308  1.00  0.00     0.261 C 
BRANCH  40  41
ATOM     41  O   UNL A   1      42.951  26.985  25.568  1.00  0.00    -0.460 OA
BRANCH  41  42
ATOM     42  C   UNL A   1      42.146  28.108  25.770  1.00  0.00     0.338 C 
ATOM     43  O   UNL A   1      41.943  28.911  24.863  1.00  0.00    -0.246 OA
BRANCH  42  44
ATOM     44  C   UNL A   1      41.521  28.439  27.188  1.00  0.00     0.060 A 
ATOM     45  C   UNL A   1      42.002  29.441  28.063  1.00  0.00     0.016 A 
ATOM     46  C   UNL A   1      40.694  27.576  27.881  1.00  0.00     0.016 A 
ATOM     47  C   UNL A   1      41.675  29.571  29.552  1.00  0.00     0.010 A 
ATOM     48  C   UNL A   1      40.403  27.707  29.359  1.00  0.00     0.010 A 
ATOM     49  C   UNL A   1      40.897  28.670  30.350  1.00  0.00    -0.014 A 
BRANCH  49  50
ATOM     50  C   UNL A   1      41.145  28.531  32.152  1.00  0.00     0.031 A 
ATOM     51  C   UNL A   1      39.768  28.244  32.711  1.00  0.00     0.074 A 
ATOM     52  C   UNL A   1      41.863  28.858  33.405  1.00  0.00     0.049 A 
ATOM     53  N   UNL A   1      39.209  29.249  33.320  1.00  0.00    -0.248 NA
ATOM     54  C   UNL A   1      38.790  27.391  32.055  1.00  0.00     0.031 C 
ATOM     55  C   UNL A   1      41.297  28.592  34.842  1.00  0.00     0.029 A 
ATOM     56  N   UNL A   1      43.042  29.542  33.869  1.00  0.00    -0.354 N 
ATOM     57  C   UNL A   1      38.306  29.610  32.388  1.00  0.00     0.074 A 
ATOM     58  C   UNL A   1      37.892  28.345  31.761  1.00  0.00     0.031 C 
ATOM     59  C   UNL A   1      42.073  29.027  35.865  1.00  0.00     0.029 A 
ATOM     60  C   UNL A   1      43.260  29.650  35.339  1.00  0.00     0.049 A 
ATOM     61  H   UNL A   1      43.686  29.927  33.232  1.00  0.00     0.167 HD
ATOM     62  C   UNL A   1      38.374  30.866  31.879  1.00  0.00     0.037 A 
ATOM     63  C   UNL A   1      44.119  30.445  36.100  1.00  0.00     0.037 A 
ATOM     64  C   UNL A   1      39.626  31.639  32.132  1.00  0.00     0.049 A 
ATOM     65  C   UNL A   1      43.786  31.794  35.569  1.00  0.00     0.074 A 
ATOM     66  C   UNL A   1      40.976  31.543  31.822  1.00  0.00     0.029 A 
ATOM     67  N   UNL A   1      39.650  32.691  33.027  1.00  0.00    -0.354 N 
ATOM     68  N   UNL A   1      42.889  32.629  36.012  1.00  0.00    -0.248 NA
ATOM     69  C   UNL A   1      44.533  32.200  34.393  1.00  0.00     0.031 C 
ATOM     70  C   UNL A   1      41.676  32.701  32.160  1.00  0.00     0.029 A 
ATOM     71  C   UNL A   1      40.963  33.135  33.243  1.00  0.00     0.049 A 
ATOM     72  H   UNL A   1      38.853  33.077  33.457  1.00  0.00     0.167 HD
ATOM     73  C   UNL A   1      42.678  33.453  34.913  1.00  0.00     0.074 A 
ATOM     74  C   UNL A   1      43.845  33.282  34.063  1.00  0.00     0.031 C 
ATOM     75  C   UNL A   1      41.388  33.652  34.515  1.00  0.00     0.037 A 
BRANCH  62  76
ATOM     76  C   UNL A   1      37.140  31.428  31.255  1.00  0.00     0.064 A 
ATOM     77  C   UNL A   1      36.041  31.933  31.990  1.00  0.00     0.173 A 
ATOM     78  C   UNL A   1      37.135  31.689  29.878  1.00  0.00     0.173 A 
ATOM     79  F   UNL A   1      35.943  31.816  33.320  1.00  0.00    -0.203 F 
ATOM     80  C   UNL A   1      35.029  32.669  31.393  1.00  0.00     0.198 A 
ATOM     81  C   UNL A   1      36.152  32.481  29.297  1.00  0.00     0.198 A 
ATOM     82  F   UNL A   1      38.117  31.243  29.081  1.00  0.00    -0.203 F 
ATOM     83  F   UNL A   1      34.023  33.135  32.144  1.00  0.00    -0.200 F 
ATOM     84  C   UNL A   1      35.104  32.973  30.052  1.00  0.00     0.200 A 
ATOM     85  F   UNL A   1      36.257  32.807  28.002  1.00  0.00    -0.200 F 
ATOM     86  F   UNL A   1      34.182  33.765  29.495  1.00  0.00    -0.200 F 
ENDBRANCH  62  76
BRANCH  63  87
ATOM     87  C   UNL A   1      44.915  30.628  37.430  1.00  0.00     0.064 A 
ATOM     88  C   UNL A   1      44.616  31.134  38.712  1.00  0.00     0.173 A 
ATOM     89  C   UNL A   1      46.288  30.226  37.314  1.00  0.00     0.173 A 
ATOM     90  F   UNL A   1      43.401  31.626  38.993  1.00  0.00    -0.203 F 
ATOM     91  C   UNL A   1      45.595  31.185  39.765  1.00  0.00     0.198 A 
ATOM     92  C   UNL A   1      47.251  30.294  38.332  1.00  0.00     0.198 A 
ATOM     93  F   UNL A   1      46.739  29.728  36.155  1.00  0.00    -0.203 F 
ATOM     94  F   UNL A   1      45.273  31.669  40.977  1.00  0.00    -0.200 F 
ATOM     95  C   UNL A   1      46.902  30.756  39.573  1.00  0.00     0.200 A 
ATOM     96  F   UNL A   1      48.511  29.904  38.083  1.00  0.00    -0.200 F 
ATOM     97  F   UNL A   1      47.814  30.792  40.560  1.00  0.00    -0.200 F 
ENDBRANCH  63  87
BRANCH  75  98
ATOM     98  C   UNL A   1      40.431  34.050  35.563  1.00  0.00     0.064 A 
ATOM     99  C   UNL A   1      39.791  33.024  36.261  1.00  0.00     0.173 A 
ATOM    100  C   UNL A   1      40.290  35.366  36.017  1.00  0.00     0.173 A 
ATOM    101  F   UNL A   1      39.900  31.752  35.846  1.00  0.00    -0.203 F 
ATOM    102  C   UNL A   1      39.111  33.296  37.437  1.00  0.00     0.198 A 
ATOM    103  C   UNL A   1      39.656  35.627  37.221  1.00  0.00     0.198 A 
ATOM    104  F   UNL A   1      40.876  36.386  35.374  1.00  0.00    -0.203 F 
ATOM    105  F   UNL A   1      38.546  32.294  38.122  1.00  0.00    -0.200 F 
ATOM    106  C   UNL A   1      39.077  34.591  37.934  1.00  0.00     0.200 A 
ATOM    107  F   UNL A   1      39.681  36.869  37.726  1.00  0.00    -0.200 F 
ATOM    108  F   UNL A   1      38.516  34.835  39.125  1.00  0.00    -0.200 F 
ENDBRANCH  75  98
ENDBRANCH  49  50
ENDBRANCH  42  44
ENDBRANCH  41  42
ENDBRANCH  40  41
ENDBRANCH  39  40
ENDBRANCH  38  39
ENDBRANCH  37  38
ENDBRANCH   1  37
TORSDOF 22
ENDMDL
MODEL 2
REMARK VINA RESULT:      -9.7      6.906     12.019
REMARK SMILES Cc1c(CC(=O)N[C@H](CO)C(=O)OCCOCCOC(=O)c2ccc(-c3c4nc(c(-c5c(F)c(F)c(F)c(F)c5F)c5ccc([nH]5)c(-c5c(F)c(F)c(F)c(F)c5F)c5nc(c(-c6c(F)c(F)c(F)c(F)c6F)c6ccc3[nH]6)C=C5)C=C4)cc2)cc(-c2ccc(S(C)(=O)=O)cc2)n1-c1ccc(F)cc1
REMARK SMILES IDX 14 1 13 2 11 3 12 4 8 5 7 6 5 7 6 8 4 10 3 11 1 12 2 13
REMARK SMILES IDX 97 14 85 15 86 16 98 17 99 18 104 19 100 20 103 21 101 22
REMARK SMILES IDX 102 23 87 24 88 25 96 26 89 27 95 28 90 29 91 30 92 31 93 32
REMARK SMILES IDX 94 33 9 34 10 35 15 37 16 38 17 39 18 40 19 41 20 42 21 43
REMARK SMILES IDX 22 44 23 45 84 46 24 47 83 48 25 49 26 50 27 51 77 52 28 53
REMARK SMILES IDX 82 54 76 55 78 56 29 57 81 58 75 59 74 60 30 62 62 63 42 64
REMARK SMILES IDX 61 65 43 66 46 67 60 68 79 69 44 70 45 71 59 73 80 74 47 75
REMARK SMILES IDX 31 76 32 77 40 78 33 79 34 80 38 81 41 82 35 83 36 84 39 85
REMARK SMILES IDX 37 86 63 87 64 88 72 89 65 90 66 91 70 92 73 93 67 94 68 95
REMARK SMILES IDX 71 96 69 97 48 98 49 99 57 100 50 101 51 102 55 103 58 104
REMARK SMILES IDX 52 105 53 106 56 107 54 108
REMARK H PARENT 7 9 10 36 78 61 46 72
REMARK Flexibility Score: inf
ROOT
ATOM      1  C   UNL A   1      34.324  26.153  23.572  1.00  0.00     0.261 C 
ENDROOT
BRANCH   1   2
ATOM      2  O   UNL A   1      33.040  26.735  23.267  1.00  0.00    -0.462 OA
BRANCH   2   3
ATOM      3  C   UNL A   1      32.957  28.090  23.370  1.00  0.00     0.331 C 
ATOM      4  O   UNL A   1      33.807  28.866  22.942  1.00  0.00    -0.250 OA
BRANCH   3   5
ATOM      5  C   UNL A   1      31.746  28.573  24.195  1.00  0.00     0.218 C 
BRANCH   5   6
ATOM      6  N   UNL A   1      31.946  28.174  25.591  1.00  0.00    -0.341 N 
ATOM      7  C   UNL A   1      32.922  28.558  26.463  1.00  0.00     0.225 C 
ATOM      8  O   UNL A   1      32.843  28.147  27.624  1.00  0.00    -0.275 OA
ATOM      9  H   UNL A   1      31.283  27.541  25.950  1.00  0.00     0.164 HD
BRANCH   7  10
ATOM     10  C   UNL A   1      34.065  29.462  26.018  1.00  0.00     0.137 C 
BRANCH  10  11
ATOM     11  C   UNL A   1      34.495  30.426  27.088  1.00  0.00    -0.017 A 
ATOM     12  C   UNL A   1      36.927  29.611  27.388  1.00  0.00     0.065 C 
ATOM     13  C   UNL A   1      35.761  30.511  27.654  1.00  0.00     0.024 A 
ATOM     14  N   UNL A   1      35.755  31.526  28.600  1.00  0.00    -0.314 N 
ATOM     15  C   UNL A   1      33.687  31.384  27.755  1.00  0.00     0.033 A 
ATOM     16  C   UNL A   1      34.469  32.068  28.672  1.00  0.00     0.053 A 
BRANCH  14  17
ATOM     17  C   UNL A   1      36.869  31.943  29.377  1.00  0.00     0.046 A 
ATOM     18  C   UNL A   1      37.666  33.007  28.933  1.00  0.00     0.029 A 
ATOM     19  C   UNL A   1      37.195  31.243  30.545  1.00  0.00     0.029 A 
ATOM     20  C   UNL A   1      38.803  33.362  29.655  1.00  0.00     0.041 A 
ATOM     21  C   UNL A   1      38.342  31.598  31.254  1.00  0.00     0.041 A 
ATOM     22  C   UNL A   1      39.136  32.649  30.803  1.00  0.00     0.123 A 
ATOM     23  F   UNL A   1      40.244  32.976  31.479  1.00  0.00    -0.207 F 
ENDBRANCH  14  17
BRANCH  16  24
ATOM     24  C   UNL A   1      34.082  33.194  29.538  1.00  0.00    -0.001 A 
ATOM     25  C   UNL A   1      33.372  34.292  29.024  1.00  0.00     0.011 A 
ATOM     26  C   UNL A   1      34.459  33.202  30.887  1.00  0.00     0.011 A 
ATOM     27  C   UNL A   1      33.094  35.404  29.826  1.00  0.00     0.021 A 
ATOM     28  C   UNL A   1      34.183  34.309  31.697  1.00  0.00     0.021 A 
ATOM     29  C   UNL A   1      33.521  35.413  31.155  1.00  0.00     0.067 A 
BRANCH  29  30
ATOM     30  S   UNL A   1      33.160  36.835  32.162  1.00  0.00     0.175 S 
ATOM     31  C   UNL A   1      34.044  36.540  33.673  1.00  0.00     0.163 C 
ATOM     32  O   UNL A   1      33.722  37.975  31.510  1.00  0.00    -0.224 OA
ATOM     33  O   UNL A   1      31.728  36.778  32.490  1.00  0.00    -0.224 OA
ENDBRANCH  29  30
ENDBRANCH  16  24
ENDBRANCH  10  11
ENDBRANCH   7  10
ENDBRANCH   5   6
BRANCH   5  34
ATOM     34  C   UNL A   1      30.370  28.165  23.650  1.00  0.00     0.193 C 
BRANCH  34  35
ATOM     35  O   UNL A   1      30.406  27.664  22.315  1.00  0.00    -0.394 OA
ATOM     36  H   UNL A   1      29.572  27.876  21.868  1.00  0.00     0.210 HD
ENDBRANCH  34  35
ENDBRANCH   5  34
ENDBRANCH   3   5
ENDBRANCH   2   3
ENDBRANCH   1   2
BRANCH   1  37
ATOM     37  C   UNL A   1      34.311  24.611  23.525  1.00  0.00     0.202 C 
BRANCH  37  38
ATOM     38  O   UNL A   1      35.419  23.993  22.882  1.00  0.00    -0.374 OA
BRANCH  38  39
ATOM     39  C   UNL A   1      35.689  22.645  23.279  1.00  0.00     0.202 C 
BRANCH  39  40
ATOM     40  C   UNL A   1      36.453  22.377  24.625  1.00  0.00     0.261 C 
BRANCH  40  41
ATOM     41  O   UNL A   1      37.778  23.026  24.938  1.00  0.00    -0.460 OA
BRANCH  41  42
ATOM     42  C   UNL A   1      37.862  23.832  26.076  1.00  0.00     0.338 C 
ATOM     43  O   UNL A   1      36.851  24.295  26.598  1.00  0.00    -0.246 OA
BRANCH  42  44
ATOM     44  C   UNL A   1      39.258  24.247  26.700  1.00  0.00     0.060 A 
ATOM     45  C   UNL A   1      40.156  25.170  26.116  1.00  0.00     0.016 A 
ATOM     46  C   UNL A   1      39.916  23.507  27.664  1.00  0.00     0.016 A 
ATOM     47  C   UNL A   1      41.633  25.344  26.476  1.00  0.00     0.010 A 
ATOM     48  C   UNL A   1      41.382  23.677  27.988  1.00  0.00     0.010 A 
ATOM     49  C   UNL A   1      42.397  24.561  27.401  1.00  0.00    -0.014 A 
BRANCH  49  50
ATOM     50  C   UNL A   1      44.205  24.388  27.241  1.00  0.00     0.031 A 
ATOM     51  C   UNL A   1      44.676  23.960  28.615  1.00  0.00     0.074 A 
ATOM     52  C   UNL A   1      45.506  24.738  26.627  1.00  0.00     0.049 A 
ATOM     53  N   UNL A   1      45.278  24.890  29.297  1.00  0.00    -0.248 NA
ATOM     54  C   UNL A   1      43.942  23.043  29.473  1.00  0.00     0.031 C 
ATOM     55  C   UNL A   1      46.900  24.376  27.244  1.00  0.00     0.029 A 
ATOM     56  N   UNL A   1      46.056  25.510  25.543  1.00  0.00    -0.354 N 
ATOM     57  C   UNL A   1      44.306  25.198  30.176  1.00  0.00     0.074 A 
ATOM     58  C   UNL A   1      43.622  23.922  30.437  1.00  0.00     0.031 C 
ATOM     59  C   UNL A   1      47.978  24.847  26.569  1.00  0.00     0.029 A 
ATOM     60  C   UNL A   1      47.538  25.591  25.417  1.00  0.00     0.049 A 
ATOM     61  H   UNL A   1      45.468  25.971  24.902  1.00  0.00     0.167 HD
ATOM     62  C   UNL A   1      43.835  26.471  30.196  1.00  0.00     0.037 A 
ATOM     63  C   UNL A   1      48.369  26.435  24.678  1.00  0.00     0.037 A 
ATOM     64  C   UNL A   1      44.180  27.345  29.035  1.00  0.00     0.049 A 
ATOM     65  C   UNL A   1      47.856  27.764  25.103  1.00  0.00     0.074 A 
ATOM     66  C   UNL A   1      43.947  27.381  27.667  1.00  0.00     0.029 A 
ATOM     67  N   UNL A   1      45.103  28.366  29.158  1.00  0.00    -0.354 N 
ATOM     68  N   UNL A   1      48.268  28.501  26.096  1.00  0.00    -0.248 NA
ATOM     69  C   UNL A   1      46.736  28.273  24.333  1.00  0.00     0.031 C 
ATOM     70  C   UNL A   1      44.355  28.585  27.096  1.00  0.00     0.029 A 
ATOM     71  C   UNL A   1      45.406  28.919  27.905  1.00  0.00     0.049 A 
ATOM     72  H   UNL A   1      45.497  28.665  30.009  1.00  0.00     0.167 HD
ATOM     73  C   UNL A   1      47.181  29.337  26.321  1.00  0.00     0.074 A 
ATOM     74  C   UNL A   1      46.395  29.299  25.098  1.00  0.00     0.031 C 
ATOM     75  C   UNL A   1      46.714  29.431  27.600  1.00  0.00     0.037 A 
BRANCH  62  76
ATOM     76  C   UNL A   1      43.155  26.939  31.440  1.00  0.00     0.064 A 
ATOM     77  C   UNL A   1      43.715  26.831  32.735  1.00  0.00     0.173 A 
ATOM     78  C   UNL A   1      42.006  27.731  31.327  1.00  0.00     0.173 A 
ATOM     79  F   UNL A   1      44.848  26.161  32.983  1.00  0.00    -0.203 F 
ATOM     80  C   UNL A   1      43.178  27.493  33.828  1.00  0.00     0.198 A 
ATOM     81  C   UNL A   1      41.510  28.443  32.413  1.00  0.00     0.198 A 
ATOM     82  F   UNL A   1      41.381  27.890  30.151  1.00  0.00    -0.203 F 
ATOM     83  F   UNL A   1      43.763  27.366  35.027  1.00  0.00    -0.200 F 
ATOM     84  C   UNL A   1      42.096  28.327  33.660  1.00  0.00     0.200 A 
ATOM     85  F   UNL A   1      40.484  29.285  32.230  1.00  0.00    -0.200 F 
ATOM     86  F   UNL A   1      41.637  29.043  34.692  1.00  0.00    -0.200 F 
ENDBRANCH  62  76
BRANCH  63  87
ATOM     87  C   UNL A   1      49.747  26.647  23.976  1.00  0.00     0.064 A 
ATOM     88  C   UNL A   1      51.087  26.719  24.408  1.00  0.00     0.173 A 
ATOM     89  C   UNL A   1      49.622  26.860  22.563  1.00  0.00     0.173 A 
ATOM     90  F   UNL A   1      51.399  26.615  25.708  1.00  0.00    -0.203 F 
ATOM     91  C   UNL A   1      52.177  26.941  23.496  1.00  0.00     0.198 A 
ATOM     92  C   UNL A   1      50.681  27.098  21.673  1.00  0.00     0.198 A 
ATOM     93  F   UNL A   1      48.411  26.830  21.990  1.00  0.00    -0.203 F 
ATOM     94  F   UNL A   1      53.443  26.999  23.944  1.00  0.00    -0.200 F 
ATOM     95  C   UNL A   1      51.970  27.120  22.135  1.00  0.00     0.200 A 
ATOM     96  F   UNL A   1      50.423  27.305  20.372  1.00  0.00    -0.200 F 
ATOM     97  F   UNL A   1      52.988  27.317  21.280  1.00  0.00    -0.200 F 
ENDBRANCH  63  87
BRANCH  75  98
ATOM     98  C   UNL A   1      47.715  29.709  28.645  1.00  0.00     0.064 A 
ATOM     99  C   UNL A   1      48.390  28.611  29.184  1.00  0.00     0.173 A 
ATOM    100  C   UNL A   1      48.154  30.997  28.970  1.00  0.00     0.173 A 
ATOM    101  F   UNL A   1      47.989  27.362  28.899  1.00  0.00    -0.203 F 
ATOM    102  C   UNL A   1      49.532  28.798  29.946  1.00  0.00     0.198 A 
ATOM    103  C   UNL A   1      49.326  31.178  29.686  1.00  0.00     0.198 A 
ATOM    104  F   UNL A   1      47.531  32.081  28.486  1.00  0.00    -0.203 F 
ATOM    105  F   UNL A   1      50.198  27.734  30.412  1.00  0.00    -0.200 F 
ATOM    106  C   UNL A   1      50.019  30.079  30.163  1.00  0.00     0.200 A 
ATOM    107  F   UNL A   1      49.824  32.414  29.838  1.00  0.00    -0.200 F 
ATOM    108  F   UNL A   1      51.182  30.252  30.804  1.00  0.00    -0.200 F 
ENDBRANCH  75  98
ENDBRANCH  49  50
ENDBRANCH  42  44
ENDBRANCH  41  42
ENDBRANCH  40  41
ENDBRANCH  39  40
ENDBRANCH  38  39
ENDBRANCH  37  38
ENDBRANCH   1  37
TORSDOF 22
ENDMDL
MODEL 3
REMARK VINA RESULT:      -9.5      7.116     13.494
REMARK SMILES Cc1c(CC(=O)N[C@H](CO)C(=O)OCCOCCOC(=O)c2ccc(-c3c4nc(c(-c5c(F)c(F)c(F)c(F)c5F)c5ccc([nH]5)c(-c5c(F)c(F)c(F)c(F)c5F)c5nc(c(-c6c(F)c(F)c(F)c(F)c6F)c6ccc3[nH]6)C=C5)C=C4)cc2)cc(-c2ccc(S(C)(=O)=O)cc2)n1-c1ccc(F)cc1
REMARK SMILES IDX 14 1 13 2 11 3 12 4 8 5 7 6 5 7 6 8 4 10 3 11 1 12 2 13
REMARK SMILES IDX 97 14 85 15 86 16 98 17 99 18 104 19 100 20 103 21 101 22
REMARK SMILES IDX 102 23 87 24 88 25 96 26 89 27 95 28 90 29 91 30 92 31 93 32
REMARK SMILES IDX 94 33 9 34 10 35 15 37 16 38 17 39 18 40 19 41 20 42 21 43
REMARK SMILES IDX 22 44 23 45 84 46 24 47 83 48 25 49 26 50 27 51 77 52 28 53
REMARK SMILES IDX 82 54 76 55 78 56 29 57 81 58 75 59 74 60 30 62 62 63 42 64
REMARK SMILES IDX 61 65 43 66 46 67 60 68 79 69 44 70 45 71 59 73 80 74 47 75
REMARK SMILES IDX 31 76 32 77 40 78 33 79 34 80 38 81 41 82 35 83 36 84 39 85
REMARK SMILES IDX 37 86 63 87 64 88 72 89 65 90 66 91 70 92 73 93 67 94 68 95
REMARK SMILES IDX 71 96 69 97 48 98 49 99 57 100 50 101 51 102 55 103 58 104
REMARK SMILES IDX 52 105 53 106 56 107 54 108
REMARK H PARENT 7 9 10 36 78 61 46 72
REMARK Flexibility Score: inf
ROOT
ATOM      1  C   UNL A   1      33.517  29.242  26.638  1.00  0.00     0.261 C 
ENDROOT
BRANCH   1   2
ATOM      2  O   UNL A   1      32.440  28.621  25.907  1.00  0.00    -0.462 OA
BRANCH   2   3
ATOM      3  C   UNL A   1      32.339  28.955  24.590  1.00  0.00     0.331 C 
ATOM      4  O   UNL A   1      33.227  29.511  23.952  1.00  0.00    -0.250 OA
BRANCH   3   5
ATOM      5  C   UNL A   1      30.944  28.683  23.991  1.00  0.00     0.218 C 
BRANCH   5   6
ATOM      6  N   UNL A   1      30.278  27.664  24.807  1.00  0.00    -0.341 N 
ATOM      7  C   UNL A   1      30.187  26.320  24.596  1.00  0.00     0.225 C 
ATOM      8  O   UNL A   1      29.636  25.642  25.468  1.00  0.00    -0.275 OA
ATOM      9  H   UNL A   1      29.835  27.996  25.621  1.00  0.00     0.164 HD
BRANCH   7  10
ATOM     10  C   UNL A   1      30.747  25.681  23.330  1.00  0.00     0.137 C 
BRANCH  10  11
ATOM     11  C   UNL A   1      31.724  24.577  23.620  1.00  0.00    -0.017 A 
ATOM     12  C   UNL A   1      33.818  26.020  24.068  1.00  0.00     0.065 C 
ATOM     13  C   UNL A   1      33.056  24.734  23.981  1.00  0.00     0.024 A 
ATOM     14  N   UNL A   1      33.617  23.478  24.163  1.00  0.00    -0.314 N 
ATOM     15  C   UNL A   1      31.492  23.179  23.527  1.00  0.00     0.033 A 
ATOM     16  C   UNL A   1      32.653  22.508  23.876  1.00  0.00     0.053 A 
BRANCH  14  17
ATOM     17  C   UNL A   1      34.955  23.217  24.565  1.00  0.00     0.046 A 
ATOM     18  C   UNL A   1      35.890  22.777  23.618  1.00  0.00     0.029 A 
ATOM     19  C   UNL A   1      35.305  23.341  25.915  1.00  0.00     0.029 A 
ATOM     20  C   UNL A   1      37.179  22.446  24.029  1.00  0.00     0.041 A 
ATOM     21  C   UNL A   1      36.595  22.995  26.318  1.00  0.00     0.041 A 
ATOM     22  C   UNL A   1      37.517  22.549  25.375  1.00  0.00     0.123 A 
ATOM     23  F   UNL A   1      38.749  22.204  25.770  1.00  0.00    -0.207 F 
ENDBRANCH  14  17
BRANCH  16  24
ATOM     24  C   UNL A   1      32.865  21.056  23.994  1.00  0.00    -0.001 A 
ATOM     25  C   UNL A   1      33.792  20.531  24.910  1.00  0.00     0.011 A 
ATOM     26  C   UNL A   1      32.169  20.176  23.154  1.00  0.00     0.011 A 
ATOM     27  C   UNL A   1      34.063  19.159  24.947  1.00  0.00     0.021 A 
ATOM     28  C   UNL A   1      32.433  18.802  23.188  1.00  0.00     0.021 A 
ATOM     29  C   UNL A   1      33.394  18.305  24.070  1.00  0.00     0.067 A 
BRANCH  29  30
ATOM     30  S   UNL A   1      33.750  16.562  24.130  1.00  0.00     0.175 S 
ATOM     31  C   UNL A   1      35.129  16.433  25.240  1.00  0.00     0.163 C 
ATOM     32  O   UNL A   1      32.620  15.915  24.717  1.00  0.00    -0.224 OA
ATOM     33  O   UNL A   1      34.239  16.176  22.799  1.00  0.00    -0.224 OA
ENDBRANCH  29  30
ENDBRANCH  16  24
ENDBRANCH  10  11
ENDBRANCH   7  10
ENDBRANCH   5   6
BRANCH   5  34
ATOM     34  C   UNL A   1      30.921  28.356  22.492  1.00  0.00     0.193 C 
BRANCH  34  35
ATOM     35  O   UNL A   1      32.214  28.300  21.895  1.00  0.00    -0.394 OA
ATOM     36  H   UNL A   1      32.532  29.200  21.724  1.00  0.00     0.210 HD
ENDBRANCH  34  35
ENDBRANCH   5  34
ENDBRANCH   3   5
ENDBRANCH   2   3
ENDBRANCH   1   2
BRANCH   1  37
ATOM     37  C   UNL A   1      33.128  30.612  27.234  1.00  0.00     0.202 C 
BRANCH  37  38
ATOM     38  O   UNL A   1      34.152  31.598  27.260  1.00  0.00    -0.374 OA
BRANCH  38  39
ATOM     39  C   UNL A   1      33.809  32.824  27.914  1.00  0.00     0.202 C 
BRANCH  39  40
ATOM     40  C   UNL A   1      34.818  33.462  28.936  1.00  0.00     0.261 C 
BRANCH  40  41
ATOM     41  O   UNL A   1      35.372  32.687  30.105  1.00  0.00    -0.460 OA
BRANCH  41  42
ATOM     42  C   UNL A   1      36.486  33.207  30.768  1.00  0.00     0.338 C 
ATOM     43  O   UNL A   1      36.378  34.166  31.529  1.00  0.00    -0.246 OA
BRANCH  42  44
ATOM     44  C   UNL A   1      37.943  32.638  30.517  1.00  0.00     0.060 A 
ATOM     45  C   UNL A   1      38.500  31.529  31.194  1.00  0.00     0.016 A 
ATOM     46  C   UNL A   1      38.950  33.356  29.897  1.00  0.00     0.016 A 
ATOM     47  C   UNL A   1      39.983  31.157  31.250  1.00  0.00     0.010 A 
ATOM     48  C   UNL A   1      40.412  32.985  29.985  1.00  0.00     0.010 A 
ATOM     49  C   UNL A   1      41.083  31.896  30.704  1.00  0.00    -0.014 A 
BRANCH  49  50
ATOM     50  C   UNL A   1      42.764  31.759  31.398  1.00  0.00     0.031 A 
ATOM     51  C   UNL A   1      43.564  31.037  30.334  1.00  0.00     0.074 A 
ATOM     52  C   UNL A   1      43.710  31.662  32.533  1.00  0.00     0.049 A 
ATOM     53  N   UNL A   1      43.837  29.795  30.609  1.00  0.00    -0.248 NA
ATOM     54  C   UNL A   1      43.394  31.256  28.907  1.00  0.00     0.031 C 
ATOM     55  C   UNL A   1      45.206  31.218  32.400  1.00  0.00     0.029 A 
ATOM     56  N   UNL A   1      43.738  31.736  33.970  1.00  0.00    -0.354 N 
ATOM     57  C   UNL A   1      42.964  29.181  29.788  1.00  0.00     0.074 A 
ATOM     58  C   UNL A   1      42.895  30.047  28.601  1.00  0.00     0.031 C 
ATOM     59  C   UNL A   1      45.893  31.121  33.565  1.00  0.00     0.029 A 
ATOM     60  C   UNL A   1      45.028  31.463  34.665  1.00  0.00     0.049 A 
ATOM     61  H   UNL A   1      42.926  31.962  34.481  1.00  0.00     0.167 HD
ATOM     62  C   UNL A   1      42.031  28.362  30.337  1.00  0.00     0.037 A 
ATOM     63  C   UNL A   1      45.332  31.196  36.001  1.00  0.00     0.037 A 
ATOM     64  C   UNL A   1      41.822  28.456  31.813  1.00  0.00     0.049 A 
ATOM     65  C   UNL A   1      44.398  30.071  36.274  1.00  0.00     0.074 A 
ATOM     66  C   UNL A   1      41.394  29.404  32.734  1.00  0.00     0.029 A 
ATOM     67  N   UNL A   1      42.266  27.463  32.664  1.00  0.00    -0.354 N 
ATOM     68  N   UNL A   1      44.623  28.794  36.141  1.00  0.00    -0.248 NA
ATOM     69  C   UNL A   1      43.067  30.459  36.706  1.00  0.00     0.031 C 
ATOM     70  C   UNL A   1      41.197  28.853  33.999  1.00  0.00     0.029 A 
ATOM     71  C   UNL A   1      42.134  27.857  34.004  1.00  0.00     0.049 A 
ATOM     72  H   UNL A   1      42.628  26.596  32.371  1.00  0.00     0.167 HD
ATOM     73  C   UNL A   1      43.338  28.271  36.056  1.00  0.00     0.074 A 
ATOM     74  C   UNL A   1      42.462  29.284  36.622  1.00  0.00     0.031 C 
ATOM     75  C   UNL A   1      43.067  27.434  35.013  1.00  0.00     0.037 A 
BRANCH  62  76
ATOM     76  C   UNL A   1      41.413  27.327  29.456  1.00  0.00     0.064 A 
ATOM     77  C   UNL A   1      40.117  27.437  28.897  1.00  0.00     0.173 A 
ATOM     78  C   UNL A   1      42.215  26.293  28.958  1.00  0.00     0.173 A 
ATOM     79  F   UNL A   1      39.264  28.414  29.229  1.00  0.00    -0.203 F 
ATOM     80  C   UNL A   1      39.672  26.591  27.893  1.00  0.00     0.198 A 
ATOM     81  C   UNL A   1      41.787  25.488  27.908  1.00  0.00     0.198 A 
ATOM     82  F   UNL A   1      43.454  26.085  29.427  1.00  0.00    -0.203 F 
ATOM     83  F   UNL A   1      38.441  26.755  27.392  1.00  0.00    -0.200 F 
ATOM     84  C   UNL A   1      40.521  25.639  27.375  1.00  0.00     0.200 A 
ATOM     85  F   UNL A   1      42.636  24.595  27.381  1.00  0.00    -0.200 F 
ATOM     86  F   UNL A   1      40.129  24.887  26.340  1.00  0.00    -0.200 F 
ENDBRANCH  62  76
BRANCH  63  87
ATOM     87  C   UNL A   1      46.390  31.240  37.148  1.00  0.00     0.064 A 
ATOM     88  C   UNL A   1      47.497  30.449  37.516  1.00  0.00     0.173 A 
ATOM     89  C   UNL A   1      46.161  32.314  38.072  1.00  0.00     0.173 A 
ATOM     90  F   UNL A   1      47.827  29.355  36.814  1.00  0.00    -0.203 F 
ATOM     91  C   UNL A   1      48.303  30.745  38.671  1.00  0.00     0.198 A 
ATOM     92  C   UNL A   1      46.931  32.593  39.210  1.00  0.00     0.198 A 
ATOM     93  F   UNL A   1      45.140  33.158  37.870  1.00  0.00    -0.203 F 
ATOM     94  F   UNL A   1      49.354  29.971  38.988  1.00  0.00    -0.200 F 
ATOM     95  C   UNL A   1      48.022  31.819  39.505  1.00  0.00     0.200 A 
ATOM     96  F   UNL A   1      46.593  33.620  40.007  1.00  0.00    -0.200 F 
ATOM     97  F   UNL A   1      48.780  32.104  40.578  1.00  0.00    -0.200 F 
ENDBRANCH  63  87
BRANCH  75  98
ATOM     98  C   UNL A   1      44.015  26.328  34.795  1.00  0.00     0.064 A 
ATOM     99  C   UNL A   1      43.731  25.115  35.426  1.00  0.00     0.173 A 
ATOM    100  C   UNL A   1      45.047  26.372  33.851  1.00  0.00     0.173 A 
ATOM    101  F   UNL A   1      42.753  25.040  36.343  1.00  0.00    -0.203 F 
ATOM    102  C   UNL A   1      44.395  23.959  35.050  1.00  0.00     0.198 A 
ATOM    103  C   UNL A   1      45.671  25.206  33.439  1.00  0.00     0.198 A 
ATOM    104  F   UNL A   1      45.364  27.516  33.227  1.00  0.00    -0.203 F 
ATOM    105  F   UNL A   1      44.075  22.794  35.628  1.00  0.00    -0.200 F 
ATOM    106  C   UNL A   1      45.336  23.999  34.031  1.00  0.00     0.200 A 
ATOM    107  F   UNL A   1      46.532  25.243  32.412  1.00  0.00    -0.200 F 
ATOM    108  F   UNL A   1      45.895  22.865  33.592  1.00  0.00    -0.200 F 
ENDBRANCH  75  98
ENDBRANCH  49  50
ENDBRANCH  42  44
ENDBRANCH  41  42
ENDBRANCH  40  41
ENDBRANCH  39  40
ENDBRANCH  38  39
ENDBRANCH  37  38
ENDBRANCH   1  37
TORSDOF 22
ENDMDL
