MODEL 1
REMARK VINA RESULT:     -14.3      0.000      0.000
REMARK SMILES Cc1ccc(-c2cc3cccnc3n2CCC(=O)OCCOCCOC(=O)c2ccc(-c3c4nc(c(-c5c(F)c(F)c(F)c(F)c5F)c5ccc([nH]5)c(-c5c(F)c(F)c(F)c(F)c5F)c5nc(c(-c6c(F)c(F)c(F)c(F)c6F)c6ccc3[nH]6)C=C5)C=C4)cc2)cn1
REMARK SMILES IDX 21 1 20 2 19 3 17 4 18 5 16 6 15 7 14 8 6 9 7 10 8 11 13 12
REMARK SMILES IDX 9 13 12 14 10 15 11 16 5 17 1 18 2 19 3 20 92 21 4 22 91 23
REMARK SMILES IDX 22 24 23 25 24 26 25 27 26 28 27 29 28 30 29 31 90 32 30 33
REMARK SMILES IDX 89 34 31 35 32 36 33 37 83 38 34 39 88 40 82 41 84 42 35 43
REMARK SMILES IDX 87 44 81 45 80 46 36 48 68 49 48 50 67 51 49 52 52 53 66 54
REMARK SMILES IDX 85 55 50 56 51 57 65 59 86 60 53 61 37 62 38 63 46 64 39 65
REMARK SMILES IDX 40 66 44 67 47 68 41 69 42 70 45 71 43 72 69 73 70 74 78 75
REMARK SMILES IDX 71 76 72 77 76 78 79 79 73 80 74 81 77 82 75 83 54 84 55 85
REMARK SMILES IDX 63 86 56 87 57 88 61 89 64 90 58 91 59 92 62 93 60 94
REMARK H PARENT 84 47 52 58
REMARK Flexibility Score: inf
ROOT
ATOM      1  C   UNL A   1      39.527  21.936  26.413  1.00  0.00     0.202 C 
ENDROOT
BRANCH   1   2
ATOM      2  C   UNL A   1      38.339  23.743  26.125  1.00  0.00     0.261 C 
BRANCH   2   3
ATOM      3  O   UNL A   1      37.077  23.908  24.972  1.00  0.00    -0.463 OA
BRANCH   3   4
ATOM      4  C   UNL A   1      36.750  22.978  24.032  1.00  0.00     0.307 C 
ATOM      5  O   UNL A   1      36.775  23.221  22.830  1.00  0.00    -0.252 OA
BRANCH   4   6
ATOM      6  C   UNL A   1      36.427  21.545  24.563  1.00  0.00     0.144 C 
BRANCH   6   7
ATOM      7  C   UNL A   1      35.313  21.201  25.583  1.00  0.00     0.136 C 
BRANCH   7   8
ATOM      8  N   UNL A   1      34.072  20.748  25.005  1.00  0.00    -0.325 N 
ATOM      9  C   UNL A   1      32.962  21.538  24.850  1.00  0.00     0.052 A 
ATOM     10  C   UNL A   1      32.116  20.843  23.993  1.00  0.00     0.039 A 
ATOM     11  C   UNL A   1      32.658  19.565  23.754  1.00  0.00     0.020 A 
ATOM     12  C   UNL A   1      33.845  19.499  24.474  1.00  0.00     0.140 A 
ATOM     13  C   UNL A   1      32.280  18.457  22.982  1.00  0.00     0.013 A 
ATOM     14  N   UNL A   1      34.657  18.429  24.574  1.00  0.00    -0.238 NA
ATOM     15  C   UNL A   1      33.089  17.328  23.051  1.00  0.00     0.021 A 
ATOM     16  C   UNL A   1      34.218  17.362  23.860  1.00  0.00     0.113 A 
BRANCH   9  17
ATOM     17  C   UNL A   1      32.849  22.939  25.266  1.00  0.00     0.017 A 
ATOM     18  C   UNL A   1      31.752  27.456  27.056  1.00  0.00     0.066 C 
ATOM     19  C   UNL A   1      31.787  26.235  26.177  1.00  0.00     0.037 A 
ATOM     20  C   UNL A   1      33.035  26.088  24.916  1.00  0.00     0.024 A 
ATOM     21  N   UNL A   1      31.070  24.828  26.912  1.00  0.00    -0.261 NA
ATOM     22  C   UNL A   1      33.596  24.419  24.478  1.00  0.00     0.014 A 
ATOM     23  C   UNL A   1      31.594  23.231  26.485  1.00  0.00     0.121 A 
ENDBRANCH   9  17
ENDBRANCH   7   8
ENDBRANCH   6   7
ENDBRANCH   4   6
ENDBRANCH   3   4
ENDBRANCH   2   3
ENDBRANCH   1   2
BRANCH   1  24
ATOM     24  O   UNL A   1      40.435  21.483  27.687  1.00  0.00    -0.374 OA
BRANCH  24  25
ATOM     25  C   UNL A   1      41.458  20.472  27.544  1.00  0.00     0.202 C 
BRANCH  25  26
ATOM     26  C   UNL A   1      41.866  20.075  26.134  1.00  0.00     0.261 C 
BRANCH  26  27
ATOM     27  O   UNL A   1      42.700  21.071  25.592  1.00  0.00    -0.460 OA
BRANCH  27  28
ATOM     28  C   UNL A   1      43.985  20.686  25.405  1.00  0.00     0.338 C 
ATOM     29  O   UNL A   1      44.463  19.580  25.560  1.00  0.00    -0.246 OA
BRANCH  28  30
ATOM     30  C   UNL A   1      44.731  21.912  25.050  1.00  0.00     0.060 A 
ATOM     31  C   UNL A   1      45.681  22.275  25.990  1.00  0.00     0.016 A 
ATOM     32  C   UNL A   1      44.072  22.849  24.235  1.00  0.00     0.016 A 
ATOM     33  C   UNL A   1      45.549  23.541  26.486  1.00  0.00     0.010 A 
ATOM     34  C   UNL A   1      43.929  24.105  24.731  1.00  0.00     0.010 A 
ATOM     35  C   UNL A   1      44.545  24.357  25.942  1.00  0.00    -0.014 A 
BRANCH  35  36
ATOM     36  C   UNL A   1      44.155  25.529  26.668  1.00  0.00     0.031 A 
ATOM     37  C   UNL A   1      45.132  26.597  26.457  1.00  0.00     0.074 A 
ATOM     38  C   UNL A   1      43.048  25.569  27.433  1.00  0.00     0.049 A 
ATOM     39  N   UNL A   1      46.098  26.894  27.254  1.00  0.00    -0.248 NA
ATOM     40  C   UNL A   1      45.239  27.187  25.116  1.00  0.00     0.031 C 
ATOM     41  C   UNL A   1      41.927  24.630  27.521  1.00  0.00     0.029 A 
ATOM     42  N   UNL A   1      42.695  26.547  28.308  1.00  0.00    -0.354 N 
ATOM     43  C   UNL A   1      46.800  27.895  26.607  1.00  0.00     0.074 A 
ATOM     44  C   UNL A   1      46.385  27.860  25.231  1.00  0.00     0.031 C 
ATOM     45  C   UNL A   1      40.923  25.194  28.237  1.00  0.00     0.029 A 
ATOM     46  C   UNL A   1      41.389  26.456  28.784  1.00  0.00     0.049 A 
ATOM     47  H   UNL A   1      43.313  27.261  28.585  1.00  0.00     0.167 HD
ATOM     48  C   UNL A   1      47.408  28.859  27.345  1.00  0.00     0.037 A 
ATOM     49  C   UNL A   1      40.772  27.417  29.520  1.00  0.00     0.037 A 
ATOM     50  C   UNL A   1      47.598  28.416  28.708  1.00  0.00     0.049 A 
ATOM     51  C   UNL A   1      41.856  28.225  30.152  1.00  0.00     0.074 A 
ATOM     52  C   UNL A   1      48.302  27.379  29.291  1.00  0.00     0.029 A 
ATOM     53  N   UNL A   1      46.666  28.808  29.639  1.00  0.00    -0.354 N 
ATOM     54  N   UNL A   1      42.662  27.749  31.064  1.00  0.00    -0.248 NA
ATOM     55  C   UNL A   1      42.365  29.364  29.400  1.00  0.00     0.031 C 
ATOM     56  C   UNL A   1      47.468  26.904  30.345  1.00  0.00     0.029 A 
ATOM     57  C   UNL A   1      46.338  27.720  30.410  1.00  0.00     0.049 A 
ATOM     58  H   UNL A   1      46.297  29.715  29.738  1.00  0.00     0.167 HD
ATOM     59  C   UNL A   1      43.915  28.232  30.715  1.00  0.00     0.074 A 
ATOM     60  C   UNL A   1      43.661  29.260  29.707  1.00  0.00     0.031 C 
ATOM     61  C   UNL A   1      45.050  27.547  31.044  1.00  0.00     0.037 A 
BRANCH  48  62
ATOM     62  C   UNL A   1      47.412  30.308  26.944  1.00  0.00     0.064 A 
ATOM     63  C   UNL A   1      48.615  31.029  27.044  1.00  0.00     0.173 A 
ATOM     64  C   UNL A   1      46.248  31.088  26.745  1.00  0.00     0.173 A 
ATOM     65  F   UNL A   1      49.776  30.392  27.260  1.00  0.00    -0.203 F 
ATOM     66  C   UNL A   1      48.639  32.424  27.019  1.00  0.00     0.198 A 
ATOM     67  C   UNL A   1      46.285  32.475  26.665  1.00  0.00     0.198 A 
ATOM     68  F   UNL A   1      45.018  30.565  26.735  1.00  0.00    -0.203 F 
ATOM     69  F   UNL A   1      49.790  33.070  27.244  1.00  0.00    -0.200 F 
ATOM     70  C   UNL A   1      47.474  33.146  26.833  1.00  0.00     0.200 A 
ATOM     71  F   UNL A   1      45.138  33.153  26.508  1.00  0.00    -0.200 F 
ATOM     72  F   UNL A   1      47.488  34.484  26.866  1.00  0.00    -0.200 F 
ENDBRANCH  48  62
BRANCH  49  73
ATOM     73  C   UNL A   1      39.392  27.947  29.362  1.00  0.00     0.064 A 
ATOM     74  C   UNL A   1      38.555  28.113  30.480  1.00  0.00     0.173 A 
ATOM     75  C   UNL A   1      38.981  28.587  28.178  1.00  0.00     0.173 A 
ATOM     76  F   UNL A   1      38.890  27.573  31.660  1.00  0.00    -0.203 F 
ATOM     77  C   UNL A   1      37.401  28.907  30.427  1.00  0.00     0.198 A 
ATOM     78  C   UNL A   1      37.831  29.377  28.125  1.00  0.00     0.198 A 
ATOM     79  F   UNL A   1      39.740  28.544  27.073  1.00  0.00    -0.203 F 
ATOM     80  F   UNL A   1      36.669  29.100  31.533  1.00  0.00    -0.200 F 
ATOM     81  C   UNL A   1      37.050  29.551  29.253  1.00  0.00     0.200 A 
ATOM     82  F   UNL A   1      37.523  30.026  26.993  1.00  0.00    -0.200 F 
ATOM     83  F   UNL A   1      35.989  30.370  29.218  1.00  0.00    -0.200 F 
ENDBRANCH  49  73
BRANCH  61  84
ATOM     84  C   UNL A   1      44.919  26.386  31.994  1.00  0.00     0.064 A 
ATOM     85  C   UNL A   1      44.811  26.516  33.392  1.00  0.00     0.173 A 
ATOM     86  C   UNL A   1      44.725  25.110  31.451  1.00  0.00     0.173 A 
ATOM     87  F   UNL A   1      44.897  27.715  33.980  1.00  0.00    -0.203 F 
ATOM     88  C   UNL A   1      44.544  25.411  34.202  1.00  0.00     0.198 A 
ATOM     89  C   UNL A   1      44.425  24.017  32.257  1.00  0.00     0.198 A 
ATOM     90  F   UNL A   1      44.769  24.936  30.121  1.00  0.00    -0.203 F 
ATOM     91  F   UNL A   1      44.444  25.558  35.532  1.00  0.00    -0.200 F 
ATOM     92  C   UNL A   1      44.340  24.164  33.632  1.00  0.00     0.200 A 
ATOM     93  F   UNL A   1      44.181  22.825  31.696  1.00  0.00    -0.200 F 
ATOM     94  F   UNL A   1      44.035  23.111  34.403  1.00  0.00    -0.200 F 
ENDBRANCH  61  84
ENDBRANCH  35  36
ENDBRANCH  28  30
ENDBRANCH  27  28
ENDBRANCH  26  27
ENDBRANCH  25  26
ENDBRANCH  24  25
ENDBRANCH   1  24
TORSDOF 17
ENDMDL
MODEL 2
REMARK VINA RESULT:     -13.7      2.690      4.120
REMARK SMILES Cc1ccc(-c2cc3cccnc3n2CCC(=O)OCCOCCOC(=O)c2ccc(-c3c4nc(c(-c5c(F)c(F)c(F)c(F)c5F)c5ccc([nH]5)c(-c5c(F)c(F)c(F)c(F)c5F)c5nc(c(-c6c(F)c(F)c(F)c(F)c6F)c6ccc3[nH]6)C=C5)C=C4)cc2)cn1
REMARK SMILES IDX 21 1 20 2 19 3 17 4 18 5 16 6 15 7 14 8 6 9 7 10 8 11 13 12
REMARK SMILES IDX 9 13 12 14 10 15 11 16 5 17 1 18 2 19 3 20 92 21 4 22 91 23
REMARK SMILES IDX 22 24 23 25 24 26 25 27 26 28 27 29 28 30 29 31 90 32 30 33
REMARK SMILES IDX 89 34 31 35 32 36 33 37 83 38 34 39 88 40 82 41 84 42 35 43
REMARK SMILES IDX 87 44 81 45 80 46 36 48 68 49 48 50 67 51 49 52 52 53 66 54
REMARK SMILES IDX 85 55 50 56 51 57 65 59 86 60 53 61 37 62 38 63 46 64 39 65
REMARK SMILES IDX 40 66 44 67 47 68 41 69 42 70 45 71 43 72 69 73 70 74 78 75
REMARK SMILES IDX 71 76 72 77 76 78 79 79 73 80 74 81 77 82 75 83 54 84 55 85
REMARK SMILES IDX 63 86 56 87 57 88 61 89 64 90 58 91 59 92 62 93 60 94
REMARK H PARENT 84 47 52 58
REMARK Flexibility Score: inf
ROOT
ATOM      1  C   UNL A   1      41.659  20.193  26.200  1.00  0.00     0.202 C 
ENDROOT
BRANCH   1   2
ATOM      2  C   UNL A   1      40.022  21.586  26.569  1.00  0.00     0.261 C 
BRANCH   2   3
ATOM      3  O   UNL A   1      38.863  22.065  25.395  1.00  0.00    -0.463 OA
BRANCH   3   4
ATOM      4  C   UNL A   1      37.606  22.509  25.673  1.00  0.00     0.307 C 
ATOM      5  O   UNL A   1      37.386  23.638  26.098  1.00  0.00    -0.252 OA
BRANCH   4   6
ATOM      6  C   UNL A   1      36.438  21.529  25.331  1.00  0.00     0.144 C 
BRANCH   6   7
ATOM      7  C   UNL A   1      35.115  21.405  26.128  1.00  0.00     0.136 C 
BRANCH   7   8
ATOM      8  N   UNL A   1      33.940  21.163  25.328  1.00  0.00    -0.325 N 
ATOM      9  C   UNL A   1      33.015  22.123  25.010  1.00  0.00     0.052 A 
ATOM     10  C   UNL A   1      32.233  21.580  23.996  1.00  0.00     0.039 A 
ATOM     11  C   UNL A   1      32.599  20.232  23.813  1.00  0.00     0.020 A 
ATOM     12  C   UNL A   1      33.614  19.970  24.724  1.00  0.00     0.140 A 
ATOM     13  C   UNL A   1      32.190  19.204  22.950  1.00  0.00     0.013 A 
ATOM     14  N   UNL A   1      34.214  18.781  24.928  1.00  0.00    -0.238 NA
ATOM     15  C   UNL A   1      32.784  17.958  23.120  1.00  0.00     0.021 A 
ATOM     16  C   UNL A   1      33.743  17.804  24.113  1.00  0.00     0.113 A 
BRANCH   9  17
ATOM     17  C   UNL A   1      33.055  23.523  25.446  1.00  0.00     0.017 A 
ATOM     18  C   UNL A   1      32.402  28.144  27.187  1.00  0.00     0.066 C 
ATOM     19  C   UNL A   1      32.384  26.937  26.286  1.00  0.00     0.037 A 
ATOM     20  C   UNL A   1      33.773  26.606  25.224  1.00  0.00     0.024 A 
ATOM     21  N   UNL A   1      31.356  25.655  26.862  1.00  0.00    -0.261 NA
ATOM     22  C   UNL A   1      34.132  24.872  24.824  1.00  0.00     0.014 A 
ATOM     23  C   UNL A   1      31.688  23.998  26.471  1.00  0.00     0.121 A 
ENDBRANCH   9  17
ENDBRANCH   7   8
ENDBRANCH   6   7
ENDBRANCH   4   6
ENDBRANCH   3   4
ENDBRANCH   2   3
ENDBRANCH   1   2
BRANCH   1  24
ATOM     24  O   UNL A   1      43.045  20.416  25.374  1.00  0.00    -0.374 OA
BRANCH  24  25
ATOM     25  C   UNL A   1      43.934  21.507  25.700  1.00  0.00     0.202 C 
BRANCH  25  26
ATOM     26  C   UNL A   1      43.927  22.721  24.786  1.00  0.00     0.261 C 
BRANCH  26  27
ATOM     27  O   UNL A   1      42.756  23.470  25.014  1.00  0.00    -0.460 OA
BRANCH  27  28
ATOM     28  C   UNL A   1      42.970  24.694  25.553  1.00  0.00     0.338 C 
ATOM     29  O   UNL A   1      43.808  25.514  25.236  1.00  0.00    -0.246 OA
BRANCH  28  30
ATOM     30  C   UNL A   1      42.025  24.813  26.684  1.00  0.00     0.060 A 
ATOM     31  C   UNL A   1      40.772  25.273  26.313  1.00  0.00     0.016 A 
ATOM     32  C   UNL A   1      42.575  25.049  27.956  1.00  0.00     0.016 A 
ATOM     33  C   UNL A   1      40.349  26.392  26.972  1.00  0.00     0.010 A 
ATOM     34  C   UNL A   1      42.165  26.167  28.608  1.00  0.00     0.010 A 
ATOM     35  C   UNL A   1      41.165  26.899  27.995  1.00  0.00    -0.014 A 
BRANCH  35  36
ATOM     36  C   UNL A   1      40.935  28.239  28.446  1.00  0.00     0.031 A 
ATOM     37  C   UNL A   1      42.016  29.113  27.989  1.00  0.00     0.074 A 
ATOM     38  C   UNL A   1      39.869  28.576  29.195  1.00  0.00     0.049 A 
ATOM     39  N   UNL A   1      43.039  29.464  28.688  1.00  0.00    -0.248 NA
ATOM     40  C   UNL A   1      42.138  29.377  26.549  1.00  0.00     0.031 C 
ATOM     41  C   UNL A   1      38.655  27.817  29.504  1.00  0.00     0.029 A 
ATOM     42  N   UNL A   1      39.660  29.757  29.834  1.00  0.00    -0.354 N 
ATOM     43  C   UNL A   1      43.823  30.208  27.826  1.00  0.00     0.074 A 
ATOM     44  C   UNL A   1      43.356  29.920  26.497  1.00  0.00     0.031 C 
ATOM     45  C   UNL A   1      37.747  28.639  30.088  1.00  0.00     0.029 A 
ATOM     46  C   UNL A   1      38.371  29.927  30.333  1.00  0.00     0.049 A 
ATOM     47  H   UNL A   1      40.364  30.438  29.937  1.00  0.00     0.167 HD
ATOM     48  C   UNL A   1      44.562  31.233  28.323  1.00  0.00     0.037 A 
ATOM     49  C   UNL A   1      37.893  31.092  30.844  1.00  0.00     0.037 A 
ATOM     50  C   UNL A   1      44.752  31.083  29.748  1.00  0.00     0.049 A 
ATOM     51  C   UNL A   1      39.083  31.887  31.266  1.00  0.00     0.074 A 
ATOM     52  C   UNL A   1      45.358  30.124  30.540  1.00  0.00     0.029 A 
ATOM     53  N   UNL A   1      43.905  31.777  30.579  1.00  0.00    -0.354 N 
ATOM     54  N   UNL A   1      39.865  31.533  32.251  1.00  0.00    -0.248 NA
ATOM     55  C   UNL A   1      39.687  32.765  30.272  1.00  0.00     0.031 C 
ATOM     56  C   UNL A   1      44.516  29.995  31.683  1.00  0.00     0.029 A 
ATOM     57  C   UNL A   1      43.487  30.931  31.577  1.00  0.00     0.049 A 
ATOM     58  H   UNL A   1      43.643  32.720  30.477  1.00  0.00     0.167 HD
ATOM     59  C   UNL A   1      41.150  31.777  31.789  1.00  0.00     0.074 A 
ATOM     60  C   UNL A   1      40.974  32.580  30.579  1.00  0.00     0.031 C 
ATOM     61  C   UNL A   1      42.213  31.054  32.249  1.00  0.00     0.037 A 
BRANCH  48  62
ATOM     62  C   UNL A   1      44.712  32.548  27.608  1.00  0.00     0.064 A 
ATOM     63  C   UNL A   1      45.870  32.767  26.842  1.00  0.00     0.173 A 
ATOM     64  C   UNL A   1      43.927  33.696  27.868  1.00  0.00     0.173 A 
ATOM     65  F   UNL A   1      46.702  31.752  26.559  1.00  0.00    -0.203 F 
ATOM     66  C   UNL A   1      46.247  34.045  26.430  1.00  0.00     0.198 A 
ATOM     67  C   UNL A   1      44.278  34.960  27.408  1.00  0.00     0.198 A 
ATOM     68  F   UNL A   1      42.855  33.676  28.667  1.00  0.00    -0.203 F 
ATOM     69  F   UNL A   1      47.422  34.221  25.812  1.00  0.00    -0.200 F 
ATOM     70  C   UNL A   1      45.454  35.141  26.717  1.00  0.00     0.200 A 
ATOM     71  F   UNL A   1      43.504  36.009  27.719  1.00  0.00    -0.200 F 
ATOM     72  F   UNL A   1      45.843  36.374  26.372  1.00  0.00    -0.200 F 
ENDBRANCH  48  62
BRANCH  49  73
ATOM     73  C   UNL A   1      36.576  31.731  30.587  1.00  0.00     0.064 A 
ATOM     74  C   UNL A   1      35.779  32.187  31.654  1.00  0.00     0.173 A 
ATOM     75  C   UNL A   1      36.217  32.188  29.305  1.00  0.00     0.173 A 
ATOM     76  F   UNL A   1      36.074  31.834  32.914  1.00  0.00    -0.203 F 
ATOM     77  C   UNL A   1      34.717  33.078  31.454  1.00  0.00     0.198 A 
ATOM     78  C   UNL A   1      35.158  33.077  29.106  1.00  0.00     0.198 A 
ATOM     79  F   UNL A   1      36.949  31.865  28.230  1.00  0.00    -0.203 F 
ATOM     80  F   UNL A   1      34.027  33.545  32.504  1.00  0.00    -0.200 F 
ATOM     81  C   UNL A   1      34.418  33.535  30.182  1.00  0.00     0.200 A 
ATOM     82  F   UNL A   1      34.902  33.541  27.875  1.00  0.00    -0.200 F 
ATOM     83  F   UNL A   1      33.450  34.444  29.996  1.00  0.00    -0.200 F 
ENDBRANCH  49  73
BRANCH  61  84
ATOM     84  C   UNL A   1      41.989  30.155  33.436  1.00  0.00     0.064 A 
ATOM     85  C   UNL A   1      41.579  28.811  33.346  1.00  0.00     0.173 A 
ATOM     86  C   UNL A   1      42.370  30.626  34.698  1.00  0.00     0.173 A 
ATOM     87  F   UNL A   1      41.282  28.261  32.163  1.00  0.00    -0.203 F 
ATOM     88  C   UNL A   1      41.533  27.992  34.475  1.00  0.00     0.198 A 
ATOM     89  C   UNL A   1      42.356  29.798  35.816  1.00  0.00     0.198 A 
ATOM     90  F   UNL A   1      42.816  31.885  34.835  1.00  0.00    -0.203 F 
ATOM     91  F   UNL A   1      41.140  26.714  34.366  1.00  0.00    -0.200 F 
ATOM     92  C   UNL A   1      41.933  28.484  35.707  1.00  0.00     0.200 A 
ATOM     93  F   UNL A   1      42.790  30.266  36.995  1.00  0.00    -0.200 F 
ATOM     94  F   UNL A   1      41.937  27.686  36.784  1.00  0.00    -0.200 F 
ENDBRANCH  61  84
ENDBRANCH  35  36
ENDBRANCH  28  30
ENDBRANCH  27  28
ENDBRANCH  26  27
ENDBRANCH  25  26
ENDBRANCH  24  25
ENDBRANCH   1  24
TORSDOF 17
ENDMDL
MODEL 3
REMARK VINA RESULT:     -13.6      1.056      1.582
REMARK SMILES Cc1ccc(-c2cc3cccnc3n2CCC(=O)OCCOCCOC(=O)c2ccc(-c3c4nc(c(-c5c(F)c(F)c(F)c(F)c5F)c5ccc([nH]5)c(-c5c(F)c(F)c(F)c(F)c5F)c5nc(c(-c6c(F)c(F)c(F)c(F)c6F)c6ccc3[nH]6)C=C5)C=C4)cc2)cn1
REMARK SMILES IDX 21 1 20 2 19 3 17 4 18 5 16 6 15 7 14 8 6 9 7 10 8 11 13 12
REMARK SMILES IDX 9 13 12 14 10 15 11 16 5 17 1 18 2 19 3 20 92 21 4 22 91 23
REMARK SMILES IDX 22 24 23 25 24 26 25 27 26 28 27 29 28 30 29 31 90 32 30 33
REMARK SMILES IDX 89 34 31 35 32 36 33 37 83 38 34 39 88 40 82 41 84 42 35 43
REMARK SMILES IDX 87 44 81 45 80 46 36 48 68 49 48 50 67 51 49 52 52 53 66 54
REMARK SMILES IDX 85 55 50 56 51 57 65 59 86 60 53 61 37 62 38 63 46 64 39 65
REMARK SMILES IDX 40 66 44 67 47 68 41 69 42 70 45 71 43 72 69 73 70 74 78 75
REMARK SMILES IDX 71 76 72 77 76 78 79 79 73 80 74 81 77 82 75 83 54 84 55 85
REMARK SMILES IDX 63 86 56 87 57 88 61 89 64 90 58 91 59 92 62 93 60 94
REMARK H PARENT 84 47 52 58
REMARK Flexibility Score: inf
ROOT
ATOM      1  C   UNL A   1      38.925  21.990  26.297  1.00  0.00     0.202 C 
ENDROOT
BRANCH   1   2
ATOM      2  C   UNL A   1      38.002  23.932  25.931  1.00  0.00     0.261 C 
BRANCH   2   3
ATOM      3  O   UNL A   1      36.461  24.160  25.208  1.00  0.00    -0.463 OA
BRANCH   3   4
ATOM      4  C   UNL A   1      35.849  23.273  24.374  1.00  0.00     0.307 C 
ATOM      5  O   UNL A   1      35.931  23.355  23.153  1.00  0.00    -0.252 OA
BRANCH   4   6
ATOM      6  C   UNL A   1      35.109  22.080  25.059  1.00  0.00     0.144 C 
BRANCH   6   7
ATOM      7  C   UNL A   1      33.576  21.976  25.254  1.00  0.00     0.136 C 
BRANCH   7   8
ATOM      8  N   UNL A   1      32.871  21.284  24.204  1.00  0.00    -0.325 N 
ATOM      9  C   UNL A   1      32.203  21.910  23.183  1.00  0.00     0.052 A 
ATOM     10  C   UNL A   1      31.940  20.924  22.238  1.00  0.00     0.039 A 
ATOM     11  C   UNL A   1      32.319  19.674  22.766  1.00  0.00     0.020 A 
ATOM     12  C   UNL A   1      32.820  19.918  24.038  1.00  0.00     0.140 A 
ATOM     13  C   UNL A   1      32.313  18.355  22.289  1.00  0.00     0.013 A 
ATOM     14  N   UNL A   1      33.242  18.990  24.920  1.00  0.00    -0.238 NA
ATOM     15  C   UNL A   1      32.743  17.362  23.162  1.00  0.00     0.021 A 
ATOM     16  C   UNL A   1      33.160  17.725  24.436  1.00  0.00     0.113 A 
BRANCH   9  17
ATOM     17  C   UNL A   1      32.077  23.360  23.012  1.00  0.00     0.017 A 
ATOM     18  C   UNL A   1      30.892  28.193  22.791  1.00  0.00     0.066 C 
ATOM     19  C   UNL A   1      30.996  26.728  22.460  1.00  0.00     0.037 A 
ATOM     20  C   UNL A   1      32.372  26.135  21.499  1.00  0.00     0.024 A 
ATOM     21  N   UNL A   1      30.171  25.698  23.596  1.00  0.00    -0.261 NA
ATOM     22  C   UNL A   1      32.940  24.438  21.802  1.00  0.00     0.014 A 
ATOM     23  C   UNL A   1      30.702  24.071  23.878  1.00  0.00     0.121 A 
ENDBRANCH   9  17
ENDBRANCH   7   8
ENDBRANCH   6   7
ENDBRANCH   4   6
ENDBRANCH   3   4
ENDBRANCH   2   3
ENDBRANCH   1   2
BRANCH   1  24
ATOM     24  O   UNL A   1      40.476  21.528  26.118  1.00  0.00    -0.374 OA
BRANCH  24  25
ATOM     25  C   UNL A   1      40.909  20.212  26.531  1.00  0.00     0.202 C 
BRANCH  25  26
ATOM     26  C   UNL A   1      42.339  20.062  27.024  1.00  0.00     0.261 C 
BRANCH  26  27
ATOM     27  O   UNL A   1      43.115  21.131  26.535  1.00  0.00    -0.460 OA
BRANCH  27  28
ATOM     28  C   UNL A   1      43.847  20.834  25.435  1.00  0.00     0.338 C 
ATOM     29  O   UNL A   1      43.904  19.777  24.838  1.00  0.00    -0.246 OA
BRANCH  28  30
ATOM     30  C   UNL A   1      44.648  22.041  25.140  1.00  0.00     0.060 A 
ATOM     31  C   UNL A   1      45.538  22.376  26.147  1.00  0.00     0.016 A 
ATOM     32  C   UNL A   1      44.072  22.998  24.286  1.00  0.00     0.016 A 
ATOM     33  C   UNL A   1      45.404  23.643  26.639  1.00  0.00     0.010 A 
ATOM     34  C   UNL A   1      43.927  24.256  24.777  1.00  0.00     0.010 A 
ATOM     35  C   UNL A   1      44.463  24.487  26.030  1.00  0.00    -0.014 A 
BRANCH  35  36
ATOM     36  C   UNL A   1      44.052  25.666  26.733  1.00  0.00     0.031 A 
ATOM     37  C   UNL A   1      45.017  26.743  26.510  1.00  0.00     0.074 A 
ATOM     38  C   UNL A   1      42.939  25.705  27.489  1.00  0.00     0.049 A 
ATOM     39  N   UNL A   1      45.973  27.066  27.308  1.00  0.00    -0.248 NA
ATOM     40  C   UNL A   1      45.126  27.312  25.159  1.00  0.00     0.031 C 
ATOM     41  C   UNL A   1      41.830  24.753  27.586  1.00  0.00     0.029 A 
ATOM     42  N   UNL A   1      42.568  26.693  28.345  1.00  0.00    -0.354 N 
ATOM     43  C   UNL A   1      46.667  28.065  26.649  1.00  0.00     0.074 A 
ATOM     44  C   UNL A   1      46.263  28.001  25.271  1.00  0.00     0.031 C 
ATOM     45  C   UNL A   1      40.814  25.317  28.286  1.00  0.00     0.029 A 
ATOM     46  C   UNL A   1      41.260  26.594  28.813  1.00  0.00     0.049 A 
ATOM     47  H   UNL A   1      43.175  27.420  28.614  1.00  0.00     0.167 HD
ATOM     48  C   UNL A   1      47.258  29.049  27.375  1.00  0.00     0.037 A 
ATOM     49  C   UNL A   1      40.626  27.559  29.529  1.00  0.00     0.037 A 
ATOM     50  C   UNL A   1      47.444  28.632  28.746  1.00  0.00     0.049 A 
ATOM     51  C   UNL A   1      41.694  28.392  30.154  1.00  0.00     0.074 A 
ATOM     52  C   UNL A   1      48.157  27.614  29.352  1.00  0.00     0.029 A 
ATOM     53  N   UNL A   1      46.500  29.028  29.664  1.00  0.00    -0.354 N 
ATOM     54  N   UNL A   1      42.500  27.942  31.079  1.00  0.00    -0.248 NA
ATOM     55  C   UNL A   1      42.195  29.524  29.386  1.00  0.00     0.031 C 
ATOM     56  C   UNL A   1      47.322  27.147  30.408  1.00  0.00     0.029 A 
ATOM     57  C   UNL A   1      46.181  27.950  30.451  1.00  0.00     0.049 A 
ATOM     58  H   UNL A   1      46.119  29.932  29.744  1.00  0.00     0.167 HD
ATOM     59  C   UNL A   1      43.750  28.435  30.731  1.00  0.00     0.074 A 
ATOM     60  C   UNL A   1      43.490  29.442  29.703  1.00  0.00     0.031 C 
ATOM     61  C   UNL A   1      44.891  27.770  31.079  1.00  0.00     0.037 A 
BRANCH  48  62
ATOM     62  C   UNL A   1      47.246  30.491  26.948  1.00  0.00     0.064 A 
ATOM     63  C   UNL A   1      48.442  31.225  27.031  1.00  0.00     0.173 A 
ATOM     64  C   UNL A   1      46.074  31.256  26.741  1.00  0.00     0.173 A 
ATOM     65  F   UNL A   1      49.610  30.603  27.254  1.00  0.00    -0.203 F 
ATOM     66  C   UNL A   1      48.453  32.619  26.982  1.00  0.00     0.198 A 
ATOM     67  C   UNL A   1      46.096  32.642  26.637  1.00  0.00     0.198 A 
ATOM     68  F   UNL A   1      44.849  30.721  26.744  1.00  0.00    -0.203 F 
ATOM     69  F   UNL A   1      49.598  33.280  27.192  1.00  0.00    -0.200 F 
ATOM     70  C   UNL A   1      47.280  33.327  26.788  1.00  0.00     0.200 A 
ATOM     71  F   UNL A   1      44.943  33.306  26.472  1.00  0.00    -0.200 F 
ATOM     72  F   UNL A   1      47.280  34.665  26.798  1.00  0.00    -0.200 F 
ENDBRANCH  48  62
BRANCH  49  73
ATOM     73  C   UNL A   1      39.240  28.068  29.352  1.00  0.00     0.064 A 
ATOM     74  C   UNL A   1      38.394  28.247  30.462  1.00  0.00     0.173 A 
ATOM     75  C   UNL A   1      38.828  28.679  28.153  1.00  0.00     0.173 A 
ATOM     76  F   UNL A   1      38.730  27.735  31.655  1.00  0.00    -0.203 F 
ATOM     77  C   UNL A   1      37.232  29.025  30.386  1.00  0.00     0.198 A 
ATOM     78  C   UNL A   1      37.669  29.454  28.078  1.00  0.00     0.198 A 
ATOM     79  F   UNL A   1      39.594  28.623  27.054  1.00  0.00    -0.203 F 
ATOM     80  F   UNL A   1      36.490  29.231  31.484  1.00  0.00    -0.200 F 
ATOM     81  C   UNL A   1      36.879  29.641  29.198  1.00  0.00     0.200 A 
ATOM     82  F   UNL A   1      37.359  30.076  26.931  1.00  0.00    -0.200 F 
ATOM     83  F   UNL A   1      35.808  30.445  29.140  1.00  0.00    -0.200 F 
ENDBRANCH  49  73
BRANCH  61  84
ATOM     84  C   UNL A   1      44.768  26.625  32.049  1.00  0.00     0.064 A 
ATOM     85  C   UNL A   1      44.508  25.294  31.672  1.00  0.00     0.173 A 
ATOM     86  C   UNL A   1      45.095  26.861  33.390  1.00  0.00     0.173 A 
ATOM     87  F   UNL A   1      44.273  24.973  30.394  1.00  0.00    -0.203 F 
ATOM     88  C   UNL A   1      44.553  24.256  32.606  1.00  0.00     0.198 A 
ATOM     89  C   UNL A   1      45.173  25.821  34.311  1.00  0.00     0.198 A 
ATOM     90  F   UNL A   1      45.400  28.104  33.794  1.00  0.00    -0.203 F 
ATOM     91  F   UNL A   1      44.302  22.994  32.225  1.00  0.00    -0.200 F 
ATOM     92  C   UNL A   1      44.897  24.520  33.922  1.00  0.00     0.200 A 
ATOM     93  F   UNL A   1      45.553  26.076  35.570  1.00  0.00    -0.200 F 
ATOM     94  F   UNL A   1      44.989  23.520  34.809  1.00  0.00    -0.200 F 
ENDBRANCH  61  84
ENDBRANCH  35  36
ENDBRANCH  28  30
ENDBRANCH  27  28
ENDBRANCH  26  27
ENDBRANCH  25  26
ENDBRANCH  24  25
ENDBRANCH   1  24
TORSDOF 17
ENDMDL
