MODEL 1
REMARK VINA RESULT:     -10.7      0.000      0.000
REMARK SMILES CC[C@H]1CN(C(=O)N(CC(=O)OCCOCCOC(=O)c2ccc(-c3c4nc(c(-c5c(F)c(F)c(F)c(F)c5F)c5ccc([nH]5)c(-c5c(F)c(F)c(F)c(F)c5F)c5nc(c(-c6c(F)c(F)c(F)c(F)c6F)c6ccc3[nH]6)C=C5)C=C4)cc2)C(C)(C)C)CC[N@@H+]1C
REMARK SMILES IDX 14 1 13 2 12 3 10 4 11 5 9 6 8 7 6 8 7 9 5 10 3 11 4 12
REMARK SMILES IDX 90 13 89 14 91 15 88 17 2 18 1 19 84 20 85 21 86 22 87 23
REMARK SMILES IDX 15 24 16 25 17 26 18 27 19 28 20 29 21 30 22 31 83 32 23 33
REMARK SMILES IDX 82 34 24 35 25 36 26 37 76 38 27 39 81 40 75 41 77 42 28 43
REMARK SMILES IDX 80 44 74 45 73 46 29 48 61 49 41 50 60 51 42 52 45 53 59 54
REMARK SMILES IDX 78 55 43 56 44 57 58 59 79 60 46 61 30 62 31 63 39 64 32 65
REMARK SMILES IDX 33 66 37 67 40 68 34 69 35 70 38 71 36 72 62 73 63 74 71 75
REMARK SMILES IDX 64 76 65 77 69 78 72 79 66 80 67 81 70 82 68 83 47 84 48 85
REMARK SMILES IDX 56 86 49 87 50 88 54 89 57 90 51 91 52 92 55 93 53 94
REMARK H PARENT 90 16 77 47 45 58
REMARK Flexibility Score: inf
ROOT
ATOM      1  C   UNL A   1      32.297  29.580  27.257  1.00  0.00     0.202 C 
ENDROOT
BRANCH   1   2
ATOM      2  C   UNL A   1      32.271  28.154  26.695  1.00  0.00     0.261 C 
BRANCH   2   3
ATOM      3  O   UNL A   1      33.554  27.620  26.303  1.00  0.00    -0.462 OA
BRANCH   3   4
ATOM      4  C   UNL A   1      33.732  27.528  24.959  1.00  0.00     0.325 C 
ATOM      5  O   UNL A   1      33.889  28.495  24.215  1.00  0.00    -0.250 OA
BRANCH   4   6
ATOM      6  C   UNL A   1      33.484  26.142  24.377  1.00  0.00     0.244 C 
BRANCH   6   7
ATOM      7  N   UNL A   1      32.299  25.294  24.558  1.00  0.00    -0.309 N 
BRANCH   7   8
ATOM      8  C   UNL A   1      32.178  24.404  25.619  1.00  0.00     0.321 C 
ATOM      9  O   UNL A   1      31.424  24.656  26.563  1.00  0.00    -0.248 OA
BRANCH   8  10
ATOM     10  N   UNL A   1      32.965  23.257  25.667  1.00  0.00    -0.313 N 
ATOM     11  C   UNL A   1      33.803  21.006  24.907  1.00  0.00     0.203 C 
ATOM     12  C   UNL A   1      33.459  22.471  24.524  1.00  0.00     0.186 C 
ATOM     13  N   UNL A   1      34.811  20.941  25.999  1.00  0.00    -0.332 N 
ATOM     14  C   UNL A   1      34.370  21.745  27.159  1.00  0.00     0.284 C 
ATOM     15  C   UNL A   1      36.142  21.348  25.547  1.00  0.00     0.333 C 
ATOM     16  H   UNL A   1      34.886  19.967  26.291  1.00  0.00     0.348 HD
ATOM     17  C   UNL A   1      33.843  23.159  26.847  1.00  0.00     0.183 C 
BRANCH  11  18
ATOM     18  C   UNL A   1      32.597  20.121  25.328  1.00  0.00     0.063 C 
ATOM     19  C   UNL A   1      32.851  18.623  25.393  1.00  0.00     0.010 C 
ENDBRANCH  11  18
ENDBRANCH   8  10
ENDBRANCH   7   8
BRANCH   7  20
ATOM     20  C   UNL A   1      31.223  25.294  23.500  1.00  0.00     0.037 C 
ATOM     21  C   UNL A   1      30.533  23.919  23.390  1.00  0.00     0.034 C 
ATOM     22  C   UNL A   1      30.161  26.371  23.836  1.00  0.00     0.034 C 
ATOM     23  C   UNL A   1      31.744  25.673  22.093  1.00  0.00     0.034 C 
ENDBRANCH   7  20
ENDBRANCH   6   7
ENDBRANCH   4   6
ENDBRANCH   3   4
ENDBRANCH   2   3
ENDBRANCH   1   2
BRANCH   1  24
ATOM     24  O   UNL A   1      32.352  30.668  26.339  1.00  0.00    -0.374 OA
BRANCH  24  25
ATOM     25  C   UNL A   1      31.418  31.727  26.515  1.00  0.00     0.202 C 
BRANCH  25  26
ATOM     26  C   UNL A   1      31.987  33.115  26.829  1.00  0.00     0.261 C 
BRANCH  26  27
ATOM     27  O   UNL A   1      32.687  33.147  28.085  1.00  0.00    -0.460 OA
BRANCH  27  28
ATOM     28  C   UNL A   1      33.765  33.961  28.110  1.00  0.00     0.338 C 
ATOM     29  O   UNL A   1      33.772  35.186  28.075  1.00  0.00    -0.246 OA
BRANCH  28  30
ATOM     30  C   UNL A   1      34.987  33.187  28.379  1.00  0.00     0.060 A 
ATOM     31  C   UNL A   1      34.825  31.897  28.897  1.00  0.00     0.016 A 
ATOM     32  C   UNL A   1      36.261  33.740  28.235  1.00  0.00     0.016 A 
ATOM     33  C   UNL A   1      35.932  31.175  29.332  1.00  0.00     0.010 A 
ATOM     34  C   UNL A   1      37.374  33.018  28.685  1.00  0.00     0.010 A 
ATOM     35  C   UNL A   1      37.208  31.751  29.275  1.00  0.00    -0.014 A 
BRANCH  35  36
ATOM     36  C   UNL A   1      38.325  31.080  29.986  1.00  0.00     0.031 A 
ATOM     37  C   UNL A   1      38.558  31.397  31.438  1.00  0.00     0.074 A 
ATOM     38  C   UNL A   1      39.067  30.143  29.372  1.00  0.00     0.049 A 
ATOM     39  N   UNL A   1      39.425  30.883  32.273  1.00  0.00    -0.248 NA
ATOM     40  C   UNL A   1      37.691  32.429  32.030  1.00  0.00     0.031 C 
ATOM     41  C   UNL A   1      38.910  29.722  27.982  1.00  0.00     0.029 A 
ATOM     42  N   UNL A   1      40.096  29.369  29.846  1.00  0.00    -0.354 N 
ATOM     43  C   UNL A   1      39.201  31.519  33.488  1.00  0.00     0.074 A 
ATOM     44  C   UNL A   1      38.143  32.481  33.275  1.00  0.00     0.031 C 
ATOM     45  C   UNL A   1      39.813  28.762  27.714  1.00  0.00     0.029 A 
ATOM     46  C   UNL A   1      40.622  28.517  28.907  1.00  0.00     0.049 A 
ATOM     47  H   UNL A   1      40.427  29.420  30.772  1.00  0.00     0.167 HD
ATOM     48  C   UNL A   1      39.815  31.310  34.677  1.00  0.00     0.037 A 
ATOM     49  C   UNL A   1      41.646  27.646  29.001  1.00  0.00     0.037 A 
ATOM     50  C   UNL A   1      40.873  30.358  34.887  1.00  0.00     0.049 A 
ATOM     51  C   UNL A   1      42.362  27.485  30.316  1.00  0.00     0.074 A 
ATOM     52  C   UNL A   1      41.552  30.064  36.057  1.00  0.00     0.029 A 
ATOM     53  N   UNL A   1      41.415  29.551  33.897  1.00  0.00    -0.354 N 
ATOM     54  N   UNL A   1      42.121  28.065  31.466  1.00  0.00    -0.248 NA
ATOM     55  C   UNL A   1      43.491  26.543  30.347  1.00  0.00     0.031 C 
ATOM     56  C   UNL A   1      42.535  29.111  35.765  1.00  0.00     0.029 A 
ATOM     57  C   UNL A   1      42.437  28.778  34.423  1.00  0.00     0.049 A 
ATOM     58  H   UNL A   1      41.115  29.530  32.959  1.00  0.00     0.167 HD
ATOM     59  C   UNL A   1      43.048  27.544  32.360  1.00  0.00     0.074 A 
ATOM     60  C   UNL A   1      43.849  26.591  31.622  1.00  0.00     0.031 C 
ATOM     61  C   UNL A   1      43.221  27.830  33.674  1.00  0.00     0.037 A 
BRANCH  48  62
ATOM     62  C   UNL A   1      39.368  32.142  35.842  1.00  0.00     0.064 A 
ATOM     63  C   UNL A   1      38.404  31.677  36.748  1.00  0.00     0.173 A 
ATOM     64  C   UNL A   1      39.933  33.405  36.072  1.00  0.00     0.173 A 
ATOM     65  F   UNL A   1      37.824  30.481  36.564  1.00  0.00    -0.203 F 
ATOM     66  C   UNL A   1      38.006  32.456  37.832  1.00  0.00     0.198 A 
ATOM     67  C   UNL A   1      39.551  34.171  37.170  1.00  0.00     0.198 A 
ATOM     68  F   UNL A   1      40.862  33.892  35.237  1.00  0.00    -0.203 F 
ATOM     69  F   UNL A   1      37.056  32.009  38.664  1.00  0.00    -0.200 F 
ATOM     70  C   UNL A   1      38.585  33.699  38.045  1.00  0.00     0.200 A 
ATOM     71  F   UNL A   1      40.117  35.367  37.382  1.00  0.00    -0.200 F 
ATOM     72  F   UNL A   1      38.206  34.444  39.092  1.00  0.00    -0.200 F 
ENDBRANCH  48  62
BRANCH  49  73
ATOM     73  C   UNL A   1      42.056  26.857  27.811  1.00  0.00     0.064 A 
ATOM     74  C   UNL A   1      41.516  25.588  27.560  1.00  0.00     0.173 A 
ATOM     75  C   UNL A   1      43.009  27.350  26.908  1.00  0.00     0.173 A 
ATOM     76  F   UNL A   1      40.621  25.062  28.410  1.00  0.00    -0.203 F 
ATOM     77  C   UNL A   1      41.922  24.838  26.459  1.00  0.00     0.198 A 
ATOM     78  C   UNL A   1      43.396  26.610  25.792  1.00  0.00     0.198 A 
ATOM     79  F   UNL A   1      43.560  28.556  27.105  1.00  0.00    -0.203 F 
ATOM     80  F   UNL A   1      41.419  23.611  26.264  1.00  0.00    -0.200 F 
ATOM     81  C   UNL A   1      42.856  25.352  25.572  1.00  0.00     0.200 A 
ATOM     82  F   UNL A   1      44.292  27.115  24.934  1.00  0.00    -0.200 F 
ATOM     83  F   UNL A   1      43.244  24.632  24.511  1.00  0.00    -0.200 F 
ENDBRANCH  49  73
BRANCH  61  84
ATOM     84  C   UNL A   1      44.300  27.087  34.406  1.00  0.00     0.064 A 
ATOM     85  C   UNL A   1      45.590  27.620  34.548  1.00  0.00     0.173 A 
ATOM     86  C   UNL A   1      44.027  25.853  35.013  1.00  0.00     0.173 A 
ATOM     87  F   UNL A   1      45.903  28.791  33.973  1.00  0.00    -0.203 F 
ATOM     88  C   UNL A   1      46.572  26.934  35.255  1.00  0.00     0.198 A 
ATOM     89  C   UNL A   1      45.005  25.180  35.741  1.00  0.00     0.198 A 
ATOM     90  F   UNL A   1      42.807  25.304  34.911  1.00  0.00    -0.203 F 
ATOM     91  F   UNL A   1      47.809  27.442  35.346  1.00  0.00    -0.200 F 
ATOM     92  C   UNL A   1      46.277  25.719  35.857  1.00  0.00     0.200 A 
ATOM     93  F   UNL A   1      44.715  24.013  36.332  1.00  0.00    -0.200 F 
ATOM     94  F   UNL A   1      47.223  25.063  36.544  1.00  0.00    -0.200 F 
ENDBRANCH  61  84
ENDBRANCH  35  36
ENDBRANCH  28  30
ENDBRANCH  27  28
ENDBRANCH  26  27
ENDBRANCH  25  26
ENDBRANCH  24  25
ENDBRANCH   1  24
TORSDOF 19
ENDMDL
MODEL 2
REMARK VINA RESULT:     -10.4      4.456     10.342
REMARK SMILES CC[C@H]1CN(C(=O)N(CC(=O)OCCOCCOC(=O)c2ccc(-c3c4nc(c(-c5c(F)c(F)c(F)c(F)c5F)c5ccc([nH]5)c(-c5c(F)c(F)c(F)c(F)c5F)c5nc(c(-c6c(F)c(F)c(F)c(F)c6F)c6ccc3[nH]6)C=C5)C=C4)cc2)C(C)(C)C)CC[N@@H+]1C
REMARK SMILES IDX 14 1 13 2 12 3 10 4 11 5 9 6 8 7 6 8 7 9 5 10 3 11 4 12
REMARK SMILES IDX 90 13 89 14 91 15 88 17 2 18 1 19 84 20 85 21 86 22 87 23
REMARK SMILES IDX 15 24 16 25 17 26 18 27 19 28 20 29 21 30 22 31 83 32 23 33
REMARK SMILES IDX 82 34 24 35 25 36 26 37 76 38 27 39 81 40 75 41 77 42 28 43
REMARK SMILES IDX 80 44 74 45 73 46 29 48 61 49 41 50 60 51 42 52 45 53 59 54
REMARK SMILES IDX 78 55 43 56 44 57 58 59 79 60 46 61 30 62 31 63 39 64 32 65
REMARK SMILES IDX 33 66 37 67 40 68 34 69 35 70 38 71 36 72 62 73 63 74 71 75
REMARK SMILES IDX 64 76 65 77 69 78 72 79 66 80 67 81 70 82 68 83 47 84 48 85
REMARK SMILES IDX 56 86 49 87 50 88 54 89 57 90 51 91 52 92 55 93 53 94
REMARK H PARENT 90 16 77 47 45 58
REMARK Flexibility Score: inf
ROOT
ATOM      1  C   UNL A   1      35.134  20.854  25.047  1.00  0.00     0.202 C 
ENDROOT
BRANCH   1   2
ATOM      2  C   UNL A   1      34.633  21.666  26.247  1.00  0.00     0.261 C 
BRANCH   2   3
ATOM      3  O   UNL A   1      35.344  22.897  26.500  1.00  0.00    -0.462 OA
BRANCH   3   4
ATOM      4  C   UNL A   1      35.074  23.889  25.611  1.00  0.00     0.325 C 
ATOM      5  O   UNL A   1      35.929  24.607  25.096  1.00  0.00    -0.250 OA
BRANCH   4   6
ATOM      6  C   UNL A   1      33.595  24.226  25.462  1.00  0.00     0.244 C 
BRANCH   6   7
ATOM      7  N   UNL A   1      32.809  24.278  24.223  1.00  0.00    -0.309 N 
BRANCH   7   8
ATOM      8  C   UNL A   1      33.013  25.254  23.254  1.00  0.00     0.321 C 
ATOM      9  O   UNL A   1      33.553  24.967  22.182  1.00  0.00    -0.248 OA
BRANCH   8  10
ATOM     10  N   UNL A   1      32.685  26.581  23.515  1.00  0.00    -0.313 N 
ATOM     11  C   UNL A   1      31.149  28.546  23.870  1.00  0.00     0.203 C 
ATOM     12  C   UNL A   1      31.500  27.077  24.234  1.00  0.00     0.186 C 
ATOM     13  N   UNL A   1      32.285  29.469  24.134  1.00  0.00    -0.332 N 
ATOM     14  C   UNL A   1      33.509  28.990  23.456  1.00  0.00     0.284 C 
ATOM     15  C   UNL A   1      32.515  29.666  25.566  1.00  0.00     0.333 C 
ATOM     16  H   UNL A   1      32.037  30.380  23.748  1.00  0.00     0.348 HD
ATOM     17  C   UNL A   1      33.838  27.494  23.620  1.00  0.00     0.183 C 
BRANCH  11  18
ATOM     18  C   UNL A   1      30.682  28.782  22.407  1.00  0.00     0.063 C 
ATOM     19  C   UNL A   1      29.661  29.890  22.195  1.00  0.00     0.010 C 
ENDBRANCH  11  18
ENDBRANCH   8  10
ENDBRANCH   7   8
BRANCH   7  20
ATOM     20  C   UNL A   1      31.661  23.316  24.037  1.00  0.00     0.037 C 
ATOM     21  C   UNL A   1      32.108  22.032  23.308  1.00  0.00     0.034 C 
ATOM     22  C   UNL A   1      31.068  22.938  25.417  1.00  0.00     0.034 C 
ATOM     23  C   UNL A   1      30.476  23.919  23.246  1.00  0.00     0.034 C 
ENDBRANCH   7  20
ENDBRANCH   6   7
ENDBRANCH   4   6
ENDBRANCH   3   4
ENDBRANCH   2   3
ENDBRANCH   1   2
BRANCH   1  24
ATOM     24  O   UNL A   1      36.300  20.052  25.213  1.00  0.00    -0.374 OA
BRANCH  24  25
ATOM     25  C   UNL A   1      37.563  20.675  25.010  1.00  0.00     0.202 C 
BRANCH  25  26
ATOM     26  C   UNL A   1      38.811  19.814  25.237  1.00  0.00     0.261 C 
BRANCH  26  27
ATOM     27  O   UNL A   1      39.409  20.049  26.523  1.00  0.00    -0.460 OA
BRANCH  27  28
ATOM     28  C   UNL A   1      40.713  20.400  26.483  1.00  0.00     0.338 C 
ATOM     29  O   UNL A   1      41.627  19.803  25.928  1.00  0.00    -0.246 OA
BRANCH  28  30
ATOM     30  C   UNL A   1      40.900  21.743  27.055  1.00  0.00     0.060 A 
ATOM     31  C   UNL A   1      40.342  22.819  26.353  1.00  0.00     0.016 A 
ATOM     32  C   UNL A   1      41.689  21.965  28.185  1.00  0.00     0.016 A 
ATOM     33  C   UNL A   1      40.623  24.126  26.741  1.00  0.00     0.010 A 
ATOM     34  C   UNL A   1      41.981  23.281  28.567  1.00  0.00     0.010 A 
ATOM     35  C   UNL A   1      41.484  24.365  27.820  1.00  0.00    -0.014 A 
BRANCH  35  36
ATOM     36  C   UNL A   1      41.979  25.746  28.043  1.00  0.00     0.031 A 
ATOM     37  C   UNL A   1      43.315  26.141  27.475  1.00  0.00     0.074 A 
ATOM     38  C   UNL A   1      41.216  26.656  28.672  1.00  0.00     0.049 A 
ATOM     39  N   UNL A   1      43.912  27.306  27.486  1.00  0.00    -0.248 NA
ATOM     40  C   UNL A   1      44.076  25.082  26.794  1.00  0.00     0.031 C 
ATOM     41  C   UNL A   1      39.891  26.404  29.230  1.00  0.00     0.029 A 
ATOM     42  N   UNL A   1      41.447  27.983  28.935  1.00  0.00    -0.354 N 
ATOM     43  C   UNL A   1      45.110  27.122  26.808  1.00  0.00     0.074 A 
ATOM     44  C   UNL A   1      45.174  25.728  26.429  1.00  0.00     0.031 C 
ATOM     45  C   UNL A   1      39.423  27.542  29.772  1.00  0.00     0.029 A 
ATOM     46  C   UNL A   1      40.423  28.595  29.616  1.00  0.00     0.049 A 
ATOM     47  H   UNL A   1      42.269  28.453  28.664  1.00  0.00     0.167 HD
ATOM     48  C   UNL A   1      46.065  28.037  26.517  1.00  0.00     0.037 A 
ATOM     49  C   UNL A   1      40.314  29.861  30.065  1.00  0.00     0.037 A 
ATOM     50  C   UNL A   1      46.006  29.422  26.902  1.00  0.00     0.049 A 
ATOM     51  C   UNL A   1      41.424  30.841  29.793  1.00  0.00     0.074 A 
ATOM     52  C   UNL A   1      46.919  30.430  26.644  1.00  0.00     0.029 A 
ATOM     53  N   UNL A   1      44.977  29.992  27.636  1.00  0.00    -0.354 N 
ATOM     54  N   UNL A   1      42.537  30.667  29.122  1.00  0.00    -0.248 NA
ATOM     55  C   UNL A   1      41.262  32.197  30.338  1.00  0.00     0.031 C 
ATOM     56  C   UNL A   1      46.463  31.601  27.262  1.00  0.00     0.029 A 
ATOM     57  C   UNL A   1      45.244  31.332  27.864  1.00  0.00     0.049 A 
ATOM     58  H   UNL A   1      44.173  29.515  27.948  1.00  0.00     0.167 HD
ATOM     59  C   UNL A   1      43.194  31.891  29.143  1.00  0.00     0.074 A 
ATOM     60  C   UNL A   1      42.348  32.805  29.882  1.00  0.00     0.031 C 
ATOM     61  C   UNL A   1      44.389  32.229  28.599  1.00  0.00     0.037 A 
BRANCH  48  62
ATOM     62  C   UNL A   1      47.270  27.562  25.760  1.00  0.00     0.064 A 
ATOM     63  C   UNL A   1      47.346  27.667  24.363  1.00  0.00     0.173 A 
ATOM     64  C   UNL A   1      48.372  27.025  26.441  1.00  0.00     0.173 A 
ATOM     65  F   UNL A   1      46.312  28.162  23.665  1.00  0.00    -0.203 F 
ATOM     66  C   UNL A   1      48.476  27.232  23.674  1.00  0.00     0.198 A 
ATOM     67  C   UNL A   1      49.509  26.614  25.751  1.00  0.00     0.198 A 
ATOM     68  F   UNL A   1      48.350  26.908  27.777  1.00  0.00    -0.203 F 
ATOM     69  F   UNL A   1      48.513  27.306  22.337  1.00  0.00    -0.200 F 
ATOM     70  C   UNL A   1      49.558  26.712  24.369  1.00  0.00     0.200 A 
ATOM     71  F   UNL A   1      50.559  26.122  26.424  1.00  0.00    -0.200 F 
ATOM     72  F   UNL A   1      50.647  26.300  23.705  1.00  0.00    -0.200 F 
ENDBRANCH  48  62
BRANCH  49  73
ATOM     73  C   UNL A   1      39.104  30.274  30.823  1.00  0.00     0.064 A 
ATOM     74  C   UNL A   1      38.009  30.863  30.175  1.00  0.00     0.173 A 
ATOM     75  C   UNL A   1      39.026  30.103  32.212  1.00  0.00     0.173 A 
ATOM     76  F   UNL A   1      38.048  31.073  28.851  1.00  0.00    -0.203 F 
ATOM     77  C   UNL A   1      36.887  31.274  30.891  1.00  0.00     0.198 A 
ATOM     78  C   UNL A   1      37.893  30.491  32.924  1.00  0.00     0.198 A 
ATOM     79  F   UNL A   1      40.049  29.549  32.880  1.00  0.00    -0.203 F 
ATOM     80  F   UNL A   1      35.870  31.871  30.254  1.00  0.00    -0.200 F 
ATOM     81  C   UNL A   1      36.827  31.082  32.263  1.00  0.00     0.200 A 
ATOM     82  F   UNL A   1      37.836  30.295  34.248  1.00  0.00    -0.200 F 
ATOM     83  F   UNL A   1      35.746  31.475  32.950  1.00  0.00    -0.200 F 
ENDBRANCH  49  73
BRANCH  61  84
ATOM     84  C   UNL A   1      44.844  33.649  28.760  1.00  0.00     0.064 A 
ATOM     85  C   UNL A   1      44.514  34.636  27.819  1.00  0.00     0.173 A 
ATOM     86  C   UNL A   1      45.575  34.037  29.893  1.00  0.00     0.173 A 
ATOM     87  F   UNL A   1      43.828  34.311  26.713  1.00  0.00    -0.203 F 
ATOM     88  C   UNL A   1      44.918  35.956  27.998  1.00  0.00     0.198 A 
ATOM     89  C   UNL A   1      45.956  35.363  30.081  1.00  0.00     0.198 A 
ATOM     90  F   UNL A   1      45.910  33.131  30.824  1.00  0.00    -0.203 F 
ATOM     91  F   UNL A   1      44.626  36.875  27.068  1.00  0.00    -0.200 F 
ATOM     92  C   UNL A   1      45.632  36.319  29.131  1.00  0.00     0.200 A 
ATOM     93  F   UNL A   1      46.634  35.714  31.182  1.00  0.00    -0.200 F 
ATOM     94  F   UNL A   1      46.013  37.593  29.304  1.00  0.00    -0.200 F 
ENDBRANCH  61  84
ENDBRANCH  35  36
ENDBRANCH  28  30
ENDBRANCH  27  28
ENDBRANCH  26  27
ENDBRANCH  25  26
ENDBRANCH  24  25
ENDBRANCH   1  24
TORSDOF 19
ENDMDL
MODEL 3
REMARK VINA RESULT:     -10.0      4.755     10.428
REMARK SMILES CC[C@H]1CN(C(=O)N(CC(=O)OCCOCCOC(=O)c2ccc(-c3c4nc(c(-c5c(F)c(F)c(F)c(F)c5F)c5ccc([nH]5)c(-c5c(F)c(F)c(F)c(F)c5F)c5nc(c(-c6c(F)c(F)c(F)c(F)c6F)c6ccc3[nH]6)C=C5)C=C4)cc2)C(C)(C)C)CC[N@@H+]1C
REMARK SMILES IDX 14 1 13 2 12 3 10 4 11 5 9 6 8 7 6 8 7 9 5 10 3 11 4 12
REMARK SMILES IDX 90 13 89 14 91 15 88 17 2 18 1 19 84 20 85 21 86 22 87 23
REMARK SMILES IDX 15 24 16 25 17 26 18 27 19 28 20 29 21 30 22 31 83 32 23 33
REMARK SMILES IDX 82 34 24 35 25 36 26 37 76 38 27 39 81 40 75 41 77 42 28 43
REMARK SMILES IDX 80 44 74 45 73 46 29 48 61 49 41 50 60 51 42 52 45 53 59 54
REMARK SMILES IDX 78 55 43 56 44 57 58 59 79 60 46 61 30 62 31 63 39 64 32 65
REMARK SMILES IDX 33 66 37 67 40 68 34 69 35 70 38 71 36 72 62 73 63 74 71 75
REMARK SMILES IDX 64 76 65 77 69 78 72 79 66 80 67 81 70 82 68 83 47 84 48 85
REMARK SMILES IDX 56 86 49 87 50 88 54 89 57 90 51 91 52 92 55 93 53 94
REMARK H PARENT 90 16 77 47 45 58
REMARK Flexibility Score: inf
ROOT
ATOM      1  C   UNL A   1      38.246  21.764  25.610  1.00  0.00     0.202 C 
ENDROOT
BRANCH   1   2
ATOM      2  C   UNL A   1      37.238  22.911  25.747  1.00  0.00     0.261 C 
BRANCH   2   3
ATOM      3  O   UNL A   1      36.923  23.607  24.521  1.00  0.00    -0.462 OA
BRANCH   3   4
ATOM      4  C   UNL A   1      35.849  23.104  23.856  1.00  0.00     0.325 C 
ATOM      5  O   UNL A   1      35.603  23.329  22.672  1.00  0.00    -0.250 OA
BRANCH   4   6
ATOM      6  C   UNL A   1      34.814  22.421  24.741  1.00  0.00     0.244 C 
BRANCH   6   7
ATOM      7  N   UNL A   1      33.477  22.913  25.097  1.00  0.00    -0.309 N 
BRANCH   7   8
ATOM      8  C   UNL A   1      33.279  23.897  26.059  1.00  0.00     0.321 C 
ATOM      9  O   UNL A   1      33.459  23.647  27.254  1.00  0.00    -0.248 OA
BRANCH   8  10
ATOM     10  N   UNL A   1      32.796  25.149  25.693  1.00  0.00    -0.313 N 
ATOM     11  C   UNL A   1      31.105  27.011  25.538  1.00  0.00     0.203 C 
ATOM     12  C   UNL A   1      31.848  25.990  26.443  1.00  0.00     0.186 C 
ATOM     13  N   UNL A   1      32.051  27.897  24.811  1.00  0.00    -0.332 N 
ATOM     14  C   UNL A   1      33.045  27.094  24.066  1.00  0.00     0.284 C 
ATOM     15  C   UNL A   1      32.706  28.857  25.701  1.00  0.00     0.333 C 
ATOM     16  H   UNL A   1      31.509  28.442  24.140  1.00  0.00     0.348 HD
ATOM     17  C   UNL A   1      33.706  25.939  24.843  1.00  0.00     0.183 C 
BRANCH  11  18
ATOM     18  C   UNL A   1      30.135  26.398  24.491  1.00  0.00     0.063 C 
ATOM     19  C   UNL A   1      29.533  27.365  23.483  1.00  0.00     0.010 C 
ENDBRANCH  11  18
ENDBRANCH   8  10
ENDBRANCH   7   8
BRANCH   7  20
ATOM     20  C   UNL A   1      32.263  22.254  24.488  1.00  0.00     0.037 C 
ATOM     21  C   UNL A   1      31.845  22.939  23.170  1.00  0.00     0.034 C 
ATOM     22  C   UNL A   1      32.562  20.760  24.213  1.00  0.00     0.034 C 
ATOM     23  C   UNL A   1      31.032  22.248  25.426  1.00  0.00     0.034 C 
ENDBRANCH   7  20
ENDBRANCH   6   7
ENDBRANCH   4   6
ENDBRANCH   3   4
ENDBRANCH   2   3
ENDBRANCH   1   2
BRANCH   1  24
ATOM     24  O   UNL A   1      37.805  20.543  25.025  1.00  0.00    -0.374 OA
BRANCH  24  25
ATOM     25  C   UNL A   1      38.649  19.404  25.159  1.00  0.00     0.202 C 
BRANCH  25  26
ATOM     26  C   UNL A   1      39.835  19.524  26.121  1.00  0.00     0.261 C 
BRANCH  26  27
ATOM     27  O   UNL A   1      41.086  19.202  25.488  1.00  0.00    -0.460 OA
BRANCH  27  28
ATOM     28  C   UNL A   1      42.182  19.505  26.218  1.00  0.00     0.338 C 
ATOM     29  O   UNL A   1      43.176  18.810  26.390  1.00  0.00    -0.246 OA
BRANCH  28  30
ATOM     30  C   UNL A   1      42.132  20.908  26.661  1.00  0.00     0.060 A 
ATOM     31  C   UNL A   1      42.051  21.889  25.666  1.00  0.00     0.016 A 
ATOM     32  C   UNL A   1      42.269  21.266  28.004  1.00  0.00     0.016 A 
ATOM     33  C   UNL A   1      42.170  23.235  26.002  1.00  0.00     0.010 A 
ATOM     34  C   UNL A   1      42.402  22.620  28.339  1.00  0.00     0.010 A 
ATOM     35  C   UNL A   1      42.396  23.605  27.334  1.00  0.00    -0.014 A 
BRANCH  35  36
ATOM     36  C   UNL A   1      42.787  25.007  27.626  1.00  0.00     0.031 A 
ATOM     37  C   UNL A   1      44.175  25.465  27.269  1.00  0.00     0.074 A 
ATOM     38  C   UNL A   1      41.895  25.879  28.127  1.00  0.00     0.049 A 
ATOM     39  N   UNL A   1      44.709  26.656  27.368  1.00  0.00    -0.248 NA
ATOM     40  C   UNL A   1      45.079  24.444  26.717  1.00  0.00     0.031 C 
ATOM     41  C   UNL A   1      40.513  25.564  28.475  1.00  0.00     0.029 A 
ATOM     42  N   UNL A   1      42.023  27.214  28.419  1.00  0.00    -0.354 N 
ATOM     43  C   UNL A   1      46.005  26.530  26.884  1.00  0.00     0.074 A 
ATOM     44  C   UNL A   1      46.190  25.141  26.524  1.00  0.00     0.031 C 
ATOM     45  C   UNL A   1      39.915  26.677  28.935  1.00  0.00     0.029 A 
ATOM     46  C   UNL A   1      40.879  27.776  28.931  1.00  0.00     0.049 A 
ATOM     47  H   UNL A   1      42.854  27.722  28.275  1.00  0.00     0.167 HD
ATOM     48  C   UNL A   1      46.950  27.488  26.741  1.00  0.00     0.037 A 
ATOM     49  C   UNL A   1      40.644  29.034  29.354  1.00  0.00     0.037 A 
ATOM     50  C   UNL A   1      46.769  28.868  27.106  1.00  0.00     0.049 A 
ATOM     51  C   UNL A   1      41.737  30.064  29.253  1.00  0.00     0.074 A 
ATOM     52  C   UNL A   1      47.663  29.917  26.990  1.00  0.00     0.029 A 
ATOM     53  N   UNL A   1      45.614  29.387  27.671  1.00  0.00    -0.354 N 
ATOM     54  N   UNL A   1      42.947  29.944  28.762  1.00  0.00    -0.248 NA
ATOM     55  C   UNL A   1      41.430  31.410  29.761  1.00  0.00     0.031 C 
ATOM     56  C   UNL A   1      47.065  31.064  27.526  1.00  0.00     0.029 A 
ATOM     57  C   UNL A   1      45.781  30.737  27.934  1.00  0.00     0.049 A 
ATOM     58  H   UNL A   1      44.795  28.873  27.858  1.00  0.00     0.167 HD
ATOM     59  C   UNL A   1      43.535  31.197  28.880  1.00  0.00     0.074 A 
ATOM     60  C   UNL A   1      42.545  32.068  29.477  1.00  0.00     0.031 C 
ATOM     61  C   UNL A   1      44.783  31.591  28.525  1.00  0.00     0.037 A 
BRANCH  48  62
ATOM     62  C   UNL A   1      48.277  27.072  26.179  1.00  0.00     0.064 A 
ATOM     63  C   UNL A   1      48.540  27.121  24.802  1.00  0.00     0.173 A 
ATOM     64  C   UNL A   1      49.308  26.649  27.031  1.00  0.00     0.173 A 
ATOM     65  F   UNL A   1      47.582  27.507  23.945  1.00  0.00    -0.203 F 
ATOM     66  C   UNL A   1      49.781  26.742  24.296  1.00  0.00     0.198 A 
ATOM     67  C   UNL A   1      50.556  26.294  26.524  1.00  0.00     0.198 A 
ATOM     68  F   UNL A   1      49.109  26.588  28.356  1.00  0.00    -0.203 F 
ATOM     69  F   UNL A   1      49.998  26.761  22.974  1.00  0.00    -0.200 F 
ATOM     70  C   UNL A   1      50.789  26.335  25.158  1.00  0.00     0.200 A 
ATOM     71  F   UNL A   1      51.533  25.910  27.357  1.00  0.00    -0.200 F 
ATOM     72  F   UNL A   1      51.984  25.977  24.670  1.00  0.00    -0.200 F 
ENDBRANCH  48  62
BRANCH  49  73
ATOM     73  C   UNL A   1      39.314  29.388  29.915  1.00  0.00     0.064 A 
ATOM     74  C   UNL A   1      39.027  29.201  31.274  1.00  0.00     0.173 A 
ATOM     75  C   UNL A   1      38.299  29.907  29.098  1.00  0.00     0.173 A 
ATOM     76  F   UNL A   1      39.956  28.682  32.089  1.00  0.00    -0.203 F 
ATOM     77  C   UNL A   1      37.771  29.509  31.792  1.00  0.00     0.198 A 
ATOM     78  C   UNL A   1      37.052  30.238  29.622  1.00  0.00     0.198 A 
ATOM     79  F   UNL A   1      38.522  30.100  27.790  1.00  0.00    -0.203 F 
ATOM     80  F   UNL A   1      37.509  29.284  33.087  1.00  0.00    -0.200 F 
ATOM     81  C   UNL A   1      36.787  30.033  30.968  1.00  0.00     0.200 A 
ATOM     82  F   UNL A   1      36.107  30.753  28.824  1.00  0.00    -0.200 F 
ATOM     83  F   UNL A   1      35.580  30.333  31.468  1.00  0.00    -0.200 F 
ENDBRANCH  49  73
BRANCH  61  84
ATOM     84  C   UNL A   1      45.143  33.030  28.750  1.00  0.00     0.064 A 
ATOM     85  C   UNL A   1      44.837  34.018  27.803  1.00  0.00     0.173 A 
ATOM     86  C   UNL A   1      45.754  33.431  29.947  1.00  0.00     0.173 A 
ATOM     87  F   UNL A   1      44.265  33.682  26.637  1.00  0.00    -0.203 F 
ATOM     88  C   UNL A   1      45.150  35.354  28.039  1.00  0.00     0.198 A 
ATOM     89  C   UNL A   1      46.043  34.771  30.190  1.00  0.00     0.198 A 
ATOM     90  F   UNL A   1      46.061  32.524  30.887  1.00  0.00    -0.203 F 
ATOM     91  F   UNL A   1      44.885  36.277  27.105  1.00  0.00    -0.200 F 
ATOM     92  C   UNL A   1      45.745  35.730  29.234  1.00  0.00     0.200 A 
ATOM     93  F   UNL A   1      46.606  35.134  31.351  1.00  0.00    -0.200 F 
ATOM     94  F   UNL A   1      46.038  37.018  29.462  1.00  0.00    -0.200 F 
ENDBRANCH  61  84
ENDBRANCH  35  36
ENDBRANCH  28  30
ENDBRANCH  27  28
ENDBRANCH  26  27
ENDBRANCH  25  26
ENDBRANCH  24  25
ENDBRANCH   1  24
TORSDOF 19
ENDMDL
