MODEL 1
REMARK VINA RESULT:     -11.8      0.000      0.000
REMARK SMILES O=C(OCCOCCOC(=O)[C@@H]1[C@@H](C(=O)Nc2cccc(C(F)(F)F)c2)[C@@H]2C=C[C@H]1O2)c1ccc(-c2c3nc(c(-c4c(F)c(F)c(F)c(F)c4F)c4ccc([nH]4)c(-c4c(F)c(F)c(F)c(F)c4F)c4nc(c(-c5c(F)c(F)c(F)c(F)c5F)c5ccc2[nH]5)C=C4)C=C3)cc1
REMARK SMILES IDX 7 1 6 2 5 3 4 4 3 5 2 6 1 7 32 8 33 9 94 10 34 11 93 12
REMARK SMILES IDX 35 13 36 14 37 15 87 16 38 17 92 18 86 19 88 20 39 21 91 22
REMARK SMILES IDX 85 23 84 24 40 26 72 27 52 28 71 29 53 30 56 31 70 32 89 33
REMARK SMILES IDX 54 34 55 35 69 37 90 38 57 39 41 40 42 41 50 42 43 43 44 44
REMARK SMILES IDX 48 45 51 46 45 47 46 48 49 49 47 50 73 51 74 52 82 53 75 54
REMARK SMILES IDX 76 55 80 56 83 57 77 58 78 59 81 60 79 61 58 62 59 63 67 64
REMARK SMILES IDX 60 65 61 66 65 67 68 68 62 69 63 70 66 71 64 72 8 73 9 74
REMARK SMILES IDX 10 75 11 76 12 77 13 78 30 79 27 80 29 81 31 82 28 83 14 84
REMARK SMILES IDX 15 85 16 86 17 88 18 89 26 90 19 91 21 92 20 93 22 94 23 95
REMARK SMILES IDX 24 96 25 97
REMARK H PARENT 88 25 56 36 16 87
REMARK Flexibility Score: inf
ROOT
ATOM      1  C   UNL A   1      31.404  29.375  25.551  1.00  0.00     0.202 C 
ENDROOT
BRANCH   1   2
ATOM      2  O   UNL A   1      31.801  29.870  26.830  1.00  0.00    -0.374 OA
BRANCH   2   3
ATOM      3  C   UNL A   1      32.525  31.100  26.858  1.00  0.00     0.202 C 
BRANCH   3   4
ATOM      4  C   UNL A   1      31.740  32.396  27.104  1.00  0.00     0.261 C 
BRANCH   4   5
ATOM      5  O   UNL A   1      32.617  33.531  27.256  1.00  0.00    -0.460 OA
BRANCH   5   6
ATOM      6  C   UNL A   1      33.190  33.971  28.407  1.00  0.00     0.338 C 
ATOM      7  O   UNL A   1      32.637  34.842  29.072  1.00  0.00    -0.246 OA
BRANCH   6   8
ATOM      8  C   UNL A   1      34.483  33.415  28.890  1.00  0.00     0.060 A 
ATOM      9  C   UNL A   1      34.570  32.164  29.478  1.00  0.00     0.016 A 
ATOM     10  C   UNL A   1      35.672  34.134  28.716  1.00  0.00     0.016 A 
ATOM     11  C   UNL A   1      35.724  31.671  30.013  1.00  0.00     0.010 A 
ATOM     12  C   UNL A   1      36.891  33.596  29.161  1.00  0.00     0.010 A 
ATOM     13  C   UNL A   1      36.905  32.362  29.821  1.00  0.00    -0.014 A 
BRANCH  13  14
ATOM     14  C   UNL A   1      38.065  31.729  30.460  1.00  0.00     0.031 A 
ATOM     15  C   UNL A   1      38.234  31.916  31.930  1.00  0.00     0.074 A 
ATOM     16  C   UNL A   1      38.713  30.765  29.776  1.00  0.00     0.049 A 
ATOM     17  N   UNL A   1      39.143  31.421  32.721  1.00  0.00    -0.248 NA
ATOM     18  C   UNL A   1      37.228  32.751  32.610  1.00  0.00     0.031 C 
ATOM     19  C   UNL A   1      38.425  30.378  28.386  1.00  0.00     0.029 A 
ATOM     20  N   UNL A   1      39.669  29.871  30.171  1.00  0.00    -0.354 N 
ATOM     21  C   UNL A   1      38.845  31.917  33.980  1.00  0.00     0.074 A 
ATOM     22  C   UNL A   1      37.665  32.740  33.859  1.00  0.00     0.031 C 
ATOM     23  C   UNL A   1      39.146  29.291  28.070  1.00  0.00     0.029 A 
ATOM     24  C   UNL A   1      40.026  28.982  29.186  1.00  0.00     0.049 A 
ATOM     25  H   UNL A   1      40.061  29.865  31.074  1.00  0.00     0.167 HD
ATOM     26  C   UNL A   1      39.526  31.702  35.126  1.00  0.00     0.037 A 
ATOM     27  C   UNL A   1      41.003  28.058  29.181  1.00  0.00     0.037 A 
ATOM     28  C   UNL A   1      40.692  30.866  35.189  1.00  0.00     0.049 A 
ATOM     29  C   UNL A   1      41.824  27.935  30.435  1.00  0.00     0.074 A 
ATOM     30  C   UNL A   1      41.568  30.668  36.238  1.00  0.00     0.029 A 
ATOM     31  N   UNL A   1      41.133  30.070  34.137  1.00  0.00    -0.354 N 
ATOM     32  N   UNL A   1      41.655  28.533  31.592  1.00  0.00    -0.248 NA
ATOM     33  C   UNL A   1      42.983  27.042  30.381  1.00  0.00     0.031 C 
ATOM     34  C   UNL A   1      42.560  29.780  35.807  1.00  0.00     0.029 A 
ATOM     35  C   UNL A   1      42.275  29.385  34.507  1.00  0.00     0.049 A 
ATOM     36  H   UNL A   1      40.697  30.006  33.257  1.00  0.00     0.167 HD
ATOM     37  C   UNL A   1      42.686  28.092  32.405  1.00  0.00     0.074 A 
ATOM     38  C   UNL A   1      43.449  27.142  31.617  1.00  0.00     0.031 C 
ATOM     39  C   UNL A   1      42.993  28.449  33.677  1.00  0.00     0.037 A 
BRANCH  26  40
ATOM     40  C   UNL A   1      39.076  32.462  36.336  1.00  0.00     0.064 A 
ATOM     41  C   UNL A   1      39.542  33.753  36.623  1.00  0.00     0.173 A 
ATOM     42  C   UNL A   1      38.207  31.857  37.257  1.00  0.00     0.173 A 
ATOM     43  F   UNL A   1      40.409  34.357  35.796  1.00  0.00    -0.203 F 
ATOM     44  C   UNL A   1      39.168  34.403  37.798  1.00  0.00     0.198 A 
ATOM     45  C   UNL A   1      37.817  32.519  38.417  1.00  0.00     0.198 A 
ATOM     46  F   UNL A   1      37.751  30.614  37.040  1.00  0.00    -0.203 F 
ATOM     47  F   UNL A   1      39.671  35.612  38.082  1.00  0.00    -0.200 F 
ATOM     48  C   UNL A   1      38.304  33.787  38.692  1.00  0.00     0.200 A 
ATOM     49  F   UNL A   1      36.986  31.920  39.281  1.00  0.00    -0.200 F 
ATOM     50  F   UNL A   1      37.955  34.410  39.825  1.00  0.00    -0.200 F 
ENDBRANCH  26  40
BRANCH  27  51
ATOM     51  C   UNL A   1      41.323  27.291  27.946  1.00  0.00     0.064 A 
ATOM     52  C   UNL A   1      40.772  26.027  27.696  1.00  0.00     0.173 A 
ATOM     53  C   UNL A   1      42.231  27.796  26.997  1.00  0.00     0.173 A 
ATOM     54  F   UNL A   1      39.919  25.482  28.575  1.00  0.00    -0.203 F 
ATOM     55  C   UNL A   1      41.134  25.291  26.566  1.00  0.00     0.198 A 
ATOM     56  C   UNL A   1      42.561  27.079  25.850  1.00  0.00     0.198 A 
ATOM     57  F   UNL A   1      42.800  28.996  27.183  1.00  0.00    -0.203 F 
ATOM     58  F   UNL A   1      40.641  24.059  26.385  1.00  0.00    -0.200 F 
ATOM     59  C   UNL A   1      42.023  25.820  25.641  1.00  0.00     0.200 A 
ATOM     60  F   UNL A   1      43.408  27.605  24.955  1.00  0.00    -0.200 F 
ATOM     61  F   UNL A   1      42.373  25.112  24.559  1.00  0.00    -0.200 F 
ENDBRANCH  27  51
BRANCH  39  62
ATOM     62  C   UNL A   1      44.191  27.783  34.278  1.00  0.00     0.064 A 
ATOM     63  C   UNL A   1      45.464  28.365  34.202  1.00  0.00     0.173 A 
ATOM     64  C   UNL A   1      44.054  26.563  34.954  1.00  0.00     0.173 A 
ATOM     65  F   UNL A   1      45.640  29.523  33.546  1.00  0.00    -0.203 F 
ATOM     66  C   UNL A   1      46.569  27.730  34.757  1.00  0.00     0.198 A 
ATOM     67  C   UNL A   1      45.156  25.949  35.538  1.00  0.00     0.198 A 
ATOM     68  F   UNL A   1      42.853  25.976  35.056  1.00  0.00    -0.203 F 
ATOM     69  F   UNL A   1      47.787  28.272  34.625  1.00  0.00    -0.200 F 
ATOM     70  C   UNL A   1      46.412  26.527  35.430  1.00  0.00     0.200 A 
ATOM     71  F   UNL A   1      45.003  24.794  36.200  1.00  0.00    -0.200 F 
ATOM     72  F   UNL A   1      47.477  25.918  35.969  1.00  0.00    -0.200 F 
ENDBRANCH  39  62
ENDBRANCH  13  14
ENDBRANCH   6   8
ENDBRANCH   5   6
ENDBRANCH   4   5
ENDBRANCH   3   4
ENDBRANCH   2   3
ENDBRANCH   1   2
BRANCH   1  73
ATOM     73  C   UNL A   1      32.642  29.141  24.693  1.00  0.00     0.261 C 
BRANCH  73  74
ATOM     74  O   UNL A   1      32.581  27.797  24.189  1.00  0.00    -0.463 OA
BRANCH  74  75
ATOM     75  C   UNL A   1      32.749  26.808  25.107  1.00  0.00     0.312 C 
ATOM     76  O   UNL A   1      33.641  26.769  25.946  1.00  0.00    -0.252 OA
BRANCH  75  77
ATOM     77  C   UNL A   1      31.690  25.746  24.983  1.00  0.00     0.147 C 
ATOM     78  C   UNL A   1      32.285  24.335  25.185  1.00  0.00     0.129 C 
ATOM     79  C   UNL A   1      30.997  25.598  23.620  1.00  0.00     0.157 C 
ATOM     80  C   UNL A   1      31.691  23.578  23.981  1.00  0.00     0.155 C 
ATOM     81  C   UNL A   1      31.920  25.254  22.480  1.00  0.00     0.004 C 
ATOM     82  O   UNL A   1      30.426  24.276  23.814  1.00  0.00    -0.365 OA
ATOM     83  C   UNL A   1      32.370  24.018  22.719  1.00  0.00     0.004 C 
BRANCH  78  84
ATOM     84  C   UNL A   1      31.870  23.718  26.504  1.00  0.00     0.231 C 
ATOM     85  O   UNL A   1      30.978  24.194  27.208  1.00  0.00    -0.274 OA
ATOM     86  N   UNL A   1      32.487  22.571  26.929  1.00  0.00    -0.326 N 
ATOM     87  H   UNL A   1      32.102  22.152  27.733  1.00  0.00     0.169 HD
BRANCH  86  88
ATOM     88  C   UNL A   1      33.591  21.917  26.372  1.00  0.00     0.041 A 
ATOM     89  C   UNL A   1      33.359  20.701  25.733  1.00  0.00     0.026 A 
ATOM     90  C   UNL A   1      34.879  22.456  26.391  1.00  0.00     0.039 A 
ATOM     91  C   UNL A   1      34.387  20.086  25.021  1.00  0.00     0.003 A 
ATOM     92  C   UNL A   1      35.920  21.855  25.671  1.00  0.00     0.058 A 
ATOM     93  C   UNL A   1      35.656  20.666  24.978  1.00  0.00     0.013 A 
BRANCH  92  94
ATOM     94  C   UNL A   1      37.297  22.473  25.640  1.00  0.00     0.416 C 
ATOM     95  F   UNL A   1      37.743  22.694  24.376  1.00  0.00    -0.166 F 
ATOM     96  F   UNL A   1      37.339  23.678  26.275  1.00  0.00    -0.166 F 
ATOM     97  F   UNL A   1      38.246  21.705  26.247  1.00  0.00    -0.166 F 
ENDBRANCH  92  94
ENDBRANCH  86  88
ENDBRANCH  78  84
ENDBRANCH  75  77
ENDBRANCH  74  75
ENDBRANCH  73  74
ENDBRANCH   1  73
TORSDOF 17
ENDMDL
MODEL 2
REMARK VINA RESULT:     -11.7      5.026     10.538
REMARK SMILES O=C(OCCOCCOC(=O)[C@@H]1[C@@H](C(=O)Nc2cccc(C(F)(F)F)c2)[C@@H]2C=C[C@H]1O2)c1ccc(-c2c3nc(c(-c4c(F)c(F)c(F)c(F)c4F)c4ccc([nH]4)c(-c4c(F)c(F)c(F)c(F)c4F)c4nc(c(-c5c(F)c(F)c(F)c(F)c5F)c5ccc2[nH]5)C=C4)C=C3)cc1
REMARK SMILES IDX 7 1 6 2 5 3 4 4 3 5 2 6 1 7 32 8 33 9 94 10 34 11 93 12
REMARK SMILES IDX 35 13 36 14 37 15 87 16 38 17 92 18 86 19 88 20 39 21 91 22
REMARK SMILES IDX 85 23 84 24 40 26 72 27 52 28 71 29 53 30 56 31 70 32 89 33
REMARK SMILES IDX 54 34 55 35 69 37 90 38 57 39 41 40 42 41 50 42 43 43 44 44
REMARK SMILES IDX 48 45 51 46 45 47 46 48 49 49 47 50 73 51 74 52 82 53 75 54
REMARK SMILES IDX 76 55 80 56 83 57 77 58 78 59 81 60 79 61 58 62 59 63 67 64
REMARK SMILES IDX 60 65 61 66 65 67 68 68 62 69 63 70 66 71 64 72 8 73 9 74
REMARK SMILES IDX 10 75 11 76 12 77 13 78 30 79 27 80 29 81 31 82 28 83 14 84
REMARK SMILES IDX 15 85 16 86 17 88 18 89 26 90 19 91 21 92 20 93 22 94 23 95
REMARK SMILES IDX 24 96 25 97
REMARK H PARENT 88 25 56 36 16 87
REMARK Flexibility Score: inf
ROOT
ATOM      1  C   UNL A   1      37.217  21.934  25.177  1.00  0.00     0.202 C 
ENDROOT
BRANCH   1   2
ATOM      2  O   UNL A   1      36.953  20.570  24.845  1.00  0.00    -0.374 OA
BRANCH   2   3
ATOM      3  C   UNL A   1      38.036  19.649  24.963  1.00  0.00     0.202 C 
BRANCH   3   4
ATOM      4  C   UNL A   1      39.267  20.078  25.773  1.00  0.00     0.261 C 
BRANCH   4   5
ATOM      5  O   UNL A   1      40.320  19.094  25.707  1.00  0.00    -0.460 OA
BRANCH   5   6
ATOM      6  C   UNL A   1      41.632  19.281  26.010  1.00  0.00     0.338 C 
ATOM      7  O   UNL A   1      42.398  18.323  26.030  1.00  0.00    -0.246 OA
BRANCH   6   8
ATOM      8  C   UNL A   1      42.170  20.634  26.317  1.00  0.00     0.060 A 
ATOM      9  C   UNL A   1      42.345  21.076  27.618  1.00  0.00     0.016 A 
ATOM     10  C   UNL A   1      42.566  21.490  25.283  1.00  0.00     0.016 A 
ATOM     11  C   UNL A   1      42.746  22.343  27.927  1.00  0.00     0.010 A 
ATOM     12  C   UNL A   1      43.088  22.760  25.581  1.00  0.00     0.010 A 
ATOM     13  C   UNL A   1      43.164  23.183  26.914  1.00  0.00    -0.014 A 
BRANCH  13  14
ATOM     14  C   UNL A   1      43.556  24.517  27.382  1.00  0.00     0.031 A 
ATOM     15  C   UNL A   1      44.921  25.003  27.029  1.00  0.00     0.074 A 
ATOM     16  C   UNL A   1      42.581  25.349  27.804  1.00  0.00     0.049 A 
ATOM     17  N   UNL A   1      45.474  26.154  27.282  1.00  0.00    -0.248 NA
ATOM     18  C   UNL A   1      45.773  24.078  26.259  1.00  0.00     0.031 C 
ATOM     19  C   UNL A   1      41.164  24.982  27.948  1.00  0.00     0.029 A 
ATOM     20  N   UNL A   1      42.603  26.684  28.092  1.00  0.00    -0.354 N 
ATOM     21  C   UNL A   1      46.748  26.078  26.744  1.00  0.00     0.074 A 
ATOM     22  C   UNL A   1      46.890  24.777  26.135  1.00  0.00     0.031 C 
ATOM     23  C   UNL A   1      40.450  26.080  28.239  1.00  0.00     0.029 A 
ATOM     24  C   UNL A   1      41.368  27.193  28.417  1.00  0.00     0.049 A 
ATOM     25  H   UNL A   1      43.422  27.229  28.066  1.00  0.00     0.167 HD
ATOM     26  C   UNL A   1      47.711  27.024  26.782  1.00  0.00     0.037 A 
ATOM     27  C   UNL A   1      41.039  28.417  28.866  1.00  0.00     0.037 A 
ATOM     28  C   UNL A   1      47.512  28.307  27.397  1.00  0.00     0.049 A 
ATOM     29  C   UNL A   1      42.161  29.407  29.015  1.00  0.00     0.074 A 
ATOM     30  C   UNL A   1      48.430  29.309  27.642  1.00  0.00     0.029 A 
ATOM     31  N   UNL A   1      46.281  28.764  27.856  1.00  0.00    -0.354 N 
ATOM     32  N   UNL A   1      43.420  29.285  28.664  1.00  0.00    -0.248 NA
ATOM     33  C   UNL A   1      41.832  30.687  29.648  1.00  0.00     0.031 C 
ATOM     34  C   UNL A   1      47.760  30.358  28.283  1.00  0.00     0.029 A 
ATOM     35  C   UNL A   1      46.415  30.031  28.391  1.00  0.00     0.049 A 
ATOM     36  H   UNL A   1      45.438  28.259  27.807  1.00  0.00     0.167 HD
ATOM     37  C   UNL A   1      44.037  30.467  29.033  1.00  0.00     0.074 A 
ATOM     38  C   UNL A   1      43.000  31.311  29.597  1.00  0.00     0.031 C 
ATOM     39  C   UNL A   1      45.343  30.825  28.939  1.00  0.00     0.037 A 
BRANCH  26  40
ATOM     40  C   UNL A   1      49.056  26.647  26.241  1.00  0.00     0.064 A 
ATOM     41  C   UNL A   1      50.018  25.992  27.023  1.00  0.00     0.173 A 
ATOM     42  C   UNL A   1      49.406  27.005  24.930  1.00  0.00     0.173 A 
ATOM     43  F   UNL A   1      49.748  25.668  28.296  1.00  0.00    -0.203 F 
ATOM     44  C   UNL A   1      51.290  25.726  26.517  1.00  0.00     0.198 A 
ATOM     45  C   UNL A   1      50.669  26.718  24.421  1.00  0.00     0.198 A 
ATOM     46  F   UNL A   1      48.530  27.654  24.150  1.00  0.00    -0.203 F 
ATOM     47  F   UNL A   1      52.214  25.152  27.299  1.00  0.00    -0.200 F 
ATOM     48  C   UNL A   1      51.612  26.086  25.216  1.00  0.00     0.200 A 
ATOM     49  F   UNL A   1      50.979  27.070  23.166  1.00  0.00    -0.200 F 
ATOM     50  F   UNL A   1      52.839  25.839  24.736  1.00  0.00    -0.200 F 
ENDBRANCH  26  40
BRANCH  27  51
ATOM     51  C   UNL A   1      39.649  28.721  29.306  1.00  0.00     0.064 A 
ATOM     52  C   UNL A   1      38.720  29.335  28.455  1.00  0.00     0.173 A 
ATOM     53  C   UNL A   1      39.229  28.437  30.619  1.00  0.00     0.173 A 
ATOM     54  F   UNL A   1      39.069  29.651  27.200  1.00  0.00    -0.203 F 
ATOM     55  C   UNL A   1      37.443  29.674  28.903  1.00  0.00     0.198 A 
ATOM     56  C   UNL A   1      37.942  28.740  31.053  1.00  0.00     0.198 A 
ATOM     57  F   UNL A   1      40.074  27.859  31.486  1.00  0.00    -0.203 F 
ATOM     58  F   UNL A   1      36.598  30.318  28.087  1.00  0.00    -0.200 F 
ATOM     59  C   UNL A   1      37.053  29.371  30.200  1.00  0.00     0.200 A 
ATOM     60  F   UNL A   1      37.568  28.430  32.303  1.00  0.00    -0.200 F 
ATOM     61  F   UNL A   1      35.828  29.701  30.630  1.00  0.00    -0.200 F 
ENDBRANCH  27  51
BRANCH  39  62
ATOM     62  C   UNL A   1      45.691  32.191  29.440  1.00  0.00     0.064 A 
ATOM     63  C   UNL A   1      45.620  33.315  28.605  1.00  0.00     0.173 A 
ATOM     64  C   UNL A   1      46.076  32.375  30.775  1.00  0.00     0.173 A 
ATOM     65  F   UNL A   1      45.274  33.179  27.316  1.00  0.00    -0.203 F 
ATOM     66  C   UNL A   1      45.956  34.576  29.084  1.00  0.00     0.198 A 
ATOM     67  C   UNL A   1      46.377  33.643  31.258  1.00  0.00     0.198 A 
ATOM     68  F   UNL A   1      46.149  31.328  31.610  1.00  0.00    -0.203 F 
ATOM     69  F   UNL A   1      45.939  35.630  28.257  1.00  0.00    -0.200 F 
ATOM     70  C   UNL A   1      46.327  34.739  30.411  1.00  0.00     0.200 A 
ATOM     71  F   UNL A   1      46.722  33.802  32.543  1.00  0.00    -0.200 F 
ATOM     72  F   UNL A   1      46.646  35.957  30.871  1.00  0.00    -0.200 F 
ENDBRANCH  39  62
ENDBRANCH  13  14
ENDBRANCH   6   8
ENDBRANCH   5   6
ENDBRANCH   4   5
ENDBRANCH   3   4
ENDBRANCH   2   3
ENDBRANCH   1   2
BRANCH   1  73
ATOM     73  C   UNL A   1      36.565  22.842  24.140  1.00  0.00     0.261 C 
BRANCH  73  74
ATOM     74  O   UNL A   1      35.142  22.747  24.304  1.00  0.00    -0.463 OA
BRANCH  74  75
ATOM     75  C   UNL A   1      34.466  23.927  24.346  1.00  0.00     0.312 C 
ATOM     76  O   UNL A   1      34.738  24.870  25.081  1.00  0.00    -0.252 OA
BRANCH  75  77
ATOM     77  C   UNL A   1      33.329  23.953  23.363  1.00  0.00     0.147 C 
ATOM     78  C   UNL A   1      32.645  25.338  23.333  1.00  0.00     0.129 C 
ATOM     79  C   UNL A   1      32.136  23.025  23.640  1.00  0.00     0.157 C 
ATOM     80  C   UNL A   1      31.158  24.947  23.435  1.00  0.00     0.155 C 
ATOM     81  C   UNL A   1      31.428  23.285  24.946  1.00  0.00     0.004 C 
ATOM     82  O   UNL A   1      31.165  23.657  22.763  1.00  0.00    -0.365 OA
ATOM     83  C   UNL A   1      30.849  24.484  24.827  1.00  0.00     0.004 C 
BRANCH  78  84
ATOM     84  C   UNL A   1      32.944  26.101  22.059  1.00  0.00     0.231 C 
ATOM     85  O   UNL A   1      33.360  25.551  21.039  1.00  0.00    -0.274 OA
ATOM     86  N   UNL A   1      32.724  27.452  22.022  1.00  0.00    -0.326 N 
ATOM     87  H   UNL A   1      32.827  27.878  21.140  1.00  0.00     0.169 HD
BRANCH  86  88
ATOM     88  C   UNL A   1      32.373  28.308  23.072  1.00  0.00     0.041 A 
ATOM     89  C   UNL A   1      31.101  28.875  23.037  1.00  0.00     0.026 A 
ATOM     90  C   UNL A   1      33.217  28.564  24.155  1.00  0.00     0.039 A 
ATOM     91  C   UNL A   1      30.637  29.602  24.132  1.00  0.00     0.003 A 
ATOM     92  C   UNL A   1      32.761  29.284  25.267  1.00  0.00     0.058 A 
ATOM     93  C   UNL A   1      31.456  29.793  25.247  1.00  0.00     0.013 A 
BRANCH  92  94
ATOM     94  C   UNL A   1      33.653  29.507  26.464  1.00  0.00     0.416 C 
ATOM     95  F   UNL A   1      33.795  30.823  26.773  1.00  0.00    -0.166 F 
ATOM     96  F   UNL A   1      33.176  28.902  27.586  1.00  0.00    -0.166 F 
ATOM     97  F   UNL A   1      34.915  29.022  26.293  1.00  0.00    -0.166 F 
ENDBRANCH  92  94
ENDBRANCH  86  88
ENDBRANCH  78  84
ENDBRANCH  75  77
ENDBRANCH  74  75
ENDBRANCH  73  74
ENDBRANCH   1  73
TORSDOF 17
ENDMDL
MODEL 3
REMARK VINA RESULT:     -11.7      5.188     10.636
REMARK SMILES O=C(OCCOCCOC(=O)[C@@H]1[C@@H](C(=O)Nc2cccc(C(F)(F)F)c2)[C@@H]2C=C[C@H]1O2)c1ccc(-c2c3nc(c(-c4c(F)c(F)c(F)c(F)c4F)c4ccc([nH]4)c(-c4c(F)c(F)c(F)c(F)c4F)c4nc(c(-c5c(F)c(F)c(F)c(F)c5F)c5ccc2[nH]5)C=C4)C=C3)cc1
REMARK SMILES IDX 7 1 6 2 5 3 4 4 3 5 2 6 1 7 32 8 33 9 94 10 34 11 93 12
REMARK SMILES IDX 35 13 36 14 37 15 87 16 38 17 92 18 86 19 88 20 39 21 91 22
REMARK SMILES IDX 85 23 84 24 40 26 72 27 52 28 71 29 53 30 56 31 70 32 89 33
REMARK SMILES IDX 54 34 55 35 69 37 90 38 57 39 41 40 42 41 50 42 43 43 44 44
REMARK SMILES IDX 48 45 51 46 45 47 46 48 49 49 47 50 73 51 74 52 82 53 75 54
REMARK SMILES IDX 76 55 80 56 83 57 77 58 78 59 81 60 79 61 58 62 59 63 67 64
REMARK SMILES IDX 60 65 61 66 65 67 68 68 62 69 63 70 66 71 64 72 8 73 9 74
REMARK SMILES IDX 10 75 11 76 12 77 13 78 30 79 27 80 29 81 31 82 28 83 14 84
REMARK SMILES IDX 15 85 16 86 17 88 18 89 26 90 19 91 21 92 20 93 22 94 23 95
REMARK SMILES IDX 24 96 25 97
REMARK H PARENT 88 25 56 36 16 87
REMARK Flexibility Score: inf
ROOT
ATOM      1  C   UNL A   1      37.565  22.166  25.423  1.00  0.00     0.202 C 
ENDROOT
BRANCH   1   2
ATOM      2  O   UNL A   1      37.206  20.938  24.789  1.00  0.00    -0.374 OA
BRANCH   2   3
ATOM      3  C   UNL A   1      38.126  19.853  24.900  1.00  0.00     0.202 C 
BRANCH   3   4
ATOM      4  C   UNL A   1      39.235  19.949  25.958  1.00  0.00     0.261 C 
BRANCH   4   5
ATOM      5  O   UNL A   1      40.328  19.054  25.669  1.00  0.00    -0.460 OA
BRANCH   5   6
ATOM      6  C   UNL A   1      41.642  19.250  25.957  1.00  0.00     0.338 C 
ATOM      7  O   UNL A   1      42.416  18.298  25.966  1.00  0.00    -0.246 OA
BRANCH   6   8
ATOM      8  C   UNL A   1      42.173  20.607  26.261  1.00  0.00     0.060 A 
ATOM      9  C   UNL A   1      42.373  21.042  27.561  1.00  0.00     0.016 A 
ATOM     10  C   UNL A   1      42.537  21.473  25.224  1.00  0.00     0.016 A 
ATOM     11  C   UNL A   1      42.769  22.311  27.869  1.00  0.00     0.010 A 
ATOM     12  C   UNL A   1      43.053  22.746  25.519  1.00  0.00     0.010 A 
ATOM     13  C   UNL A   1      43.155  23.162  26.852  1.00  0.00    -0.014 A 
BRANCH  13  14
ATOM     14  C   UNL A   1      43.543  24.496  27.320  1.00  0.00     0.031 A 
ATOM     15  C   UNL A   1      44.902  24.991  26.954  1.00  0.00     0.074 A 
ATOM     16  C   UNL A   1      42.569  25.321  27.755  1.00  0.00     0.049 A 
ATOM     17  N   UNL A   1      45.451  26.145  27.205  1.00  0.00    -0.248 NA
ATOM     18  C   UNL A   1      45.751  24.074  26.172  1.00  0.00     0.031 C 
ATOM     19  C   UNL A   1      41.155  24.946  27.913  1.00  0.00     0.029 A 
ATOM     20  N   UNL A   1      42.586  26.656  28.046  1.00  0.00    -0.354 N 
ATOM     21  C   UNL A   1      46.720  26.078  26.653  1.00  0.00     0.074 A 
ATOM     22  C   UNL A   1      46.863  24.780  26.039  1.00  0.00     0.031 C 
ATOM     23  C   UNL A   1      40.438  26.038  28.215  1.00  0.00     0.029 A 
ATOM     24  C   UNL A   1      41.351  27.156  28.387  1.00  0.00     0.049 A 
ATOM     25  H   UNL A   1      43.402  27.206  28.014  1.00  0.00     0.167 HD
ATOM     26  C   UNL A   1      47.678  27.030  26.684  1.00  0.00     0.037 A 
ATOM     27  C   UNL A   1      41.020  28.377  28.842  1.00  0.00     0.037 A 
ATOM     28  C   UNL A   1      47.478  28.310  27.305  1.00  0.00     0.049 A 
ATOM     29  C   UNL A   1      42.137  29.374  28.983  1.00  0.00     0.074 A 
ATOM     30  C   UNL A   1      48.392  29.316  27.543  1.00  0.00     0.029 A 
ATOM     31  N   UNL A   1      46.249  28.758  27.778  1.00  0.00    -0.354 N 
ATOM     32  N   UNL A   1      43.393  29.259  28.618  1.00  0.00    -0.248 NA
ATOM     33  C   UNL A   1      41.808  30.650  29.623  1.00  0.00     0.031 C 
ATOM     34  C   UNL A   1      47.723  30.359  28.194  1.00  0.00     0.029 A 
ATOM     35  C   UNL A   1      46.381  30.025  28.316  1.00  0.00     0.049 A 
ATOM     36  H   UNL A   1      45.409  28.248  27.737  1.00  0.00     0.167 HD
ATOM     37  C   UNL A   1      44.008  30.445  28.985  1.00  0.00     0.074 A 
ATOM     38  C   UNL A   1      42.972  31.281  29.562  1.00  0.00     0.031 C 
ATOM     39  C   UNL A   1      45.310  30.810  28.877  1.00  0.00     0.037 A 
BRANCH  26  40
ATOM     40  C   UNL A   1      49.019  26.663  26.128  1.00  0.00     0.064 A 
ATOM     41  C   UNL A   1      50.000  26.027  26.902  1.00  0.00     0.173 A 
ATOM     42  C   UNL A   1      49.346  27.010  24.808  1.00  0.00     0.173 A 
ATOM     43  F   UNL A   1      49.751  25.713  28.183  1.00  0.00    -0.203 F 
ATOM     44  C   UNL A   1      51.267  25.770  26.381  1.00  0.00     0.198 A 
ATOM     45  C   UNL A   1      50.605  26.732  24.284  1.00  0.00     0.198 A 
ATOM     46  F   UNL A   1      48.451  27.641  24.034  1.00  0.00    -0.203 F 
ATOM     47  F   UNL A   1      52.209  25.216  27.156  1.00  0.00    -0.200 F 
ATOM     48  C   UNL A   1      51.567  26.119  25.072  1.00  0.00     0.200 A 
ATOM     49  F   UNL A   1      50.893  27.074  23.021  1.00  0.00    -0.200 F 
ATOM     50  F   UNL A   1      52.789  25.882  24.577  1.00  0.00    -0.200 F 
ENDBRANCH  26  40
BRANCH  27  51
ATOM     51  C   UNL A   1      39.633  28.671  29.298  1.00  0.00     0.064 A 
ATOM     52  C   UNL A   1      38.679  29.242  28.445  1.00  0.00     0.173 A 
ATOM     53  C   UNL A   1      39.241  28.422  30.626  1.00  0.00     0.173 A 
ATOM     54  F   UNL A   1      39.000  29.525  27.175  1.00  0.00    -0.203 F 
ATOM     55  C   UNL A   1      37.404  29.574  28.906  1.00  0.00     0.198 A 
ATOM     56  C   UNL A   1      37.957  28.717  31.075  1.00  0.00     0.198 A 
ATOM     57  F   UNL A   1      40.111  27.886  31.495  1.00  0.00    -0.203 F 
ATOM     58  F   UNL A   1      36.533  30.178  28.086  1.00  0.00    -0.200 F 
ATOM     59  C   UNL A   1      37.042  29.306  30.218  1.00  0.00     0.200 A 
ATOM     60  F   UNL A   1      37.611  28.440  32.340  1.00  0.00    -0.200 F 
ATOM     61  F   UNL A   1      35.819  29.629  30.660  1.00  0.00    -0.200 F 
ENDBRANCH  27  51
BRANCH  39  62
ATOM     62  C   UNL A   1      45.655  32.177  29.379  1.00  0.00     0.064 A 
ATOM     63  C   UNL A   1      46.087  32.383  30.696  1.00  0.00     0.173 A 
ATOM     64  C   UNL A   1      45.573  33.283  28.522  1.00  0.00     0.173 A 
ATOM     65  F   UNL A   1      46.161  31.353  31.553  1.00  0.00    -0.203 F 
ATOM     66  C   UNL A   1      46.396  33.661  31.149  1.00  0.00     0.198 A 
ATOM     67  C   UNL A   1      45.916  34.554  28.970  1.00  0.00     0.198 A 
ATOM     68  F   UNL A   1      45.171  33.129  27.252  1.00  0.00    -0.203 F 
ATOM     69  F   UNL A   1      46.751  33.848  32.427  1.00  0.00    -0.200 F 
ATOM     70  C   UNL A   1      46.317  34.743  30.284  1.00  0.00     0.200 A 
ATOM     71  F   UNL A   1      45.852  35.596  28.131  1.00  0.00    -0.200 F 
ATOM     72  F   UNL A   1      46.619  35.973  30.721  1.00  0.00    -0.200 F 
ENDBRANCH  39  62
ENDBRANCH  13  14
ENDBRANCH   6   8
ENDBRANCH   5   6
ENDBRANCH   4   5
ENDBRANCH   3   4
ENDBRANCH   2   3
ENDBRANCH   1   2
BRANCH   1  73
ATOM     73  C   UNL A   1      36.694  23.292  24.876  1.00  0.00     0.261 C 
BRANCH  73  74
ATOM     74  O   UNL A   1      35.803  23.707  25.923  1.00  0.00    -0.463 OA
BRANCH  74  75
ATOM     75  C   UNL A   1      34.612  24.228  25.521  1.00  0.00     0.312 C 
ATOM     76  O   UNL A   1      34.325  25.419  25.532  1.00  0.00    -0.252 OA
BRANCH  75  77
ATOM     77  C   UNL A   1      33.669  23.159  25.042  1.00  0.00     0.147 C 
ATOM     78  C   UNL A   1      32.435  23.772  24.343  1.00  0.00     0.129 C 
ATOM     79  C   UNL A   1      33.011  22.269  26.108  1.00  0.00     0.157 C 
ATOM     80  C   UNL A   1      31.286  23.002  25.022  1.00  0.00     0.155 C 
ATOM     81  C   UNL A   1      32.161  23.012  27.108  1.00  0.00     0.004 C 
ATOM     82  O   UNL A   1      31.932  21.729  25.299  1.00  0.00    -0.365 OA
ATOM     83  C   UNL A   1      31.112  23.487  26.430  1.00  0.00     0.004 C 
BRANCH  78  84
ATOM     84  C   UNL A   1      32.454  23.555  22.844  1.00  0.00     0.231 C 
ATOM     85  O   UNL A   1      32.589  22.441  22.337  1.00  0.00    -0.274 OA
ATOM     86  N   UNL A   1      32.293  24.630  22.011  1.00  0.00    -0.326 N 
ATOM     87  H   UNL A   1      32.201  24.418  21.054  1.00  0.00     0.169 HD
BRANCH  86  88
ATOM     88  C   UNL A   1      32.243  25.989  22.340  1.00  0.00     0.041 A 
ATOM     89  C   UNL A   1      33.446  26.690  22.350  1.00  0.00     0.026 A 
ATOM     90  C   UNL A   1      31.046  26.661  22.602  1.00  0.00     0.039 A 
ATOM     91  C   UNL A   1      33.439  28.074  22.510  1.00  0.00     0.003 A 
ATOM     92  C   UNL A   1      31.022  28.053  22.753  1.00  0.00     0.058 A 
ATOM     93  C   UNL A   1      32.234  28.754  22.695  1.00  0.00     0.013 A 
BRANCH  92  94
ATOM     94  C   UNL A   1      29.722  28.785  22.973  1.00  0.00     0.416 C 
ATOM     95  F   UNL A   1      28.740  27.976  23.452  1.00  0.00    -0.166 F 
ATOM     96  F   UNL A   1      29.845  29.804  23.869  1.00  0.00    -0.166 F 
ATOM     97  F   UNL A   1      29.223  29.352  21.839  1.00  0.00    -0.166 F 
ENDBRANCH  92  94
ENDBRANCH  86  88
ENDBRANCH  78  84
ENDBRANCH  75  77
ENDBRANCH  74  75
ENDBRANCH  73  74
ENDBRANCH   1  73
TORSDOF 17
ENDMDL
