MODEL 1
REMARK VINA RESULT:     -12.8      0.000      0.000
REMARK SMILES COc1ccc([C@H]2CC(c3ccc(S(C)(=O)=O)cc3)=NN2c2ccc(C(=O)OCCOCCOC(=O)c3ccc(-c4c5nc(c(-c6c(F)c(F)c(F)c(F)c6F)c6ccc([nH]6)c(-c6c(F)c(F)c(F)c(F)c6F)c6nc(c(-c7c(F)c(F)c(F)c(F)c7F)c7ccc4[nH]7)C=C6)C=C5)cc3)cc2)cc1
REMARK SMILES IDX 30 1 29 2 28 3 26 4 27 5 25 6 22 7 23 8 101 9 24 10 100 11
REMARK SMILES IDX 21 12 7 13 8 14 9 15 20 16 6 17 3 18 4 19 103 20 5 21 102 22
REMARK SMILES IDX 2 23 1 24 10 25 11 26 19 27 12 28 18 29 13 30 14 31 15 32
REMARK SMILES IDX 16 33 17 34 31 35 32 36 33 37 34 38 35 39 36 40 37 41 38 42
REMARK SMILES IDX 99 43 39 44 98 45 40 46 41 47 42 48 92 49 43 50 97 51 91 52
REMARK SMILES IDX 93 53 44 54 96 55 90 56 89 57 45 59 77 60 57 61 76 62 58 63
REMARK SMILES IDX 61 64 75 65 94 66 59 67 60 68 74 70 95 71 62 72 46 73 47 74
REMARK SMILES IDX 55 75 48 76 49 77 53 78 56 79 50 80 51 81 54 82 52 83 78 84
REMARK SMILES IDX 79 85 87 86 80 87 81 88 85 89 88 90 82 91 83 92 86 93 84 94
REMARK SMILES IDX 63 95 64 96 72 97 65 98 66 99 70 100 73 101 67 102 68 103
REMARK SMILES IDX 71 104 69 105
REMARK H PARENT 93 58 61 69
REMARK Flexibility Score: inf
ROOT
ATOM      1  C   UNL A   1      41.938  20.270  26.190  1.00  0.00     0.202 C 
ENDROOT
BRANCH   1   2
ATOM      2  C   UNL A   1      40.660  20.738  26.894  1.00  0.00     0.261 C 
BRANCH   2   3
ATOM      3  O   UNL A   1      39.742  21.342  25.967  1.00  0.00    -0.460 OA
BRANCH   3   4
ATOM      4  C   UNL A   1      39.286  22.563  26.338  1.00  0.00     0.338 C 
ATOM      5  O   UNL A   1      39.912  23.427  26.934  1.00  0.00    -0.246 OA
BRANCH   4   6
ATOM      6  C   UNL A   1      37.934  22.798  25.788  1.00  0.00     0.060 A 
ATOM      7  C   UNL A   1      35.456  23.281  24.541  1.00  0.00     0.060 A 
ATOM      8  C   UNL A   1      36.348  22.334  24.021  1.00  0.00     0.029 A 
ATOM      9  C   UNL A   1      35.800  23.926  25.741  1.00  0.00     0.029 A 
ATOM     10  C   UNL A   1      37.587  22.114  24.620  1.00  0.00     0.018 A 
ATOM     11  C   UNL A   1      37.022  23.677  26.378  1.00  0.00     0.018 A 
BRANCH   7  12
ATOM     12  N   UNL A   1      34.296  23.608  23.846  1.00  0.00    -0.257 N 
ATOM     13  C   UNL A   1      33.515  22.628  23.084  1.00  0.00     0.144 C 
ATOM     14  C   UNL A   1      32.257  23.417  22.706  1.00  0.00     0.091 C 
ATOM     15  C   UNL A   1      32.538  24.717  23.402  1.00  0.00     0.071 C 
ATOM     16  N   UNL A   1      33.661  24.796  24.045  1.00  0.00    -0.176 NA
BRANCH  13  17
ATOM     17  C   UNL A   1      33.191  21.374  23.885  1.00  0.00    -0.023 A 
ATOM     18  C   UNL A   1      32.532  19.043  25.326  1.00  0.00     0.118 A 
ATOM     19  C   UNL A   1      32.487  19.044  23.933  1.00  0.00     0.047 A 
ATOM     20  C   UNL A   1      32.957  20.183  26.004  1.00  0.00     0.047 A 
ATOM     21  C   UNL A   1      32.802  20.202  23.218  1.00  0.00     0.010 A 
ATOM     22  C   UNL A   1      33.287  21.339  25.289  1.00  0.00     0.010 A 
BRANCH  18  23
ATOM     23  O   UNL A   1      32.204  17.865  25.938  1.00  0.00    -0.497 OA
ATOM     24  C   UNL A   1      32.514  16.709  25.163  1.00  0.00     0.278 C 
ENDBRANCH  18  23
ENDBRANCH  13  17
BRANCH  15  25
ATOM     25  C   UNL A   1      31.600  25.838  23.282  1.00  0.00    -0.002 A 
ATOM     26  C   UNL A   1      32.053  27.027  22.701  1.00  0.00     0.011 A 
ATOM     27  C   UNL A   1      30.275  25.702  23.702  1.00  0.00     0.011 A 
ATOM     28  C   UNL A   1      31.165  28.087  22.514  1.00  0.00     0.021 A 
ATOM     29  C   UNL A   1      29.391  26.772  23.540  1.00  0.00     0.021 A 
ATOM     30  C   UNL A   1      29.841  27.956  22.944  1.00  0.00     0.067 A 
BRANCH  30  31
ATOM     31  S   UNL A   1      28.711  29.305  22.686  1.00  0.00     0.175 S 
ATOM     32  C   UNL A   1      29.363  30.621  23.682  1.00  0.00     0.163 C 
ATOM     33  O   UNL A   1      28.827  29.684  21.291  1.00  0.00    -0.224 OA
ATOM     34  O   UNL A   1      27.433  28.920  23.252  1.00  0.00    -0.224 OA
ENDBRANCH  30  31
ENDBRANCH  15  25
ENDBRANCH   7  12
ENDBRANCH   4   6
ENDBRANCH   3   4
ENDBRANCH   2   3
ENDBRANCH   1   2
BRANCH   1  35
ATOM     35  O   UNL A   1      42.479  21.170  25.223  1.00  0.00    -0.374 OA
BRANCH  35  36
ATOM     36  C   UNL A   1      43.614  21.940  25.628  1.00  0.00     0.202 C 
BRANCH  36  37
ATOM     37  C   UNL A   1      44.224  22.836  24.543  1.00  0.00     0.261 C 
BRANCH  37  38
ATOM     38  O   UNL A   1      43.670  24.164  24.586  1.00  0.00    -0.460 OA
BRANCH  38  39
ATOM     39  C   UNL A   1      44.446  25.090  25.192  1.00  0.00     0.338 C 
ATOM     40  O   UNL A   1      45.584  25.424  24.888  1.00  0.00    -0.246 OA
BRANCH  39  41
ATOM     41  C   UNL A   1      43.665  25.808  26.217  1.00  0.00     0.060 A 
ATOM     42  C   UNL A   1      43.867  27.190  26.334  1.00  0.00     0.016 A 
ATOM     43  C   UNL A   1      42.798  25.143  27.087  1.00  0.00     0.016 A 
ATOM     44  C   UNL A   1      43.245  27.903  27.356  1.00  0.00     0.010 A 
ATOM     45  C   UNL A   1      42.180  25.860  28.119  1.00  0.00     0.010 A 
ATOM     46  C   UNL A   1      42.429  27.235  28.279  1.00  0.00    -0.014 A 
BRANCH  46  47
ATOM     47  C   UNL A   1      41.958  27.949  29.490  1.00  0.00     0.031 A 
ATOM     48  C   UNL A   1      40.685  28.747  29.415  1.00  0.00     0.074 A 
ATOM     49  C   UNL A   1      42.633  27.862  30.649  1.00  0.00     0.049 A 
ATOM     50  N   UNL A   1      40.101  29.471  30.336  1.00  0.00    -0.248 NA
ATOM     51  C   UNL A   1      39.975  28.726  28.126  1.00  0.00     0.031 C 
ATOM     52  C   UNL A   1      43.853  27.088  30.858  1.00  0.00     0.029 A 
ATOM     53  N   UNL A   1      42.385  28.440  31.869  1.00  0.00    -0.354 N 
ATOM     54  C   UNL A   1      38.959  29.989  29.740  1.00  0.00     0.074 A 
ATOM     55  C   UNL A   1      38.948  29.525  28.369  1.00  0.00     0.031 C 
ATOM     56  C   UNL A   1      44.255  27.245  32.132  1.00  0.00     0.029 A 
ATOM     57  C   UNL A   1      43.336  28.154  32.816  1.00  0.00     0.049 A 
ATOM     58  H   UNL A   1      41.600  29.007  32.048  1.00  0.00     0.167 HD
ATOM     59  C   UNL A   1      38.000  30.772  30.290  1.00  0.00     0.037 A 
ATOM     60  C   UNL A   1      43.459  28.592  34.084  1.00  0.00     0.037 A 
ATOM     61  C   UNL A   1      38.011  31.233  31.653  1.00  0.00     0.049 A 
ATOM     62  C   UNL A   1      42.420  29.526  34.649  1.00  0.00     0.074 A 
ATOM     63  C   UNL A   1      37.080  32.023  32.305  1.00  0.00     0.029 A 
ATOM     64  N   UNL A   1      39.011  30.951  32.571  1.00  0.00    -0.354 N 
ATOM     65  N   UNL A   1      41.332  29.994  34.085  1.00  0.00    -0.248 NA
ATOM     66  C   UNL A   1      42.625  29.990  36.028  1.00  0.00     0.031 C 
ATOM     67  C   UNL A   1      37.539  32.254  33.606  1.00  0.00     0.029 A 
ATOM     68  C   UNL A   1      38.731  31.570  33.779  1.00  0.00     0.049 A 
ATOM     69  H   UNL A   1      39.802  30.394  32.392  1.00  0.00     0.167 HD
ATOM     70  C   UNL A   1      40.710  30.780  35.047  1.00  0.00     0.074 A 
ATOM     71  C   UNL A   1      41.536  30.718  36.235  1.00  0.00     0.031 C 
ATOM     72  C   UNL A   1      39.558  31.489  34.955  1.00  0.00     0.037 A 
BRANCH  59  73
ATOM     73  C   UNL A   1      36.864  31.196  29.406  1.00  0.00     0.064 A 
ATOM     74  C   UNL A   1      36.804  32.484  28.853  1.00  0.00     0.173 A 
ATOM     75  C   UNL A   1      35.840  30.293  29.081  1.00  0.00     0.173 A 
ATOM     76  F   UNL A   1      37.750  33.389  29.145  1.00  0.00    -0.203 F 
ATOM     77  C   UNL A   1      35.747  32.859  28.026  1.00  0.00     0.198 A 
ATOM     78  C   UNL A   1      34.801  30.663  28.233  1.00  0.00     0.198 A 
ATOM     79  F   UNL A   1      35.854  29.048  29.582  1.00  0.00    -0.203 F 
ATOM     80  F   UNL A   1      35.688  34.108  27.543  1.00  0.00    -0.200 F 
ATOM     81  C   UNL A   1      34.751  31.947  27.712  1.00  0.00     0.200 A 
ATOM     82  F   UNL A   1      33.845  29.777  27.922  1.00  0.00    -0.200 F 
ATOM     83  F   UNL A   1      33.740  32.308  26.911  1.00  0.00    -0.200 F 
ENDBRANCH  59  73
BRANCH  60  84
ATOM     84  C   UNL A   1      44.616  28.162  34.911  1.00  0.00     0.064 A 
ATOM     85  C   UNL A   1      44.545  27.016  35.715  1.00  0.00     0.173 A 
ATOM     86  C   UNL A   1      45.807  28.904  34.935  1.00  0.00     0.173 A 
ATOM     87  F   UNL A   1      43.417  26.290  35.747  1.00  0.00    -0.203 F 
ATOM     88  C   UNL A   1      45.614  26.638  36.525  1.00  0.00     0.198 A 
ATOM     89  C   UNL A   1      46.884  28.509  35.725  1.00  0.00     0.198 A 
ATOM     90  F   UNL A   1      45.924  30.010  34.188  1.00  0.00    -0.203 F 
ATOM     91  F   UNL A   1      45.500  25.566  37.321  1.00  0.00    -0.200 F 
ATOM     92  C   UNL A   1      46.784  27.381  36.525  1.00  0.00     0.200 A 
ATOM     93  F   UNL A   1      48.017  29.225  35.715  1.00  0.00    -0.200 F 
ATOM     94  F   UNL A   1      47.811  27.018  37.306  1.00  0.00    -0.200 F 
ENDBRANCH  60  84
BRANCH  72  95
ATOM     95  C   UNL A   1      39.099  32.222  36.183  1.00  0.00     0.064 A 
ATOM     96  C   UNL A   1      39.484  33.547  36.435  1.00  0.00     0.173 A 
ATOM     97  C   UNL A   1      38.231  31.604  37.095  1.00  0.00     0.173 A 
ATOM     98  F   UNL A   1      40.325  34.177  35.602  1.00  0.00    -0.203 F 
ATOM     99  C   UNL A   1      39.033  34.218  37.570  1.00  0.00     0.198 A 
ATOM    100  C   UNL A   1      37.760  32.287  38.212  1.00  0.00     0.198 A 
ATOM    101  F   UNL A   1      37.828  30.340  36.895  1.00  0.00    -0.203 F 
ATOM    102  F   UNL A   1      39.448  35.469  37.815  1.00  0.00    -0.200 F 
ATOM    103  C   UNL A   1      38.167  33.591  38.453  1.00  0.00     0.200 A 
ATOM    104  F   UNL A   1      36.913  31.684  39.058  1.00  0.00    -0.200 F 
ATOM    105  F   UNL A   1      37.729  34.241  39.539  1.00  0.00    -0.200 F 
ENDBRANCH  72  95
ENDBRANCH  46  47
ENDBRANCH  39  41
ENDBRANCH  38  39
ENDBRANCH  37  38
ENDBRANCH  36  37
ENDBRANCH  35  36
ENDBRANCH   1  35
TORSDOF 19
ENDMDL
MODEL 2
REMARK VINA RESULT:     -12.7      3.688     10.210
REMARK SMILES COc1ccc([C@H]2CC(c3ccc(S(C)(=O)=O)cc3)=NN2c2ccc(C(=O)OCCOCCOC(=O)c3ccc(-c4c5nc(c(-c6c(F)c(F)c(F)c(F)c6F)c6ccc([nH]6)c(-c6c(F)c(F)c(F)c(F)c6F)c6nc(c(-c7c(F)c(F)c(F)c(F)c7F)c7ccc4[nH]7)C=C6)C=C5)cc3)cc2)cc1
REMARK SMILES IDX 30 1 29 2 28 3 26 4 27 5 25 6 22 7 23 8 101 9 24 10 100 11
REMARK SMILES IDX 21 12 7 13 8 14 9 15 20 16 6 17 3 18 4 19 103 20 5 21 102 22
REMARK SMILES IDX 2 23 1 24 10 25 11 26 19 27 12 28 18 29 13 30 14 31 15 32
REMARK SMILES IDX 16 33 17 34 31 35 32 36 33 37 34 38 35 39 36 40 37 41 38 42
REMARK SMILES IDX 99 43 39 44 98 45 40 46 41 47 42 48 92 49 43 50 97 51 91 52
REMARK SMILES IDX 93 53 44 54 96 55 90 56 89 57 45 59 77 60 57 61 76 62 58 63
REMARK SMILES IDX 61 64 75 65 94 66 59 67 60 68 74 70 95 71 62 72 46 73 47 74
REMARK SMILES IDX 55 75 48 76 49 77 53 78 56 79 50 80 51 81 54 82 52 83 78 84
REMARK SMILES IDX 79 85 87 86 80 87 81 88 85 89 88 90 82 91 83 92 86 93 84 94
REMARK SMILES IDX 63 95 64 96 72 97 65 98 66 99 70 100 73 101 67 102 68 103
REMARK SMILES IDX 71 104 69 105
REMARK H PARENT 93 58 61 69
REMARK Flexibility Score: inf
ROOT
ATOM      1  C   UNL A   1      35.355  32.844  29.520  1.00  0.00     0.202 C 
ENDROOT
BRANCH   1   2
ATOM      2  C   UNL A   1      35.679  32.007  28.280  1.00  0.00     0.261 C 
BRANCH   2   3
ATOM      3  O   UNL A   1      34.908  30.794  28.249  1.00  0.00    -0.460 OA
BRANCH   3   4
ATOM      4  C   UNL A   1      33.757  30.874  27.538  1.00  0.00     0.338 C 
ATOM      5  O   UNL A   1      33.259  31.885  27.062  1.00  0.00    -0.246 OA
BRANCH   4   6
ATOM      6  C   UNL A   1      33.221  29.522  27.267  1.00  0.00     0.060 A 
ATOM      7  C   UNL A   1      32.263  26.978  26.535  1.00  0.00     0.060 A 
ATOM      8  C   UNL A   1      33.569  27.370  26.219  1.00  0.00     0.029 A 
ATOM      9  C   UNL A   1      31.472  27.859  27.293  1.00  0.00     0.029 A 
ATOM     10  C   UNL A   1      34.037  28.640  26.554  1.00  0.00     0.018 A 
ATOM     11  C   UNL A   1      31.949  29.119  27.677  1.00  0.00     0.018 A 
BRANCH   7  12
ATOM     12  N   UNL A   1      31.755  25.775  26.055  1.00  0.00    -0.257 N 
ATOM     13  C   UNL A   1      30.425  25.652  25.450  1.00  0.00     0.144 C 
ATOM     14  C   UNL A   1      30.433  24.221  24.900  1.00  0.00     0.091 C 
ATOM     15  C   UNL A   1      31.834  23.810  25.250  1.00  0.00     0.071 C 
ATOM     16  N   UNL A   1      32.556  24.691  25.869  1.00  0.00    -0.176 NA
BRANCH  13  17
ATOM     17  C   UNL A   1      30.169  26.687  24.361  1.00  0.00    -0.023 A 
ATOM     18  C   UNL A   1      29.640  28.560  22.323  1.00  0.00     0.118 A 
ATOM     19  C   UNL A   1      28.598  28.049  23.095  1.00  0.00     0.047 A 
ATOM     20  C   UNL A   1      30.953  28.182  22.596  1.00  0.00     0.047 A 
ATOM     21  C   UNL A   1      28.858  27.112  24.098  1.00  0.00     0.010 A 
ATOM     22  C   UNL A   1      31.216  27.255  23.611  1.00  0.00     0.010 A 
BRANCH  18  23
ATOM     23  O   UNL A   1      29.289  29.469  21.363  1.00  0.00    -0.497 OA
ATOM     24  C   UNL A   1      28.201  30.310  21.741  1.00  0.00     0.278 C 
ENDBRANCH  18  23
ENDBRANCH  13  17
BRANCH  15  25
ATOM     25  C   UNL A   1      32.302  22.452  24.951  1.00  0.00    -0.002 A 
ATOM     26  C   UNL A   1      32.788  21.669  26.003  1.00  0.00     0.011 A 
ATOM     27  C   UNL A   1      32.223  21.945  23.653  1.00  0.00     0.011 A 
ATOM     28  C   UNL A   1      33.179  20.352  25.759  1.00  0.00     0.021 A 
ATOM     29  C   UNL A   1      32.639  20.635  23.402  1.00  0.00     0.021 A 
ATOM     30  C   UNL A   1      33.111  19.846  24.457  1.00  0.00     0.067 A 
BRANCH  30  31
ATOM     31  S   UNL A   1      33.593  18.160  24.158  1.00  0.00     0.175 S 
ATOM     32  C   UNL A   1      32.800  17.241  25.453  1.00  0.00     0.163 C 
ATOM     33  O   UNL A   1      33.000  17.775  22.893  1.00  0.00    -0.224 OA
ATOM     34  O   UNL A   1      35.025  18.070  24.372  1.00  0.00    -0.224 OA
ENDBRANCH  30  31
ENDBRANCH  15  25
ENDBRANCH   7  12
ENDBRANCH   4   6
ENDBRANCH   3   4
ENDBRANCH   2   3
ENDBRANCH   1   2
BRANCH   1  35
ATOM     35  O   UNL A   1      34.050  33.422  29.555  1.00  0.00    -0.374 OA
BRANCH  35  36
ATOM     36  C   UNL A   1      33.902  34.707  28.945  1.00  0.00     0.202 C 
BRANCH  36  37
ATOM     37  C   UNL A   1      33.022  35.703  29.710  1.00  0.00     0.261 C 
BRANCH  37  38
ATOM     38  O   UNL A   1      32.458  35.106  30.893  1.00  0.00    -0.460 OA
BRANCH  38  39
ATOM     39  C   UNL A   1      32.799  35.705  32.056  1.00  0.00     0.338 C 
ATOM     40  O   UNL A   1      32.198  36.598  32.639  1.00  0.00    -0.246 OA
BRANCH  39  41
ATOM     41  C   UNL A   1      33.954  35.013  32.658  1.00  0.00     0.060 A 
ATOM     42  C   UNL A   1      35.198  35.653  32.594  1.00  0.00     0.016 A 
ATOM     43  C   UNL A   1      33.841  33.738  33.220  1.00  0.00     0.016 A 
ATOM     44  C   UNL A   1      36.344  35.001  33.043  1.00  0.00     0.010 A 
ATOM     45  C   UNL A   1      34.995  33.081  33.663  1.00  0.00     0.010 A 
ATOM     46  C   UNL A   1      36.255  33.695  33.543  1.00  0.00    -0.014 A 
BRANCH  46  47
ATOM     47  C   UNL A   1      37.495  32.925  33.802  1.00  0.00     0.031 A 
ATOM     48  C   UNL A   1      38.264  33.188  35.069  1.00  0.00     0.074 A 
ATOM     49  C   UNL A   1      37.915  31.983  32.941  1.00  0.00     0.049 A 
ATOM     50  N   UNL A   1      39.383  32.656  35.488  1.00  0.00    -0.248 NA
ATOM     51  C   UNL A   1      37.690  34.185  35.986  1.00  0.00     0.031 C 
ATOM     52  C   UNL A   1      37.237  31.607  31.704  1.00  0.00     0.029 A 
ATOM     53  N   UNL A   1      39.022  31.171  32.979  1.00  0.00    -0.354 N 
ATOM     54  C   UNL A   1      39.647  33.253  36.714  1.00  0.00     0.074 A 
ATOM     55  C   UNL A   1      38.591  34.210  36.957  1.00  0.00     0.031 C 
ATOM     56  C   UNL A   1      37.946  30.643  31.093  1.00  0.00     0.029 A 
ATOM     57  C   UNL A   1      39.143  30.356  31.882  1.00  0.00     0.049 A 
ATOM     58  H   UNL A   1      39.668  31.175  33.722  1.00  0.00     0.167 HD
ATOM     59  C   UNL A   1      40.674  33.015  37.565  1.00  0.00     0.037 A 
ATOM     60  C   UNL A   1      40.120  29.491  31.547  1.00  0.00     0.037 A 
ATOM     61  C   UNL A   1      41.725  32.063  37.324  1.00  0.00     0.049 A 
ATOM     62  C   UNL A   1      41.292  29.301  32.475  1.00  0.00     0.074 A 
ATOM     63  C   UNL A   1      42.804  31.743  38.131  1.00  0.00     0.029 A 
ATOM     64  N   UNL A   1      41.833  31.280  36.184  1.00  0.00    -0.354 N 
ATOM     65  N   UNL A   1      41.524  29.854  33.641  1.00  0.00    -0.248 NA
ATOM     66  C   UNL A   1      42.338  28.365  32.040  1.00  0.00     0.031 C 
ATOM     67  C   UNL A   1      43.588  30.800  37.459  1.00  0.00     0.029 A 
ATOM     68  C   UNL A   1      42.973  30.496  36.256  1.00  0.00     0.049 A 
ATOM     69  H   UNL A   1      41.194  31.283  35.435  1.00  0.00     0.167 HD
ATOM     70  C   UNL A   1      42.721  29.311  34.091  1.00  0.00     0.074 A 
ATOM     71  C   UNL A   1      43.164  28.377  33.077  1.00  0.00     0.031 C 
ATOM     72  C   UNL A   1      43.393  29.563  35.241  1.00  0.00     0.037 A 
BRANCH  59  73
ATOM     73  C   UNL A   1      40.718  33.815  38.834  1.00  0.00     0.064 A 
ATOM     74  C   UNL A   1      40.005  33.424  39.976  1.00  0.00     0.173 A 
ATOM     75  C   UNL A   1      41.512  34.970  38.918  1.00  0.00     0.173 A 
ATOM     76  F   UNL A   1      39.221  32.336  39.942  1.00  0.00    -0.203 F 
ATOM     77  C   UNL A   1      40.066  34.173  41.149  1.00  0.00     0.198 A 
ATOM     78  C   UNL A   1      41.591  35.700  40.100  1.00  0.00     0.198 A 
ATOM     79  F   UNL A   1      42.217  35.384  37.854  1.00  0.00    -0.203 F 
ATOM     80  F   UNL A   1      39.341  33.803  42.215  1.00  0.00    -0.200 F 
ATOM     81  C   UNL A   1      40.862  35.306  41.212  1.00  0.00     0.200 A 
ATOM     82  F   UNL A   1      42.370  36.789  40.162  1.00  0.00    -0.200 F 
ATOM     83  F   UNL A   1      40.924  36.020  42.343  1.00  0.00    -0.200 F 
ENDBRANCH  59  73
BRANCH  60  84
ATOM     84  C   UNL A   1      40.042  28.739  30.267  1.00  0.00     0.064 A 
ATOM     85  C   UNL A   1      39.428  27.482  30.203  1.00  0.00     0.173 A 
ATOM     86  C   UNL A   1      40.604  29.253  29.088  1.00  0.00     0.173 A 
ATOM     87  F   UNL A   1      38.902  26.937  31.310  1.00  0.00    -0.203 F 
ATOM     88  C   UNL A   1      39.395  26.757  29.013  1.00  0.00     0.198 A 
ATOM     89  C   UNL A   1      40.545  28.539  27.894  1.00  0.00     0.198 A 
ATOM     90  F   UNL A   1      41.207  30.450  29.098  1.00  0.00    -0.203 F 
ATOM     91  F   UNL A   1      38.844  25.535  28.992  1.00  0.00    -0.200 F 
ATOM     92  C   UNL A   1      39.948  27.288  27.858  1.00  0.00     0.200 A 
ATOM     93  F   UNL A   1      41.074  29.061  26.778  1.00  0.00    -0.200 F 
ATOM     94  F   UNL A   1      39.917  26.590  26.715  1.00  0.00    -0.200 F 
ENDBRANCH  60  84
BRANCH  72  95
ATOM     95  C   UNL A   1      44.657  28.790  35.486  1.00  0.00     0.064 A 
ATOM     96  C   UNL A   1      44.643  27.538  36.118  1.00  0.00     0.173 A 
ATOM     97  C   UNL A   1      45.891  29.290  35.044  1.00  0.00     0.173 A 
ATOM     98  F   UNL A   1      43.491  27.024  36.573  1.00  0.00    -0.203 F 
ATOM     99  C   UNL A   1      45.824  26.826  36.320  1.00  0.00     0.198 A 
ATOM    100  C   UNL A   1      47.065  28.563  35.221  1.00  0.00     0.198 A 
ATOM    101  F   UNL A   1      45.957  30.479  34.427  1.00  0.00    -0.203 F 
ATOM    102  F   UNL A   1      45.793  25.653  36.967  1.00  0.00    -0.200 F 
ATOM    103  C   UNL A   1      47.031  27.335  35.866  1.00  0.00     0.200 A 
ATOM    104  F   UNL A   1      48.229  29.050  34.771  1.00  0.00    -0.200 F 
ATOM    105  F   UNL A   1      48.164  26.645  36.054  1.00  0.00    -0.200 F 
ENDBRANCH  72  95
ENDBRANCH  46  47
ENDBRANCH  39  41
ENDBRANCH  38  39
ENDBRANCH  37  38
ENDBRANCH  36  37
ENDBRANCH  35  36
ENDBRANCH   1  35
TORSDOF 19
ENDMDL
MODEL 3
REMARK VINA RESULT:     -12.5      5.327     10.824
REMARK SMILES COc1ccc([C@H]2CC(c3ccc(S(C)(=O)=O)cc3)=NN2c2ccc(C(=O)OCCOCCOC(=O)c3ccc(-c4c5nc(c(-c6c(F)c(F)c(F)c(F)c6F)c6ccc([nH]6)c(-c6c(F)c(F)c(F)c(F)c6F)c6nc(c(-c7c(F)c(F)c(F)c(F)c7F)c7ccc4[nH]7)C=C6)C=C5)cc3)cc2)cc1
REMARK SMILES IDX 30 1 29 2 28 3 26 4 27 5 25 6 22 7 23 8 101 9 24 10 100 11
REMARK SMILES IDX 21 12 7 13 8 14 9 15 20 16 6 17 3 18 4 19 103 20 5 21 102 22
REMARK SMILES IDX 2 23 1 24 10 25 11 26 19 27 12 28 18 29 13 30 14 31 15 32
REMARK SMILES IDX 16 33 17 34 31 35 32 36 33 37 34 38 35 39 36 40 37 41 38 42
REMARK SMILES IDX 99 43 39 44 98 45 40 46 41 47 42 48 92 49 43 50 97 51 91 52
REMARK SMILES IDX 93 53 44 54 96 55 90 56 89 57 45 59 77 60 57 61 76 62 58 63
REMARK SMILES IDX 61 64 75 65 94 66 59 67 60 68 74 70 95 71 62 72 46 73 47 74
REMARK SMILES IDX 55 75 48 76 49 77 53 78 56 79 50 80 51 81 54 82 52 83 78 84
REMARK SMILES IDX 79 85 87 86 80 87 81 88 85 89 88 90 82 91 83 92 86 93 84 94
REMARK SMILES IDX 63 95 64 96 72 97 65 98 66 99 70 100 73 101 67 102 68 103
REMARK SMILES IDX 71 104 69 105
REMARK H PARENT 93 58 61 69
REMARK Flexibility Score: inf
ROOT
ATOM      1  C   UNL A   1      35.359  31.986  29.838  1.00  0.00     0.202 C 
ENDROOT
BRANCH   1   2
ATOM      2  C   UNL A   1      35.604  32.104  28.331  1.00  0.00     0.261 C 
BRANCH   2   3
ATOM      3  O   UNL A   1      35.115  30.949  27.628  1.00  0.00    -0.460 OA
BRANCH   3   4
ATOM      4  C   UNL A   1      33.779  30.950  27.400  1.00  0.00     0.338 C 
ATOM      5  O   UNL A   1      33.062  31.930  27.254  1.00  0.00    -0.246 OA
BRANCH   4   6
ATOM      6  C   UNL A   1      33.288  29.570  27.197  1.00  0.00     0.060 A 
ATOM      7  C   UNL A   1      32.416  26.962  26.592  1.00  0.00     0.060 A 
ATOM      8  C   UNL A   1      33.713  27.378  26.266  1.00  0.00     0.029 A 
ATOM      9  C   UNL A   1      31.591  27.856  27.295  1.00  0.00     0.029 A 
ATOM     10  C   UNL A   1      34.138  28.677  26.538  1.00  0.00     0.018 A 
ATOM     11  C   UNL A   1      32.025  29.148  27.617  1.00  0.00     0.018 A 
BRANCH   7  12
ATOM     12  N   UNL A   1      31.950  25.720  26.171  1.00  0.00    -0.257 N 
ATOM     13  C   UNL A   1      30.622  25.520  25.584  1.00  0.00     0.144 C 
ATOM     14  C   UNL A   1      30.680  24.067  25.100  1.00  0.00     0.091 C 
ATOM     15  C   UNL A   1      32.098  23.724  25.457  1.00  0.00     0.071 C 
ATOM     16  N   UNL A   1      32.790  24.659  26.029  1.00  0.00    -0.176 NA
BRANCH  13  17
ATOM     17  C   UNL A   1      30.321  26.493  24.451  1.00  0.00    -0.023 A 
ATOM     18  C   UNL A   1      29.820  28.334  22.376  1.00  0.00     0.118 A 
ATOM     19  C   UNL A   1      31.116  27.883  22.617  1.00  0.00     0.047 A 
ATOM     20  C   UNL A   1      28.762  27.831  23.130  1.00  0.00     0.047 A 
ATOM     21  C   UNL A   1      31.368  26.979  23.653  1.00  0.00     0.010 A 
ATOM     22  C   UNL A   1      29.010  26.914  24.158  1.00  0.00     0.010 A 
BRANCH  18  23
ATOM     23  O   UNL A   1      29.673  29.220  21.344  1.00  0.00    -0.497 OA
ATOM     24  C   UNL A   1      29.207  30.504  21.753  1.00  0.00     0.278 C 
ENDBRANCH  18  23
ENDBRANCH  13  17
BRANCH  15  25
ATOM     25  C   UNL A   1      32.615  22.373  25.216  1.00  0.00    -0.002 A 
ATOM     26  C   UNL A   1      31.725  21.296  25.293  1.00  0.00     0.011 A 
ATOM     27  C   UNL A   1      33.956  22.176  24.878  1.00  0.00     0.011 A 
ATOM     28  C   UNL A   1      32.175  20.007  25.005  1.00  0.00     0.021 A 
ATOM     29  C   UNL A   1      34.414  20.883  24.615  1.00  0.00     0.021 A 
ATOM     30  C   UNL A   1      33.520  19.807  24.677  1.00  0.00     0.067 A 
BRANCH  30  31
ATOM     31  S   UNL A   1      34.081  18.163  24.293  1.00  0.00     0.175 S 
ATOM     32  C   UNL A   1      33.264  17.132  25.484  1.00  0.00     0.163 C 
ATOM     33  O   UNL A   1      33.563  17.844  22.977  1.00  0.00    -0.224 OA
ATOM     34  O   UNL A   1      35.503  18.110  24.571  1.00  0.00    -0.224 OA
ENDBRANCH  30  31
ENDBRANCH  15  25
ENDBRANCH   7  12
ENDBRANCH   4   6
ENDBRANCH   3   4
ENDBRANCH   2   3
ENDBRANCH   1   2
BRANCH   1  35
ATOM     35  O   UNL A   1      34.994  33.194  30.504  1.00  0.00    -0.374 OA
BRANCH  35  36
ATOM     36  C   UNL A   1      34.417  33.058  31.806  1.00  0.00     0.202 C 
BRANCH  36  37
ATOM     37  C   UNL A   1      35.414  33.022  32.970  1.00  0.00     0.261 C 
BRANCH  37  38
ATOM     38  O   UNL A   1      35.939  31.696  33.171  1.00  0.00    -0.460 OA
BRANCH  38  39
ATOM     39  C   UNL A   1      37.204  31.646  33.646  1.00  0.00     0.338 C 
ATOM     40  O   UNL A   1      37.583  31.895  34.783  1.00  0.00    -0.246 OA
BRANCH  39  41
ATOM     41  C   UNL A   1      38.101  31.069  32.627  1.00  0.00     0.060 A 
ATOM     42  C   UNL A   1      39.107  30.199  33.069  1.00  0.00     0.016 A 
ATOM     43  C   UNL A   1      38.005  31.413  31.276  1.00  0.00     0.016 A 
ATOM     44  C   UNL A   1      40.054  29.712  32.171  1.00  0.00     0.010 A 
ATOM     45  C   UNL A   1      38.963  30.930  30.377  1.00  0.00     0.010 A 
ATOM     46  C   UNL A   1      40.011  30.107  30.827  1.00  0.00    -0.014 A 
BRANCH  46  47
ATOM     47  C   UNL A   1      41.145  29.774  29.931  1.00  0.00     0.031 A 
ATOM     48  C   UNL A   1      41.194  28.412  29.295  1.00  0.00     0.074 A 
ATOM     49  C   UNL A   1      42.099  30.681  29.660  1.00  0.00     0.049 A 
ATOM     50  N   UNL A   1      42.099  27.895  28.503  1.00  0.00    -0.248 NA
ATOM     51  C   UNL A   1      40.069  27.511  29.592  1.00  0.00     0.031 C 
ATOM     52  C   UNL A   1      42.139  32.045  30.180  1.00  0.00     0.029 A 
ATOM     53  N   UNL A   1      43.223  30.584  28.879  1.00  0.00    -0.354 N 
ATOM     54  C   UNL A   1      41.654  26.613  28.209  1.00  0.00     0.074 A 
ATOM     55  C   UNL A   1      40.417  26.417  28.932  1.00  0.00     0.031 C 
ATOM     56  C   UNL A   1      43.239  32.657  29.710  1.00  0.00     0.029 A 
ATOM     57  C   UNL A   1      43.994  31.719  28.882  1.00  0.00     0.049 A 
ATOM     58  H   UNL A   1      43.455  29.776  28.365  1.00  0.00     0.167 HD
ATOM     59  C   UNL A   1      42.223  25.687  27.400  1.00  0.00     0.037 A 
ATOM     60  C   UNL A   1      45.183  31.963  28.296  1.00  0.00     0.037 A 
ATOM     61  C   UNL A   1      43.454  25.883  26.681  1.00  0.00     0.049 A 
ATOM     62  C   UNL A   1      45.833  30.888  27.464  1.00  0.00     0.074 A 
ATOM     63  C   UNL A   1      44.105  25.008  25.829  1.00  0.00     0.029 A 
ATOM     64  N   UNL A   1      44.224  27.034  26.738  1.00  0.00    -0.354 N 
ATOM     65  N   UNL A   1      45.396  29.686  27.174  1.00  0.00    -0.248 NA
ATOM     66  C   UNL A   1      47.142  31.206  26.875  1.00  0.00     0.031 C 
ATOM     67  C   UNL A   1      45.293  25.614  25.404  1.00  0.00     0.029 A 
ATOM     68  C   UNL A   1      45.357  26.883  25.954  1.00  0.00     0.049 A 
ATOM     69  H   UNL A   1      44.000  27.839  27.259  1.00  0.00     0.167 HD
ATOM     70  C   UNL A   1      46.357  29.118  26.347  1.00  0.00     0.074 A 
ATOM     71  C   UNL A   1      47.398  30.111  26.173  1.00  0.00     0.031 C 
ATOM     72  C   UNL A   1      46.377  27.886  25.783  1.00  0.00     0.037 A 
BRANCH  59  73
ATOM     73  C   UNL A   1      41.524  24.367  27.264  1.00  0.00     0.064 A 
ATOM     74  C   UNL A   1      40.335  24.235  26.531  1.00  0.00     0.173 A 
ATOM     75  C   UNL A   1      42.067  23.211  27.847  1.00  0.00     0.173 A 
ATOM     76  F   UNL A   1      39.768  25.312  25.966  1.00  0.00    -0.203 F 
ATOM     77  C   UNL A   1      39.704  23.000  26.406  1.00  0.00     0.198 A 
ATOM     78  C   UNL A   1      41.448  21.975  27.697  1.00  0.00     0.198 A 
ATOM     79  F   UNL A   1      43.204  23.284  28.556  1.00  0.00    -0.203 F 
ATOM     80  F   UNL A   1      38.546  22.906  25.736  1.00  0.00    -0.200 F 
ATOM     81  C   UNL A   1      40.264  21.871  26.983  1.00  0.00     0.200 A 
ATOM     82  F   UNL A   1      41.996  20.882  28.247  1.00  0.00    -0.200 F 
ATOM     83  F   UNL A   1      39.659  20.682  26.856  1.00  0.00    -0.200 F 
ENDBRANCH  59  73
BRANCH  60  84
ATOM     84  C   UNL A   1      45.847  33.279  28.481  1.00  0.00     0.064 A 
ATOM     85  C   UNL A   1      46.707  33.509  29.564  1.00  0.00     0.173 A 
ATOM     86  C   UNL A   1      45.616  34.341  27.594  1.00  0.00     0.173 A 
ATOM     87  F   UNL A   1      46.937  32.534  30.455  1.00  0.00    -0.203 F 
ATOM     88  C   UNL A   1      47.295  34.757  29.763  1.00  0.00     0.198 A 
ATOM     89  C   UNL A   1      46.226  35.579  27.779  1.00  0.00     0.198 A 
ATOM     90  F   UNL A   1      44.799  34.173  26.544  1.00  0.00    -0.203 F 
ATOM     91  F   UNL A   1      48.073  34.964  30.834  1.00  0.00    -0.200 F 
ATOM     92  C   UNL A   1      47.059  35.789  28.868  1.00  0.00     0.200 A 
ATOM     93  F   UNL A   1      46.002  36.571  26.905  1.00  0.00    -0.200 F 
ATOM     94  F   UNL A   1      47.623  36.989  29.060  1.00  0.00    -0.200 F 
ENDBRANCH  60  84
BRANCH  72  95
ATOM     95  C   UNL A   1      47.539  27.554  24.890  1.00  0.00     0.064 A 
ATOM     96  C   UNL A   1      47.507  27.817  23.513  1.00  0.00     0.173 A 
ATOM     97  C   UNL A   1      48.712  27.005  25.429  1.00  0.00     0.173 A 
ATOM     98  F   UNL A   1      46.403  28.328  22.948  1.00  0.00    -0.203 F 
ATOM     99  C   UNL A   1      48.602  27.520  22.704  1.00  0.00     0.198 A 
ATOM    100  C   UNL A   1      49.814  26.735  24.621  1.00  0.00     0.198 A 
ATOM    101  F   UNL A   1      48.795  26.741  26.741  1.00  0.00    -0.203 F 
ATOM    102  F   UNL A   1      48.533  27.738  21.383  1.00  0.00    -0.200 F 
ATOM    103  C   UNL A   1      49.755  26.986  23.259  1.00  0.00     0.200 A 
ATOM    104  F   UNL A   1      50.932  26.231  25.162  1.00  0.00    -0.200 F 
ATOM    105  F   UNL A   1      50.809  26.708  22.480  1.00  0.00    -0.200 F 
ENDBRANCH  72  95
ENDBRANCH  46  47
ENDBRANCH  39  41
ENDBRANCH  38  39
ENDBRANCH  37  38
ENDBRANCH  36  37
ENDBRANCH  35  36
ENDBRANCH   1  35
TORSDOF 19
ENDMDL
