MODEL 1
REMARK VINA RESULT:     -11.3      0.000      0.000
REMARK SMILES C[C@H](Nc1nc(CC(=O)OCCOCCOC(=O)c2ccc(-c3c4nc(c(-c5c(F)c(F)c(F)c(F)c5F)c5ccc([nH]5)c(-c5c(F)c(F)c(F)c(F)c5F)c5nc(c(-c6c(F)c(F)c(F)c(F)c6F)c6ccc3[nH]6)C=C5)C=C4)cc2)cs1)c1ccccc1
REMARK SMILES IDX 12 1 11 2 10 3 8 4 9 5 7 6 6 7 4 8 5 9 83 10 82 11 3 12 2 14
REMARK SMILES IDX 1 15 84 16 85 17 89 18 86 19 88 20 87 21 13 22 14 23 15 24
REMARK SMILES IDX 16 25 17 26 18 27 19 28 20 29 81 30 21 31 80 32 22 33 23 34
REMARK SMILES IDX 24 35 74 36 25 37 79 38 73 39 75 40 26 41 78 42 72 43 71 44
REMARK SMILES IDX 27 46 59 47 39 48 58 49 40 50 43 51 57 52 76 53 41 54 42 55
REMARK SMILES IDX 56 57 77 58 44 59 28 60 29 61 37 62 30 63 31 64 35 65 38 66
REMARK SMILES IDX 32 67 33 68 36 69 34 70 60 71 61 72 69 73 62 74 63 75 67 76
REMARK SMILES IDX 70 77 64 78 65 79 68 80 66 81 45 82 46 83 54 84 47 85 48 86
REMARK SMILES IDX 52 87 55 88 49 89 50 90 53 91 51 92
REMARK H PARENT 3 13 75 45 43 56
REMARK Flexibility Score: inf
ROOT
ATOM      1  C   UNL A   1      44.625  19.205  24.601  1.00  0.00     0.202 C 
ENDROOT
BRANCH   1   2
ATOM      2  C   UNL A   1      43.407  18.924  25.487  1.00  0.00     0.261 C 
BRANCH   2   3
ATOM      3  O   UNL A   1      42.487  20.036  25.539  1.00  0.00    -0.463 OA
BRANCH   3   4
ATOM      4  C   UNL A   1      41.271  19.776  26.092  1.00  0.00     0.311 C 
ATOM      5  O   UNL A   1      40.546  18.845  25.751  1.00  0.00    -0.252 OA
BRANCH   4   6
ATOM      6  C   UNL A   1      40.828  20.760  27.147  1.00  0.00     0.179 C 
BRANCH   6   7
ATOM      7  C   UNL A   1      39.897  21.848  26.724  1.00  0.00     0.065 A 
ATOM      8  C   UNL A   1      38.178  22.587  25.520  1.00  0.00     0.183 A 
ATOM      9  N   UNL A   1      38.956  21.557  25.749  1.00  0.00    -0.225 NA
ATOM     10  S   UNL A   1      38.582  24.004  26.407  1.00  0.00    -0.105 S 
ATOM     11  C   UNL A   1      39.729  23.095  27.297  1.00  0.00     0.093 A 
BRANCH   8  12
ATOM     12  N   UNL A   1      37.071  22.564  24.749  1.00  0.00    -0.355 N 
ATOM     13  H   UNL A   1      37.129  22.500  23.768  1.00  0.00     0.163 HD
BRANCH  12  14
ATOM     14  C   UNL A   1      35.784  22.639  25.434  1.00  0.00     0.108 C 
ATOM     15  C   UNL A   1      35.276  24.083  25.359  1.00  0.00     0.036 C 
BRANCH  14  16
ATOM     16  C   UNL A   1      34.748  21.687  24.872  1.00  0.00    -0.026 A 
ATOM     17  C   UNL A   1      33.586  22.125  24.221  1.00  0.00     0.006 A 
ATOM     18  C   UNL A   1      34.925  20.304  25.067  1.00  0.00     0.006 A 
ATOM     19  C   UNL A   1      32.630  21.205  23.779  1.00  0.00     0.000 A 
ATOM     20  C   UNL A   1      33.971  19.388  24.626  1.00  0.00     0.000 A 
ATOM     21  C   UNL A   1      32.822  19.840  23.984  1.00  0.00     0.000 A 
ENDBRANCH  14  16
ENDBRANCH  12  14
ENDBRANCH   8  12
ENDBRANCH   6   7
ENDBRANCH   4   6
ENDBRANCH   3   4
ENDBRANCH   2   3
ENDBRANCH   1   2
BRANCH   1  22
ATOM     22  O   UNL A   1      44.554  20.366  23.774  1.00  0.00    -0.374 OA
BRANCH  22  23
ATOM     23  C   UNL A   1      45.229  21.529  24.247  1.00  0.00     0.202 C 
BRANCH  23  24
ATOM     24  C   UNL A   1      44.481  22.858  24.072  1.00  0.00     0.261 C 
BRANCH  24  25
ATOM     25  O   UNL A   1      44.270  23.526  25.328  1.00  0.00    -0.460 OA
BRANCH  25  26
ATOM     26  C   UNL A   1      44.635  24.829  25.341  1.00  0.00     0.338 C 
ATOM     27  O   UNL A   1      45.468  25.371  24.626  1.00  0.00    -0.246 OA
BRANCH  26  28
ATOM     28  C   UNL A   1      43.767  25.607  26.242  1.00  0.00     0.060 A 
ATOM     29  C   UNL A   1      44.117  26.944  26.468  1.00  0.00     0.016 A 
ATOM     30  C   UNL A   1      42.699  25.027  26.930  1.00  0.00     0.016 A 
ATOM     31  C   UNL A   1      43.441  27.691  27.430  1.00  0.00     0.010 A 
ATOM     32  C   UNL A   1      42.025  25.778  27.903  1.00  0.00     0.010 A 
ATOM     33  C   UNL A   1      42.420  27.098  28.184  1.00  0.00    -0.014 A 
BRANCH  33  34
ATOM     34  C   UNL A   1      41.876  27.827  29.356  1.00  0.00     0.031 A 
ATOM     35  C   UNL A   1      42.564  27.697  30.687  1.00  0.00     0.074 A 
ATOM     36  C   UNL A   1      40.807  28.632  29.229  1.00  0.00     0.049 A 
ATOM     37  N   UNL A   1      42.274  28.260  31.833  1.00  0.00    -0.248 NA
ATOM     38  C   UNL A   1      43.737  26.811  30.732  1.00  0.00     0.031 C 
ATOM     39  C   UNL A   1      40.069  28.859  27.990  1.00  0.00     0.029 A 
ATOM     40  N   UNL A   1      40.158  29.406  30.158  1.00  0.00    -0.354 N 
ATOM     41  C   UNL A   1      43.223  27.794  32.734  1.00  0.00     0.074 A 
ATOM     42  C   UNL A   1      44.080  26.880  32.010  1.00  0.00     0.031 C 
ATOM     43  C   UNL A   1      39.055  29.706  28.238  1.00  0.00     0.029 A 
ATOM     44  C   UNL A   1      39.064  30.063  29.656  1.00  0.00     0.049 A 
ATOM     45  H   UNL A   1      40.449  29.481  31.096  1.00  0.00     0.167 HD
ATOM     46  C   UNL A   1      43.369  28.107  34.043  1.00  0.00     0.037 A 
ATOM     47  C   UNL A   1      38.163  30.852  30.274  1.00  0.00     0.037 A 
ATOM     48  C   UNL A   1      42.521  29.022  34.762  1.00  0.00     0.049 A 
ATOM     49  C   UNL A   1      38.321  31.152  31.740  1.00  0.00     0.074 A 
ATOM     50  C   UNL A   1      42.619  29.439  36.077  1.00  0.00     0.029 A 
ATOM     51  N   UNL A   1      41.407  29.650  34.225  1.00  0.00    -0.354 N 
ATOM     52  N   UNL A   1      39.250  30.748  32.573  1.00  0.00    -0.248 NA
ATOM     53  C   UNL A   1      37.309  32.026  32.352  1.00  0.00     0.031 C 
ATOM     54  C   UNL A   1      41.536  30.281  36.351  1.00  0.00     0.029 A 
ATOM     55  C   UNL A   1      40.789  30.426  35.193  1.00  0.00     0.049 A 
ATOM     56  H   UNL A   1      41.100  29.558  33.294  1.00  0.00     0.167 HD
ATOM     57  C   UNL A   1      38.947  31.327  33.797  1.00  0.00     0.074 A 
ATOM     58  C   UNL A   1      37.755  32.126  33.597  1.00  0.00     0.031 C 
ATOM     59  C   UNL A   1      39.599  31.211  34.981  1.00  0.00     0.037 A 
BRANCH  46  60
ATOM     60  C   UNL A   1      44.477  27.427  34.794  1.00  0.00     0.064 A 
ATOM     61  C   UNL A   1      45.733  28.028  34.963  1.00  0.00     0.173 A 
ATOM     62  C   UNL A   1      44.269  26.166  35.371  1.00  0.00     0.173 A 
ATOM     63  F   UNL A   1      45.986  29.229  34.420  1.00  0.00    -0.203 F 
ATOM     64  C   UNL A   1      46.751  27.376  35.656  1.00  0.00     0.198 A 
ATOM     65  C   UNL A   1      45.280  25.529  36.086  1.00  0.00     0.198 A 
ATOM     66  F   UNL A   1      43.084  25.550  35.244  1.00  0.00    -0.203 F 
ATOM     67  F   UNL A   1      47.958  27.948  35.763  1.00  0.00    -0.200 F 
ATOM     68  C   UNL A   1      46.522  26.131  36.220  1.00  0.00     0.200 A 
ATOM     69  F   UNL A   1      45.054  24.330  36.640  1.00  0.00    -0.200 F 
ATOM     70  F   UNL A   1      47.502  25.505  36.888  1.00  0.00    -0.200 F 
ENDBRANCH  46  60
BRANCH  47  71
ATOM     71  C   UNL A   1      37.022  31.403  29.500  1.00  0.00     0.064 A 
ATOM     72  C   UNL A   1      36.990  32.749  29.111  1.00  0.00     0.173 A 
ATOM     73  C   UNL A   1      35.944  30.587  29.124  1.00  0.00     0.173 A 
ATOM     74  F   UNL A   1      37.985  33.572  29.471  1.00  0.00    -0.203 F 
ATOM     75  C   UNL A   1      35.920  33.259  28.379  1.00  0.00     0.198 A 
ATOM     76  C   UNL A   1      34.887  31.093  28.372  1.00  0.00     0.198 A 
ATOM     77  F   UNL A   1      35.927  29.293  29.475  1.00  0.00    -0.203 F 
ATOM     78  F   UNL A   1      35.898  34.557  28.048  1.00  0.00    -0.200 F 
ATOM     79  C   UNL A   1      34.874  32.430  28.004  1.00  0.00     0.200 A 
ATOM     80  F   UNL A   1      33.884  30.286  28.002  1.00  0.00    -0.200 F 
ATOM     81  F   UNL A   1      33.850  32.920  27.292  1.00  0.00    -0.200 F 
ENDBRANCH  47  71
BRANCH  59  82
ATOM     82  C   UNL A   1      39.048  31.974  36.150  1.00  0.00     0.064 A 
ATOM     83  C   UNL A   1      39.384  33.317  36.373  1.00  0.00     0.173 A 
ATOM     84  C   UNL A   1      38.138  31.370  37.031  1.00  0.00     0.173 A 
ATOM     85  F   UNL A   1      40.261  33.936  35.568  1.00  0.00    -0.203 F 
ATOM     86  C   UNL A   1      38.847  34.020  37.448  1.00  0.00     0.198 A 
ATOM     87  C   UNL A   1      37.580  32.083  38.088  1.00  0.00     0.198 A 
ATOM     88  F   UNL A   1      37.778  30.089  36.857  1.00  0.00    -0.203 F 
ATOM     89  F   UNL A   1      39.214  35.291  37.666  1.00  0.00    -0.200 F 
ATOM     90  C   UNL A   1      37.940  33.406  38.299  1.00  0.00     0.200 A 
ATOM     91  F   UNL A   1      36.697  31.493  38.903  1.00  0.00    -0.200 F 
ATOM     92  F   UNL A   1      37.417  34.087  39.329  1.00  0.00    -0.200 F 
ENDBRANCH  59  82
ENDBRANCH  33  34
ENDBRANCH  26  28
ENDBRANCH  25  26
ENDBRANCH  24  25
ENDBRANCH  23  24
ENDBRANCH  22  23
ENDBRANCH   1  22
TORSDOF 18
ENDMDL
MODEL 2
REMARK VINA RESULT:     -11.0      1.919      3.363
REMARK SMILES C[C@H](Nc1nc(CC(=O)OCCOCCOC(=O)c2ccc(-c3c4nc(c(-c5c(F)c(F)c(F)c(F)c5F)c5ccc([nH]5)c(-c5c(F)c(F)c(F)c(F)c5F)c5nc(c(-c6c(F)c(F)c(F)c(F)c6F)c6ccc3[nH]6)C=C5)C=C4)cc2)cs1)c1ccccc1
REMARK SMILES IDX 12 1 11 2 10 3 8 4 9 5 7 6 6 7 4 8 5 9 83 10 82 11 3 12 2 14
REMARK SMILES IDX 1 15 84 16 85 17 89 18 86 19 88 20 87 21 13 22 14 23 15 24
REMARK SMILES IDX 16 25 17 26 18 27 19 28 20 29 81 30 21 31 80 32 22 33 23 34
REMARK SMILES IDX 24 35 74 36 25 37 79 38 73 39 75 40 26 41 78 42 72 43 71 44
REMARK SMILES IDX 27 46 59 47 39 48 58 49 40 50 43 51 57 52 76 53 41 54 42 55
REMARK SMILES IDX 56 57 77 58 44 59 28 60 29 61 37 62 30 63 31 64 35 65 38 66
REMARK SMILES IDX 32 67 33 68 36 69 34 70 60 71 61 72 69 73 62 74 63 75 67 76
REMARK SMILES IDX 70 77 64 78 65 79 68 80 66 81 45 82 46 83 54 84 47 85 48 86
REMARK SMILES IDX 52 87 55 88 49 89 50 90 53 91 51 92
REMARK H PARENT 3 13 75 45 43 56
REMARK Flexibility Score: inf
ROOT
ATOM      1  C   UNL A   1      40.394  21.270  26.698  1.00  0.00     0.202 C 
ENDROOT
BRANCH   1   2
ATOM      2  C   UNL A   1      39.303  22.297  26.381  1.00  0.00     0.261 C 
BRANCH   2   3
ATOM      3  O   UNL A   1      38.448  21.884  25.293  1.00  0.00    -0.463 OA
BRANCH   3   4
ATOM      4  C   UNL A   1      37.110  21.943  25.534  1.00  0.00     0.311 C 
ATOM      5  O   UNL A   1      36.321  21.044  25.255  1.00  0.00    -0.252 OA
BRANCH   4   6
ATOM      6  C   UNL A   1      36.627  23.241  26.136  1.00  0.00     0.179 C 
BRANCH   6   7
ATOM      7  C   UNL A   1      35.230  23.665  25.824  1.00  0.00     0.065 A 
ATOM      8  C   UNL A   1      33.673  24.350  24.390  1.00  0.00     0.183 A 
ATOM      9  N   UNL A   1      34.944  24.059  24.527  1.00  0.00    -0.225 NA
ATOM     10  S   UNL A   1      32.753  24.249  25.840  1.00  0.00    -0.105 S 
ATOM     11  C   UNL A   1      34.110  23.567  26.629  1.00  0.00     0.093 A 
BRANCH   8  12
ATOM     12  N   UNL A   1      33.060  24.606  23.217  1.00  0.00    -0.355 N 
ATOM     13  H   UNL A   1      32.427  23.967  22.817  1.00  0.00     0.163 HD
BRANCH  12  14
ATOM     14  C   UNL A   1      33.375  25.875  22.565  1.00  0.00     0.108 C 
ATOM     15  C   UNL A   1      32.772  25.861  21.156  1.00  0.00     0.036 C 
BRANCH  14  16
ATOM     16  C   UNL A   1      32.887  27.085  23.335  1.00  0.00    -0.026 A 
ATOM     17  C   UNL A   1      33.751  28.073  23.826  1.00  0.00     0.006 A 
ATOM     18  C   UNL A   1      31.514  27.191  23.626  1.00  0.00     0.006 A 
ATOM     19  C   UNL A   1      33.255  29.136  24.586  1.00  0.00     0.000 A 
ATOM     20  C   UNL A   1      31.020  28.251  24.385  1.00  0.00     0.000 A 
ATOM     21  C   UNL A   1      31.892  29.223  24.867  1.00  0.00     0.000 A 
ENDBRANCH  14  16
ENDBRANCH  12  14
ENDBRANCH   8  12
ENDBRANCH   6   7
ENDBRANCH   4   6
ENDBRANCH   3   4
ENDBRANCH   2   3
ENDBRANCH   1   2
BRANCH   1  22
ATOM     22  O   UNL A   1      41.738  21.752  26.703  1.00  0.00    -0.374 OA
BRANCH  22  23
ATOM     23  C   UNL A   1      42.654  21.098  25.829  1.00  0.00     0.202 C 
BRANCH  23  24
ATOM     24  C   UNL A   1      43.736  21.988  25.202  1.00  0.00     0.261 C 
BRANCH  24  25
ATOM     25  O   UNL A   1      43.196  23.228  24.710  1.00  0.00    -0.460 OA
BRANCH  25  26
ATOM     26  C   UNL A   1      43.933  24.321  25.012  1.00  0.00     0.338 C 
ATOM     27  O   UNL A   1      45.019  24.635  24.543  1.00  0.00    -0.246 OA
BRANCH  26  28
ATOM     28  C   UNL A   1      43.180  25.232  25.893  1.00  0.00     0.060 A 
ATOM     29  C   UNL A   1      43.794  26.446  26.229  1.00  0.00     0.016 A 
ATOM     30  C   UNL A   1      41.956  24.875  26.461  1.00  0.00     0.016 A 
ATOM     31  C   UNL A   1      43.217  27.280  27.184  1.00  0.00     0.010 A 
ATOM     32  C   UNL A   1      41.381  25.712  27.427  1.00  0.00     0.010 A 
ATOM     33  C   UNL A   1      42.029  26.896  27.820  1.00  0.00    -0.014 A 
BRANCH  33  34
ATOM     34  C   UNL A   1      41.558  27.674  28.993  1.00  0.00     0.031 A 
ATOM     35  C   UNL A   1      42.300  27.562  30.296  1.00  0.00     0.074 A 
ATOM     36  C   UNL A   1      40.507  28.506  28.888  1.00  0.00     0.049 A 
ATOM     37  N   UNL A   1      42.077  28.167  31.435  1.00  0.00    -0.248 NA
ATOM     38  C   UNL A   1      43.449  26.645  30.317  1.00  0.00     0.031 C 
ATOM     39  C   UNL A   1      39.721  28.718  27.676  1.00  0.00     0.029 A 
ATOM     40  N   UNL A   1      39.921  29.324  29.820  1.00  0.00    -0.354 N 
ATOM     41  C   UNL A   1      43.051  27.699  32.308  1.00  0.00     0.074 A 
ATOM     42  C   UNL A   1      43.850  26.740  31.575  1.00  0.00     0.031 C 
ATOM     43  C   UNL A   1      38.743  29.601  27.941  1.00  0.00     0.029 A 
ATOM     44  C   UNL A   1      38.824  29.998  29.347  1.00  0.00     0.049 A 
ATOM     45  H   UNL A   1      40.255  29.418  30.742  1.00  0.00     0.167 HD
ATOM     46  C   UNL A   1      43.264  28.046  33.600  1.00  0.00     0.037 A 
ATOM     47  C   UNL A   1      37.974  30.830  29.979  1.00  0.00     0.037 A 
ATOM     48  C   UNL A   1      42.474  29.005  34.327  1.00  0.00     0.049 A 
ATOM     49  C   UNL A   1      38.205  31.168  31.427  1.00  0.00     0.074 A 
ATOM     50  C   UNL A   1      42.642  29.457  35.623  1.00  0.00     0.029 A 
ATOM     51  N   UNL A   1      41.355  29.649  33.820  1.00  0.00    -0.354 N 
ATOM     52  N   UNL A   1      39.158  30.761  32.231  1.00  0.00    -0.248 NA
ATOM     53  C   UNL A   1      37.245  32.088  32.056  1.00  0.00     0.031 C 
ATOM     54  C   UNL A   1      41.595  30.338  35.919  1.00  0.00     0.029 A 
ATOM     55  C   UNL A   1      40.802  30.471  34.790  1.00  0.00     0.049 A 
ATOM     56  H   UNL A   1      41.005  29.540  32.906  1.00  0.00     0.167 HD
ATOM     57  C   UNL A   1      38.926  31.384  33.449  1.00  0.00     0.074 A 
ATOM     58  C   UNL A   1      37.749  32.211  33.277  1.00  0.00     0.031 C 
ATOM     59  C   UNL A   1      39.626  31.283  34.606  1.00  0.00     0.037 A 
BRANCH  46  60
ATOM     60  C   UNL A   1      44.384  27.356  34.322  1.00  0.00     0.064 A 
ATOM     61  C   UNL A   1      45.659  27.932  34.431  1.00  0.00     0.173 A 
ATOM     62  C   UNL A   1      44.172  26.111  34.932  1.00  0.00     0.173 A 
ATOM     63  F   UNL A   1      45.917  29.116  33.856  1.00  0.00    -0.203 F 
ATOM     64  C   UNL A   1      46.688  27.272  35.098  1.00  0.00     0.198 A 
ATOM     65  C   UNL A   1      45.195  25.466  35.621  1.00  0.00     0.198 A 
ATOM     66  F   UNL A   1      42.970  25.520  34.862  1.00  0.00    -0.203 F 
ATOM     67  F   UNL A   1      47.910  27.818  35.148  1.00  0.00    -0.200 F 
ATOM     68  C   UNL A   1      46.454  26.043  35.696  1.00  0.00     0.200 A 
ATOM     69  F   UNL A   1      44.965  24.283  36.207  1.00  0.00    -0.200 F 
ATOM     70  F   UNL A   1      47.445  25.409  36.339  1.00  0.00    -0.200 F 
ENDBRANCH  46  60
BRANCH  47  71
ATOM     71  C   UNL A   1      36.816  31.391  29.238  1.00  0.00     0.064 A 
ATOM     72  C   UNL A   1      35.720  30.592  28.889  1.00  0.00     0.173 A 
ATOM     73  C   UNL A   1      36.781  32.746  28.875  1.00  0.00     0.173 A 
ATOM     74  F   UNL A   1      35.721  29.286  29.191  1.00  0.00    -0.203 F 
ATOM     75  C   UNL A   1      34.633  31.125  28.198  1.00  0.00     0.198 A 
ATOM     76  C   UNL A   1      35.683  33.283  28.206  1.00  0.00     0.198 A 
ATOM     77  F   UNL A   1      37.808  33.551  29.184  1.00  0.00    -0.203 F 
ATOM     78  F   UNL A   1      33.612  30.332  27.847  1.00  0.00    -0.200 F 
ATOM     79  C   UNL A   1      34.613  32.471  27.865  1.00  0.00     0.200 A 
ATOM     80  F   UNL A   1      35.663  34.586  27.895  1.00  0.00    -0.200 F 
ATOM     81  F   UNL A   1      33.563  32.985  27.209  1.00  0.00    -0.200 F 
ENDBRANCH  47  71
BRANCH  59  82
ATOM     82  C   UNL A   1      39.148  32.095  35.775  1.00  0.00     0.064 A 
ATOM     83  C   UNL A   1      38.292  31.553  36.744  1.00  0.00     0.173 A 
ATOM     84  C   UNL A   1      39.588  33.416  35.952  1.00  0.00     0.173 A 
ATOM     85  F   UNL A   1      37.832  30.300  36.612  1.00  0.00    -0.203 F 
ATOM     86  C   UNL A   1      37.876  32.310  37.836  1.00  0.00     0.198 A 
ATOM     87  C   UNL A   1      39.194  34.161  37.060  1.00  0.00     0.198 A 
ATOM     88  F   UNL A   1      40.414  33.979  35.057  1.00  0.00    -0.203 F 
ATOM     89  F   UNL A   1      37.025  31.785  38.728  1.00  0.00    -0.200 F 
ATOM     90  C   UNL A   1      38.333  33.609  37.998  1.00  0.00     0.200 A 
ATOM     91  F   UNL A   1      39.644  35.412  37.220  1.00  0.00    -0.200 F 
ATOM     92  F   UNL A   1      37.938  34.335  39.054  1.00  0.00    -0.200 F 
ENDBRANCH  59  82
ENDBRANCH  33  34
ENDBRANCH  26  28
ENDBRANCH  25  26
ENDBRANCH  24  25
ENDBRANCH  23  24
ENDBRANCH  22  23
ENDBRANCH   1  22
TORSDOF 18
ENDMDL
MODEL 3
REMARK VINA RESULT:     -11.0      4.862      8.156
REMARK SMILES C[C@H](Nc1nc(CC(=O)OCCOCCOC(=O)c2ccc(-c3c4nc(c(-c5c(F)c(F)c(F)c(F)c5F)c5ccc([nH]5)c(-c5c(F)c(F)c(F)c(F)c5F)c5nc(c(-c6c(F)c(F)c(F)c(F)c6F)c6ccc3[nH]6)C=C5)C=C4)cc2)cs1)c1ccccc1
REMARK SMILES IDX 12 1 11 2 10 3 8 4 9 5 7 6 6 7 4 8 5 9 83 10 82 11 3 12 2 14
REMARK SMILES IDX 1 15 84 16 85 17 89 18 86 19 88 20 87 21 13 22 14 23 15 24
REMARK SMILES IDX 16 25 17 26 18 27 19 28 20 29 81 30 21 31 80 32 22 33 23 34
REMARK SMILES IDX 24 35 74 36 25 37 79 38 73 39 75 40 26 41 78 42 72 43 71 44
REMARK SMILES IDX 27 46 59 47 39 48 58 49 40 50 43 51 57 52 76 53 41 54 42 55
REMARK SMILES IDX 56 57 77 58 44 59 28 60 29 61 37 62 30 63 31 64 35 65 38 66
REMARK SMILES IDX 32 67 33 68 36 69 34 70 60 71 61 72 69 73 62 74 63 75 67 76
REMARK SMILES IDX 70 77 64 78 65 79 68 80 66 81 45 82 46 83 54 84 47 85 48 86
REMARK SMILES IDX 52 87 55 88 49 89 50 90 53 91 51 92
REMARK H PARENT 3 13 75 45 43 56
REMARK Flexibility Score: inf
ROOT
ATOM      1  C   UNL A   1      37.053  22.458  24.131  1.00  0.00     0.202 C 
ENDROOT
BRANCH   1   2
ATOM      2  C   UNL A   1      35.796  23.327  24.021  1.00  0.00     0.261 C 
BRANCH   2   3
ATOM      3  O   UNL A   1      35.134  23.191  22.746  1.00  0.00    -0.463 OA
BRANCH   3   4
ATOM      4  C   UNL A   1      33.782  23.042  22.791  1.00  0.00     0.311 C 
ATOM      5  O   UNL A   1      33.215  22.052  23.246  1.00  0.00    -0.252 OA
BRANCH   4   6
ATOM      6  C   UNL A   1      32.994  24.178  22.183  1.00  0.00     0.179 C 
BRANCH   6   7
ATOM      7  C   UNL A   1      33.147  25.528  22.802  1.00  0.00     0.065 A 
ATOM      8  C   UNL A   1      33.359  26.845  24.583  1.00  0.00     0.183 A 
ATOM      9  N   UNL A   1      33.165  25.611  24.185  1.00  0.00    -0.225 NA
ATOM     10  S   UNL A   1      33.450  28.003  23.313  1.00  0.00    -0.105 S 
ATOM     11  C   UNL A   1      33.443  26.724  22.175  1.00  0.00     0.093 A 
BRANCH   8  12
ATOM     12  N   UNL A   1      33.587  27.221  25.858  1.00  0.00    -0.355 N 
ATOM     13  H   UNL A   1      34.227  26.739  26.429  1.00  0.00     0.163 HD
BRANCH  12  14
ATOM     14  C   UNL A   1      32.843  28.376  26.352  1.00  0.00     0.108 C 
ATOM     15  C   UNL A   1      31.848  27.896  27.415  1.00  0.00     0.036 C 
BRANCH  14  16
ATOM     16  C   UNL A   1      33.730  29.467  26.917  1.00  0.00    -0.026 A 
ATOM     17  C   UNL A   1      35.068  29.250  27.275  1.00  0.00     0.006 A 
ATOM     18  C   UNL A   1      33.172  30.737  27.152  1.00  0.00     0.006 A 
ATOM     19  C   UNL A   1      35.824  30.274  27.852  1.00  0.00     0.000 A 
ATOM     20  C   UNL A   1      33.926  31.758  27.729  1.00  0.00     0.000 A 
ATOM     21  C   UNL A   1      35.252  31.525  28.081  1.00  0.00     0.000 A 
ENDBRANCH  14  16
ENDBRANCH  12  14
ENDBRANCH   8  12
ENDBRANCH   6   7
ENDBRANCH   4   6
ENDBRANCH   3   4
ENDBRANCH   2   3
ENDBRANCH   1   2
BRANCH   1  22
ATOM     22  O   UNL A   1      37.100  21.545  25.227  1.00  0.00    -0.374 OA
BRANCH  22  23
ATOM     23  C   UNL A   1      37.510  20.212  24.931  1.00  0.00     0.202 C 
BRANCH  23  24
ATOM     24  C   UNL A   1      38.892  19.801  25.457  1.00  0.00     0.261 C 
BRANCH  24  25
ATOM     25  O   UNL A   1      39.728  20.942  25.723  1.00  0.00    -0.460 OA
BRANCH  25  26
ATOM     26  C   UNL A   1      40.414  20.877  26.887  1.00  0.00     0.338 C 
ATOM     27  O   UNL A   1      40.878  19.876  27.418  1.00  0.00    -0.246 OA
BRANCH  26  28
ATOM     28  C   UNL A   1      40.703  22.228  27.400  1.00  0.00     0.060 A 
ATOM     29  C   UNL A   1      40.070  23.302  26.760  1.00  0.00     0.016 A 
ATOM     30  C   UNL A   1      41.642  22.455  28.408  1.00  0.00     0.016 A 
ATOM     31  C   UNL A   1      40.420  24.611  27.082  1.00  0.00     0.010 A 
ATOM     32  C   UNL A   1      41.998  23.773  28.725  1.00  0.00     0.010 A 
ATOM     33  C   UNL A   1      41.418  24.853  28.035  1.00  0.00    -0.014 A 
BRANCH  33  34
ATOM     34  C   UNL A   1      41.942  26.232  28.194  1.00  0.00     0.031 A 
ATOM     35  C   UNL A   1      43.274  26.586  27.593  1.00  0.00     0.074 A 
ATOM     36  C   UNL A   1      41.220  27.173  28.828  1.00  0.00     0.049 A 
ATOM     37  N   UNL A   1      43.908  27.731  27.591  1.00  0.00    -0.248 NA
ATOM     38  C   UNL A   1      43.988  25.503  26.901  1.00  0.00     0.031 C 
ATOM     39  C   UNL A   1      39.908  26.960  29.432  1.00  0.00     0.029 A 
ATOM     40  N   UNL A   1      41.494  28.495  29.069  1.00  0.00    -0.354 N 
ATOM     41  C   UNL A   1      45.095  27.505  26.906  1.00  0.00     0.074 A 
ATOM     42  C   UNL A   1      45.106  26.107  26.530  1.00  0.00     0.031 C 
ATOM     43  C   UNL A   1      39.494  28.111  29.989  1.00  0.00     0.029 A 
ATOM     44  C   UNL A   1      40.522  29.133  29.797  1.00  0.00     0.049 A 
ATOM     45  H   UNL A   1      42.311  28.944  28.751  1.00  0.00     0.167 HD
ATOM     46  C   UNL A   1      46.081  28.386  26.610  1.00  0.00     0.037 A 
ATOM     47  C   UNL A   1      40.474  30.395  30.267  1.00  0.00     0.037 A 
ATOM     48  C   UNL A   1      46.066  29.778  26.977  1.00  0.00     0.049 A 
ATOM     49  C   UNL A   1      41.601  31.345  29.962  1.00  0.00     0.074 A 
ATOM     50  C   UNL A   1      46.995  30.758  26.680  1.00  0.00     0.029 A 
ATOM     51  N   UNL A   1      45.075  30.382  27.735  1.00  0.00    -0.354 N 
ATOM     52  N   UNL A   1      42.695  31.136  29.270  1.00  0.00    -0.248 NA
ATOM     53  C   UNL A   1      41.483  32.709  30.497  1.00  0.00     0.031 C 
ATOM     54  C   UNL A   1      46.593  31.946  27.302  1.00  0.00     0.029 A 
ATOM     55  C   UNL A   1      45.387  31.716  27.946  1.00  0.00     0.049 A 
ATOM     56  H   UNL A   1      44.268  29.930  28.074  1.00  0.00     0.167 HD
ATOM     57  C   UNL A   1      43.386  32.341  29.271  1.00  0.00     0.074 A 
ATOM     58  C   UNL A   1      42.580  33.282  30.021  1.00  0.00     0.031 C 
ATOM     59  C   UNL A   1      44.579  32.640  28.701  1.00  0.00     0.037 A 
BRANCH  46  60
ATOM     60  C   UNL A   1      47.277  27.858  25.873  1.00  0.00     0.064 A 
ATOM     61  C   UNL A   1      47.314  27.793  24.472  1.00  0.00     0.173 A 
ATOM     62  C   UNL A   1      48.411  27.432  26.580  1.00  0.00     0.173 A 
ATOM     63  F   UNL A   1      46.250  28.178  23.750  1.00  0.00    -0.203 F 
ATOM     64  C   UNL A   1      48.431  27.292  23.808  1.00  0.00     0.198 A 
ATOM     65  C   UNL A   1      49.535  26.956  25.912  1.00  0.00     0.198 A 
ATOM     66  F   UNL A   1      48.429  27.478  27.920  1.00  0.00    -0.203 F 
ATOM     67  F   UNL A   1      48.425  27.194  22.471  1.00  0.00    -0.200 F 
ATOM     68  C   UNL A   1      49.542  26.878  24.527  1.00  0.00     0.200 A 
ATOM     69  F   UNL A   1      50.613  26.567  26.608  1.00  0.00    -0.200 F 
ATOM     70  F   UNL A   1      50.617  26.397  23.886  1.00  0.00    -0.200 F 
ENDBRANCH  46  60
BRANCH  47  71
ATOM     71  C   UNL A   1      39.314  30.824  31.088  1.00  0.00     0.064 A 
ATOM     72  C   UNL A   1      38.277  31.588  30.538  1.00  0.00     0.173 A 
ATOM     73  C   UNL A   1      39.217  30.467  32.442  1.00  0.00     0.173 A 
ATOM     74  F   UNL A   1      38.340  31.976  29.256  1.00  0.00    -0.203 F 
ATOM     75  C   UNL A   1      37.187  31.983  31.311  1.00  0.00     0.198 A 
ATOM     76  C   UNL A   1      38.116  30.842  33.208  1.00  0.00     0.198 A 
ATOM     77  F   UNL A   1      40.186  29.739  33.016  1.00  0.00    -0.203 F 
ATOM     78  F   UNL A   1      36.225  32.741  30.769  1.00  0.00    -0.200 F 
ATOM     79  C   UNL A   1      37.104  31.603  32.643  1.00  0.00     0.200 A 
ATOM     80  F   UNL A   1      38.034  30.464  34.490  1.00  0.00    -0.200 F 
ATOM     81  F   UNL A   1      36.051  31.976  33.383  1.00  0.00    -0.200 F 
ENDBRANCH  47  71
BRANCH  59  82
ATOM     82  C   UNL A   1      45.082  34.046  28.851  1.00  0.00     0.064 A 
ATOM     83  C   UNL A   1      44.729  35.053  27.940  1.00  0.00     0.173 A 
ATOM     84  C   UNL A   1      45.888  34.402  29.944  1.00  0.00     0.173 A 
ATOM     85  F   UNL A   1      43.973  34.760  26.871  1.00  0.00    -0.203 F 
ATOM     86  C   UNL A   1      45.183  36.359  28.105  1.00  0.00     0.198 A 
ATOM     87  C   UNL A   1      46.317  35.714  30.121  1.00  0.00     0.198 A 
ATOM     88  F   UNL A   1      46.247  33.478  30.847  1.00  0.00    -0.203 F 
ATOM     89  F   UNL A   1      44.868  37.295  27.200  1.00  0.00    -0.200 F 
ATOM     90  C   UNL A   1      45.969  36.690  29.198  1.00  0.00     0.200 A 
ATOM     91  F   UNL A   1      47.066  36.036  31.183  1.00  0.00    -0.200 F 
ATOM     92  F   UNL A   1      46.399  37.950  29.360  1.00  0.00    -0.200 F 
ENDBRANCH  59  82
ENDBRANCH  33  34
ENDBRANCH  26  28
ENDBRANCH  25  26
ENDBRANCH  24  25
ENDBRANCH  23  24
ENDBRANCH  22  23
ENDBRANCH   1  22
TORSDOF 18
ENDMDL
