MODEL 1
REMARK VINA RESULT:     -10.6      0.000      0.000
REMARK SMILES O=C(Cc1cccn(C(F)F)c1=O)OCCOCCOC(=O)c1ccc(-c2c3nc(c(-c4c(F)c(F)c(F)c(F)c4F)c4ccc([nH]4)c(-c4c(F)c(F)c(F)c(F)c4F)c4nc(c(-c5c(F)c(F)c(F)c(F)c5F)c5ccc2[nH]5)C=C4)C=C3)cc1
REMARK SMILES IDX 17 1 16 2 15 3 14 4 2 5 1 6 3 7 4 8 5 9 12 10 6 11 8 12
REMARK SMILES IDX 13 13 7 14 9 15 10 16 11 17 18 18 19 19 20 20 21 21 22 22
REMARK SMILES IDX 23 23 24 24 85 25 25 26 84 27 26 28 27 29 28 30 78 31 29 32
REMARK SMILES IDX 83 33 77 34 79 35 30 36 82 37 76 38 75 39 31 41 63 42 43 43
REMARK SMILES IDX 62 44 44 45 47 46 61 47 80 48 45 49 46 50 60 52 81 53 48 54
REMARK SMILES IDX 32 55 33 56 41 57 34 58 35 59 39 60 42 61 36 62 37 63 40 64
REMARK SMILES IDX 38 65 64 66 65 67 73 68 66 69 67 70 71 71 74 72 68 73 69 74
REMARK SMILES IDX 72 75 70 76 49 77 50 78 58 79 51 80 52 81 56 82 59 83 53 84
REMARK SMILES IDX 54 85 57 86 55 87
REMARK H PARENT 79 40 47 51
REMARK Flexibility Score: inf
ROOT
ATOM      1  O   UNL A   1      34.793  19.851  24.747  1.00  0.00    -0.374 OA
ENDROOT
BRANCH   1   2
ATOM      2  C   UNL A   1      33.522  19.923  25.389  1.00  0.00     0.202 C 
BRANCH   2   3
ATOM      3  C   UNL A   1      32.963  21.338  25.489  1.00  0.00     0.261 C 
BRANCH   3   4
ATOM      4  O   UNL A   1      32.180  21.709  24.341  1.00  0.00    -0.463 OA
BRANCH   4   5
ATOM      5  C   UNL A   1      32.380  22.774  23.532  1.00  0.00     0.310 C 
ATOM      6  O   UNL A   1      31.464  23.129  22.789  1.00  0.00    -0.252 OA
BRANCH   5   7
ATOM      7  C   UNL A   1      33.735  23.465  23.462  1.00  0.00     0.164 C 
BRANCH   7   8
ATOM      8  C   UNL A   1      33.779  24.871  23.969  1.00  0.00     0.029 A 
ATOM      9  C   UNL A   1      33.899  25.193  25.270  1.00  0.00     0.011 A 
ATOM     10  C   UNL A   1      33.695  25.965  22.951  1.00  0.00     0.258 A 
ATOM     11  C   UNL A   1      33.819  26.563  25.706  1.00  0.00     0.019 A 
ATOM     12  N   UNL A   1      33.668  27.253  23.449  1.00  0.00    -0.258 N 
ATOM     13  O   UNL A   1      33.655  25.687  21.757  1.00  0.00    -0.269 OA
ATOM     14  C   UNL A   1      33.703  27.539  24.800  1.00  0.00     0.095 A 
BRANCH  12  15
ATOM     15  C   UNL A   1      33.605  28.330  22.495  1.00  0.00     0.451 C 
ATOM     16  F   UNL A   1      33.335  29.493  23.145  1.00  0.00    -0.185 F 
ATOM     17  F   UNL A   1      34.826  28.492  21.917  1.00  0.00    -0.185 F 
ENDBRANCH  12  15
ENDBRANCH   7   8
ENDBRANCH   5   7
ENDBRANCH   4   5
ENDBRANCH   3   4
ENDBRANCH   2   3
ENDBRANCH   1   2
BRANCH   1  18
ATOM     18  C   UNL A   1      35.759  20.793  25.243  1.00  0.00     0.202 C 
BRANCH  18  19
ATOM     19  C   UNL A   1      37.210  20.401  24.943  1.00  0.00     0.261 C 
BRANCH  19  20
ATOM     20  O   UNL A   1      38.094  21.484  25.268  1.00  0.00    -0.460 OA
BRANCH  20  21
ATOM     21  C   UNL A   1      39.156  21.166  26.044  1.00  0.00     0.338 C 
ATOM     22  O   UNL A   1      39.681  20.072  26.168  1.00  0.00    -0.246 OA
BRANCH  21  23
ATOM     23  C   UNL A   1      39.753  22.424  26.551  1.00  0.00     0.060 A 
ATOM     24  C   UNL A   1      40.756  22.422  27.527  1.00  0.00     0.016 A 
ATOM     25  C   UNL A   1      39.233  23.635  26.077  1.00  0.00     0.016 A 
ATOM     26  C   UNL A   1      41.249  23.634  28.009  1.00  0.00     0.010 A 
ATOM     27  C   UNL A   1      39.727  24.847  26.558  1.00  0.00     0.010 A 
ATOM     28  C   UNL A   1      40.753  24.852  27.511  1.00  0.00    -0.014 A 
BRANCH  28  29
ATOM     29  C   UNL A   1      41.444  26.115  27.853  1.00  0.00     0.031 A 
ATOM     30  C   UNL A   1      42.853  26.388  27.437  1.00  0.00     0.074 A 
ATOM     31  C   UNL A   1      40.747  27.026  28.559  1.00  0.00     0.049 A 
ATOM     32  N   UNL A   1      43.556  27.481  27.594  1.00  0.00    -0.248 NA
ATOM     33  C   UNL A   1      43.573  25.297  26.764  1.00  0.00     0.031 C 
ATOM     34  C   UNL A   1      39.374  26.839  29.033  1.00  0.00     0.029 A 
ATOM     35  N   UNL A   1      41.081  28.283  28.984  1.00  0.00    -0.354 N 
ATOM     36  C   UNL A   1      44.791  27.225  27.015  1.00  0.00     0.074 A 
ATOM     37  C   UNL A   1      44.760  25.853  26.550  1.00  0.00     0.031 C 
ATOM     38  C   UNL A   1      38.969  27.958  29.649  1.00  0.00     0.029 A 
ATOM     39  C   UNL A   1      40.061  28.926  29.639  1.00  0.00     0.049 A 
ATOM     40  H   UNL A   1      41.968  28.687  28.836  1.00  0.00     0.167 HD
ATOM     41  C   UNL A   1      45.839  28.071  26.872  1.00  0.00     0.037 A 
ATOM     42  C   UNL A   1      40.007  30.163  30.163  1.00  0.00     0.037 A 
ATOM     43  C   UNL A   1      45.860  29.428  27.362  1.00  0.00     0.049 A 
ATOM     44  C   UNL A   1      41.205  31.059  30.035  1.00  0.00     0.074 A 
ATOM     45  C   UNL A   1      46.868  30.370  27.250  1.00  0.00     0.029 A 
ATOM     46  N   UNL A   1      44.828  30.032  28.067  1.00  0.00    -0.354 N 
ATOM     47  N   UNL A   1      42.347  30.829  29.434  1.00  0.00    -0.248 NA
ATOM     48  C   UNL A   1      41.106  32.385  30.656  1.00  0.00     0.031 C 
ATOM     49  C   UNL A   1      46.467  31.526  27.928  1.00  0.00     0.029 A 
ATOM     50  C   UNL A   1      45.187  31.324  28.420  1.00  0.00     0.049 A 
ATOM     51  H   UNL A   1      43.968  29.606  28.284  1.00  0.00     0.167 HD
ATOM     52  C   UNL A   1      43.097  31.985  29.586  1.00  0.00     0.074 A 
ATOM     53  C   UNL A   1      42.272  32.924  30.321  1.00  0.00     0.031 C 
ATOM     54  C   UNL A   1      44.357  32.243  29.159  1.00  0.00     0.037 A 
BRANCH  41  55
ATOM     55  C   UNL A   1      47.054  27.567  26.147  1.00  0.00     0.064 A 
ATOM     56  C   UNL A   1      47.173  27.690  24.755  1.00  0.00     0.173 A 
ATOM     57  C   UNL A   1      48.143  27.034  26.853  1.00  0.00     0.173 A 
ATOM     58  F   UNL A   1      46.158  28.190  24.032  1.00  0.00    -0.203 F 
ATOM     59  C   UNL A   1      48.330  27.286  24.094  1.00  0.00     0.198 A 
ATOM     60  C   UNL A   1      49.310  26.653  26.192  1.00  0.00     0.198 A 
ATOM     61  F   UNL A   1      48.086  26.902  28.187  1.00  0.00    -0.203 F 
ATOM     62  F   UNL A   1      48.410  27.388  22.760  1.00  0.00    -0.200 F 
ATOM     63  C   UNL A   1      49.400  26.776  24.813  1.00  0.00     0.200 A 
ATOM     64  F   UNL A   1      50.349  26.175  26.890  1.00  0.00    -0.200 F 
ATOM     65  F   UNL A   1      50.520  26.402  24.179  1.00  0.00    -0.200 F 
ENDBRANCH  41  55
BRANCH  42  66
ATOM     66  C   UNL A   1      38.754  30.629  30.805  1.00  0.00     0.064 A 
ATOM     67  C   UNL A   1      38.598  30.573  32.196  1.00  0.00     0.173 A 
ATOM     68  C   UNL A   1      37.708  31.181  30.052  1.00  0.00     0.173 A 
ATOM     69  F   UNL A   1      39.567  30.040  32.957  1.00  0.00    -0.203 F 
ATOM     70  C   UNL A   1      37.441  31.046  32.810  1.00  0.00     0.198 A 
ATOM     71  C   UNL A   1      36.562  31.679  30.669  1.00  0.00     0.198 A 
ATOM     72  F   UNL A   1      37.813  31.266  28.717  1.00  0.00    -0.203 F 
ATOM     73  F   UNL A   1      37.306  30.956  34.139  1.00  0.00    -0.200 F 
ATOM     74  C   UNL A   1      36.429  31.607  32.046  1.00  0.00     0.200 A 
ATOM     75  F   UNL A   1      35.594  32.238  29.929  1.00  0.00    -0.200 F 
ATOM     76  F   UNL A   1      35.322  32.077  32.639  1.00  0.00    -0.200 F 
ENDBRANCH  42  66
BRANCH  54  77
ATOM     77  C   UNL A   1      44.923  33.598  29.471  1.00  0.00     0.064 A 
ATOM     78  C   UNL A   1      44.730  34.686  28.609  1.00  0.00     0.173 A 
ATOM     79  C   UNL A   1      45.619  33.821  30.669  1.00  0.00     0.173 A 
ATOM     80  F   UNL A   1      44.086  34.519  27.444  1.00  0.00    -0.203 F 
ATOM     81  C   UNL A   1      45.229  35.947  28.926  1.00  0.00     0.198 A 
ATOM     82  C   UNL A   1      46.091  35.089  30.997  1.00  0.00     0.198 A 
ATOM     83  F   UNL A   1      45.826  32.813  31.529  1.00  0.00    -0.203 F 
ATOM     84  F   UNL A   1      45.067  36.964  28.069  1.00  0.00    -0.200 F 
ATOM     85  C   UNL A   1      45.899  36.149  30.124  1.00  0.00     0.200 A 
ATOM     86  F   UNL A   1      46.726  35.287  32.160  1.00  0.00    -0.200 F 
ATOM     87  F   UNL A   1      46.367  37.367  30.433  1.00  0.00    -0.200 F 
ENDBRANCH  54  77
ENDBRANCH  28  29
ENDBRANCH  21  23
ENDBRANCH  20  21
ENDBRANCH  19  20
ENDBRANCH  18  19
ENDBRANCH   1  18
TORSDOF 16
ENDMDL
MODEL 2
REMARK VINA RESULT:     -10.6      5.394     10.833
REMARK SMILES O=C(Cc1cccn(C(F)F)c1=O)OCCOCCOC(=O)c1ccc(-c2c3nc(c(-c4c(F)c(F)c(F)c(F)c4F)c4ccc([nH]4)c(-c4c(F)c(F)c(F)c(F)c4F)c4nc(c(-c5c(F)c(F)c(F)c(F)c5F)c5ccc2[nH]5)C=C4)C=C3)cc1
REMARK SMILES IDX 17 1 16 2 15 3 14 4 2 5 1 6 3 7 4 8 5 9 12 10 6 11 8 12
REMARK SMILES IDX 13 13 7 14 9 15 10 16 11 17 18 18 19 19 20 20 21 21 22 22
REMARK SMILES IDX 23 23 24 24 85 25 25 26 84 27 26 28 27 29 28 30 78 31 29 32
REMARK SMILES IDX 83 33 77 34 79 35 30 36 82 37 76 38 75 39 31 41 63 42 43 43
REMARK SMILES IDX 62 44 44 45 47 46 61 47 80 48 45 49 46 50 60 52 81 53 48 54
REMARK SMILES IDX 32 55 33 56 41 57 34 58 35 59 39 60 42 61 36 62 37 63 40 64
REMARK SMILES IDX 38 65 64 66 65 67 73 68 66 69 67 70 71 71 74 72 68 73 69 74
REMARK SMILES IDX 72 75 70 76 49 77 50 78 58 79 51 80 52 81 56 82 59 83 53 84
REMARK SMILES IDX 54 85 57 86 55 87
REMARK H PARENT 79 40 47 51
REMARK Flexibility Score: inf
ROOT
ATOM      1  O   UNL A   1      32.656  34.650  29.033  1.00  0.00    -0.374 OA
ENDROOT
BRANCH   1   2
ATOM      2  C   UNL A   1      33.427  35.840  29.182  1.00  0.00     0.202 C 
BRANCH   2   3
ATOM      3  C   UNL A   1      32.903  36.780  30.262  1.00  0.00     0.261 C 
BRANCH   3   4
ATOM      4  O   UNL A   1      33.566  36.600  31.525  1.00  0.00    -0.463 OA
BRANCH   4   5
ATOM      5  C   UNL A   1      33.296  35.655  32.456  1.00  0.00     0.310 C 
ATOM      6  O   UNL A   1      32.159  35.185  32.503  1.00  0.00    -0.252 OA
BRANCH   5   7
ATOM      7  C   UNL A   1      34.339  35.247  33.488  1.00  0.00     0.164 C 
BRANCH   7   8
ATOM      8  C   UNL A   1      35.300  34.185  33.061  1.00  0.00     0.029 A 
ATOM      9  C   UNL A   1      35.517  33.844  31.777  1.00  0.00     0.011 A 
ATOM     10  C   UNL A   1      36.061  33.482  34.141  1.00  0.00     0.258 A 
ATOM     11  C   UNL A   1      36.369  32.735  31.438  1.00  0.00     0.019 A 
ATOM     12  N   UNL A   1      36.891  32.458  33.728  1.00  0.00    -0.258 N 
ATOM     13  O   UNL A   1      35.925  33.829  35.310  1.00  0.00    -0.269 OA
ATOM     14  C   UNL A   1      37.018  32.079  32.405  1.00  0.00     0.095 A 
BRANCH  12  15
ATOM     15  C   UNL A   1      37.652  31.772  34.740  1.00  0.00     0.451 C 
ATOM     16  F   UNL A   1      37.819  30.473  34.376  1.00  0.00    -0.185 F 
ATOM     17  F   UNL A   1      38.899  32.312  34.809  1.00  0.00    -0.185 F 
ENDBRANCH  12  15
ENDBRANCH   7   8
ENDBRANCH   5   7
ENDBRANCH   4   5
ENDBRANCH   3   4
ENDBRANCH   2   3
ENDBRANCH   1   2
BRANCH   1  18
ATOM     18  C   UNL A   1      33.124  33.769  27.999  1.00  0.00     0.202 C 
BRANCH  18  19
ATOM     19  C   UNL A   1      34.461  33.095  28.325  1.00  0.00     0.261 C 
BRANCH  19  20
ATOM     20  O   UNL A   1      34.767  32.097  27.340  1.00  0.00    -0.460 OA
BRANCH  20  21
ATOM     21  C   UNL A   1      34.602  30.811  27.730  1.00  0.00     0.338 C 
ATOM     22  O   UNL A   1      33.605  30.120  27.598  1.00  0.00    -0.246 OA
BRANCH  21  23
ATOM     23  C   UNL A   1      35.922  30.276  28.136  1.00  0.00     0.060 A 
ATOM     24  C   UNL A   1      37.013  30.266  27.261  1.00  0.00     0.016 A 
ATOM     25  C   UNL A   1      36.035  29.703  29.410  1.00  0.00     0.016 A 
ATOM     26  C   UNL A   1      38.221  29.703  27.673  1.00  0.00     0.010 A 
ATOM     27  C   UNL A   1      37.243  29.143  29.823  1.00  0.00     0.010 A 
ATOM     28  C   UNL A   1      38.348  29.159  28.963  1.00  0.00    -0.014 A 
BRANCH  28  29
ATOM     29  C   UNL A   1      39.688  28.784  29.467  1.00  0.00     0.031 A 
ATOM     30  C   UNL A   1      40.395  29.581  30.515  1.00  0.00     0.074 A 
ATOM     31  C   UNL A   1      40.254  27.680  28.945  1.00  0.00     0.049 A 
ATOM     32  N   UNL A   1      41.532  29.325  31.111  1.00  0.00    -0.248 NA
ATOM     33  C   UNL A   1      39.751  30.829  30.950  1.00  0.00     0.031 C 
ATOM     34  C   UNL A   1      39.653  26.850  27.899  1.00  0.00     0.029 A 
ATOM     35  N   UNL A   1      41.441  27.057  29.227  1.00  0.00    -0.354 N 
ATOM     36  C   UNL A   1      41.730  30.361  32.012  1.00  0.00     0.074 A 
ATOM     37  C   UNL A   1      40.620  31.278  31.848  1.00  0.00     0.031 C 
ATOM     38  C   UNL A   1      40.456  25.805  27.656  1.00  0.00     0.029 A 
ATOM     39  C   UNL A   1      41.637  25.907  28.504  1.00  0.00     0.049 A 
ATOM     40  H   UNL A   1      42.090  27.401  29.883  1.00  0.00     0.167 HD
ATOM     41  C   UNL A   1      42.738  30.512  32.905  1.00  0.00     0.037 A 
ATOM     42  C   UNL A   1      42.653  25.025  28.532  1.00  0.00     0.037 A 
ATOM     43  C   UNL A   1      43.847  29.599  33.038  1.00  0.00     0.049 A 
ATOM     44  C   UNL A   1      43.783  25.249  29.496  1.00  0.00     0.074 A 
ATOM     45  C   UNL A   1      44.909  29.655  33.925  1.00  0.00     0.029 A 
ATOM     46  N   UNL A   1      44.043  28.470  32.255  1.00  0.00    -0.354 N 
ATOM     47  N   UNL A   1      43.932  26.199  30.386  1.00  0.00    -0.248 NA
ATOM     48  C   UNL A   1      44.882  24.278  29.459  1.00  0.00     0.031 C 
ATOM     49  C   UNL A   1      45.771  28.589  33.646  1.00  0.00     0.029 A 
ATOM     50  C   UNL A   1      45.222  27.837  32.620  1.00  0.00     0.049 A 
ATOM     51  H   UNL A   1      43.435  28.163  31.545  1.00  0.00     0.167 HD
ATOM     52  C   UNL A   1      45.131  25.933  31.029  1.00  0.00     0.074 A 
ATOM     53  C   UNL A   1      45.660  24.719  30.440  1.00  0.00     0.031 C 
ATOM     54  C   UNL A   1      45.740  26.633  32.017  1.00  0.00     0.037 A 
BRANCH  41  55
ATOM     55  C   UNL A   1      42.692  31.701  33.821  1.00  0.00     0.064 A 
ATOM     56  C   UNL A   1      42.038  31.638  35.060  1.00  0.00     0.173 A 
ATOM     57  C   UNL A   1      43.375  32.883  33.500  1.00  0.00     0.173 A 
ATOM     58  F   UNL A   1      41.366  30.531  35.414  1.00  0.00    -0.203 F 
ATOM     59  C   UNL A   1      42.057  32.719  35.938  1.00  0.00     0.198 A 
ATOM     60  C   UNL A   1      43.414  33.954  34.391  1.00  0.00     0.198 A 
ATOM     61  F   UNL A   1      44.026  32.993  32.332  1.00  0.00    -0.203 F 
ATOM     62  F   UNL A   1      41.402  32.645  37.105  1.00  0.00    -0.200 F 
ATOM     63  C   UNL A   1      42.752  33.872  35.607  1.00  0.00     0.200 A 
ATOM     64  F   UNL A   1      44.099  35.062  34.076  1.00  0.00    -0.200 F 
ATOM     65  F   UNL A   1      42.783  34.906  36.459  1.00  0.00    -0.200 F 
ENDBRANCH  41  55
BRANCH  42  66
ATOM     66  C   UNL A   1      42.607  23.833  27.652  1.00  0.00     0.064 A 
ATOM     67  C   UNL A   1      43.036  23.908  26.320  1.00  0.00     0.173 A 
ATOM     68  C   UNL A   1      42.180  22.586  28.132  1.00  0.00     0.173 A 
ATOM     69  F   UNL A   1      43.440  25.083  25.814  1.00  0.00    -0.203 F 
ATOM     70  C   UNL A   1      43.034  22.783  25.500  1.00  0.00     0.198 A 
ATOM     71  C   UNL A   1      42.204  21.456  27.318  1.00  0.00     0.198 A 
ATOM     72  F   UNL A   1      41.769  22.460  29.403  1.00  0.00    -0.203 F 
ATOM     73  F   UNL A   1      43.424  22.888  24.223  1.00  0.00    -0.200 F 
ATOM     74  C   UNL A   1      42.627  21.557  26.002  1.00  0.00     0.200 A 
ATOM     75  F   UNL A   1      41.828  20.268  27.813  1.00  0.00    -0.200 F 
ATOM     76  F   UNL A   1      42.641  20.471  25.217  1.00  0.00    -0.200 F 
ENDBRANCH  42  66
BRANCH  54  77
ATOM     77  C   UNL A   1      47.048  26.105  32.528  1.00  0.00     0.064 A 
ATOM     78  C   UNL A   1      48.270  26.561  32.015  1.00  0.00     0.173 A 
ATOM     79  C   UNL A   1      47.080  25.174  33.577  1.00  0.00     0.173 A 
ATOM     80  F   UNL A   1      48.292  27.438  31.000  1.00  0.00    -0.203 F 
ATOM     81  C   UNL A   1      49.478  26.091  32.523  1.00  0.00     0.198 A 
ATOM     82  C   UNL A   1      48.289  24.728  34.102  1.00  0.00     0.198 A 
ATOM     83  F   UNL A   1      45.937  24.710  34.105  1.00  0.00    -0.203 F 
ATOM     84  F   UNL A   1      50.635  26.510  31.991  1.00  0.00    -0.200 F 
ATOM     85  C   UNL A   1      49.487  25.183  33.571  1.00  0.00     0.200 A 
ATOM     86  F   UNL A   1      48.297  23.862  35.124  1.00  0.00    -0.200 F 
ATOM     87  F   UNL A   1      50.652  24.742  34.068  1.00  0.00    -0.200 F 
ENDBRANCH  54  77
ENDBRANCH  28  29
ENDBRANCH  21  23
ENDBRANCH  20  21
ENDBRANCH  19  20
ENDBRANCH  18  19
ENDBRANCH   1  18
TORSDOF 16
ENDMDL
MODEL 3
REMARK VINA RESULT:     -10.5      3.519      9.508
REMARK SMILES O=C(Cc1cccn(C(F)F)c1=O)OCCOCCOC(=O)c1ccc(-c2c3nc(c(-c4c(F)c(F)c(F)c(F)c4F)c4ccc([nH]4)c(-c4c(F)c(F)c(F)c(F)c4F)c4nc(c(-c5c(F)c(F)c(F)c(F)c5F)c5ccc2[nH]5)C=C4)C=C3)cc1
REMARK SMILES IDX 17 1 16 2 15 3 14 4 2 5 1 6 3 7 4 8 5 9 12 10 6 11 8 12
REMARK SMILES IDX 13 13 7 14 9 15 10 16 11 17 18 18 19 19 20 20 21 21 22 22
REMARK SMILES IDX 23 23 24 24 85 25 25 26 84 27 26 28 27 29 28 30 78 31 29 32
REMARK SMILES IDX 83 33 77 34 79 35 30 36 82 37 76 38 75 39 31 41 63 42 43 43
REMARK SMILES IDX 62 44 44 45 47 46 61 47 80 48 45 49 46 50 60 52 81 53 48 54
REMARK SMILES IDX 32 55 33 56 41 57 34 58 35 59 39 60 42 61 36 62 37 63 40 64
REMARK SMILES IDX 38 65 64 66 65 67 73 68 66 69 67 70 71 71 74 72 68 73 69 74
REMARK SMILES IDX 72 75 70 76 49 77 50 78 58 79 51 80 52 81 56 82 59 83 53 84
REMARK SMILES IDX 54 85 57 86 55 87
REMARK H PARENT 79 40 47 51
REMARK Flexibility Score: inf
ROOT
ATOM      1  O   UNL A   1      42.116  19.014  25.517  1.00  0.00    -0.374 OA
ENDROOT
BRANCH   1   2
ATOM      2  C   UNL A   1      43.464  18.626  25.777  1.00  0.00     0.202 C 
BRANCH   2   3
ATOM      3  C   UNL A   1      44.402  18.835  24.594  1.00  0.00     0.261 C 
BRANCH   3   4
ATOM      4  O   UNL A   1      44.496  20.214  24.195  1.00  0.00    -0.463 OA
BRANCH   4   5
ATOM      5  C   UNL A   1      45.290  21.164  24.741  1.00  0.00     0.310 C 
ATOM      6  O   UNL A   1      46.395  20.830  25.171  1.00  0.00    -0.252 OA
BRANCH   5   7
ATOM      7  C   UNL A   1      44.800  22.595  24.913  1.00  0.00     0.164 C 
BRANCH   7   8
ATOM      8  C   UNL A   1      45.235  23.289  26.163  1.00  0.00     0.029 A 
ATOM      9  C   UNL A   1      46.377  23.993  26.270  1.00  0.00     0.011 A 
ATOM     10  C   UNL A   1      44.325  23.191  27.348  1.00  0.00     0.258 A 
ATOM     11  C   UNL A   1      46.795  24.541  27.533  1.00  0.00     0.019 A 
ATOM     12  N   UNL A   1      44.780  23.782  28.510  1.00  0.00    -0.258 N 
ATOM     13  O   UNL A   1      43.249  22.612  27.245  1.00  0.00    -0.269 OA
ATOM     14  C   UNL A   1      46.003  24.420  28.602  1.00  0.00     0.095 A 
BRANCH  12  15
ATOM     15  C   UNL A   1      43.921  23.721  29.665  1.00  0.00     0.451 C 
ATOM     16  F   UNL A   1      44.578  24.224  30.743  1.00  0.00    -0.185 F 
ATOM     17  F   UNL A   1      42.843  24.527  29.466  1.00  0.00    -0.185 F 
ENDBRANCH  12  15
ENDBRANCH   7   8
ENDBRANCH   5   7
ENDBRANCH   4   5
ENDBRANCH   3   4
ENDBRANCH   2   3
ENDBRANCH   1   2
BRANCH   1  18
ATOM     18  C   UNL A   1      41.502  19.762  26.579  1.00  0.00     0.202 C 
BRANCH  18  19
ATOM     19  C   UNL A   1      40.245  20.523  26.147  1.00  0.00     0.261 C 
BRANCH  19  20
ATOM     20  O   UNL A   1      40.086  21.709  26.939  1.00  0.00    -0.460 OA
BRANCH  20  21
ATOM     21  C   UNL A   1      39.164  22.597  26.496  1.00  0.00     0.338 C 
ATOM     22  O   UNL A   1      38.086  22.349  25.983  1.00  0.00    -0.246 OA
BRANCH  21  23
ATOM     23  C   UNL A   1      39.563  23.947  26.955  1.00  0.00     0.060 A 
ATOM     24  C   UNL A   1      39.367  24.364  28.276  1.00  0.00     0.016 A 
ATOM     25  C   UNL A   1      40.080  24.838  26.005  1.00  0.00     0.016 A 
ATOM     26  C   UNL A   1      39.711  25.663  28.646  1.00  0.00     0.010 A 
ATOM     27  C   UNL A   1      40.427  26.137  26.375  1.00  0.00     0.010 A 
ATOM     28  C   UNL A   1      40.263  26.549  27.704  1.00  0.00    -0.014 A 
BRANCH  28  29
ATOM     29  C   UNL A   1      40.838  27.833  28.160  1.00  0.00     0.031 A 
ATOM     30  C   UNL A   1      39.984  28.954  28.658  1.00  0.00     0.074 A 
ATOM     31  C   UNL A   1      42.178  27.958  28.116  1.00  0.00     0.049 A 
ATOM     32  N   UNL A   1      40.354  30.102  29.167  1.00  0.00    -0.248 NA
ATOM     33  C   UNL A   1      38.528  28.773  28.571  1.00  0.00     0.031 C 
ATOM     34  C   UNL A   1      43.095  26.928  27.622  1.00  0.00     0.029 A 
ATOM     35  N   UNL A   1      43.001  28.982  28.502  1.00  0.00    -0.354 N 
ATOM     36  C   UNL A   1      39.181  30.770  29.488  1.00  0.00     0.074 A 
ATOM     37  C   UNL A   1      38.086  29.921  29.068  1.00  0.00     0.031 C 
ATOM     38  C   UNL A   1      44.355  27.357  27.772  1.00  0.00     0.029 A 
ATOM     39  C   UNL A   1      44.334  28.699  28.343  1.00  0.00     0.049 A 
ATOM     40  H   UNL A   1      42.668  29.838  28.857  1.00  0.00     0.167 HD
ATOM     41  C   UNL A   1      39.045  31.973  30.097  1.00  0.00     0.037 A 
ATOM     42  C   UNL A   1      45.421  29.436  28.637  1.00  0.00     0.037 A 
ATOM     43  C   UNL A   1      40.148  32.816  30.488  1.00  0.00     0.049 A 
ATOM     44  C   UNL A   1      45.234  30.788  29.262  1.00  0.00     0.074 A 
ATOM     45  C   UNL A   1      40.113  34.043  31.127  1.00  0.00     0.029 A 
ATOM     46  N   UNL A   1      41.487  32.522  30.266  1.00  0.00    -0.354 N 
ATOM     47  N   UNL A   1      44.123  31.386  29.617  1.00  0.00    -0.248 NA
ATOM     48  C   UNL A   1      46.450  31.565  29.528  1.00  0.00     0.031 C 
ATOM     49  C   UNL A   1      41.424  34.514  31.248  1.00  0.00     0.029 A 
ATOM     50  C   UNL A   1      42.284  33.558  30.730  1.00  0.00     0.049 A 
ATOM     51  H   UNL A   1      41.821  31.700  29.841  1.00  0.00     0.167 HD
ATOM     52  C   UNL A   1      44.504  32.602  30.166  1.00  0.00     0.074 A 
ATOM     53  C   UNL A   1      45.952  32.646  30.114  1.00  0.00     0.031 C 
ATOM     54  C   UNL A   1      43.724  33.591  30.664  1.00  0.00     0.037 A 
BRANCH  41  55
ATOM     55  C   UNL A   1      37.653  32.455  30.393  1.00  0.00     0.064 A 
ATOM     56  C   UNL A   1      37.044  32.200  31.632  1.00  0.00     0.173 A 
ATOM     57  C   UNL A   1      36.954  33.247  29.470  1.00  0.00     0.173 A 
ATOM     58  F   UNL A   1      37.669  31.445  32.548  1.00  0.00    -0.203 F 
ATOM     59  C   UNL A   1      35.783  32.709  31.930  1.00  0.00     0.198 A 
ATOM     60  C   UNL A   1      35.702  33.775  29.780  1.00  0.00     0.198 A 
ATOM     61  F   UNL A   1      37.494  33.529  28.275  1.00  0.00    -0.203 F 
ATOM     62  F   UNL A   1      35.210  32.429  33.108  1.00  0.00    -0.200 F 
ATOM     63  C   UNL A   1      35.117  33.502  31.008  1.00  0.00     0.200 A 
ATOM     64  F   UNL A   1      35.067  34.554  28.895  1.00  0.00    -0.200 F 
ATOM     65  F   UNL A   1      33.909  34.004  31.301  1.00  0.00    -0.200 F 
ENDBRANCH  41  55
BRANCH  42  66
ATOM     66  C   UNL A   1      46.771  28.876  28.385  1.00  0.00     0.064 A 
ATOM     67  C   UNL A   1      47.446  28.159  29.382  1.00  0.00     0.173 A 
ATOM     68  C   UNL A   1      47.393  29.003  27.134  1.00  0.00     0.173 A 
ATOM     69  F   UNL A   1      46.895  28.024  30.598  1.00  0.00    -0.203 F 
ATOM     70  C   UNL A   1      48.697  27.596  29.139  1.00  0.00     0.198 A 
ATOM     71  C   UNL A   1      48.631  28.416  26.885  1.00  0.00     0.198 A 
ATOM     72  F   UNL A   1      46.782  29.671  26.145  1.00  0.00    -0.203 F 
ATOM     73  F   UNL A   1      49.333  26.939  30.118  1.00  0.00    -0.200 F 
ATOM     74  C   UNL A   1      49.283  27.717  27.889  1.00  0.00     0.200 A 
ATOM     75  F   UNL A   1      49.186  28.519  25.669  1.00  0.00    -0.200 F 
ATOM     76  F   UNL A   1      50.479  27.160  27.651  1.00  0.00    -0.200 F 
ENDBRANCH  42  66
BRANCH  54  77
ATOM     77  C   UNL A   1      44.418  34.810  31.198  1.00  0.00     0.064 A 
ATOM     78  C   UNL A   1      44.857  34.876  32.528  1.00  0.00     0.173 A 
ATOM     79  C   UNL A   1      44.696  35.899  30.358  1.00  0.00     0.173 A 
ATOM     80  F   UNL A   1      44.601  33.868  33.375  1.00  0.00    -0.203 F 
ATOM     81  C   UNL A   1      45.533  35.997  33.003  1.00  0.00     0.198 A 
ATOM     82  C   UNL A   1      45.397  37.005  30.828  1.00  0.00     0.198 A 
ATOM     83  F   UNL A   1      44.301  35.882  29.076  1.00  0.00    -0.203 F 
ATOM     84  F   UNL A   1      45.908  36.056  34.288  1.00  0.00    -0.200 F 
ATOM     85  C   UNL A   1      45.811  37.055  32.150  1.00  0.00     0.200 A 
ATOM     86  F   UNL A   1      45.678  38.021  30.000  1.00  0.00    -0.200 F 
ATOM     87  F   UNL A   1      46.474  38.128  32.606  1.00  0.00    -0.200 F 
ENDBRANCH  54  77
ENDBRANCH  28  29
ENDBRANCH  21  23
ENDBRANCH  20  21
ENDBRANCH  19  20
ENDBRANCH  18  19
ENDBRANCH   1  18
TORSDOF 16
ENDMDL
