MODEL 1
REMARK VINA RESULT:     -12.8      0.000      0.000
REMARK SMILES C[C@H]1CC[C@H]([NH2+]Cc2c(C(=O)OCCOCCOC(=O)c3ccc(-c4c5nc(c(-c6c(F)c(F)c(F)c(F)c6F)c6ccc([nH]6)c(-c6c(F)c(F)c(F)c(F)c6F)c6nc(c(-c7c(F)c(F)c(F)c(F)c7F)c7ccc4[nH]7)C=C6)C=C5)cc3)n(Cc3ccccc3F)c3ccccc23)CC1
REMARK SMILES IDX 14 1 13 2 12 3 10 4 11 5 9 6 8 7 98 8 84 9 93 10 97 11 94 12
REMARK SMILES IDX 96 13 95 14 7 15 6 16 5 19 1 20 2 21 3 22 100 23 4 24 99 25
REMARK SMILES IDX 85 26 86 27 87 28 91 29 88 30 90 31 92 32 89 33 15 34 16 35
REMARK SMILES IDX 17 36 18 37 19 38 20 39 21 40 22 41 83 42 23 43 82 44 24 45
REMARK SMILES IDX 25 46 26 47 76 48 27 49 81 50 75 51 77 52 28 53 80 54 74 55
REMARK SMILES IDX 73 56 29 58 61 59 41 60 60 61 42 62 45 63 59 64 78 65 43 66
REMARK SMILES IDX 44 67 58 69 79 70 46 71 30 72 31 73 39 74 32 75 33 76 37 77
REMARK SMILES IDX 40 78 34 79 35 80 38 81 36 82 62 83 63 84 71 85 64 86 65 87
REMARK SMILES IDX 69 88 72 89 66 90 67 91 70 92 68 93 47 94 48 95 56 96 49 97
REMARK SMILES IDX 50 98 54 99 57 100 51 101 52 102 55 103 53 104
REMARK H PARENT 6 17 6 18 77 57 45 68
REMARK Flexibility Score: inf
ROOT
ATOM      1  C   UNL A   1      35.537  22.977  25.991  1.00  0.00     0.202 C 
ENDROOT
BRANCH   1   2
ATOM      2  C   UNL A   1      34.337  23.623  26.694  1.00  0.00     0.261 C 
BRANCH   2   3
ATOM      3  O   UNL A   1      33.180  22.782  26.849  1.00  0.00    -0.459 OA
BRANCH   3   4
ATOM      4  C   UNL A   1      31.989  23.425  26.666  1.00  0.00     0.355 C 
ATOM      5  O   UNL A   1      31.019  23.271  27.402  1.00  0.00    -0.244 OA
BRANCH   4   6
ATOM      6  C   UNL A   1      31.985  24.281  25.483  1.00  0.00     0.137 A 
ATOM      7  C   UNL A   1      32.076  23.971  24.111  1.00  0.00     0.047 A 
ATOM      8  C   UNL A   1      31.855  25.195  23.383  1.00  0.00     0.009 A 
ATOM      9  N   UNL A   1      31.696  25.646  25.561  1.00  0.00    -0.330 N 
ATOM     10  C   UNL A   1      31.483  26.172  24.297  1.00  0.00     0.050 A 
ATOM     11  C   UNL A   1      31.845  25.522  22.006  1.00  0.00     0.011 A 
ATOM     12  C   UNL A   1      30.994  27.423  23.880  1.00  0.00     0.027 A 
ATOM     13  C   UNL A   1      31.422  26.788  21.588  1.00  0.00     0.001 A 
ATOM     14  C   UNL A   1      30.977  27.717  22.516  1.00  0.00     0.002 A 
BRANCH   7  15
ATOM     15  C   UNL A   1      32.233  22.666  23.359  1.00  0.00     0.300 C 
BRANCH  15  16
ATOM     16  N   UNL A   1      32.937  21.616  24.065  1.00  0.00    -0.340 N 
ATOM     17  H   UNL A   1      33.769  21.397  23.517  1.00  0.00     0.346 HD
ATOM     18  H   UNL A   1      33.082  22.011  24.994  1.00  0.00     0.346 HD
BRANCH  16  19
ATOM     19  C   UNL A   1      32.257  20.335  24.340  1.00  0.00     0.182 C 
ATOM     20  C   UNL A   1      34.305  16.528  23.450  1.00  0.00     0.007 C 
ATOM     21  C   UNL A   1      33.669  17.878  23.733  1.00  0.00    -0.014 C 
ATOM     22  C   UNL A   1      33.178  18.018  25.168  1.00  0.00     0.009 C 
ATOM     23  C   UNL A   1      32.474  18.182  22.842  1.00  0.00     0.009 C 
ATOM     24  C   UNL A   1      32.870  19.479  25.473  1.00  0.00     0.065 C 
ATOM     25  C   UNL A   1      32.120  19.657  22.951  1.00  0.00     0.065 C 
ENDBRANCH  16  19
ENDBRANCH  15  16
ENDBRANCH   7  15
BRANCH   9  26
ATOM     26  C   UNL A   1      31.524  26.437  26.784  1.00  0.00     0.161 C 
BRANCH  26  27
ATOM     27  C   UNL A   1      32.306  27.727  26.777  1.00  0.00     0.008 A 
ATOM     28  C   UNL A   1      31.720  28.946  27.148  1.00  0.00     0.008 A 
ATOM     29  C   UNL A   1      33.664  27.731  26.451  1.00  0.00     0.128 A 
ATOM     30  C   UNL A   1      32.472  30.122  27.198  1.00  0.00     0.001 A 
ATOM     31  C   UNL A   1      34.426  28.897  26.506  1.00  0.00     0.039 A 
ATOM     32  F   UNL A   1      34.271  26.588  26.101  1.00  0.00    -0.207 F 
ATOM     33  C   UNL A   1      33.828  30.097  26.883  1.00  0.00     0.003 A 
ENDBRANCH  26  27
ENDBRANCH   9  26
ENDBRANCH   4   6
ENDBRANCH   3   4
ENDBRANCH   2   3
ENDBRANCH   1   2
BRANCH   1  34
ATOM     34  O   UNL A   1      35.676  21.566  26.035  1.00  0.00    -0.374 OA
BRANCH  34  35
ATOM     35  C   UNL A   1      36.412  20.926  24.989  1.00  0.00     0.202 C 
BRANCH  35  36
ATOM     36  C   UNL A   1      37.902  20.636  25.234  1.00  0.00     0.261 C 
BRANCH  36  37
ATOM     37  O   UNL A   1      38.624  21.834  25.557  1.00  0.00    -0.460 OA
BRANCH  37  38
ATOM     38  C   UNL A   1      39.609  21.682  26.479  1.00  0.00     0.338 C 
ATOM     39  O   UNL A   1      40.247  20.673  26.728  1.00  0.00    -0.246 OA
BRANCH  38  40
ATOM     40  C   UNL A   1      40.005  23.038  26.901  1.00  0.00     0.060 A 
ATOM     41  C   UNL A   1      41.125  23.242  27.700  1.00  0.00     0.016 A 
ATOM     42  C   UNL A   1      39.124  24.095  26.617  1.00  0.00     0.016 A 
ATOM     43  C   UNL A   1      41.337  24.506  28.242  1.00  0.00     0.010 A 
ATOM     44  C   UNL A   1      39.315  25.346  27.206  1.00  0.00     0.010 A 
ATOM     45  C   UNL A   1      40.411  25.550  28.045  1.00  0.00    -0.014 A 
BRANCH  45  46
ATOM     46  C   UNL A   1      40.735  26.853  28.647  1.00  0.00     0.031 A 
ATOM     47  C   UNL A   1      42.002  27.468  28.164  1.00  0.00     0.074 A 
ATOM     48  C   UNL A   1      39.974  27.598  29.478  1.00  0.00     0.049 A 
ATOM     49  N   UNL A   1      43.034  27.828  28.858  1.00  0.00    -0.248 NA
ATOM     50  C   UNL A   1      42.134  27.685  26.716  1.00  0.00     0.031 C 
ATOM     51  C   UNL A   1      38.566  27.404  29.820  1.00  0.00     0.029 A 
ATOM     52  N   UNL A   1      40.301  28.766  30.131  1.00  0.00    -0.354 N 
ATOM     53  C   UNL A   1      43.902  28.431  27.956  1.00  0.00     0.074 A 
ATOM     54  C   UNL A   1      43.337  28.256  26.641  1.00  0.00     0.031 C 
ATOM     55  C   UNL A   1      38.108  28.514  30.445  1.00  0.00     0.029 A 
ATOM     56  C   UNL A   1      39.214  29.438  30.664  1.00  0.00     0.049 A 
ATOM     57  H   UNL A   1      41.227  29.093  30.210  1.00  0.00     0.167 HD
ATOM     58  C   UNL A   1      44.949  29.198  28.355  1.00  0.00     0.037 A 
ATOM     59  C   UNL A   1      39.193  30.680  31.207  1.00  0.00     0.037 A 
ATOM     60  C   UNL A   1      45.245  29.076  29.750  1.00  0.00     0.049 A 
ATOM     61  C   UNL A   1      40.557  31.079  31.631  1.00  0.00     0.074 A 
ATOM     62  C   UNL A   1      45.908  28.190  30.567  1.00  0.00     0.029 A 
ATOM     63  N   UNL A   1      44.573  29.946  30.559  1.00  0.00    -0.354 N 
ATOM     64  N   UNL A   1      41.184  30.602  32.667  1.00  0.00    -0.248 NA
ATOM     65  C   UNL A   1      41.340  31.978  30.789  1.00  0.00     0.031 C 
ATOM     66  C   UNL A   1      45.457  28.449  31.895  1.00  0.00     0.029 A 
ATOM     67  C   UNL A   1      44.513  29.473  31.844  1.00  0.00     0.049 A 
ATOM     68  H   UNL A   1      44.185  30.800  30.260  1.00  0.00     0.167 HD
ATOM     69  C   UNL A   1      42.518  30.806  32.386  1.00  0.00     0.074 A 
ATOM     70  C   UNL A   1      42.540  31.820  31.348  1.00  0.00     0.031 C 
ATOM     71  C   UNL A   1      43.450  29.877  32.737  1.00  0.00     0.037 A 
BRANCH  58  72
ATOM     72  C   UNL A   1      45.483  30.355  27.561  1.00  0.00     0.064 A 
ATOM     73  C   UNL A   1      46.868  30.484  27.349  1.00  0.00     0.173 A 
ATOM     74  C   UNL A   1      44.699  31.491  27.273  1.00  0.00     0.173 A 
ATOM     75  F   UNL A   1      47.698  29.473  27.644  1.00  0.00    -0.203 F 
ATOM     76  C   UNL A   1      47.429  31.680  26.897  1.00  0.00     0.198 A 
ATOM     77  C   UNL A   1      45.257  32.668  26.779  1.00  0.00     0.198 A 
ATOM     78  F   UNL A   1      43.391  31.525  27.566  1.00  0.00    -0.203 F 
ATOM     79  F   UNL A   1      48.761  31.794  26.792  1.00  0.00    -0.200 F 
ATOM     80  C   UNL A   1      46.624  32.769  26.609  1.00  0.00     0.200 A 
ATOM     81  F   UNL A   1      44.468  33.723  26.535  1.00  0.00    -0.200 F 
ATOM     82  F   UNL A   1      47.166  33.929  26.215  1.00  0.00    -0.200 F 
ENDBRANCH  58  72
BRANCH  59  83
ATOM     83  C   UNL A   1      38.080  31.658  31.293  1.00  0.00     0.064 A 
ATOM     84  C   UNL A   1      37.683  32.402  30.165  1.00  0.00     0.173 A 
ATOM     85  C   UNL A   1      37.204  31.675  32.392  1.00  0.00     0.173 A 
ATOM     86  F   UNL A   1      38.438  32.412  29.058  1.00  0.00    -0.203 F 
ATOM     87  C   UNL A   1      36.467  33.085  30.127  1.00  0.00     0.198 A 
ATOM     88  C   UNL A   1      35.996  32.374  32.359  1.00  0.00     0.198 A 
ATOM     89  F   UNL A   1      37.456  30.938  33.483  1.00  0.00    -0.203 F 
ATOM     90  F   UNL A   1      36.090  33.715  29.004  1.00  0.00    -0.200 F 
ATOM     91  C   UNL A   1      35.619  33.063  31.220  1.00  0.00     0.200 A 
ATOM     92  F   UNL A   1      35.169  32.322  33.413  1.00  0.00    -0.200 F 
ATOM     93  F   UNL A   1      34.424  33.667  31.162  1.00  0.00    -0.200 F 
ENDBRANCH  59  83
BRANCH  71  94
ATOM     94  C   UNL A   1      43.219  29.103  33.998  1.00  0.00     0.064 A 
ATOM     95  C   UNL A   1      43.716  29.456  35.260  1.00  0.00     0.173 A 
ATOM     96  C   UNL A   1      42.435  27.939  33.916  1.00  0.00     0.173 A 
ATOM     97  F   UNL A   1      44.380  30.604  35.453  1.00  0.00    -0.203 F 
ATOM     98  C   UNL A   1      43.500  28.633  36.366  1.00  0.00     0.198 A 
ATOM     99  C   UNL A   1      42.170  27.158  35.038  1.00  0.00     0.198 A 
ATOM    100  F   UNL A   1      41.908  27.562  32.740  1.00  0.00    -0.203 F 
ATOM    101  F   UNL A   1      44.048  28.932  37.547  1.00  0.00    -0.200 F 
ATOM    102  C   UNL A   1      42.718  27.497  36.259  1.00  0.00     0.200 A 
ATOM    103  F   UNL A   1      41.386  26.077  34.932  1.00  0.00    -0.200 F 
ATOM    104  F   UNL A   1      42.486  26.737  37.339  1.00  0.00    -0.200 F 
ENDBRANCH  71  94
ENDBRANCH  45  46
ENDBRANCH  38  40
ENDBRANCH  37  38
ENDBRANCH  36  37
ENDBRANCH  35  36
ENDBRANCH  34  35
ENDBRANCH   1  34
TORSDOF 19
ENDMDL
MODEL 2
REMARK VINA RESULT:     -12.4      3.168      8.741
REMARK SMILES C[C@H]1CC[C@H]([NH2+]Cc2c(C(=O)OCCOCCOC(=O)c3ccc(-c4c5nc(c(-c6c(F)c(F)c(F)c(F)c6F)c6ccc([nH]6)c(-c6c(F)c(F)c(F)c(F)c6F)c6nc(c(-c7c(F)c(F)c(F)c(F)c7F)c7ccc4[nH]7)C=C6)C=C5)cc3)n(Cc3ccccc3F)c3ccccc23)CC1
REMARK SMILES IDX 14 1 13 2 12 3 10 4 11 5 9 6 8 7 98 8 84 9 93 10 97 11 94 12
REMARK SMILES IDX 96 13 95 14 7 15 6 16 5 19 1 20 2 21 3 22 100 23 4 24 99 25
REMARK SMILES IDX 85 26 86 27 87 28 91 29 88 30 90 31 92 32 89 33 15 34 16 35
REMARK SMILES IDX 17 36 18 37 19 38 20 39 21 40 22 41 83 42 23 43 82 44 24 45
REMARK SMILES IDX 25 46 26 47 76 48 27 49 81 50 75 51 77 52 28 53 80 54 74 55
REMARK SMILES IDX 73 56 29 58 61 59 41 60 60 61 42 62 45 63 59 64 78 65 43 66
REMARK SMILES IDX 44 67 58 69 79 70 46 71 30 72 31 73 39 74 32 75 33 76 37 77
REMARK SMILES IDX 40 78 34 79 35 80 38 81 36 82 62 83 63 84 71 85 64 86 65 87
REMARK SMILES IDX 69 88 72 89 66 90 67 91 70 92 68 93 47 94 48 95 56 96 49 97
REMARK SMILES IDX 50 98 54 99 57 100 51 101 52 102 55 103 53 104
REMARK H PARENT 6 17 6 18 77 57 45 68
REMARK Flexibility Score: inf
ROOT
ATOM      1  C   UNL A   1      33.288  28.942  23.469  1.00  0.00     0.202 C 
ENDROOT
BRANCH   1   2
ATOM      2  C   UNL A   1      33.902  28.107  22.339  1.00  0.00     0.261 C 
BRANCH   2   3
ATOM      3  O   UNL A   1      33.865  26.682  22.528  1.00  0.00    -0.459 OA
BRANCH   3   4
ATOM      4  C   UNL A   1      32.640  26.117  22.309  1.00  0.00     0.355 C 
ATOM      5  O   UNL A   1      32.048  26.185  21.237  1.00  0.00    -0.244 OA
BRANCH   4   6
ATOM      6  C   UNL A   1      32.101  25.462  23.498  1.00  0.00     0.137 A 
ATOM      7  C   UNL A   1      31.108  25.867  24.413  1.00  0.00     0.047 A 
ATOM      8  C   UNL A   1      30.865  24.755  25.296  1.00  0.00     0.009 A 
ATOM      9  N   UNL A   1      32.416  24.139  23.818  1.00  0.00    -0.330 N 
ATOM     10  C   UNL A   1      31.578  23.665  24.814  1.00  0.00     0.050 A 
ATOM     11  C   UNL A   1      30.014  24.562  26.411  1.00  0.00     0.011 A 
ATOM     12  C   UNL A   1      31.385  22.371  25.331  1.00  0.00     0.027 A 
ATOM     13  C   UNL A   1      29.868  23.290  26.972  1.00  0.00     0.001 A 
ATOM     14  C   UNL A   1      30.528  22.203  26.419  1.00  0.00     0.002 A 
BRANCH   7  15
ATOM     15  C   UNL A   1      30.261  27.117  24.526  1.00  0.00     0.300 C 
BRANCH  15  16
ATOM     16  N   UNL A   1      28.978  27.067  23.857  1.00  0.00    -0.340 N 
ATOM     17  H   UNL A   1      28.878  26.126  23.477  1.00  0.00     0.346 HD
ATOM     18  H   UNL A   1      28.320  27.348  24.584  1.00  0.00     0.346 HD
BRANCH  16  19
ATOM     19  C   UNL A   1      28.690  28.006  22.754  1.00  0.00     0.182 C 
ATOM     20  C   UNL A   1      28.768  32.356  23.499  1.00  0.00     0.007 C 
ATOM     21  C   UNL A   1      28.765  30.847  23.321  1.00  0.00    -0.014 C 
ATOM     22  C   UNL A   1      29.669  30.378  22.188  1.00  0.00     0.009 C 
ATOM     23  C   UNL A   1      27.386  30.274  23.030  1.00  0.00     0.009 C 
ATOM     24  C   UNL A   1      29.882  28.871  22.282  1.00  0.00     0.065 C 
ATOM     25  C   UNL A   1      27.414  28.764  23.206  1.00  0.00     0.065 C 
ENDBRANCH  16  19
ENDBRANCH  15  16
ENDBRANCH   7  15
BRANCH   9  26
ATOM     26  C   UNL A   1      33.411  23.290  23.154  1.00  0.00     0.161 C 
BRANCH  26  27
ATOM     27  C   UNL A   1      34.611  22.989  24.016  1.00  0.00     0.008 A 
ATOM     28  C   UNL A   1      35.531  23.987  24.374  1.00  0.00     0.008 A 
ATOM     29  C   UNL A   1      34.809  21.707  24.534  1.00  0.00     0.128 A 
ATOM     30  C   UNL A   1      36.602  23.708  25.226  1.00  0.00     0.001 A 
ATOM     31  C   UNL A   1      35.870  21.421  25.392  1.00  0.00     0.039 A 
ATOM     32  F   UNL A   1      33.951  20.724  24.230  1.00  0.00    -0.207 F 
ATOM     33  C   UNL A   1      36.769  22.426  25.742  1.00  0.00     0.003 A 
ENDBRANCH  26  27
ENDBRANCH   9  26
ENDBRANCH   4   6
ENDBRANCH   3   4
ENDBRANCH   2   3
ENDBRANCH   1   2
BRANCH   1  34
ATOM     34  O   UNL A   1      33.563  28.580  24.812  1.00  0.00    -0.374 OA
BRANCH  34  35
ATOM     35  C   UNL A   1      32.714  29.098  25.840  1.00  0.00     0.202 C 
BRANCH  35  36
ATOM     36  C   UNL A   1      33.044  30.486  26.412  1.00  0.00     0.261 C 
BRANCH  36  37
ATOM     37  O   UNL A   1      33.767  30.386  27.648  1.00  0.00    -0.460 OA
BRANCH  37  38
ATOM     38  C   UNL A   1      34.574  31.441  27.930  1.00  0.00     0.338 C 
ATOM     39  O   UNL A   1      34.251  32.605  28.091  1.00  0.00    -0.246 OA
BRANCH  38  40
ATOM     40  C   UNL A   1      35.875  30.879  28.338  1.00  0.00     0.060 A 
ATOM     41  C   UNL A   1      36.902  31.702  28.788  1.00  0.00     0.016 A 
ATOM     42  C   UNL A   1      36.104  29.515  28.094  1.00  0.00     0.016 A 
ATOM     43  C   UNL A   1      38.170  31.154  28.961  1.00  0.00     0.010 A 
ATOM     44  C   UNL A   1      37.389  28.984  28.220  1.00  0.00     0.010 A 
ATOM     45  C   UNL A   1      38.436  29.810  28.629  1.00  0.00    -0.014 A 
BRANCH  45  46
ATOM     46  C   UNL A   1      39.804  29.323  28.863  1.00  0.00     0.031 A 
ATOM     47  C   UNL A   1      40.144  29.070  30.290  1.00  0.00     0.074 A 
ATOM     48  C   UNL A   1      40.730  28.970  27.944  1.00  0.00     0.049 A 
ATOM     49  N   UNL A   1      41.102  29.589  30.990  1.00  0.00    -0.248 NA
ATOM     50  C   UNL A   1      39.286  28.133  31.029  1.00  0.00     0.031 C 
ATOM     51  C   UNL A   1      40.542  28.782  26.507  1.00  0.00     0.029 A 
ATOM     52  N   UNL A   1      42.046  28.612  28.141  1.00  0.00    -0.354 N 
ATOM     53  C   UNL A   1      41.048  28.957  32.226  1.00  0.00     0.074 A 
ATOM     54  C   UNL A   1      39.873  28.122  32.226  1.00  0.00     0.031 C 
ATOM     55  C   UNL A   1      41.629  28.158  25.997  1.00  0.00     0.029 A 
ATOM     56  C   UNL A   1      42.640  28.020  27.038  1.00  0.00     0.049 A 
ATOM     57  H   UNL A   1      42.520  28.763  28.990  1.00  0.00     0.167 HD
ATOM     58  C   UNL A   1      42.071  29.015  33.119  1.00  0.00     0.037 A 
ATOM     59  C   UNL A   1      43.852  27.415  26.976  1.00  0.00     0.037 A 
ATOM     60  C   UNL A   1      43.047  30.011  32.801  1.00  0.00     0.049 A 
ATOM     61  C   UNL A   1      44.714  27.874  28.091  1.00  0.00     0.074 A 
ATOM     62  C   UNL A   1      43.180  31.373  32.941  1.00  0.00     0.029 A 
ATOM     63  N   UNL A   1      44.060  29.588  31.990  1.00  0.00    -0.354 N 
ATOM     64  N   UNL A   1      45.270  29.049  28.168  1.00  0.00    -0.248 NA
ATOM     65  C   UNL A   1      44.883  27.027  29.269  1.00  0.00     0.031 C 
ATOM     66  C   UNL A   1      44.203  31.775  32.031  1.00  0.00     0.029 A 
ATOM     67  C   UNL A   1      44.646  30.646  31.346  1.00  0.00     0.049 A 
ATOM     68  H   UNL A   1      44.333  28.648  31.882  1.00  0.00     0.167 HD
ATOM     69  C   UNL A   1      45.493  29.237  29.515  1.00  0.00     0.074 A 
ATOM     70  C   UNL A   1      45.435  27.910  30.102  1.00  0.00     0.031 C 
ATOM     71  C   UNL A   1      45.323  30.465  30.081  1.00  0.00     0.037 A 
BRANCH  58  72
ATOM     72  C   UNL A   1      42.393  27.914  34.088  1.00  0.00     0.064 A 
ATOM     73  C   UNL A   1      43.011  26.736  33.635  1.00  0.00     0.173 A 
ATOM     74  C   UNL A   1      41.832  27.868  35.381  1.00  0.00     0.173 A 
ATOM     75  F   UNL A   1      43.527  26.670  32.399  1.00  0.00    -0.203 F 
ATOM     76  C   UNL A   1      43.046  25.581  34.420  1.00  0.00     0.198 A 
ATOM     77  C   UNL A   1      41.909  26.729  36.180  1.00  0.00     0.198 A 
ATOM     78  F   UNL A   1      41.103  28.887  35.859  1.00  0.00    -0.203 F 
ATOM     79  F   UNL A   1      43.565  24.450  33.920  1.00  0.00    -0.200 F 
ATOM     80  C   UNL A   1      42.499  25.579  35.691  1.00  0.00     0.200 A 
ATOM     81  F   UNL A   1      41.347  26.734  37.396  1.00  0.00    -0.200 F 
ATOM     82  F   UNL A   1      42.496  24.461  36.429  1.00  0.00    -0.200 F 
ENDBRANCH  58  72
BRANCH  59  83
ATOM     83  C   UNL A   1      44.326  26.334  26.076  1.00  0.00     0.064 A 
ATOM     84  C   UNL A   1      45.589  26.412  25.457  1.00  0.00     0.173 A 
ATOM     85  C   UNL A   1      43.684  25.085  26.031  1.00  0.00     0.173 A 
ATOM     86  F   UNL A   1      46.290  27.553  25.484  1.00  0.00    -0.203 F 
ATOM     87  C   UNL A   1      46.187  25.297  24.867  1.00  0.00     0.198 A 
ATOM     88  C   UNL A   1      44.276  23.975  25.425  1.00  0.00     0.198 A 
ATOM     89  F   UNL A   1      42.515  24.891  26.656  1.00  0.00    -0.203 F 
ATOM     90  F   UNL A   1      47.425  25.394  24.360  1.00  0.00    -0.200 F 
ATOM     91  C   UNL A   1      45.535  24.077  24.860  1.00  0.00     0.200 A 
ATOM     92  F   UNL A   1      43.648  22.791  25.449  1.00  0.00    -0.200 F 
ATOM     93  F   UNL A   1      46.134  22.992  24.349  1.00  0.00    -0.200 F 
ENDBRANCH  59  83
BRANCH  71  94
ATOM     94  C   UNL A   1      45.656  31.664  29.249  1.00  0.00     0.064 A 
ATOM     95  C   UNL A   1      44.746  32.366  28.448  1.00  0.00     0.173 A 
ATOM     96  C   UNL A   1      46.982  32.133  29.280  1.00  0.00     0.173 A 
ATOM     97  F   UNL A   1      43.440  32.058  28.441  1.00  0.00    -0.203 F 
ATOM     98  C   UNL A   1      45.169  33.435  27.658  1.00  0.00     0.198 A 
ATOM     99  C   UNL A   1      47.381  33.241  28.539  1.00  0.00     0.198 A 
ATOM    100  F   UNL A   1      47.896  31.520  30.049  1.00  0.00    -0.203 F 
ATOM    101  F   UNL A   1      44.312  34.044  26.833  1.00  0.00    -0.200 F 
ATOM    102  C   UNL A   1      46.477  33.880  27.713  1.00  0.00     0.200 A 
ATOM    103  F   UNL A   1      48.642  33.685  28.622  1.00  0.00    -0.200 F 
ATOM    104  F   UNL A   1      46.859  34.933  26.978  1.00  0.00    -0.200 F 
ENDBRANCH  71  94
ENDBRANCH  45  46
ENDBRANCH  38  40
ENDBRANCH  37  38
ENDBRANCH  36  37
ENDBRANCH  35  36
ENDBRANCH  34  35
ENDBRANCH   1  34
TORSDOF 19
ENDMDL
MODEL 3
REMARK VINA RESULT:     -12.4      1.499      2.602
REMARK SMILES C[C@H]1CC[C@H]([NH2+]Cc2c(C(=O)OCCOCCOC(=O)c3ccc(-c4c5nc(c(-c6c(F)c(F)c(F)c(F)c6F)c6ccc([nH]6)c(-c6c(F)c(F)c(F)c(F)c6F)c6nc(c(-c7c(F)c(F)c(F)c(F)c7F)c7ccc4[nH]7)C=C6)C=C5)cc3)n(Cc3ccccc3F)c3ccccc23)CC1
REMARK SMILES IDX 14 1 13 2 12 3 10 4 11 5 9 6 8 7 98 8 84 9 93 10 97 11 94 12
REMARK SMILES IDX 96 13 95 14 7 15 6 16 5 19 1 20 2 21 3 22 100 23 4 24 99 25
REMARK SMILES IDX 85 26 86 27 87 28 91 29 88 30 90 31 92 32 89 33 15 34 16 35
REMARK SMILES IDX 17 36 18 37 19 38 20 39 21 40 22 41 83 42 23 43 82 44 24 45
REMARK SMILES IDX 25 46 26 47 76 48 27 49 81 50 75 51 77 52 28 53 80 54 74 55
REMARK SMILES IDX 73 56 29 58 61 59 41 60 60 61 42 62 45 63 59 64 78 65 43 66
REMARK SMILES IDX 44 67 58 69 79 70 46 71 30 72 31 73 39 74 32 75 33 76 37 77
REMARK SMILES IDX 40 78 34 79 35 80 38 81 36 82 62 83 63 84 71 85 64 86 65 87
REMARK SMILES IDX 69 88 72 89 66 90 67 91 70 92 68 93 47 94 48 95 56 96 49 97
REMARK SMILES IDX 50 98 54 99 57 100 51 101 52 102 55 103 53 104
REMARK H PARENT 6 17 6 18 77 57 45 68
REMARK Flexibility Score: inf
ROOT
ATOM      1  C   UNL A   1      34.552  23.967  23.183  1.00  0.00     0.202 C 
ENDROOT
BRANCH   1   2
ATOM      2  C   UNL A   1      33.151  23.694  22.622  1.00  0.00     0.261 C 
BRANCH   2   3
ATOM      3  O   UNL A   1      32.317  24.852  22.440  1.00  0.00    -0.459 OA
BRANCH   3   4
ATOM      4  C   UNL A   1      31.207  24.877  23.236  1.00  0.00     0.355 C 
ATOM      5  O   UNL A   1      30.285  24.074  23.131  1.00  0.00    -0.244 OA
BRANCH   4   6
ATOM      6  C   UNL A   1      31.222  25.981  24.191  1.00  0.00     0.137 A 
ATOM      7  C   UNL A   1      31.504  26.012  25.572  1.00  0.00     0.047 A 
ATOM      8  C   UNL A   1      31.528  27.397  25.970  1.00  0.00     0.009 A 
ATOM      9  N   UNL A   1      31.107  27.312  23.782  1.00  0.00    -0.330 N 
ATOM     10  C   UNL A   1      31.424  28.171  24.821  1.00  0.00     0.050 A 
ATOM     11  C   UNL A   1      31.733  28.053  27.207  1.00  0.00     0.011 A 
ATOM     12  C   UNL A   1      31.630  29.562  24.850  1.00  0.00     0.027 A 
ATOM     13  C   UNL A   1      31.873  29.443  27.251  1.00  0.00     0.001 A 
ATOM     14  C   UNL A   1      31.847  30.185  26.079  1.00  0.00     0.002 A 
BRANCH   7  15
ATOM     15  C   UNL A   1      31.866  24.935  26.573  1.00  0.00     0.300 C 
BRANCH  15  16
ATOM     16  N   UNL A   1      32.644  23.830  26.051  1.00  0.00    -0.340 N 
ATOM     17  H   UNL A   1      32.494  23.813  25.043  1.00  0.00     0.346 HD
ATOM     18  H   UNL A   1      33.589  24.030  26.378  1.00  0.00     0.346 HD
BRANCH  16  19
ATOM     19  C   UNL A   1      32.393  22.462  26.545  1.00  0.00     0.182 C 
ATOM     20  C   UNL A   1      34.268  19.020  24.514  1.00  0.00     0.007 C 
ATOM     21  C   UNL A   1      33.663  20.254  25.161  1.00  0.00    -0.014 C 
ATOM     22  C   UNL A   1      33.941  20.341  26.656  1.00  0.00     0.009 C 
ATOM     23  C   UNL A   1      32.153  20.343  25.003  1.00  0.00     0.009 C 
ATOM     24  C   UNL A   1      33.611  21.739  27.167  1.00  0.00     0.065 C 
ATOM     25  C   UNL A   1      31.684  21.743  25.366  1.00  0.00     0.065 C 
ENDBRANCH  16  19
ENDBRANCH  15  16
ENDBRANCH   7  15
BRANCH   9  26
ATOM     26  C   UNL A   1      30.801  27.789  22.429  1.00  0.00     0.161 C 
BRANCH  26  27
ATOM     27  C   UNL A   1      29.717  28.838  22.396  1.00  0.00     0.008 A 
ATOM     28  C   UNL A   1      29.915  30.083  21.781  1.00  0.00     0.008 A 
ATOM     29  C   UNL A   1      28.456  28.571  22.933  1.00  0.00     0.128 A 
ATOM     30  C   UNL A   1      28.882  31.020  21.701  1.00  0.00     0.001 A 
ATOM     31  C   UNL A   1      27.416  29.495  22.851  1.00  0.00     0.039 A 
ATOM     32  F   UNL A   1      28.216  27.391  23.520  1.00  0.00    -0.207 F 
ATOM     33  C   UNL A   1      27.629  30.724  22.231  1.00  0.00     0.003 A 
ENDBRANCH  26  27
ENDBRANCH   9  26
ENDBRANCH   4   6
ENDBRANCH   3   4
ENDBRANCH   2   3
ENDBRANCH   1   2
BRANCH   1  34
ATOM     34  O   UNL A   1      35.065  23.106  24.186  1.00  0.00    -0.374 OA
BRANCH  34  35
ATOM     35  C   UNL A   1      36.192  22.287  23.864  1.00  0.00     0.202 C 
BRANCH  35  36
ATOM     36  C   UNL A   1      37.061  21.773  25.024  1.00  0.00     0.261 C 
BRANCH  36  37
ATOM     37  O   UNL A   1      38.312  22.473  25.092  1.00  0.00    -0.460 OA
BRANCH  37  38
ATOM     38  C   UNL A   1      39.130  22.092  26.108  1.00  0.00     0.338 C 
ATOM     39  O   UNL A   1      39.740  21.042  26.220  1.00  0.00    -0.246 OA
BRANCH  38  40
ATOM     40  C   UNL A   1      39.416  23.305  26.895  1.00  0.00     0.060 A 
ATOM     41  C   UNL A   1      38.646  24.453  26.749  1.00  0.00     0.016 A 
ATOM     42  C   UNL A   1      40.591  23.322  27.667  1.00  0.00     0.016 A 
ATOM     43  C   UNL A   1      39.080  25.630  27.354  1.00  0.00     0.010 A 
ATOM     44  C   UNL A   1      41.046  24.516  28.227  1.00  0.00     0.010 A 
ATOM     45  C   UNL A   1      40.305  25.685  28.049  1.00  0.00    -0.014 A 
BRANCH  45  46
ATOM     46  C   UNL A   1      40.666  26.971  28.666  1.00  0.00     0.031 A 
ATOM     47  C   UNL A   1      41.936  27.569  28.170  1.00  0.00     0.074 A 
ATOM     48  C   UNL A   1      39.934  27.717  29.521  1.00  0.00     0.049 A 
ATOM     49  N   UNL A   1      42.987  27.896  28.852  1.00  0.00    -0.248 NA
ATOM     50  C   UNL A   1      42.048  27.806  26.724  1.00  0.00     0.031 C 
ATOM     51  C   UNL A   1      38.529  27.547  29.886  1.00  0.00     0.029 A 
ATOM     52  N   UNL A   1      40.296  28.868  30.187  1.00  0.00    -0.354 N 
ATOM     53  C   UNL A   1      43.851  28.497  27.945  1.00  0.00     0.074 A 
ATOM     54  C   UNL A   1      43.261  28.355  26.638  1.00  0.00     0.031 C 
ATOM     55  C   UNL A   1      38.104  28.655  30.536  1.00  0.00     0.029 A 
ATOM     56  C   UNL A   1      39.232  29.553  30.750  1.00  0.00     0.049 A 
ATOM     57  H   UNL A   1      41.229  29.176  30.256  1.00  0.00     0.167 HD
ATOM     58  C   UNL A   1      44.921  29.236  28.338  1.00  0.00     0.037 A 
ATOM     59  C   UNL A   1      39.245  30.786  31.313  1.00  0.00     0.037 A 
ATOM     60  C   UNL A   1      45.238  29.086  29.725  1.00  0.00     0.049 A 
ATOM     61  C   UNL A   1      40.624  31.151  31.719  1.00  0.00     0.074 A 
ATOM     62  C   UNL A   1      45.897  28.173  30.516  1.00  0.00     0.029 A 
ATOM     63  N   UNL A   1      44.598  29.956  30.559  1.00  0.00    -0.354 N 
ATOM     64  N   UNL A   1      41.260  30.646  32.736  1.00  0.00    -0.248 NA
ATOM     65  C   UNL A   1      41.411  32.048  30.877  1.00  0.00     0.031 C 
ATOM     66  C   UNL A   1      45.474  28.420  31.855  1.00  0.00     0.029 A 
ATOM     67  C   UNL A   1      44.550  29.463  31.837  1.00  0.00     0.049 A 
ATOM     68  H   UNL A   1      44.221  30.822  30.281  1.00  0.00     0.167 HD
ATOM     69  C   UNL A   1      42.592  30.827  32.435  1.00  0.00     0.074 A 
ATOM     70  C   UNL A   1      42.617  31.857  31.413  1.00  0.00     0.031 C 
ATOM     71  C   UNL A   1      43.511  29.874  32.755  1.00  0.00     0.037 A 
BRANCH  58  72
ATOM     72  C   UNL A   1      45.464  30.395  27.553  1.00  0.00     0.064 A 
ATOM     73  C   UNL A   1      46.847  30.499  27.318  1.00  0.00     0.173 A 
ATOM     74  C   UNL A   1      44.699  31.551  27.297  1.00  0.00     0.173 A 
ATOM     75  F   UNL A   1      47.662  29.467  27.582  1.00  0.00    -0.203 F 
ATOM     76  C   UNL A   1      47.425  31.691  26.875  1.00  0.00     0.198 A 
ATOM     77  C   UNL A   1      45.272  32.724  26.811  1.00  0.00     0.198 A 
ATOM     78  F   UNL A   1      43.397  31.606  27.613  1.00  0.00    -0.203 F 
ATOM     79  F   UNL A   1      48.756  31.780  26.748  1.00  0.00    -0.200 F 
ATOM     80  C   UNL A   1      46.638  32.800  26.619  1.00  0.00     0.200 A 
ATOM     81  F   UNL A   1      44.500  33.799  26.599  1.00  0.00    -0.200 F 
ATOM     82  F   UNL A   1      47.196  33.956  26.234  1.00  0.00    -0.200 F 
ENDBRANCH  58  72
BRANCH  59  83
ATOM     83  C   UNL A   1      38.154  31.785  31.434  1.00  0.00     0.064 A 
ATOM     84  C   UNL A   1      37.624  32.418  30.292  1.00  0.00     0.173 A 
ATOM     85  C   UNL A   1      37.419  31.926  32.624  1.00  0.00     0.173 A 
ATOM     86  F   UNL A   1      38.238  32.305  29.106  1.00  0.00    -0.203 F 
ATOM     87  C   UNL A   1      36.414  33.112  30.333  1.00  0.00     0.198 A 
ATOM     88  C   UNL A   1      36.218  32.636  32.667  1.00  0.00     0.198 A 
ATOM     89  F   UNL A   1      37.801  31.298  33.745  1.00  0.00    -0.203 F 
ATOM     90  F   UNL A   1      35.904  33.632  29.206  1.00  0.00    -0.200 F 
ATOM     91  C   UNL A   1      35.706  33.213  31.518  1.00  0.00     0.200 A 
ATOM     92  F   UNL A   1      35.527  32.702  33.813  1.00  0.00    -0.200 F 
ATOM     93  F   UNL A   1      34.515  33.826  31.545  1.00  0.00    -0.200 F 
ENDBRANCH  59  83
BRANCH  71  94
ATOM     94  C   UNL A   1      43.286  29.085  34.008  1.00  0.00     0.064 A 
ATOM     95  C   UNL A   1      43.801  29.414  35.269  1.00  0.00     0.173 A 
ATOM     96  C   UNL A   1      42.489  27.930  33.918  1.00  0.00     0.173 A 
ATOM     97  F   UNL A   1      44.479  30.553  35.471  1.00  0.00    -0.203 F 
ATOM     98  C   UNL A   1      43.588  28.578  36.365  1.00  0.00     0.198 A 
ATOM     99  C   UNL A   1      42.228  27.136  35.031  1.00  0.00     0.198 A 
ATOM    100  F   UNL A   1      41.945  27.575  32.743  1.00  0.00    -0.203 F 
ATOM    101  F   UNL A   1      44.153  28.855  37.544  1.00  0.00    -0.200 F 
ATOM    102  C   UNL A   1      42.794  27.452  36.251  1.00  0.00     0.200 A 
ATOM    103  F   UNL A   1      41.432  26.065  34.919  1.00  0.00    -0.200 F 
ATOM    104  F   UNL A   1      42.567  26.679  37.322  1.00  0.00    -0.200 F 
ENDBRANCH  71  94
ENDBRANCH  45  46
ENDBRANCH  38  40
ENDBRANCH  37  38
ENDBRANCH  36  37
ENDBRANCH  35  36
ENDBRANCH  34  35
ENDBRANCH   1  34
TORSDOF 19
ENDMDL
