MODEL 1
REMARK VINA RESULT:     -12.5      0.000      0.000
REMARK SMILES CC(=O)Nc1cccc(-c2ccc(F)c(C(=O)OCCOCCOC(=O)c3ccc(-c4c5nc(c(-c6c(F)c(F)c(F)c(F)c6F)c6ccc([nH]6)c(-c6c(F)c(F)c(F)c(F)c6F)c6nc(c(-c7c(F)c(F)c(F)c(F)c7F)c7ccc4[nH]7)C=C6)C=C5)cc3)c2)c1
REMARK SMILES IDX 21 1 20 2 19 3 18 4 16 5 17 6 15 7 10 8 11 9 90 10 12 11
REMARK SMILES IDX 13 12 14 13 9 14 5 15 6 16 91 17 7 18 8 19 4 20 1 21 2 22
REMARK SMILES IDX 3 23 22 25 23 26 24 27 25 28 26 29 27 30 28 31 89 32 29 33
REMARK SMILES IDX 88 34 30 35 31 36 32 37 82 38 33 39 87 40 81 41 83 42 34 43
REMARK SMILES IDX 86 44 80 45 79 46 35 48 67 49 47 50 66 51 48 52 51 53 65 54
REMARK SMILES IDX 84 55 49 56 50 57 64 59 85 60 52 61 36 62 37 63 45 64 38 65
REMARK SMILES IDX 39 66 43 67 46 68 40 69 41 70 44 71 42 72 68 73 69 74 77 75
REMARK SMILES IDX 70 76 71 77 75 78 78 79 72 80 73 81 76 82 74 83 53 84 54 85
REMARK SMILES IDX 62 86 55 87 56 88 60 89 63 90 57 91 58 92 61 93 59 94
REMARK H PARENT 4 24 83 47 51 58
REMARK Flexibility Score: inf
ROOT
ATOM      1  O   UNL A   1      30.812  29.283  24.365  1.00  0.00    -0.374 OA
ENDROOT
BRANCH   1   2
ATOM      2  C   UNL A   1      30.788  27.930  23.908  1.00  0.00     0.202 C 
BRANCH   2   3
ATOM      3  C   UNL A   1      30.442  26.868  24.956  1.00  0.00     0.261 C 
BRANCH   3   4
ATOM      4  O   UNL A   1      31.240  25.687  24.758  1.00  0.00    -0.460 OA
BRANCH   4   5
ATOM      5  C   UNL A   1      31.689  25.091  25.891  1.00  0.00     0.341 C 
ATOM      6  O   UNL A   1      31.199  25.173  27.003  1.00  0.00    -0.246 OA
BRANCH   5   7
ATOM      7  C   UNL A   1      32.825  24.213  25.551  1.00  0.00     0.096 A 
ATOM      8  C   UNL A   1      33.729  22.046  24.865  1.00  0.00    -0.017 A 
ATOM      9  C   UNL A   1      35.017  22.609  24.905  1.00  0.00     0.012 A 
ATOM     10  C   UNL A   1      32.637  22.864  25.217  1.00  0.00     0.027 A 
ATOM     11  C   UNL A   1      35.208  23.944  25.270  1.00  0.00     0.041 A 
ATOM     12  C   UNL A   1      34.113  24.740  25.584  1.00  0.00     0.137 A 
ATOM     13  F   UNL A   1      34.332  26.006  25.958  1.00  0.00    -0.206 F 
BRANCH   8  14
ATOM     14  C   UNL A   1      33.516  20.658  24.413  1.00  0.00    -0.016 A 
ATOM     15  C   UNL A   1      34.287  18.331  24.362  1.00  0.00     0.041 A 
ATOM     16  C   UNL A   1      33.204  17.997  23.548  1.00  0.00     0.026 A 
ATOM     17  C   UNL A   1      34.441  19.657  24.765  1.00  0.00     0.034 A 
ATOM     18  C   UNL A   1      32.256  18.964  23.205  1.00  0.00     0.003 A 
ATOM     19  C   UNL A   1      32.409  20.283  23.639  1.00  0.00     0.009 A 
BRANCH  15  20
ATOM     20  N   UNL A   1      35.207  17.318  24.677  1.00  0.00    -0.326 N 
ATOM     21  C   UNL A   1      33.670  15.496  25.412  1.00  0.00     0.114 C 
ATOM     22  C   UNL A   1      35.041  16.106  25.284  1.00  0.00     0.221 C 
ATOM     23  O   UNL A   1      36.040  15.489  25.665  1.00  0.00    -0.275 OA
ATOM     24  H   UNL A   1      36.135  17.517  24.413  1.00  0.00     0.169 HD
ENDBRANCH  15  20
ENDBRANCH   8  14
ENDBRANCH   5   7
ENDBRANCH   4   5
ENDBRANCH   3   4
ENDBRANCH   2   3
ENDBRANCH   1   2
BRANCH   1  25
ATOM     25  C   UNL A   1      31.970  29.709  25.083  1.00  0.00     0.202 C 
BRANCH  25  26
ATOM     26  C   UNL A   1      31.743  30.743  26.194  1.00  0.00     0.261 C 
BRANCH  26  27
ATOM     27  O   UNL A   1      32.693  30.613  27.266  1.00  0.00    -0.460 OA
BRANCH  27  28
ATOM     28  C   UNL A   1      33.462  31.709  27.471  1.00  0.00     0.338 C 
ATOM     29  O   UNL A   1      33.113  32.877  27.436  1.00  0.00    -0.246 OA
BRANCH  28  30
ATOM     30  C   UNL A   1      34.808  31.307  27.921  1.00  0.00     0.060 A 
ATOM     31  C   UNL A   1      35.004  29.954  28.226  1.00  0.00     0.016 A 
ATOM     32  C   UNL A   1      35.832  32.235  28.118  1.00  0.00     0.016 A 
ATOM     33  C   UNL A   1      36.212  29.532  28.773  1.00  0.00     0.010 A 
ATOM     34  C   UNL A   1      37.045  31.809  28.673  1.00  0.00     0.010 A 
ATOM     35  C   UNL A   1      37.230  30.461  29.033  1.00  0.00    -0.014 A 
BRANCH  35  36
ATOM     36  C   UNL A   1      38.437  30.028  29.778  1.00  0.00     0.031 A 
ATOM     37  C   UNL A   1      38.662  30.530  31.177  1.00  0.00     0.074 A 
ATOM     38  C   UNL A   1      39.302  29.158  29.227  1.00  0.00     0.049 A 
ATOM     39  N   UNL A   1      39.637  30.264  32.009  1.00  0.00    -0.248 NA
ATOM     40  C   UNL A   1      37.651  31.455  31.713  1.00  0.00     0.031 C 
ATOM     41  C   UNL A   1      39.177  28.581  27.890  1.00  0.00     0.029 A 
ATOM     42  N   UNL A   1      40.455  28.609  29.727  1.00  0.00    -0.354 N 
ATOM     43  C   UNL A   1      39.360  30.987  33.162  1.00  0.00     0.074 A 
ATOM     44  C   UNL A   1      38.143  31.731  32.912  1.00  0.00     0.031 C 
ATOM     45  C   UNL A   1      40.218  27.758  27.674  1.00  0.00     0.029 A 
ATOM     46  C   UNL A   1      41.093  27.773  28.844  1.00  0.00     0.049 A 
ATOM     47  H   UNL A   1      40.794  28.797  30.632  1.00  0.00     0.167 HD
ATOM     48  C   UNL A   1      40.050  31.017  34.327  1.00  0.00     0.037 A 
ATOM     49  C   UNL A   1      42.257  27.107  28.964  1.00  0.00     0.037 A 
ATOM     50  C   UNL A   1      41.260  30.276  34.575  1.00  0.00     0.049 A 
ATOM     51  C   UNL A   1      43.038  27.207  30.248  1.00  0.00     0.074 A 
ATOM     52  C   UNL A   1      42.017  30.219  35.732  1.00  0.00     0.029 A 
ATOM     53  N   UNL A   1      41.895  29.467  33.644  1.00  0.00    -0.354 N 
ATOM     54  N   UNL A   1      42.747  27.861  31.346  1.00  0.00    -0.248 NA
ATOM     55  C   UNL A   1      44.307  26.469  30.309  1.00  0.00     0.031 C 
ATOM     56  C   UNL A   1      43.138  29.421  35.485  1.00  0.00     0.029 A 
ATOM     57  C   UNL A   1      43.051  28.932  34.191  1.00  0.00     0.049 A 
ATOM     58  H   UNL A   1      41.573  29.298  32.729  1.00  0.00     0.167 HD
ATOM     59  C   UNL A   1      43.780  27.594  32.236  1.00  0.00     0.074 A 
ATOM     60  C   UNL A   1      44.696  26.703  31.555  1.00  0.00     0.031 C 
ATOM     61  C   UNL A   1      43.955  28.046  33.503  1.00  0.00     0.037 A 
BRANCH  48  62
ATOM     62  C   UNL A   1      39.525  31.900  35.423  1.00  0.00     0.064 A 
ATOM     63  C   UNL A   1      38.601  31.432  36.369  1.00  0.00     0.173 A 
ATOM     64  C   UNL A   1      39.985  33.220  35.551  1.00  0.00     0.173 A 
ATOM     65  F   UNL A   1      38.122  30.183  36.284  1.00  0.00    -0.203 F 
ATOM     66  C   UNL A   1      38.139  32.260  37.389  1.00  0.00     0.198 A 
ATOM     67  C   UNL A   1      39.541  34.036  36.589  1.00  0.00     0.198 A 
ATOM     68  F   UNL A   1      40.872  33.716  34.676  1.00  0.00    -0.203 F 
ATOM     69  F   UNL A   1      37.223  31.806  38.256  1.00  0.00    -0.200 F 
ATOM     70  C   UNL A   1      38.614  33.558  37.502  1.00  0.00     0.200 A 
ATOM     71  F   UNL A   1      40.012  35.286  36.705  1.00  0.00    -0.200 F 
ATOM     72  F   UNL A   1      38.174  34.351  38.489  1.00  0.00    -0.200 F 
ENDBRANCH  48  62
BRANCH  49  73
ATOM     73  C   UNL A   1      42.761  26.286  27.831  1.00  0.00     0.064 A 
ATOM     74  C   UNL A   1      43.599  26.839  26.853  1.00  0.00     0.173 A 
ATOM     75  C   UNL A   1      42.398  24.938  27.695  1.00  0.00     0.173 A 
ATOM     76  F   UNL A   1      43.952  28.131  26.925  1.00  0.00    -0.203 F 
ATOM     77  C   UNL A   1      44.041  26.078  25.772  1.00  0.00     0.198 A 
ATOM     78  C   UNL A   1      42.864  24.171  26.630  1.00  0.00     0.198 A 
ATOM     79  F   UNL A   1      41.596  24.364  28.603  1.00  0.00    -0.203 F 
ATOM     80  F   UNL A   1      44.802  26.644  24.825  1.00  0.00    -0.200 F 
ATOM     81  C   UNL A   1      43.679  24.743  25.664  1.00  0.00     0.200 A 
ATOM     82  F   UNL A   1      42.520  22.879  26.536  1.00  0.00    -0.200 F 
ATOM     83  F   UNL A   1      44.106  24.013  24.626  1.00  0.00    -0.200 F 
ENDBRANCH  49  73
BRANCH  61  84
ATOM     84  C   UNL A   1      45.167  27.561  34.246  1.00  0.00     0.064 A 
ATOM     85  C   UNL A   1      45.149  26.373  34.992  1.00  0.00     0.173 A 
ATOM     86  C   UNL A   1      46.373  28.278  34.185  1.00  0.00     0.173 A 
ATOM     87  F   UNL A   1      44.019  25.657  35.093  1.00  0.00    -0.203 F 
ATOM     88  C   UNL A   1      46.283  25.938  35.674  1.00  0.00     0.198 A 
ATOM     89  C   UNL A   1      47.512  27.824  34.842  1.00  0.00     0.198 A 
ATOM     90  F   UNL A   1      46.447  29.417  33.479  1.00  0.00    -0.203 F 
ATOM     91  F   UNL A   1      46.227  24.828  36.423  1.00  0.00    -0.200 F 
ATOM     92  C   UNL A   1      47.464  26.660  35.593  1.00  0.00     0.200 A 
ATOM     93  F   UNL A   1      48.657  28.514  34.750  1.00  0.00    -0.200 F 
ATOM     94  F   UNL A   1      48.555  26.236  36.245  1.00  0.00    -0.200 F 
ENDBRANCH  61  84
ENDBRANCH  35  36
ENDBRANCH  28  30
ENDBRANCH  27  28
ENDBRANCH  26  27
ENDBRANCH  25  26
ENDBRANCH   1  25
TORSDOF 16
ENDMDL
MODEL 2
REMARK VINA RESULT:     -12.5      4.430     10.307
REMARK SMILES CC(=O)Nc1cccc(-c2ccc(F)c(C(=O)OCCOCCOC(=O)c3ccc(-c4c5nc(c(-c6c(F)c(F)c(F)c(F)c6F)c6ccc([nH]6)c(-c6c(F)c(F)c(F)c(F)c6F)c6nc(c(-c7c(F)c(F)c(F)c(F)c7F)c7ccc4[nH]7)C=C6)C=C5)cc3)c2)c1
REMARK SMILES IDX 21 1 20 2 19 3 18 4 16 5 17 6 15 7 10 8 11 9 90 10 12 11
REMARK SMILES IDX 13 12 14 13 9 14 5 15 6 16 91 17 7 18 8 19 4 20 1 21 2 22
REMARK SMILES IDX 3 23 22 25 23 26 24 27 25 28 26 29 27 30 28 31 89 32 29 33
REMARK SMILES IDX 88 34 30 35 31 36 32 37 82 38 33 39 87 40 81 41 83 42 34 43
REMARK SMILES IDX 86 44 80 45 79 46 35 48 67 49 47 50 66 51 48 52 51 53 65 54
REMARK SMILES IDX 84 55 49 56 50 57 64 59 85 60 52 61 36 62 37 63 45 64 38 65
REMARK SMILES IDX 39 66 43 67 46 68 40 69 41 70 44 71 42 72 68 73 69 74 77 75
REMARK SMILES IDX 70 76 71 77 75 78 78 79 72 80 73 81 76 82 74 83 53 84 54 85
REMARK SMILES IDX 62 86 55 87 56 88 60 89 63 90 57 91 58 92 61 93 59 94
REMARK H PARENT 4 24 83 47 51 58
REMARK Flexibility Score: inf
ROOT
ATOM      1  O   UNL A   1      35.426  21.894  24.658  1.00  0.00    -0.374 OA
ENDROOT
BRANCH   1   2
ATOM      2  C   UNL A   1      34.032  22.130  24.852  1.00  0.00     0.202 C 
BRANCH   2   3
ATOM      3  C   UNL A   1      33.163  22.127  23.590  1.00  0.00     0.261 C 
BRANCH   3   4
ATOM      4  O   UNL A   1      32.585  23.426  23.374  1.00  0.00    -0.460 OA
BRANCH   4   5
ATOM      5  C   UNL A   1      33.470  24.429  23.150  1.00  0.00     0.341 C 
ATOM      6  O   UNL A   1      34.426  24.404  22.396  1.00  0.00    -0.246 OA
BRANCH   5   7
ATOM      7  C   UNL A   1      33.032  25.628  23.890  1.00  0.00     0.096 A 
ATOM      8  C   UNL A   1      31.516  27.524  24.195  1.00  0.00    -0.017 A 
ATOM      9  C   UNL A   1      32.246  27.878  25.344  1.00  0.00     0.012 A 
ATOM     10  C   UNL A   1      31.942  26.398  23.461  1.00  0.00     0.027 A 
ATOM     11  C   UNL A   1      33.353  27.130  25.753  1.00  0.00     0.041 A 
ATOM     12  C   UNL A   1      33.736  26.007  25.030  1.00  0.00     0.137 A 
ATOM     13  F   UNL A   1      34.818  25.329  25.431  1.00  0.00    -0.206 F 
BRANCH   8  14
ATOM     14  C   UNL A   1      30.307  28.269  23.799  1.00  0.00    -0.016 A 
ATOM     15  C   UNL A   1      29.160  30.422  23.556  1.00  0.00     0.041 A 
ATOM     16  C   UNL A   1      28.018  29.756  23.109  1.00  0.00     0.026 A 
ATOM     17  C   UNL A   1      30.280  29.672  23.914  1.00  0.00     0.034 A 
ATOM     18  C   UNL A   1      28.026  28.368  22.960  1.00  0.00     0.003 A 
ATOM     19  C   UNL A   1      29.164  27.631  23.298  1.00  0.00     0.009 A 
BRANCH  15  20
ATOM     20  N   UNL A   1      29.097  31.819  23.684  1.00  0.00    -0.326 N 
ATOM     21  C   UNL A   1      28.280  32.465  21.416  1.00  0.00     0.114 C 
ATOM     22  C   UNL A   1      28.871  32.800  22.761  1.00  0.00     0.221 C 
ATOM     23  O   UNL A   1      29.098  33.973  23.070  1.00  0.00    -0.275 OA
ATOM     24  H   UNL A   1      29.239  32.149  24.601  1.00  0.00     0.169 HD
ENDBRANCH  15  20
ENDBRANCH   8  14
ENDBRANCH   5   7
ENDBRANCH   4   5
ENDBRANCH   3   4
ENDBRANCH   2   3
ENDBRANCH   1   2
BRANCH   1  25
ATOM     25  C   UNL A   1      35.921  20.594  24.980  1.00  0.00     0.202 C 
BRANCH  25  26
ATOM     26  C   UNL A   1      37.445  20.424  24.983  1.00  0.00     0.261 C 
BRANCH  26  27
ATOM     27  O   UNL A   1      38.128  21.615  25.413  1.00  0.00    -0.460 OA
BRANCH  27  28
ATOM     28  C   UNL A   1      39.272  21.388  26.103  1.00  0.00     0.338 C 
ATOM     29  O   UNL A   1      39.929  20.362  26.132  1.00  0.00    -0.246 OA
BRANCH  28  30
ATOM     30  C   UNL A   1      39.745  22.640  26.723  1.00  0.00     0.060 A 
ATOM     31  C   UNL A   1      39.163  23.835  26.283  1.00  0.00     0.016 A 
ATOM     32  C   UNL A   1      40.786  22.659  27.653  1.00  0.00     0.016 A 
ATOM     33  C   UNL A   1      39.650  25.056  26.737  1.00  0.00     0.010 A 
ATOM     34  C   UNL A   1      41.278  23.888  28.106  1.00  0.00     0.010 A 
ATOM     35  C   UNL A   1      40.734  25.094  27.626  1.00  0.00    -0.014 A 
BRANCH  35  36
ATOM     36  C   UNL A   1      41.356  26.399  27.959  1.00  0.00     0.031 A 
ATOM     37  C   UNL A   1      42.766  26.681  27.521  1.00  0.00     0.074 A 
ATOM     38  C   UNL A   1      40.650  27.343  28.608  1.00  0.00     0.049 A 
ATOM     39  N   UNL A   1      43.490  27.757  27.692  1.00  0.00    -0.248 NA
ATOM     40  C   UNL A   1      43.452  25.604  26.791  1.00  0.00     0.031 C 
ATOM     41  C   UNL A   1      39.268  27.198  29.059  1.00  0.00     0.029 A 
ATOM     42  N   UNL A   1      41.003  28.610  28.998  1.00  0.00    -0.354 N 
ATOM     43  C   UNL A   1      44.714  27.489  27.094  1.00  0.00     0.074 A 
ATOM     44  C   UNL A   1      44.649  26.136  26.586  1.00  0.00     0.031 C 
ATOM     45  C   UNL A   1      38.889  28.335  29.669  1.00  0.00     0.029 A 
ATOM     46  C   UNL A   1      40.009  29.274  29.674  1.00  0.00     0.049 A 
ATOM     47  H   UNL A   1      41.885  29.006  28.811  1.00  0.00     0.167 HD
ATOM     48  C   UNL A   1      45.790  28.303  26.969  1.00  0.00     0.037 A 
ATOM     49  C   UNL A   1      40.011  30.494  30.244  1.00  0.00     0.037 A 
ATOM     50  C   UNL A   1      45.853  29.651  27.474  1.00  0.00     0.049 A 
ATOM     51  C   UNL A   1      41.242  31.355  30.144  1.00  0.00     0.074 A 
ATOM     52  C   UNL A   1      46.888  30.564  27.372  1.00  0.00     0.029 A 
ATOM     53  N   UNL A   1      44.839  30.276  28.185  1.00  0.00    -0.354 N 
ATOM     54  N   UNL A   1      42.380  31.109  29.542  1.00  0.00    -0.248 NA
ATOM     55  C   UNL A   1      41.184  32.670  30.800  1.00  0.00     0.031 C 
ATOM     56  C   UNL A   1      46.523  31.721  28.068  1.00  0.00     0.029 A 
ATOM     57  C   UNL A   1      45.237  31.551  28.555  1.00  0.00     0.049 A 
ATOM     58  H   UNL A   1      43.966  29.873  28.396  1.00  0.00     0.167 HD
ATOM     59  C   UNL A   1      43.163  32.242  29.723  1.00  0.00     0.074 A 
ATOM     60  C   UNL A   1      42.362  33.185  30.476  1.00  0.00     0.031 C 
ATOM     61  C   UNL A   1      44.431  32.481  29.304  1.00  0.00     0.037 A 
BRANCH  48  62
ATOM     62  C   UNL A   1      47.002  27.751  26.274  1.00  0.00     0.064 A 
ATOM     63  C   UNL A   1      48.048  27.144  26.986  1.00  0.00     0.173 A 
ATOM     64  C   UNL A   1      47.098  27.794  24.875  1.00  0.00     0.173 A 
ATOM     65  F   UNL A   1      48.010  27.089  28.325  1.00  0.00    -0.203 F 
ATOM     66  C   UNL A   1      49.156  26.623  26.324  1.00  0.00     0.198 A 
ATOM     67  C   UNL A   1      48.195  27.246  24.215  1.00  0.00     0.198 A 
ATOM     68  F   UNL A   1      46.124  28.359  24.146  1.00  0.00    -0.203 F 
ATOM     69  F   UNL A   1      50.165  26.087  27.026  1.00  0.00    -0.200 F 
ATOM     70  C   UNL A   1      49.226  26.667  24.939  1.00  0.00     0.200 A 
ATOM     71  F   UNL A   1      48.254  27.278  22.876  1.00  0.00    -0.200 F 
ATOM     72  F   UNL A   1      50.290  26.157  24.303  1.00  0.00    -0.200 F 
ENDBRANCH  48  62
BRANCH  49  73
ATOM     73  C   UNL A   1      38.803  30.975  30.965  1.00  0.00     0.064 A 
ATOM     74  C   UNL A   1      38.684  30.830  32.354  1.00  0.00     0.173 A 
ATOM     75  C   UNL A   1      37.738  31.574  30.277  1.00  0.00     0.173 A 
ATOM     76  F   UNL A   1      39.664  30.239  33.053  1.00  0.00    -0.203 F 
ATOM     77  C   UNL A   1      37.535  31.249  33.024  1.00  0.00     0.198 A 
ATOM     78  C   UNL A   1      36.604  32.019  30.952  1.00  0.00     0.198 A 
ATOM     79  F   UNL A   1      37.803  31.734  28.947  1.00  0.00    -0.203 F 
ATOM     80  F   UNL A   1      37.426  31.054  34.346  1.00  0.00    -0.200 F 
ATOM     81  C   UNL A   1      36.499  31.849  32.324  1.00  0.00     0.200 A 
ATOM     82  F   UNL A   1      35.610  32.608  30.272  1.00  0.00    -0.200 F 
ATOM     83  F   UNL A   1      35.398  32.253  32.970  1.00  0.00    -0.200 F 
ENDBRANCH  49  73
BRANCH  61  84
ATOM     84  C   UNL A   1      45.020  33.825  29.625  1.00  0.00     0.064 A 
ATOM     85  C   UNL A   1      45.788  34.038  30.779  1.00  0.00     0.173 A 
ATOM     86  C   UNL A   1      44.840  34.908  28.749  1.00  0.00     0.173 A 
ATOM     87  F   UNL A   1      45.979  33.040  31.656  1.00  0.00    -0.203 F 
ATOM     88  C   UNL A   1      46.328  35.290  31.061  1.00  0.00     0.198 A 
ATOM     89  C   UNL A   1      45.408  36.150  29.017  1.00  0.00     0.198 A 
ATOM     90  F   UNL A   1      44.121  34.757  27.626  1.00  0.00    -0.203 F 
ATOM     91  F   UNL A   1      47.013  35.482  32.196  1.00  0.00    -0.200 F 
ATOM     92  C   UNL A   1      46.142  36.343  30.177  1.00  0.00     0.200 A 
ATOM     93  F   UNL A   1      45.241  37.161  28.154  1.00  0.00    -0.200 F 
ATOM     94  F   UNL A   1      46.667  37.546  30.447  1.00  0.00    -0.200 F 
ENDBRANCH  61  84
ENDBRANCH  35  36
ENDBRANCH  28  30
ENDBRANCH  27  28
ENDBRANCH  26  27
ENDBRANCH  25  26
ENDBRANCH   1  25
TORSDOF 16
ENDMDL
MODEL 3
REMARK VINA RESULT:     -12.4      3.236      5.275
REMARK SMILES CC(=O)Nc1cccc(-c2ccc(F)c(C(=O)OCCOCCOC(=O)c3ccc(-c4c5nc(c(-c6c(F)c(F)c(F)c(F)c6F)c6ccc([nH]6)c(-c6c(F)c(F)c(F)c(F)c6F)c6nc(c(-c7c(F)c(F)c(F)c(F)c7F)c7ccc4[nH]7)C=C6)C=C5)cc3)c2)c1
REMARK SMILES IDX 21 1 20 2 19 3 18 4 16 5 17 6 15 7 10 8 11 9 90 10 12 11
REMARK SMILES IDX 13 12 14 13 9 14 5 15 6 16 91 17 7 18 8 19 4 20 1 21 2 22
REMARK SMILES IDX 3 23 22 25 23 26 24 27 25 28 26 29 27 30 28 31 89 32 29 33
REMARK SMILES IDX 88 34 30 35 31 36 32 37 82 38 33 39 87 40 81 41 83 42 34 43
REMARK SMILES IDX 86 44 80 45 79 46 35 48 67 49 47 50 66 51 48 52 51 53 65 54
REMARK SMILES IDX 84 55 49 56 50 57 64 59 85 60 52 61 36 62 37 63 45 64 38 65
REMARK SMILES IDX 39 66 43 67 46 68 40 69 41 70 44 71 42 72 68 73 69 74 77 75
REMARK SMILES IDX 70 76 71 77 75 78 78 79 72 80 73 81 76 82 74 83 53 84 54 85
REMARK SMILES IDX 62 86 55 87 56 88 60 89 63 90 57 91 58 92 61 93 59 94
REMARK H PARENT 4 24 83 47 51 58
REMARK Flexibility Score: inf
ROOT
ATOM      1  O   UNL A   1      33.189  30.666  26.655  1.00  0.00    -0.374 OA
ENDROOT
BRANCH   1   2
ATOM      2  C   UNL A   1      33.422  29.460  25.927  1.00  0.00     0.202 C 
BRANCH   2   3
ATOM      3  C   UNL A   1      33.336  28.158  26.729  1.00  0.00     0.261 C 
BRANCH   3   4
ATOM      4  O   UNL A   1      34.009  27.093  26.034  1.00  0.00    -0.460 OA
BRANCH   4   5
ATOM      5  C   UNL A   1      33.234  26.029  25.705  1.00  0.00     0.341 C 
ATOM      6  O   UNL A   1      33.011  25.048  26.391  1.00  0.00    -0.246 OA
BRANCH   5   7
ATOM      7  C   UNL A   1      32.592  26.291  24.403  1.00  0.00     0.096 A 
ATOM      8  C   UNL A   1      30.742  27.164  23.061  1.00  0.00    -0.017 A 
ATOM      9  C   UNL A   1      31.438  26.768  21.906  1.00  0.00     0.012 A 
ATOM     10  C   UNL A   1      31.329  26.894  24.314  1.00  0.00     0.027 A 
ATOM     11  C   UNL A   1      32.682  26.137  21.994  1.00  0.00     0.041 A 
ATOM     12  C   UNL A   1      33.255  25.908  23.240  1.00  0.00     0.137 A 
ATOM     13  F   UNL A   1      34.433  25.275  23.292  1.00  0.00    -0.206 F 
BRANCH   8  14
ATOM     14  C   UNL A   1      29.463  27.892  22.970  1.00  0.00    -0.016 A 
ATOM     15  C   UNL A   1      28.207  29.822  22.126  1.00  0.00     0.041 A 
ATOM     16  C   UNL A   1      27.070  29.364  22.792  1.00  0.00     0.026 A 
ATOM     17  C   UNL A   1      29.391  29.094  22.240  1.00  0.00     0.034 A 
ATOM     18  C   UNL A   1      27.104  28.162  23.502  1.00  0.00     0.003 A 
ATOM     19  C   UNL A   1      28.291  27.430  23.586  1.00  0.00     0.009 A 
BRANCH  15  20
ATOM     20  N   UNL A   1      28.114  31.035  21.426  1.00  0.00    -0.326 N 
ATOM     21  C   UNL A   1      28.699  32.664  23.223  1.00  0.00     0.114 C 
ATOM     22  C   UNL A   1      28.161  32.331  21.856  1.00  0.00     0.221 C 
ATOM     23  O   UNL A   1      27.819  33.229  21.082  1.00  0.00    -0.275 OA
ATOM     24  H   UNL A   1      27.994  30.935  20.454  1.00  0.00     0.169 HD
ENDBRANCH  15  20
ENDBRANCH   8  14
ENDBRANCH   5   7
ENDBRANCH   4   5
ENDBRANCH   3   4
ENDBRANCH   2   3
ENDBRANCH   1   2
BRANCH   1  25
ATOM     25  C   UNL A   1      31.870  31.211  26.613  1.00  0.00     0.202 C 
BRANCH  25  26
ATOM     26  C   UNL A   1      31.738  32.704  26.935  1.00  0.00     0.261 C 
BRANCH  26  27
ATOM     27  O   UNL A   1      33.003  33.388  26.897  1.00  0.00    -0.460 OA
BRANCH  27  28
ATOM     28  C   UNL A   1      33.443  33.824  28.102  1.00  0.00     0.338 C 
ATOM     29  O   UNL A   1      32.884  34.600  28.858  1.00  0.00    -0.246 OA
BRANCH  28  30
ATOM     30  C   UNL A   1      34.664  33.095  28.489  1.00  0.00     0.060 A 
ATOM     31  C   UNL A   1      34.500  31.889  29.182  1.00  0.00     0.016 A 
ATOM     32  C   UNL A   1      35.941  33.610  28.253  1.00  0.00     0.016 A 
ATOM     33  C   UNL A   1      35.610  31.217  29.682  1.00  0.00     0.010 A 
ATOM     34  C   UNL A   1      37.056  32.934  28.762  1.00  0.00     0.010 A 
ATOM     35  C   UNL A   1      36.895  31.751  29.506  1.00  0.00    -0.014 A 
BRANCH  35  36
ATOM     36  C   UNL A   1      38.046  31.120  30.198  1.00  0.00     0.031 A 
ATOM     37  C   UNL A   1      38.333  31.473  31.630  1.00  0.00     0.074 A 
ATOM     38  C   UNL A   1      38.801  30.204  29.565  1.00  0.00     0.049 A 
ATOM     39  N   UNL A   1      39.273  31.028  32.424  1.00  0.00    -0.248 NA
ATOM     40  C   UNL A   1      37.439  32.462  32.253  1.00  0.00     0.031 C 
ATOM     41  C   UNL A   1      38.604  29.759  28.188  1.00  0.00     0.029 A 
ATOM     42  N   UNL A   1      39.884  29.485  30.003  1.00  0.00    -0.354 N 
ATOM     43  C   UNL A   1      39.087  31.680  33.636  1.00  0.00     0.074 A 
ATOM     44  C   UNL A   1      37.965  32.578  33.464  1.00  0.00     0.031 C 
ATOM     45  C   UNL A   1      39.541  28.841  27.890  1.00  0.00     0.029 A 
ATOM     46  C   UNL A   1      40.416  28.656  29.046  1.00  0.00     0.049 A 
ATOM     47  H   UNL A   1      40.246  29.556  30.916  1.00  0.00     0.167 HD
ATOM     48  C   UNL A   1      39.780  31.533  34.790  1.00  0.00     0.037 A 
ATOM     49  C   UNL A   1      41.495  27.852  29.095  1.00  0.00     0.037 A 
ATOM     50  C   UNL A   1      40.896  30.637  34.960  1.00  0.00     0.049 A 
ATOM     51  C   UNL A   1      42.286  27.753  30.372  1.00  0.00     0.074 A 
ATOM     52  C   UNL A   1      41.645  30.397  36.099  1.00  0.00     0.029 A 
ATOM     53  N   UNL A   1      41.429  29.840  33.957  1.00  0.00    -0.354 N 
ATOM     54  N   UNL A   1      42.078  28.343  31.525  1.00  0.00    -0.248 NA
ATOM     55  C   UNL A   1      43.461  26.870  30.356  1.00  0.00     0.031 C 
ATOM     56  C   UNL A   1      42.665  29.497  35.772  1.00  0.00     0.029 A 
ATOM     57  C   UNL A   1      42.516  29.131  34.443  1.00  0.00     0.049 A 
ATOM     58  H   UNL A   1      41.086  29.786  33.036  1.00  0.00     0.167 HD
ATOM     59  C   UNL A   1      43.076  27.884  32.375  1.00  0.00     0.074 A 
ATOM     60  C   UNL A   1      43.879  26.953  31.611  1.00  0.00     0.031 C 
ATOM     61  C   UNL A   1      43.307  28.206  33.673  1.00  0.00     0.037 A 
BRANCH  48  62
ATOM     62  C   UNL A   1      39.367  32.377  35.962  1.00  0.00     0.064 A 
ATOM     63  C   UNL A   1      38.466  31.905  36.930  1.00  0.00     0.173 A 
ATOM     64  C   UNL A   1      39.910  33.658  36.140  1.00  0.00     0.173 A 
ATOM     65  F   UNL A   1      37.910  30.692  36.800  1.00  0.00    -0.203 F 
ATOM     66  C   UNL A   1      38.108  32.695  38.019  1.00  0.00     0.198 A 
ATOM     67  C   UNL A   1      39.570  34.434  37.245  1.00  0.00     0.198 A 
ATOM     68  F   UNL A   1      40.778  34.155  35.246  1.00  0.00    -0.203 F 
ATOM     69  F   UNL A   1      37.212  32.243  38.908  1.00  0.00    -0.200 F 
ATOM     70  C   UNL A   1      38.665  33.956  38.180  1.00  0.00     0.200 A 
ATOM     71  F   UNL A   1      40.120  35.646  37.406  1.00  0.00    -0.200 F 
ATOM     72  F   UNL A   1      38.324  34.711  39.233  1.00  0.00    -0.200 F 
ENDBRANCH  48  62
BRANCH  49  73
ATOM     73  C   UNL A   1      41.894  27.075  27.892  1.00  0.00     0.064 A 
ATOM     74  C   UNL A   1      41.427  25.771  27.684  1.00  0.00     0.173 A 
ATOM     75  C   UNL A   1      42.766  27.617  26.936  1.00  0.00     0.173 A 
ATOM     76  F   UNL A   1      40.612  25.199  28.583  1.00  0.00    -0.203 F 
ATOM     77  C   UNL A   1      41.831  25.031  26.574  1.00  0.00     0.198 A 
ATOM     78  C   UNL A   1      43.146  26.887  25.812  1.00  0.00     0.198 A 
ATOM     79  F   UNL A   1      43.244  28.860  27.091  1.00  0.00    -0.203 F 
ATOM     80  F   UNL A   1      41.407  23.767  26.424  1.00  0.00    -0.200 F 
ATOM     81  C   UNL A   1      42.685  25.591  25.635  1.00  0.00     0.200 A 
ATOM     82  F   UNL A   1      43.963  27.437  24.903  1.00  0.00    -0.200 F 
ATOM     83  F   UNL A   1      43.070  24.880  24.568  1.00  0.00    -0.200 F 
ENDBRANCH  49  73
BRANCH  61  84
ATOM     84  C   UNL A   1      44.457  27.523  34.357  1.00  0.00     0.064 A 
ATOM     85  C   UNL A   1      45.733  28.105  34.412  1.00  0.00     0.173 A 
ATOM     86  C   UNL A   1      44.274  26.286  34.993  1.00  0.00     0.173 A 
ATOM     87  F   UNL A   1      45.966  29.280  33.809  1.00  0.00    -0.203 F 
ATOM     88  C   UNL A   1      46.788  27.458  35.052  1.00  0.00     0.198 A 
ATOM     89  C   UNL A   1      45.322  25.657  35.658  1.00  0.00     0.198 A 
ATOM     90  F   UNL A   1      43.071  25.690  34.977  1.00  0.00    -0.203 F 
ATOM     91  F   UNL A   1      48.010  28.008  35.045  1.00  0.00    -0.200 F 
ATOM     92  C   UNL A   1      46.580  26.239  35.679  1.00  0.00     0.200 A 
ATOM     93  F   UNL A   1      45.116  24.487  36.277  1.00  0.00    -0.200 F 
ATOM     94  F   UNL A   1      47.595  25.621  36.298  1.00  0.00    -0.200 F 
ENDBRANCH  61  84
ENDBRANCH  35  36
ENDBRANCH  28  30
ENDBRANCH  27  28
ENDBRANCH  26  27
ENDBRANCH  25  26
ENDBRANCH   1  25
TORSDOF 16
ENDMDL
