MODEL 1
REMARK VINA RESULT:     -12.0      0.000      0.000
REMARK SMILES Cc1ccc(NC(=O)C[N@H+]2CC[C@@H](C(=O)OCCOCCOC(=O)c3ccc(-c4c5nc(c(-c6c(F)c(F)c(F)c(F)c6F)c6ccc([nH]6)c(-c6c(F)c(F)c(F)c(F)c6F)c6nc(c(-c7c(F)c(F)c(F)c(F)c7F)c7ccc4[nH]7)C=C6)C=C5)cc3)[C@@H]2C)cc1
REMARK SMILES IDX 18 1 17 2 16 3 14 4 15 5 13 6 10 7 11 8 88 9 12 11 89 12
REMARK SMILES IDX 9 13 7 14 6 15 8 17 5 18 1 19 2 20 3 21 91 22 4 23 90 24
REMARK SMILES IDX 19 25 20 26 21 27 22 28 23 29 24 30 25 31 26 32 87 33 27 34
REMARK SMILES IDX 86 35 28 36 29 37 30 38 80 39 31 40 85 41 79 42 81 43 32 44
REMARK SMILES IDX 84 45 78 46 77 47 33 49 65 50 45 51 64 52 46 53 49 54 63 55
REMARK SMILES IDX 82 56 47 57 48 58 62 60 83 61 50 62 34 63 35 64 43 65 36 66
REMARK SMILES IDX 37 67 41 68 44 69 38 70 39 71 42 72 40 73 66 74 67 75 75 76
REMARK SMILES IDX 68 77 69 78 73 79 76 80 70 81 71 82 74 83 72 84 51 85 52 86
REMARK SMILES IDX 60 87 53 88 54 89 58 90 61 91 55 92 56 93 59 94 57 95
REMARK H PARENT 10 10 6 16 81 48 49 59
REMARK Flexibility Score: inf
ROOT
ATOM      1  C   UNL A   1      32.112  27.871  27.047  1.00  0.00     0.202 C 
ENDROOT
BRANCH   1   2
ATOM      2  C   UNL A   1      32.154  28.086  25.572  1.00  0.00     0.261 C 
BRANCH   2   3
ATOM      3  O   UNL A   1      32.793  26.959  24.965  1.00  0.00    -0.463 OA
BRANCH   3   4
ATOM      4  C   UNL A   1      33.293  26.957  23.708  1.00  0.00     0.315 C 
ATOM      5  O   UNL A   1      33.992  27.834  23.205  1.00  0.00    -0.252 OA
BRANCH   4   6
ATOM      6  C   UNL A   1      32.828  25.715  22.974  1.00  0.00     0.162 C 
ATOM      7  N   UNL A   1      31.673  24.013  24.275  1.00  0.00    -0.324 N 
ATOM      8  C   UNL A   1      30.752  24.457  23.238  1.00  0.00     0.264 C 
ATOM      9  C   UNL A   1      33.026  24.445  23.823  1.00  0.00     0.195 C 
ATOM     10  H   UNL A   1      31.593  23.000  24.366  1.00  0.00     0.348 HD
ATOM     11  C   UNL A   1      31.363  25.669  22.547  1.00  0.00     0.083 C 
ATOM     12  C   UNL A   1      33.767  23.437  22.942  1.00  0.00     0.076 C 
BRANCH   7  13
ATOM     13  C   UNL A   1      31.365  24.434  25.678  1.00  0.00     0.364 C 
BRANCH  13  14
ATOM     14  C   UNL A   1      31.201  23.347  26.777  1.00  0.00     0.279 C 
ATOM     15  N   UNL A   1      32.140  22.395  27.110  1.00  0.00    -0.321 N 
ATOM     16  H   UNL A   1      31.888  21.860  27.898  1.00  0.00     0.170 HD
ATOM     17  O   UNL A   1      30.135  23.288  27.410  1.00  0.00    -0.268 OA
BRANCH  15  18
ATOM     18  C   UNL A   1      33.383  22.025  26.565  1.00  0.00     0.041 A 
ATOM     19  C   UNL A   1      37.141  20.778  24.762  1.00  0.00     0.044 C 
ATOM     20  C   UNL A   1      35.879  21.280  25.399  1.00  0.00    -0.051 A 
ATOM     21  C   UNL A   1      34.735  20.525  25.219  1.00  0.00     0.005 A 
ATOM     22  C   UNL A   1      35.782  22.405  26.221  1.00  0.00     0.005 A 
ATOM     23  C   UNL A   1      33.530  20.876  25.829  1.00  0.00     0.026 A 
ATOM     24  C   UNL A   1      34.543  22.769  26.807  1.00  0.00     0.026 A 
ENDBRANCH  15  18
ENDBRANCH  13  14
ENDBRANCH   7  13
ENDBRANCH   4   6
ENDBRANCH   3   4
ENDBRANCH   2   3
ENDBRANCH   1   2
BRANCH   1  25
ATOM     25  O   UNL A   1      32.579  29.093  27.589  1.00  0.00    -0.374 OA
BRANCH  25  26
ATOM     26  C   UNL A   1      32.850  30.110  26.644  1.00  0.00     0.202 C 
BRANCH  26  27
ATOM     27  C   UNL A   1      33.368  31.381  27.319  1.00  0.00     0.261 C 
BRANCH  27  28
ATOM     28  O   UNL A   1      34.806  31.294  27.436  1.00  0.00    -0.460 OA
BRANCH  28  29
ATOM     29  C   UNL A   1      35.278  31.156  28.707  1.00  0.00     0.338 C 
ATOM     30  O   UNL A   1      35.137  31.976  29.600  1.00  0.00    -0.246 OA
BRANCH  29  31
ATOM     31  C   UNL A   1      36.275  30.040  28.774  1.00  0.00     0.060 A 
ATOM     32  C   UNL A   1      36.487  29.384  30.000  1.00  0.00     0.016 A 
ATOM     33  C   UNL A   1      37.238  29.946  27.771  1.00  0.00     0.016 A 
ATOM     34  C   UNL A   1      37.721  28.773  30.272  1.00  0.00     0.010 A 
ATOM     35  C   UNL A   1      38.495  29.472  28.099  1.00  0.00     0.010 A 
ATOM     36  C   UNL A   1      38.755  28.886  29.347  1.00  0.00    -0.014 A 
BRANCH  36  37
ATOM     37  C   UNL A   1      40.131  28.422  29.553  1.00  0.00     0.031 A 
ATOM     38  C   UNL A   1      40.516  27.098  28.977  1.00  0.00     0.074 A 
ATOM     39  C   UNL A   1      41.096  29.222  30.070  1.00  0.00     0.049 A 
ATOM     40  N   UNL A   1      41.668  26.548  29.135  1.00  0.00    -0.248 NA
ATOM     41  C   UNL A   1      39.644  26.288  28.132  1.00  0.00     0.031 C 
ATOM     42  C   UNL A   1      42.535  28.982  29.999  1.00  0.00     0.029 A 
ATOM     43  N   UNL A   1      41.011  30.439  30.766  1.00  0.00    -0.354 N 
ATOM     44  C   UNL A   1      41.797  25.501  28.263  1.00  0.00     0.074 A 
ATOM     45  C   UNL A   1      40.500  25.385  27.643  1.00  0.00     0.031 C 
ATOM     46  C   UNL A   1      43.199  29.858  30.758  1.00  0.00     0.029 A 
ATOM     47  C   UNL A   1      42.210  30.582  31.503  1.00  0.00     0.049 A 
ATOM     48  H   UNL A   1      40.259  31.074  30.745  1.00  0.00     0.167 HD
ATOM     49  C   UNL A   1      43.021  24.911  28.133  1.00  0.00     0.037 A 
ATOM     50  C   UNL A   1      42.240  30.678  32.858  1.00  0.00     0.037 A 
ATOM     51  C   UNL A   1      44.005  25.527  29.042  1.00  0.00     0.049 A 
ATOM     52  C   UNL A   1      43.009  29.496  33.386  1.00  0.00     0.074 A 
ATOM     53  C   UNL A   1      45.094  26.367  28.866  1.00  0.00     0.029 A 
ATOM     54  N   UNL A   1      43.732  25.551  30.417  1.00  0.00    -0.354 N 
ATOM     55  N   UNL A   1      42.943  28.304  32.832  1.00  0.00    -0.248 NA
ATOM     56  C   UNL A   1      44.131  29.643  34.309  1.00  0.00     0.031 C 
ATOM     57  C   UNL A   1      45.426  26.941  30.129  1.00  0.00     0.029 A 
ATOM     58  C   UNL A   1      44.565  26.427  31.091  1.00  0.00     0.049 A 
ATOM     59  H   UNL A   1      43.034  25.009  30.851  1.00  0.00     0.167 HD
ATOM     60  C   UNL A   1      44.078  27.618  33.169  1.00  0.00     0.074 A 
ATOM     61  C   UNL A   1      44.763  28.471  34.134  1.00  0.00     0.031 C 
ATOM     62  C   UNL A   1      44.565  26.506  32.547  1.00  0.00     0.037 A 
BRANCH  49  63
ATOM     63  C   UNL A   1      43.352  23.886  27.063  1.00  0.00     0.064 A 
ATOM     64  C   UNL A   1      42.906  22.549  27.152  1.00  0.00     0.173 A 
ATOM     65  C   UNL A   1      44.106  24.169  25.904  1.00  0.00     0.173 A 
ATOM     66  F   UNL A   1      42.133  22.137  28.163  1.00  0.00    -0.203 F 
ATOM     67  C   UNL A   1      43.241  21.574  26.202  1.00  0.00     0.198 A 
ATOM     68  C   UNL A   1      44.494  23.183  24.988  1.00  0.00     0.198 A 
ATOM     69  F   UNL A   1      44.440  25.424  25.581  1.00  0.00    -0.203 F 
ATOM     70  F   UNL A   1      42.767  20.326  26.332  1.00  0.00    -0.200 F 
ATOM     71  C   UNL A   1      44.057  21.885  25.134  1.00  0.00     0.200 A 
ATOM     72  F   UNL A   1      45.281  23.510  23.953  1.00  0.00    -0.200 F 
ATOM     73  F   UNL A   1      44.398  20.947  24.239  1.00  0.00    -0.200 F 
ENDBRANCH  49  63
BRANCH  50  74
ATOM     74  C   UNL A   1      41.091  31.467  33.369  1.00  0.00     0.064 A 
ATOM     75  C   UNL A   1      41.116  32.824  32.969  1.00  0.00     0.173 A 
ATOM     76  C   UNL A   1      39.834  30.868  33.532  1.00  0.00     0.173 A 
ATOM     77  F   UNL A   1      42.294  33.448  32.810  1.00  0.00    -0.203 F 
ATOM     78  C   UNL A   1      39.967  33.459  32.505  1.00  0.00     0.198 A 
ATOM     79  C   UNL A   1      38.678  31.525  33.095  1.00  0.00     0.198 A 
ATOM     80  F   UNL A   1      39.741  29.584  33.907  1.00  0.00    -0.203 F 
ATOM     81  F   UNL A   1      40.059  34.657  31.908  1.00  0.00    -0.200 F 
ATOM     82  C   UNL A   1      38.758  32.789  32.521  1.00  0.00     0.200 A 
ATOM     83  F   UNL A   1      37.501  30.885  33.105  1.00  0.00    -0.200 F 
ATOM     84  F   UNL A   1      37.690  33.324  31.911  1.00  0.00    -0.200 F 
ENDBRANCH  50  74
BRANCH  62  85
ATOM     85  C   UNL A   1      45.135  25.368  33.355  1.00  0.00     0.064 A 
ATOM     86  C   UNL A   1      46.504  25.041  33.348  1.00  0.00     0.173 A 
ATOM     87  C   UNL A   1      44.353  24.699  34.327  1.00  0.00     0.173 A 
ATOM     88  F   UNL A   1      47.377  25.664  32.545  1.00  0.00    -0.203 F 
ATOM     89  C   UNL A   1      47.041  24.090  34.212  1.00  0.00     0.198 A 
ATOM     90  C   UNL A   1      44.906  23.794  35.227  1.00  0.00     0.198 A 
ATOM     91  F   UNL A   1      43.040  24.933  34.469  1.00  0.00    -0.203 F 
ATOM     92  F   UNL A   1      48.345  23.797  34.138  1.00  0.00    -0.200 F 
ATOM     93  C   UNL A   1      46.246  23.480  35.161  1.00  0.00     0.200 A 
ATOM     94  F   UNL A   1      44.134  23.254  36.180  1.00  0.00    -0.200 F 
ATOM     95  F   UNL A   1      46.777  22.604  36.023  1.00  0.00    -0.200 F 
ENDBRANCH  62  85
ENDBRANCH  36  37
ENDBRANCH  29  31
ENDBRANCH  28  29
ENDBRANCH  27  28
ENDBRANCH  26  27
ENDBRANCH  25  26
ENDBRANCH   1  25
TORSDOF 17
ENDMDL
MODEL 2
REMARK VINA RESULT:     -11.8      3.514      9.577
REMARK SMILES Cc1ccc(NC(=O)C[N@H+]2CC[C@@H](C(=O)OCCOCCOC(=O)c3ccc(-c4c5nc(c(-c6c(F)c(F)c(F)c(F)c6F)c6ccc([nH]6)c(-c6c(F)c(F)c(F)c(F)c6F)c6nc(c(-c7c(F)c(F)c(F)c(F)c7F)c7ccc4[nH]7)C=C6)C=C5)cc3)[C@@H]2C)cc1
REMARK SMILES IDX 18 1 17 2 16 3 14 4 15 5 13 6 10 7 11 8 88 9 12 11 89 12
REMARK SMILES IDX 9 13 7 14 6 15 8 17 5 18 1 19 2 20 3 21 91 22 4 23 90 24
REMARK SMILES IDX 19 25 20 26 21 27 22 28 23 29 24 30 25 31 26 32 87 33 27 34
REMARK SMILES IDX 86 35 28 36 29 37 30 38 80 39 31 40 85 41 79 42 81 43 32 44
REMARK SMILES IDX 84 45 78 46 77 47 33 49 65 50 45 51 64 52 46 53 49 54 63 55
REMARK SMILES IDX 82 56 47 57 48 58 62 60 83 61 50 62 34 63 35 64 43 65 36 66
REMARK SMILES IDX 37 67 41 68 44 69 38 70 39 71 42 72 40 73 66 74 67 75 75 76
REMARK SMILES IDX 68 77 69 78 73 79 76 80 70 81 71 82 74 83 72 84 51 85 52 86
REMARK SMILES IDX 60 87 53 88 54 89 58 90 61 91 55 92 56 93 59 94 57 95
REMARK H PARENT 10 10 6 16 81 48 49 59
REMARK Flexibility Score: inf
ROOT
ATOM      1  C   UNL A   1      37.103  21.975  23.664  1.00  0.00     0.202 C 
ENDROOT
BRANCH   1   2
ATOM      2  C   UNL A   1      36.427  23.302  23.750  1.00  0.00     0.261 C 
BRANCH   2   3
ATOM      3  O   UNL A   1      35.214  23.245  22.992  1.00  0.00    -0.463 OA
BRANCH   3   4
ATOM      4  C   UNL A   1      33.981  23.154  23.541  1.00  0.00     0.315 C 
ATOM      5  O   UNL A   1      33.011  23.856  23.263  1.00  0.00    -0.252 OA
BRANCH   4   6
ATOM      6  C   UNL A   1      33.971  22.068  24.598  1.00  0.00     0.162 C 
ATOM      7  N   UNL A   1      31.975  21.866  25.975  1.00  0.00    -0.324 N 
ATOM      8  C   UNL A   1      32.144  20.598  25.278  1.00  0.00     0.264 C 
ATOM      9  C   UNL A   1      33.299  22.546  25.899  1.00  0.00     0.195 C 
ATOM     10  H   UNL A   1      31.687  21.671  26.934  1.00  0.00     0.348 HD
ATOM     11  C   UNL A   1      33.254  20.766  24.249  1.00  0.00     0.083 C 
ATOM     12  C   UNL A   1      34.263  22.218  27.040  1.00  0.00     0.076 C 
BRANCH   7  13
ATOM     13  C   UNL A   1      30.843  22.737  25.527  1.00  0.00     0.364 C 
BRANCH  13  14
ATOM     14  C   UNL A   1      30.033  23.532  26.588  1.00  0.00     0.279 C 
ATOM     15  N   UNL A   1      29.688  24.865  26.502  1.00  0.00    -0.321 N 
ATOM     16  H   UNL A   1      29.090  25.158  27.228  1.00  0.00     0.170 HD
ATOM     17  O   UNL A   1      29.670  22.954  27.625  1.00  0.00    -0.268 OA
BRANCH  15  18
ATOM     18  C   UNL A   1      30.009  25.894  25.598  1.00  0.00     0.041 A 
ATOM     19  C   UNL A   1      30.840  29.056  22.728  1.00  0.00     0.044 C 
ATOM     20  C   UNL A   1      30.599  28.006  23.772  1.00  0.00    -0.051 A 
ATOM     21  C   UNL A   1      29.605  27.080  23.520  1.00  0.00     0.005 A 
ATOM     22  C   UNL A   1      31.347  27.842  24.939  1.00  0.00     0.005 A 
ATOM     23  C   UNL A   1      29.353  26.026  24.400  1.00  0.00     0.026 A 
ATOM     24  C   UNL A   1      31.059  26.786  25.842  1.00  0.00     0.026 A 
ENDBRANCH  15  18
ENDBRANCH  13  14
ENDBRANCH   7  13
ENDBRANCH   4   6
ENDBRANCH   3   4
ENDBRANCH   2   3
ENDBRANCH   1   2
BRANCH   1  25
ATOM     25  O   UNL A   1      37.237  21.567  25.014  1.00  0.00    -0.374 OA
BRANCH  25  26
ATOM     26  C   UNL A   1      37.975  22.443  25.841  1.00  0.00     0.202 C 
BRANCH  26  27
ATOM     27  C   UNL A   1      39.293  21.813  26.293  1.00  0.00     0.261 C 
BRANCH  27  28
ATOM     28  O   UNL A   1      39.969  22.733  27.181  1.00  0.00    -0.460 OA
BRANCH  28  29
ATOM     29  C   UNL A   1      40.769  23.650  26.568  1.00  0.00     0.338 C 
ATOM     30  O   UNL A   1      41.845  23.403  26.047  1.00  0.00    -0.246 OA
BRANCH  29  31
ATOM     31  C   UNL A   1      40.329  25.039  26.912  1.00  0.00     0.060 A 
ATOM     32  C   UNL A   1      40.780  26.115  26.127  1.00  0.00     0.016 A 
ATOM     33  C   UNL A   1      39.840  25.284  28.194  1.00  0.00     0.016 A 
ATOM     34  C   UNL A   1      40.886  27.401  26.680  1.00  0.00     0.010 A 
ATOM     35  C   UNL A   1      40.082  26.516  28.774  1.00  0.00     0.010 A 
ATOM     36  C   UNL A   1      40.609  27.584  28.032  1.00  0.00    -0.014 A 
BRANCH  36  37
ATOM     37  C   UNL A   1      40.808  28.833  28.776  1.00  0.00     0.031 A 
ATOM     38  C   UNL A   1      39.640  29.754  28.919  1.00  0.00     0.074 A 
ATOM     39  C   UNL A   1      41.936  29.083  29.486  1.00  0.00     0.049 A 
ATOM     40  N   UNL A   1      39.693  30.904  29.493  1.00  0.00    -0.248 NA
ATOM     41  C   UNL A   1      38.290  29.442  28.461  1.00  0.00     0.031 C 
ATOM     42  C   UNL A   1      42.091  30.110  30.512  1.00  0.00     0.029 A 
ATOM     43  N   UNL A   1      43.198  28.466  29.459  1.00  0.00    -0.354 N 
ATOM     44  C   UNL A   1      38.422  31.364  29.711  1.00  0.00     0.074 A 
ATOM     45  C   UNL A   1      37.572  30.402  29.055  1.00  0.00     0.031 C 
ATOM     46  C   UNL A   1      43.369  30.214  30.888  1.00  0.00     0.029 A 
ATOM     47  C   UNL A   1      44.126  29.395  29.986  1.00  0.00     0.049 A 
ATOM     48  H   UNL A   1      43.399  27.558  29.136  1.00  0.00     0.167 HD
ATOM     49  C   UNL A   1      38.257  32.475  30.487  1.00  0.00     0.037 A 
ATOM     50  C   UNL A   1      45.183  29.871  29.276  1.00  0.00     0.037 A 
ATOM     51  C   UNL A   1      39.559  33.014  30.923  1.00  0.00     0.049 A 
ATOM     52  C   UNL A   1      45.005  31.359  29.131  1.00  0.00     0.074 A 
ATOM     53  C   UNL A   1      40.239  33.045  32.131  1.00  0.00     0.029 A 
ATOM     54  N   UNL A   1      40.508  33.360  29.951  1.00  0.00    -0.354 N 
ATOM     55  N   UNL A   1      43.825  31.920  28.972  1.00  0.00    -0.248 NA
ATOM     56  C   UNL A   1      46.053  32.309  29.496  1.00  0.00     0.031 C 
ATOM     57  C   UNL A   1      41.608  33.345  31.867  1.00  0.00     0.029 A 
ATOM     58  C   UNL A   1      41.766  33.535  30.500  1.00  0.00     0.049 A 
ATOM     59  H   UNL A   1      40.304  33.465  28.994  1.00  0.00     0.167 HD
ATOM     60  C   UNL A   1      43.918  33.222  29.384  1.00  0.00     0.074 A 
ATOM     61  C   UNL A   1      45.335  33.435  29.650  1.00  0.00     0.031 C 
ATOM     62  C   UNL A   1      42.877  34.043  29.705  1.00  0.00     0.037 A 
BRANCH  49  63
ATOM     63  C   UNL A   1      36.907  32.968  30.975  1.00  0.00     0.064 A 
ATOM     64  C   UNL A   1      36.042  33.712  30.142  1.00  0.00     0.173 A 
ATOM     65  C   UNL A   1      36.398  32.725  32.269  1.00  0.00     0.173 A 
ATOM     66  F   UNL A   1      36.356  33.977  28.869  1.00  0.00    -0.203 F 
ATOM     67  C   UNL A   1      34.813  34.219  30.588  1.00  0.00     0.198 A 
ATOM     68  C   UNL A   1      35.202  33.285  32.734  1.00  0.00     0.198 A 
ATOM     69  F   UNL A   1      37.010  31.882  33.110  1.00  0.00    -0.203 F 
ATOM     70  F   UNL A   1      34.028  34.899  29.740  1.00  0.00    -0.200 F 
ATOM     71  C   UNL A   1      34.406  34.028  31.891  1.00  0.00     0.200 A 
ATOM     72  F   UNL A   1      34.821  33.079  34.003  1.00  0.00    -0.200 F 
ATOM     73  F   UNL A   1      33.242  34.534  32.324  1.00  0.00    -0.200 F 
ENDBRANCH  49  63
BRANCH  50  74
ATOM     74  C   UNL A   1      45.769  28.818  28.411  1.00  0.00     0.064 A 
ATOM     75  C   UNL A   1      46.475  27.824  29.131  1.00  0.00     0.173 A 
ATOM     76  C   UNL A   1      45.119  28.418  27.235  1.00  0.00     0.173 A 
ATOM     77  F   UNL A   1      47.125  28.157  30.258  1.00  0.00    -0.203 F 
ATOM     78  C   UNL A   1      46.315  26.472  28.838  1.00  0.00     0.198 A 
ATOM     79  C   UNL A   1      44.991  27.059  26.927  1.00  0.00     0.198 A 
ATOM     80  F   UNL A   1      44.431  29.310  26.507  1.00  0.00    -0.203 F 
ATOM     81  F   UNL A   1      46.797  25.544  29.677  1.00  0.00    -0.200 F 
ATOM     82  C   UNL A   1      45.530  26.090  27.765  1.00  0.00     0.200 A 
ATOM     83  F   UNL A   1      44.232  26.677  25.890  1.00  0.00    -0.200 F 
ATOM     84  F   UNL A   1      45.226  24.796  27.589  1.00  0.00    -0.200 F 
ENDBRANCH  50  74
BRANCH  62  85
ATOM     85  C   UNL A   1      42.883  35.487  29.268  1.00  0.00     0.064 A 
ATOM     86  C   UNL A   1      43.340  36.530  30.096  1.00  0.00     0.173 A 
ATOM     87  C   UNL A   1      42.622  35.844  27.924  1.00  0.00     0.173 A 
ATOM     88  F   UNL A   1      43.712  36.315  31.365  1.00  0.00    -0.203 F 
ATOM     89  C   UNL A   1      43.484  37.833  29.630  1.00  0.00     0.198 A 
ATOM     90  C   UNL A   1      42.825  37.136  27.449  1.00  0.00     0.198 A 
ATOM     91  F   UNL A   1      42.211  34.948  27.016  1.00  0.00    -0.203 F 
ATOM     92  F   UNL A   1      43.893  38.791  30.472  1.00  0.00    -0.200 F 
ATOM     93  C   UNL A   1      43.243  38.133  28.305  1.00  0.00     0.200 A 
ATOM     94  F   UNL A   1      42.643  37.399  26.148  1.00  0.00    -0.200 F 
ATOM     95  F   UNL A   1      43.431  39.377  27.849  1.00  0.00    -0.200 F 
ENDBRANCH  62  85
ENDBRANCH  36  37
ENDBRANCH  29  31
ENDBRANCH  28  29
ENDBRANCH  27  28
ENDBRANCH  26  27
ENDBRANCH  25  26
ENDBRANCH   1  25
TORSDOF 17
ENDMDL
MODEL 3
REMARK VINA RESULT:     -11.8      3.443      9.623
REMARK SMILES Cc1ccc(NC(=O)C[N@H+]2CC[C@@H](C(=O)OCCOCCOC(=O)c3ccc(-c4c5nc(c(-c6c(F)c(F)c(F)c(F)c6F)c6ccc([nH]6)c(-c6c(F)c(F)c(F)c(F)c6F)c6nc(c(-c7c(F)c(F)c(F)c(F)c7F)c7ccc4[nH]7)C=C6)C=C5)cc3)[C@@H]2C)cc1
REMARK SMILES IDX 18 1 17 2 16 3 14 4 15 5 13 6 10 7 11 8 88 9 12 11 89 12
REMARK SMILES IDX 9 13 7 14 6 15 8 17 5 18 1 19 2 20 3 21 91 22 4 23 90 24
REMARK SMILES IDX 19 25 20 26 21 27 22 28 23 29 24 30 25 31 26 32 87 33 27 34
REMARK SMILES IDX 86 35 28 36 29 37 30 38 80 39 31 40 85 41 79 42 81 43 32 44
REMARK SMILES IDX 84 45 78 46 77 47 33 49 65 50 45 51 64 52 46 53 49 54 63 55
REMARK SMILES IDX 82 56 47 57 48 58 62 60 83 61 50 62 34 63 35 64 43 65 36 66
REMARK SMILES IDX 37 67 41 68 44 69 38 70 39 71 42 72 40 73 66 74 67 75 75 76
REMARK SMILES IDX 68 77 69 78 73 79 76 80 70 81 71 82 74 83 72 84 51 85 52 86
REMARK SMILES IDX 60 87 53 88 54 89 58 90 61 91 55 92 56 93 59 94 57 95
REMARK H PARENT 10 10 6 16 81 48 49 59
REMARK Flexibility Score: inf
ROOT
ATOM      1  C   UNL A   1      36.822  24.020  25.469  1.00  0.00     0.202 C 
ENDROOT
BRANCH   1   2
ATOM      2  C   UNL A   1      35.598  23.682  24.687  1.00  0.00     0.261 C 
BRANCH   2   3
ATOM      3  O   UNL A   1      34.457  23.831  25.538  1.00  0.00    -0.463 OA
BRANCH   3   4
ATOM      4  C   UNL A   1      33.461  22.921  25.637  1.00  0.00     0.315 C 
ATOM      5  O   UNL A   1      33.599  21.705  25.753  1.00  0.00    -0.252 OA
BRANCH   4   6
ATOM      6  C   UNL A   1      32.120  23.620  25.540  1.00  0.00     0.162 C 
ATOM      7  N   UNL A   1      31.687  24.944  23.545  1.00  0.00    -0.324 N 
ATOM      8  C   UNL A   1      30.667  23.906  23.598  1.00  0.00     0.264 C 
ATOM      9  C   UNL A   1      32.252  25.024  24.922  1.00  0.00     0.195 C 
ATOM     10  H   UNL A   1      31.246  25.815  23.249  1.00  0.00     0.348 HD
ATOM     11  C   UNL A   1      31.038  22.933  24.711  1.00  0.00     0.083 C 
ATOM     12  C   UNL A   1      31.530  25.991  25.863  1.00  0.00     0.076 C 
BRANCH   7  13
ATOM     13  C   UNL A   1      32.740  24.804  22.490  1.00  0.00     0.364 C 
BRANCH  13  14
ATOM     14  C   UNL A   1      32.881  25.910  21.409  1.00  0.00     0.279 C 
ATOM     15  N   UNL A   1      32.831  27.269  21.639  1.00  0.00    -0.321 N 
ATOM     16  H   UNL A   1      33.039  27.806  20.841  1.00  0.00     0.170 HD
ATOM     17  O   UNL A   1      33.028  25.577  20.222  1.00  0.00    -0.268 OA
BRANCH  15  18
ATOM     18  C   UNL A   1      32.545  28.051  22.773  1.00  0.00     0.041 A 
ATOM     19  C   UNL A   1      31.837  30.504  26.297  1.00  0.00     0.044 C 
ATOM     20  C   UNL A   1      32.009  29.682  25.053  1.00  0.00    -0.051 A 
ATOM     21  C   UNL A   1      33.268  29.171  24.801  1.00  0.00     0.005 A 
ATOM     22  C   UNL A   1      30.985  29.328  24.172  1.00  0.00     0.005 A 
ATOM     23  C   UNL A   1      33.510  28.340  23.706  1.00  0.00     0.026 A 
ATOM     24  C   UNL A   1      31.251  28.510  23.044  1.00  0.00     0.026 A 
ENDBRANCH  15  18
ENDBRANCH  13  14
ENDBRANCH   7  13
ENDBRANCH   4   6
ENDBRANCH   3   4
ENDBRANCH   2   3
ENDBRANCH   1   2
BRANCH   1  25
ATOM     25  O   UNL A   1      37.175  22.804  26.103  1.00  0.00    -0.374 OA
BRANCH  25  26
ATOM     26  C   UNL A   1      38.061  21.977  25.377  1.00  0.00     0.202 C 
BRANCH  26  27
ATOM     27  C   UNL A   1      39.295  21.612  26.203  1.00  0.00     0.261 C 
BRANCH  27  28
ATOM     28  O   UNL A   1      39.623  22.724  27.067  1.00  0.00    -0.460 OA
BRANCH  28  29
ATOM     29  C   UNL A   1      40.549  23.592  26.571  1.00  0.00     0.338 C 
ATOM     30  O   UNL A   1      41.659  23.280  26.173  1.00  0.00    -0.246 OA
BRANCH  29  31
ATOM     31  C   UNL A   1      40.165  25.003  26.893  1.00  0.00     0.060 A 
ATOM     32  C   UNL A   1      40.697  26.051  26.120  1.00  0.00     0.016 A 
ATOM     33  C   UNL A   1      39.642  25.280  28.154  1.00  0.00     0.016 A 
ATOM     34  C   UNL A   1      40.845  27.334  26.671  1.00  0.00     0.010 A 
ATOM     35  C   UNL A   1      39.923  26.502  28.737  1.00  0.00     0.010 A 
ATOM     36  C   UNL A   1      40.529  27.539  28.011  1.00  0.00    -0.014 A 
BRANCH  36  37
ATOM     37  C   UNL A   1      40.761  28.781  28.756  1.00  0.00     0.031 A 
ATOM     38  C   UNL A   1      39.608  29.715  28.935  1.00  0.00     0.074 A 
ATOM     39  C   UNL A   1      41.909  29.014  29.438  1.00  0.00     0.049 A 
ATOM     40  N   UNL A   1      39.688  30.860  29.513  1.00  0.00    -0.248 NA
ATOM     41  C   UNL A   1      38.242  29.420  28.510  1.00  0.00     0.031 C 
ATOM     42  C   UNL A   1      42.104  30.033  30.465  1.00  0.00     0.029 A 
ATOM     43  N   UNL A   1      43.164  28.383  29.375  1.00  0.00    -0.354 N 
ATOM     44  C   UNL A   1      38.430  31.333  29.767  1.00  0.00     0.074 A 
ATOM     45  C   UNL A   1      37.551  30.385  29.128  1.00  0.00     0.031 C 
ATOM     46  C   UNL A   1      43.391  30.121  30.808  1.00  0.00     0.029 A 
ATOM     47  C   UNL A   1      44.115  29.298  29.882  1.00  0.00     0.049 A 
ATOM     48  H   UNL A   1      43.346  27.475  29.042  1.00  0.00     0.167 HD
ATOM     49  C   UNL A   1      38.298  32.442  30.553  1.00  0.00     0.037 A 
ATOM     50  C   UNL A   1      45.159  29.766  29.147  1.00  0.00     0.037 A 
ATOM     51  C   UNL A   1      39.616  32.963  30.958  1.00  0.00     0.049 A 
ATOM     52  C   UNL A   1      44.994  31.257  29.015  1.00  0.00     0.074 A 
ATOM     53  C   UNL A   1      40.327  32.980  32.148  1.00  0.00     0.029 A 
ATOM     54  N   UNL A   1      40.543  33.304  29.963  1.00  0.00    -0.354 N 
ATOM     55  N   UNL A   1      43.818  31.832  28.890  1.00  0.00    -0.248 NA
ATOM     56  C   UNL A   1      46.062  32.193  29.358  1.00  0.00     0.031 C 
ATOM     57  C   UNL A   1      41.693  33.266  31.850  1.00  0.00     0.029 A 
ATOM     58  C   UNL A   1      41.817  33.462  30.480  1.00  0.00     0.049 A 
ATOM     59  H   UNL A   1      40.316  33.417  29.012  1.00  0.00     0.167 HD
ATOM     60  C   UNL A   1      43.936  33.131  29.307  1.00  0.00     0.074 A 
ATOM     61  C   UNL A   1      45.362  33.326  29.537  1.00  0.00     0.031 C 
ATOM     62  C   UNL A   1      42.913  33.962  29.659  1.00  0.00     0.037 A 
BRANCH  49  63
ATOM     63  C   UNL A   1      36.966  32.947  31.079  1.00  0.00     0.064 A 
ATOM     64  C   UNL A   1      36.601  32.806  32.436  1.00  0.00     0.173 A 
ATOM     65  C   UNL A   1      35.998  33.597  30.283  1.00  0.00     0.173 A 
ATOM     66  F   UNL A   1      37.434  32.261  33.330  1.00  0.00    -0.203 F 
ATOM     67  C   UNL A   1      35.357  33.220  32.932  1.00  0.00     0.198 A 
ATOM     68  C   UNL A   1      34.732  33.952  30.763  1.00  0.00     0.198 A 
ATOM     69  F   UNL A   1      36.269  33.972  29.027  1.00  0.00    -0.203 F 
ATOM     70  F   UNL A   1      35.080  33.079  34.237  1.00  0.00    -0.200 F 
ATOM     71  C   UNL A   1      34.412  33.769  32.090  1.00  0.00     0.200 A 
ATOM     72  F   UNL A   1      33.832  34.492  29.928  1.00  0.00    -0.200 F 
ATOM     73  F   UNL A   1      33.213  34.142  32.559  1.00  0.00    -0.200 F 
ENDBRANCH  49  63
BRANCH  50  74
ATOM     74  C   UNL A   1      45.711  28.711  28.262  1.00  0.00     0.064 A 
ATOM     75  C   UNL A   1      46.460  27.730  28.952  1.00  0.00     0.173 A 
ATOM     76  C   UNL A   1      45.006  28.298  27.123  1.00  0.00     0.173 A 
ATOM     77  F   UNL A   1      47.163  28.076  30.043  1.00  0.00    -0.203 F 
ATOM     78  C   UNL A   1      46.298  26.374  28.678  1.00  0.00     0.198 A 
ATOM     79  C   UNL A   1      44.874  26.935  26.831  1.00  0.00     0.198 A 
ATOM     80  F   UNL A   1      44.274  29.178  26.424  1.00  0.00    -0.203 F 
ATOM     81  F   UNL A   1      46.829  25.456  29.499  1.00  0.00    -0.200 F 
ATOM     82  C   UNL A   1      45.464  25.977  27.648  1.00  0.00     0.200 A 
ATOM     83  F   UNL A   1      44.067  26.538  25.837  1.00  0.00    -0.200 F 
ATOM     84  F   UNL A   1      45.162  24.679  27.497  1.00  0.00    -0.200 F 
ENDBRANCH  50  74
BRANCH  62  85
ATOM     85  C   UNL A   1      42.924  35.408  29.231  1.00  0.00     0.064 A 
ATOM     86  C   UNL A   1      43.406  36.442  30.055  1.00  0.00     0.173 A 
ATOM     87  C   UNL A   1      42.642  35.775  27.893  1.00  0.00     0.173 A 
ATOM     88  F   UNL A   1      43.799  36.217  31.316  1.00  0.00    -0.203 F 
ATOM     89  C   UNL A   1      43.553  37.747  29.593  1.00  0.00     0.198 A 
ATOM     90  C   UNL A   1      42.848  37.068  27.421  1.00  0.00     0.198 A 
ATOM     91  F   UNL A   1      42.206  34.888  26.988  1.00  0.00    -0.203 F 
ATOM     92  F   UNL A   1      43.986  38.696  30.434  1.00  0.00    -0.200 F 
ATOM     93  C   UNL A   1      43.290  38.056  28.275  1.00  0.00     0.200 A 
ATOM     94  F   UNL A   1      42.644  37.339  26.125  1.00  0.00    -0.200 F 
ATOM     95  F   UNL A   1      43.481  39.301  27.823  1.00  0.00    -0.200 F 
ENDBRANCH  62  85
ENDBRANCH  36  37
ENDBRANCH  29  31
ENDBRANCH  28  29
ENDBRANCH  27  28
ENDBRANCH  26  27
ENDBRANCH  25  26
ENDBRANCH   1  25
TORSDOF 17
ENDMDL
