MODEL 1
REMARK VINA RESULT:     -11.4      0.000      0.000
REMARK SMILES CCc1cc(OCC(=O)OCCOCCOC(=O)c2ccc(-c3c4nc(c(-c5c(F)c(F)c(F)c(F)c5F)c5ccc([nH]5)c(-c5c(F)c(F)c(F)c(F)c5F)c5nc(c(-c6c(F)c(F)c(F)c(F)c6F)c6ccc3[nH]6)C=C5)C=C4)cc2)nc(Nc2ccc(C)c(F)c2)n1
REMARK SMILES IDX 12 1 11 2 10 3 8 4 9 5 7 6 6 7 5 8 3 9 4 10 93 11 83 12
REMARK SMILES IDX 82 13 2 14 1 15 84 16 85 18 86 19 92 20 87 21 90 22 88 23
REMARK SMILES IDX 91 24 89 25 13 26 14 27 15 28 16 29 17 30 18 31 19 32 20 33
REMARK SMILES IDX 81 34 21 35 80 36 22 37 23 38 24 39 74 40 25 41 79 42 73 43
REMARK SMILES IDX 75 44 26 45 78 46 72 47 71 48 27 50 59 51 39 52 58 53 40 54
REMARK SMILES IDX 43 55 57 56 76 57 41 58 42 59 56 61 77 62 44 63 28 64 29 65
REMARK SMILES IDX 37 66 30 67 31 68 35 69 38 70 32 71 33 72 36 73 34 74 60 75
REMARK SMILES IDX 61 76 69 77 62 78 63 79 67 80 70 81 64 82 65 83 68 84 66 85
REMARK SMILES IDX 45 86 46 87 54 88 47 89 48 90 52 91 55 92 49 93 50 94 53 95
REMARK SMILES IDX 51 96
REMARK H PARENT 84 17 75 49 43 60
REMARK Flexibility Score: inf
ROOT
ATOM      1  C   UNL A   1      31.950  26.533  26.161  1.00  0.00     0.202 C 
ENDROOT
BRANCH   1   2
ATOM      2  C   UNL A   1      30.888  25.427  26.115  1.00  0.00     0.261 C 
BRANCH   2   3
ATOM      3  O   UNL A   1      31.090  24.411  27.123  1.00  0.00    -0.461 OA
BRANCH   3   4
ATOM      4  C   UNL A   1      30.339  23.281  26.997  1.00  0.00     0.344 C 
ATOM      5  O   UNL A   1      29.509  22.898  27.814  1.00  0.00    -0.248 OA
BRANCH   4   6
ATOM      6  C   UNL A   1      30.652  22.485  25.729  1.00  0.00     0.353 C 
BRANCH   6   7
ATOM      7  O   UNL A   1      31.983  22.096  25.464  1.00  0.00    -0.466 OA
BRANCH   7   8
ATOM      8  C   UNL A   1      32.774  22.854  24.649  1.00  0.00     0.218 A 
ATOM      9  C   UNL A   1      33.268  24.283  22.855  1.00  0.00     0.050 A 
ATOM     10  C   UNL A   1      32.411  23.354  23.413  1.00  0.00     0.092 A 
ATOM     11  N   UNL A   1      34.409  24.635  23.471  1.00  0.00    -0.218 NA
ATOM     12  C   UNL A   1      34.728  24.050  24.634  1.00  0.00     0.230 A 
ATOM     13  N   UNL A   1      33.941  23.160  25.241  1.00  0.00    -0.177 NA
BRANCH   9  14
ATOM     14  C   UNL A   1      32.907  25.147  21.673  1.00  0.00     0.053 C 
ATOM     15  C   UNL A   1      31.728  26.086  21.851  1.00  0.00     0.011 C 
ENDBRANCH   9  14
BRANCH  12  16
ATOM     16  N   UNL A   1      35.934  24.374  25.244  1.00  0.00    -0.324 N 
ATOM     17  H   UNL A   1      36.030  25.302  25.556  1.00  0.00     0.170 HD
BRANCH  16  18
ATOM     18  C   UNL A   1      37.027  23.531  25.465  1.00  0.00     0.044 A 
ATOM     19  C   UNL A   1      38.097  23.956  26.259  1.00  0.00     0.026 A 
ATOM     20  C   UNL A   1      37.042  22.223  24.968  1.00  0.00     0.065 A 
ATOM     21  C   UNL A   1      39.143  23.081  26.578  1.00  0.00     0.008 A 
ATOM     22  C   UNL A   1      38.097  21.366  25.264  1.00  0.00     0.128 A 
ATOM     23  C   UNL A   1      39.153  21.773  26.080  1.00  0.00    -0.015 A 
ATOM     24  F   UNL A   1      38.080  20.125  24.757  1.00  0.00    -0.207 F 
ATOM     25  C   UNL A   1      40.246  20.823  26.461  1.00  0.00     0.047 C 
ENDBRANCH  16  18
ENDBRANCH  12  16
ENDBRANCH   7   8
ENDBRANCH   6   7
ENDBRANCH   4   6
ENDBRANCH   3   4
ENDBRANCH   2   3
ENDBRANCH   1   2
BRANCH   1  26
ATOM     26  O   UNL A   1      31.516  27.813  26.626  1.00  0.00    -0.374 OA
BRANCH  26  27
ATOM     27  C   UNL A   1      31.475  28.864  25.666  1.00  0.00     0.202 C 
BRANCH  27  28
ATOM     28  C   UNL A   1      31.853  30.260  26.168  1.00  0.00     0.261 C 
BRANCH  28  29
ATOM     29  O   UNL A   1      33.265  30.418  26.303  1.00  0.00    -0.460 OA
BRANCH  29  30
ATOM     30  C   UNL A   1      33.624  31.388  27.167  1.00  0.00     0.338 C 
ATOM     31  O   UNL A   1      32.946  32.315  27.590  1.00  0.00    -0.246 OA
BRANCH  30  32
ATOM     32  C   UNL A   1      34.949  31.077  27.702  1.00  0.00     0.060 A 
ATOM     33  C   UNL A   1      35.222  29.733  27.981  1.00  0.00     0.016 A 
ATOM     34  C   UNL A   1      35.874  32.084  27.985  1.00  0.00     0.016 A 
ATOM     35  C   UNL A   1      36.413  29.394  28.607  1.00  0.00     0.010 A 
ATOM     36  C   UNL A   1      37.067  31.742  28.619  1.00  0.00     0.010 A 
ATOM     37  C   UNL A   1      37.318  30.402  28.964  1.00  0.00    -0.014 A 
BRANCH  37  38
ATOM     38  C   UNL A   1      38.457  30.060  29.837  1.00  0.00     0.031 A 
ATOM     39  C   UNL A   1      39.518  29.140  29.307  1.00  0.00     0.074 A 
ATOM     40  C   UNL A   1      38.547  30.598  31.064  1.00  0.00     0.049 A 
ATOM     41  N   UNL A   1      40.600  28.698  29.893  1.00  0.00    -0.248 NA
ATOM     42  C   UNL A   1      39.336  28.654  27.929  1.00  0.00     0.031 C 
ATOM     43  C   UNL A   1      37.581  31.527  31.646  1.00  0.00     0.029 A 
ATOM     44  N   UNL A   1      39.496  30.439  32.038  1.00  0.00    -0.354 N 
ATOM     45  C   UNL A   1      41.224  27.883  28.959  1.00  0.00     0.074 A 
ATOM     46  C   UNL A   1      40.389  27.865  27.778  1.00  0.00     0.031 C 
ATOM     47  C   UNL A   1      37.983  31.849  32.887  1.00  0.00     0.029 A 
ATOM     48  C   UNL A   1      39.215  31.127  33.192  1.00  0.00     0.049 A 
ATOM     49  H   UNL A   1      40.302  29.884  31.923  1.00  0.00     0.167 HD
ATOM     50  C   UNL A   1      42.398  27.220  29.078  1.00  0.00     0.037 A 
ATOM     51  C   UNL A   1      39.875  31.147  34.364  1.00  0.00     0.037 A 
ATOM     52  C   UNL A   1      43.214  27.249  30.261  1.00  0.00     0.049 A 
ATOM     53  C   UNL A   1      41.141  30.342  34.496  1.00  0.00     0.074 A 
ATOM     54  C   UNL A   1      44.434  26.639  30.487  1.00  0.00     0.029 A 
ATOM     55  N   UNL A   1      42.880  27.924  31.428  1.00  0.00    -0.354 N 
ATOM     56  N   UNL A   1      41.747  29.602  33.598  1.00  0.00    -0.248 NA
ATOM     57  C   UNL A   1      41.813  30.371  35.801  1.00  0.00     0.031 C 
ATOM     58  C   UNL A   1      44.813  26.903  31.808  1.00  0.00     0.029 A 
ATOM     59  C   UNL A   1      43.853  27.716  32.390  1.00  0.00     0.049 A 
ATOM     60  H   UNL A   1      42.068  28.468  31.553  1.00  0.00     0.167 HD
ATOM     61  C   UNL A   1      42.876  29.090  34.220  1.00  0.00     0.074 A 
ATOM     62  C   UNL A   1      42.881  29.622  35.569  1.00  0.00     0.031 C 
ATOM     63  C   UNL A   1      43.824  28.255  33.726  1.00  0.00     0.037 A 
BRANCH  50  64
ATOM     64  C   UNL A   1      42.848  26.391  27.912  1.00  0.00     0.064 A 
ATOM     65  C   UNL A   1      42.449  25.054  27.759  1.00  0.00     0.173 A 
ATOM     66  C   UNL A   1      43.675  26.946  26.923  1.00  0.00     0.173 A 
ATOM     67  F   UNL A   1      41.671  24.472  28.685  1.00  0.00    -0.203 F 
ATOM     68  C   UNL A   1      42.880  24.297  26.672  1.00  0.00     0.198 A 
ATOM     69  C   UNL A   1      44.083  26.193  25.825  1.00  0.00     0.198 A 
ATOM     70  F   UNL A   1      44.085  28.219  27.021  1.00  0.00    -0.203 F 
ATOM     71  F   UNL A   1      42.522  23.010  26.569  1.00  0.00    -0.200 F 
ATOM     72  C   UNL A   1      43.691  24.869  25.703  1.00  0.00     0.200 A 
ATOM     73  F   UNL A   1      44.859  26.750  24.885  1.00  0.00    -0.200 F 
ATOM     74  F   UNL A   1      44.101  24.141  24.655  1.00  0.00    -0.200 F 
ENDBRANCH  50  64
BRANCH  51  75
ATOM     75  C   UNL A   1      39.342  31.940  35.500  1.00  0.00     0.064 A 
ATOM     76  C   UNL A   1      38.487  31.364  36.449  1.00  0.00     0.173 A 
ATOM     77  C   UNL A   1      39.682  33.292  35.664  1.00  0.00     0.173 A 
ATOM     78  F   UNL A   1      38.115  30.082  36.324  1.00  0.00    -0.203 F 
ATOM     79  C   UNL A   1      37.983  32.113  37.511  1.00  0.00     0.198 A 
ATOM     80  C   UNL A   1      39.199  34.032  36.741  1.00  0.00     0.198 A 
ATOM     81  F   UNL A   1      40.497  33.891  34.784  1.00  0.00    -0.203 F 
ATOM     82  F   UNL A   1      37.138  31.547  38.385  1.00  0.00    -0.200 F 
ATOM     83  C   UNL A   1      38.345  33.443  37.661  1.00  0.00     0.200 A 
ATOM     84  F   UNL A   1      39.563  35.313  36.888  1.00  0.00    -0.200 F 
ATOM     85  F   UNL A   1      37.866  34.160  38.686  1.00  0.00    -0.200 F 
ENDBRANCH  51  75
BRANCH  63  86
ATOM     86  C   UNL A   1      44.942  27.872  34.648  1.00  0.00     0.064 A 
ATOM     87  C   UNL A   1      46.089  28.668  34.773  1.00  0.00     0.173 A 
ATOM     88  C   UNL A   1      44.840  26.729  35.455  1.00  0.00     0.173 A 
ATOM     89  F   UNL A   1      46.238  29.763  34.011  1.00  0.00    -0.203 F 
ATOM     90  C   UNL A   1      47.105  28.323  35.660  1.00  0.00     0.198 A 
ATOM     91  C   UNL A   1      45.844  26.402  36.360  1.00  0.00     0.198 A 
ATOM     92  F   UNL A   1      43.758  25.940  35.375  1.00  0.00    -0.203 F 
ATOM     93  F   UNL A   1      48.211  29.075  35.736  1.00  0.00    -0.200 F 
ATOM     94  C   UNL A   1      46.978  27.196  36.459  1.00  0.00     0.200 A 
ATOM     95  F   UNL A   1      45.714  25.320  37.141  1.00  0.00    -0.200 F 
ATOM     96  F   UNL A   1      47.951  26.870  37.320  1.00  0.00    -0.200 F 
ENDBRANCH  63  86
ENDBRANCH  37  38
ENDBRANCH  30  32
ENDBRANCH  29  30
ENDBRANCH  28  29
ENDBRANCH  27  28
ENDBRANCH  26  27
ENDBRANCH   1  26
TORSDOF 19
ENDMDL
MODEL 2
REMARK VINA RESULT:     -11.1      4.916      9.923
REMARK SMILES CCc1cc(OCC(=O)OCCOCCOC(=O)c2ccc(-c3c4nc(c(-c5c(F)c(F)c(F)c(F)c5F)c5ccc([nH]5)c(-c5c(F)c(F)c(F)c(F)c5F)c5nc(c(-c6c(F)c(F)c(F)c(F)c6F)c6ccc3[nH]6)C=C5)C=C4)cc2)nc(Nc2ccc(C)c(F)c2)n1
REMARK SMILES IDX 12 1 11 2 10 3 8 4 9 5 7 6 6 7 5 8 3 9 4 10 93 11 83 12
REMARK SMILES IDX 82 13 2 14 1 15 84 16 85 18 86 19 92 20 87 21 90 22 88 23
REMARK SMILES IDX 91 24 89 25 13 26 14 27 15 28 16 29 17 30 18 31 19 32 20 33
REMARK SMILES IDX 81 34 21 35 80 36 22 37 23 38 24 39 74 40 25 41 79 42 73 43
REMARK SMILES IDX 75 44 26 45 78 46 72 47 71 48 27 50 59 51 39 52 58 53 40 54
REMARK SMILES IDX 43 55 57 56 76 57 41 58 42 59 56 61 77 62 44 63 28 64 29 65
REMARK SMILES IDX 37 66 30 67 31 68 35 69 38 70 32 71 33 72 36 73 34 74 60 75
REMARK SMILES IDX 61 76 69 77 62 78 63 79 67 80 70 81 64 82 65 83 68 84 66 85
REMARK SMILES IDX 45 86 46 87 54 88 47 89 48 90 52 91 55 92 49 93 50 94 53 95
REMARK SMILES IDX 51 96
REMARK H PARENT 84 17 75 49 43 60
REMARK Flexibility Score: inf
ROOT
ATOM      1  C   UNL A   1      33.289  36.946  32.928  1.00  0.00     0.202 C 
ENDROOT
BRANCH   1   2
ATOM      2  C   UNL A   1      32.608  35.994  31.935  1.00  0.00     0.261 C 
BRANCH   2   3
ATOM      3  O   UNL A   1      32.187  36.655  30.721  1.00  0.00    -0.461 OA
BRANCH   3   4
ATOM      4  C   UNL A   1      32.912  36.374  29.602  1.00  0.00     0.344 C 
ATOM      5  O   UNL A   1      33.287  37.208  28.784  1.00  0.00    -0.248 OA
BRANCH   4   6
ATOM      6  C   UNL A   1      33.198  34.882  29.425  1.00  0.00     0.353 C 
BRANCH   6   7
ATOM      7  O   UNL A   1      32.753  34.224  28.258  1.00  0.00    -0.466 OA
BRANCH   7   8
ATOM      8  C   UNL A   1      33.277  33.013  27.906  1.00  0.00     0.218 A 
ATOM      9  C   UNL A   1      34.768  31.205  28.005  1.00  0.00     0.050 A 
ATOM     10  C   UNL A   1      34.522  32.539  28.270  1.00  0.00     0.092 A 
ATOM     11  N   UNL A   1      33.853  30.438  27.388  1.00  0.00    -0.218 NA
ATOM     12  C   UNL A   1      32.697  30.991  26.999  1.00  0.00     0.230 A 
ATOM     13  N   UNL A   1      32.382  32.266  27.237  1.00  0.00    -0.177 NA
BRANCH   9  14
ATOM     14  C   UNL A   1      35.933  30.441  28.582  1.00  0.00     0.053 C 
ATOM     15  C   UNL A   1      36.703  29.548  27.627  1.00  0.00     0.011 C 
ENDBRANCH   9  14
BRANCH  12  16
ATOM     16  N   UNL A   1      31.773  30.211  26.311  1.00  0.00    -0.324 N 
ATOM     17  H   UNL A   1      30.898  30.625  26.136  1.00  0.00     0.170 HD
BRANCH  16  18
ATOM     18  C   UNL A   1      31.947  28.907  25.840  1.00  0.00     0.044 A 
ATOM     19  C   UNL A   1      31.446  27.822  26.567  1.00  0.00     0.026 A 
ATOM     20  C   UNL A   1      32.548  28.661  24.601  1.00  0.00     0.065 A 
ATOM     21  C   UNL A   1      31.514  26.522  26.051  1.00  0.00     0.008 A 
ATOM     22  C   UNL A   1      32.640  27.364  24.105  1.00  0.00     0.128 A 
ATOM     23  C   UNL A   1      32.117  26.281  24.810  1.00  0.00    -0.015 A 
ATOM     24  F   UNL A   1      33.237  27.170  22.919  1.00  0.00    -0.207 F 
ATOM     25  C   UNL A   1      32.147  24.898  24.236  1.00  0.00     0.047 C 
ENDBRANCH  16  18
ENDBRANCH  12  16
ENDBRANCH   7   8
ENDBRANCH   6   7
ENDBRANCH   4   6
ENDBRANCH   3   4
ENDBRANCH   2   3
ENDBRANCH   1   2
BRANCH   1  26
ATOM     26  O   UNL A   1      34.521  36.497  33.495  1.00  0.00    -0.374 OA
BRANCH  26  27
ATOM     27  C   UNL A   1      35.187  35.433  32.822  1.00  0.00     0.202 C 
BRANCH  27  28
ATOM     28  C   UNL A   1      35.365  34.133  33.609  1.00  0.00     0.261 C 
BRANCH  28  29
ATOM     29  O   UNL A   1      35.997  33.116  32.832  1.00  0.00    -0.460 OA
BRANCH  29  30
ATOM     30  C   UNL A   1      36.928  32.414  33.508  1.00  0.00     0.338 C 
ATOM     31  O   UNL A   1      37.006  32.225  34.715  1.00  0.00    -0.246 OA
BRANCH  30  32
ATOM     32  C   UNL A   1      37.786  31.720  32.548  1.00  0.00     0.060 A 
ATOM     33  C   UNL A   1      38.650  30.745  33.057  1.00  0.00     0.016 A 
ATOM     34  C   UNL A   1      37.790  32.064  31.195  1.00  0.00     0.016 A 
ATOM     35  C   UNL A   1      39.575  30.145  32.215  1.00  0.00     0.010 A 
ATOM     36  C   UNL A   1      38.724  31.465  30.352  1.00  0.00     0.010 A 
ATOM     37  C   UNL A   1      39.641  30.535  30.871  1.00  0.00    -0.014 A 
BRANCH  37  38
ATOM     38  C   UNL A   1      40.778  30.072  30.051  1.00  0.00     0.031 A 
ATOM     39  C   UNL A   1      41.908  31.023  29.787  1.00  0.00     0.074 A 
ATOM     40  C   UNL A   1      40.802  28.811  29.589  1.00  0.00     0.049 A 
ATOM     41  N   UNL A   1      43.000  30.839  29.093  1.00  0.00    -0.248 NA
ATOM     42  C   UNL A   1      41.793  32.362  30.388  1.00  0.00     0.031 C 
ATOM     43  C   UNL A   1      39.764  27.810  29.827  1.00  0.00     0.029 A 
ATOM     44  N   UNL A   1      41.733  28.161  28.826  1.00  0.00    -0.354 N 
ATOM     45  C   UNL A   1      43.699  32.037  29.172  1.00  0.00     0.074 A 
ATOM     46  C   UNL A   1      42.897  32.951  29.955  1.00  0.00     0.031 C 
ATOM     47  C   UNL A   1      40.113  26.669  29.209  1.00  0.00     0.029 A 
ATOM     48  C   UNL A   1      41.380  26.873  28.512  1.00  0.00     0.049 A 
ATOM     49  H   UNL A   1      42.575  28.577  28.529  1.00  0.00     0.167 HD
ATOM     50  C   UNL A   1      44.909  32.336  28.646  1.00  0.00     0.037 A 
ATOM     51  C   UNL A   1      42.007  25.974  27.732  1.00  0.00     0.037 A 
ATOM     52  C   UNL A   1      45.691  31.413  27.868  1.00  0.00     0.049 A 
ATOM     53  C   UNL A   1      43.318  26.357  27.097  1.00  0.00     0.074 A 
ATOM     54  C   UNL A   1      46.941  31.596  27.307  1.00  0.00     0.029 A 
ATOM     55  N   UNL A   1      45.285  30.128  27.535  1.00  0.00    -0.354 N 
ATOM     56  N   UNL A   1      43.993  27.477  27.205  1.00  0.00    -0.248 NA
ATOM     57  C   UNL A   1      43.953  25.355  26.231  1.00  0.00     0.031 C 
ATOM     58  C   UNL A   1      47.269  30.439  26.591  1.00  0.00     0.029 A 
ATOM     59  C   UNL A   1      46.245  29.519  26.745  1.00  0.00     0.049 A 
ATOM     60  H   UNL A   1      44.438  29.713  27.817  1.00  0.00     0.167 HD
ATOM     61  C   UNL A   1      45.136  27.313  26.436  1.00  0.00     0.074 A 
ATOM     62  C   UNL A   1      45.073  25.974  25.883  1.00  0.00     0.031 C 
ATOM     63  C   UNL A   1      46.147  28.186  26.205  1.00  0.00     0.037 A 
BRANCH  50  64
ATOM     64  C   UNL A   1      45.441  33.720  28.871  1.00  0.00     0.064 A 
ATOM     65  C   UNL A   1      46.216  34.039  29.997  1.00  0.00     0.173 A 
ATOM     66  C   UNL A   1      45.189  34.738  27.939  1.00  0.00     0.173 A 
ATOM     67  F   UNL A   1      46.472  33.105  30.926  1.00  0.00    -0.203 F 
ATOM     68  C   UNL A   1      46.698  35.331  30.193  1.00  0.00     0.198 A 
ATOM     69  C   UNL A   1      45.695  36.022  28.126  1.00  0.00     0.198 A 
ATOM     70  F   UNL A   1      44.454  34.486  26.845  1.00  0.00    -0.203 F 
ATOM     71  F   UNL A   1      47.399  35.623  31.297  1.00  0.00    -0.200 F 
ATOM     72  C   UNL A   1      46.442  36.319  29.254  1.00  0.00     0.200 A 
ATOM     73  F   UNL A   1      45.455  36.973  27.213  1.00  0.00    -0.200 F 
ATOM     74  F   UNL A   1      46.912  37.561  29.441  1.00  0.00    -0.200 F 
ENDBRANCH  50  64
BRANCH  51  75
ATOM     75  C   UNL A   1      41.396  24.641  27.499  1.00  0.00     0.064 A 
ATOM     76  C   UNL A   1      41.939  23.483  28.070  1.00  0.00     0.173 A 
ATOM     77  C   UNL A   1      40.248  24.499  26.703  1.00  0.00     0.173 A 
ATOM     78  F   UNL A   1      43.048  23.565  28.821  1.00  0.00    -0.203 F 
ATOM     79  C   UNL A   1      41.366  22.233  27.845  1.00  0.00     0.198 A 
ATOM     80  C   UNL A   1      39.661  23.252  26.501  1.00  0.00     0.198 A 
ATOM     81  F   UNL A   1      39.689  25.576  26.133  1.00  0.00    -0.203 F 
ATOM     82  F   UNL A   1      41.928  21.137  28.375  1.00  0.00    -0.200 F 
ATOM     83  C   UNL A   1      40.225  22.119  27.067  1.00  0.00     0.200 A 
ATOM     84  F   UNL A   1      38.550  23.149  25.759  1.00  0.00    -0.200 F 
ATOM     85  F   UNL A   1      39.670  20.917  26.858  1.00  0.00    -0.200 F 
ENDBRANCH  51  75
BRANCH  63  86
ATOM     86  C   UNL A   1      47.264  27.717  25.321  1.00  0.00     0.064 A 
ATOM     87  C   UNL A   1      47.192  27.842  23.927  1.00  0.00     0.173 A 
ATOM     88  C   UNL A   1      48.439  27.192  25.878  1.00  0.00     0.173 A 
ATOM     89  F   UNL A   1      46.081  28.325  23.348  1.00  0.00    -0.203 F 
ATOM     90  C   UNL A   1      48.250  27.439  23.118  1.00  0.00     0.198 A 
ATOM     91  C   UNL A   1      49.506  26.815  25.068  1.00  0.00     0.198 A 
ATOM     92  F   UNL A   1      48.557  27.059  27.207  1.00  0.00    -0.203 F 
ATOM     93  F   UNL A   1      48.145  27.529  21.785  1.00  0.00    -0.200 F 
ATOM     94  C   UNL A   1      49.410  26.934  23.689  1.00  0.00     0.200 A 
ATOM     95  F   UNL A   1      50.631  26.340  25.623  1.00  0.00    -0.200 F 
ATOM     96  F   UNL A   1      50.432  26.556  22.911  1.00  0.00    -0.200 F 
ENDBRANCH  63  86
ENDBRANCH  37  38
ENDBRANCH  30  32
ENDBRANCH  29  30
ENDBRANCH  28  29
ENDBRANCH  27  28
ENDBRANCH  26  27
ENDBRANCH   1  26
TORSDOF 19
ENDMDL
MODEL 3
REMARK VINA RESULT:     -10.1      5.116      9.129
REMARK SMILES CCc1cc(OCC(=O)OCCOCCOC(=O)c2ccc(-c3c4nc(c(-c5c(F)c(F)c(F)c(F)c5F)c5ccc([nH]5)c(-c5c(F)c(F)c(F)c(F)c5F)c5nc(c(-c6c(F)c(F)c(F)c(F)c6F)c6ccc3[nH]6)C=C5)C=C4)cc2)nc(Nc2ccc(C)c(F)c2)n1
REMARK SMILES IDX 12 1 11 2 10 3 8 4 9 5 7 6 6 7 5 8 3 9 4 10 93 11 83 12
REMARK SMILES IDX 82 13 2 14 1 15 84 16 85 18 86 19 92 20 87 21 90 22 88 23
REMARK SMILES IDX 91 24 89 25 13 26 14 27 15 28 16 29 17 30 18 31 19 32 20 33
REMARK SMILES IDX 81 34 21 35 80 36 22 37 23 38 24 39 74 40 25 41 79 42 73 43
REMARK SMILES IDX 75 44 26 45 78 46 72 47 71 48 27 50 59 51 39 52 58 53 40 54
REMARK SMILES IDX 43 55 57 56 76 57 41 58 42 59 56 61 77 62 44 63 28 64 29 65
REMARK SMILES IDX 37 66 30 67 31 68 35 69 38 70 32 71 33 72 36 73 34 74 60 75
REMARK SMILES IDX 61 76 69 77 62 78 63 79 67 80 70 81 64 82 65 83 68 84 66 85
REMARK SMILES IDX 45 86 46 87 54 88 47 89 48 90 52 91 55 92 49 93 50 94 53 95
REMARK SMILES IDX 51 96
REMARK H PARENT 84 17 75 49 43 60
REMARK Flexibility Score: inf
ROOT
ATOM      1  C   UNL A   1      34.050  36.733  32.997  1.00  0.00     0.202 C 
ENDROOT
BRANCH   1   2
ATOM      2  C   UNL A   1      32.867  36.245  32.150  1.00  0.00     0.261 C 
BRANCH   2   3
ATOM      3  O   UNL A   1      32.536  37.150  31.072  1.00  0.00    -0.461 OA
BRANCH   3   4
ATOM      4  C   UNL A   1      32.939  36.774  29.826  1.00  0.00     0.344 C 
ATOM      5  O   UNL A   1      33.282  37.548  28.939  1.00  0.00    -0.248 OA
BRANCH   4   6
ATOM      6  C   UNL A   1      32.894  35.261  29.606  1.00  0.00     0.353 C 
BRANCH   6   7
ATOM      7  O   UNL A   1      33.281  34.730  28.357  1.00  0.00    -0.466 OA
BRANCH   7   8
ATOM      8  C   UNL A   1      34.247  33.767  28.286  1.00  0.00     0.218 A 
ATOM      9  C   UNL A   1      36.371  32.824  28.605  1.00  0.00     0.050 A 
ATOM     10  C   UNL A   1      35.598  33.964  28.496  1.00  0.00     0.092 A 
ATOM     11  N   UNL A   1      35.831  31.602  28.466  1.00  0.00    -0.218 NA
ATOM     12  C   UNL A   1      34.525  31.495  28.191  1.00  0.00     0.230 A 
ATOM     13  N   UNL A   1      33.713  32.549  28.090  1.00  0.00    -0.177 NA
BRANCH   9  14
ATOM     14  C   UNL A   1      37.789  32.824  29.118  1.00  0.00     0.053 C 
ATOM     15  C   UNL A   1      38.005  33.356  30.523  1.00  0.00     0.011 C 
ENDBRANCH   9  14
BRANCH  12  16
ATOM     16  N   UNL A   1      33.977  30.232  27.993  1.00  0.00    -0.324 N 
ATOM     17  H   UNL A   1      34.029  29.610  28.754  1.00  0.00     0.170 HD
BRANCH  16  18
ATOM     18  C   UNL A   1      33.363  29.745  26.836  1.00  0.00     0.044 A 
ATOM     19  C   UNL A   1      32.108  30.225  26.448  1.00  0.00     0.026 A 
ATOM     20  C   UNL A   1      34.017  28.832  26.001  1.00  0.00     0.065 A 
ATOM     21  C   UNL A   1      31.534  29.827  25.234  1.00  0.00     0.008 A 
ATOM     22  C   UNL A   1      33.430  28.417  24.810  1.00  0.00     0.128 A 
ATOM     23  C   UNL A   1      32.193  28.914  24.401  1.00  0.00    -0.015 A 
ATOM     24  F   UNL A   1      34.084  27.530  24.045  1.00  0.00    -0.207 F 
ATOM     25  C   UNL A   1      31.602  28.526  23.081  1.00  0.00     0.047 C 
ENDBRANCH  16  18
ENDBRANCH  12  16
ENDBRANCH   7   8
ENDBRANCH   6   7
ENDBRANCH   4   6
ENDBRANCH   3   4
ENDBRANCH   2   3
ENDBRANCH   1   2
BRANCH   1  26
ATOM     26  O   UNL A   1      35.114  35.802  33.200  1.00  0.00    -0.374 OA
BRANCH  26  27
ATOM     27  C   UNL A   1      34.972  34.523  32.589  1.00  0.00     0.202 C 
BRANCH  27  28
ATOM     28  C   UNL A   1      34.700  33.346  33.529  1.00  0.00     0.261 C 
BRANCH  28  29
ATOM     29  O   UNL A   1      35.744  32.374  33.490  1.00  0.00    -0.460 OA
BRANCH  29  30
ATOM     30  C   UNL A   1      36.682  32.544  34.443  1.00  0.00     0.338 C 
ATOM     31  O   UNL A   1      36.561  33.078  35.537  1.00  0.00    -0.246 OA
BRANCH  30  32
ATOM     32  C   UNL A   1      37.888  31.813  34.055  1.00  0.00     0.060 A 
ATOM     33  C   UNL A   1      39.072  32.142  34.723  1.00  0.00     0.016 A 
ATOM     34  C   UNL A   1      37.871  30.879  33.017  1.00  0.00     0.016 A 
ATOM     35  C   UNL A   1      40.269  31.575  34.311  1.00  0.00     0.010 A 
ATOM     36  C   UNL A   1      39.075  30.315  32.601  1.00  0.00     0.010 A 
ATOM     37  C   UNL A   1      40.278  30.693  33.223  1.00  0.00    -0.014 A 
BRANCH  37  38
ATOM     38  C   UNL A   1      41.574  30.288  32.645  1.00  0.00     0.031 A 
ATOM     39  C   UNL A   1      42.192  31.155  31.587  1.00  0.00     0.074 A 
ATOM     40  C   UNL A   1      42.193  29.185  33.094  1.00  0.00     0.049 A 
ATOM     41  N   UNL A   1      43.314  30.995  30.936  1.00  0.00    -0.248 NA
ATOM     42  C   UNL A   1      41.443  32.366  31.212  1.00  0.00     0.031 C 
ATOM     43  C   UNL A   1      41.684  28.304  34.143  1.00  0.00     0.029 A 
ATOM     44  N   UNL A   1      43.384  28.619  32.724  1.00  0.00    -0.354 N 
ATOM     45  C   UNL A   1      43.404  32.082  30.076  1.00  0.00     0.074 A 
ATOM     46  C   UNL A   1      42.212  32.879  30.264  1.00  0.00     0.031 C 
ATOM     47  C   UNL A   1      42.555  27.297  34.325  1.00  0.00     0.029 A 
ATOM     48  C   UNL A   1      43.664  27.452  33.387  1.00  0.00     0.049 A 
ATOM     49  H   UNL A   1      43.981  29.012  32.046  1.00  0.00     0.167 HD
ATOM     50  C   UNL A   1      44.404  32.389  29.217  1.00  0.00     0.037 A 
ATOM     51  C   UNL A   1      44.693  26.598  33.232  1.00  0.00     0.037 A 
ATOM     52  C   UNL A   1      45.582  31.582  29.043  1.00  0.00     0.049 A 
ATOM     53  C   UNL A   1      45.756  26.925  32.217  1.00  0.00     0.074 A 
ATOM     54  C   UNL A   1      46.671  31.806  28.223  1.00  0.00     0.029 A 
ATOM     55  N   UNL A   1      45.815  30.383  29.702  1.00  0.00    -0.354 N 
ATOM     56  N   UNL A   1      45.856  27.972  31.433  1.00  0.00    -0.248 NA
ATOM     57  C   UNL A   1      46.846  25.953  32.062  1.00  0.00     0.031 C 
ATOM     58  C   UNL A   1      47.540  30.716  28.347  1.00  0.00     0.029 A 
ATOM     59  C   UNL A   1      47.015  29.837  29.281  1.00  0.00     0.049 A 
ATOM     60  H   UNL A   1      45.214  29.979  30.370  1.00  0.00     0.167 HD
ATOM     61  C   UNL A   1      47.023  27.795  30.703  1.00  0.00     0.074 A 
ATOM     62  C   UNL A   1      47.607  26.546  31.154  1.00  0.00     0.031 C 
ATOM     63  C   UNL A   1      47.564  28.588  29.745  1.00  0.00     0.037 A 
BRANCH  50  64
ATOM     64  C   UNL A   1      44.250  33.628  28.386  1.00  0.00     0.064 A 
ATOM     65  C   UNL A   1      43.874  33.568  27.035  1.00  0.00     0.173 A 
ATOM     66  C   UNL A   1      44.461  34.894  28.952  1.00  0.00     0.173 A 
ATOM     67  F   UNL A   1      43.675  32.380  26.441  1.00  0.00    -0.203 F 
ATOM     68  C   UNL A   1      43.740  34.728  26.276  1.00  0.00     0.198 A 
ATOM     69  C   UNL A   1      44.300  36.052  28.197  1.00  0.00     0.198 A 
ATOM     70  F   UNL A   1      44.821  35.006  30.239  1.00  0.00    -0.203 F 
ATOM     71  F   UNL A   1      43.423  34.645  24.977  1.00  0.00    -0.200 F 
ATOM     72  C   UNL A   1      43.947  35.969  26.860  1.00  0.00     0.200 A 
ATOM     73  F   UNL A   1      44.492  37.251  28.765  1.00  0.00    -0.200 F 
ATOM     74  F   UNL A   1      43.812  37.086  26.130  1.00  0.00    -0.200 F 
ENDBRANCH  50  64
BRANCH  51  75
ATOM     75  C   UNL A   1      44.754  25.357  34.044  1.00  0.00     0.064 A 
ATOM     76  C   UNL A   1      45.276  25.364  35.344  1.00  0.00     0.173 A 
ATOM     77  C   UNL A   1      44.285  24.135  33.536  1.00  0.00     0.173 A 
ATOM     78  F   UNL A   1      45.756  26.503  35.866  1.00  0.00    -0.203 F 
ATOM     79  C   UNL A   1      45.337  24.196  36.101  1.00  0.00     0.198 A 
ATOM     80  C   UNL A   1      44.322  22.973  34.304  1.00  0.00     0.198 A 
ATOM     81  F   UNL A   1      43.776  24.073  32.297  1.00  0.00    -0.203 F 
ATOM     82  F   UNL A   1      45.874  24.224  37.329  1.00  0.00    -0.200 F 
ATOM     83  C   UNL A   1      44.854  23.004  35.584  1.00  0.00     0.200 A 
ATOM     84  F   UNL A   1      43.842  21.826  33.804  1.00  0.00    -0.200 F 
ATOM     85  F   UNL A   1      44.907  21.882  36.316  1.00  0.00    -0.200 F 
ENDBRANCH  51  75
BRANCH  63  86
ATOM     86  C   UNL A   1      48.852  28.129  29.129  1.00  0.00     0.064 A 
ATOM     87  C   UNL A   1      50.090  28.453  29.699  1.00  0.00     0.173 A 
ATOM     88  C   UNL A   1      48.843  27.312  27.989  1.00  0.00     0.173 A 
ATOM     89  F   UNL A   1      50.149  29.246  30.781  1.00  0.00    -0.203 F 
ATOM     90  C   UNL A   1      51.277  27.991  29.140  1.00  0.00     0.198 A 
ATOM     91  C   UNL A   1      50.030  26.828  27.447  1.00  0.00     0.198 A 
ATOM     92  F   UNL A   1      47.682  26.970  27.411  1.00  0.00    -0.203 F 
ATOM     93  F   UNL A   1      52.453  28.345  29.677  1.00  0.00    -0.200 F 
ATOM     94  C   UNL A   1      51.246  27.172  28.020  1.00  0.00     0.200 A 
ATOM     95  F   UNL A   1      49.998  26.027  26.373  1.00  0.00    -0.200 F 
ATOM     96  F   UNL A   1      52.389  26.719  27.488  1.00  0.00    -0.200 F 
ENDBRANCH  63  86
ENDBRANCH  37  38
ENDBRANCH  30  32
ENDBRANCH  29  30
ENDBRANCH  28  29
ENDBRANCH  27  28
ENDBRANCH  26  27
ENDBRANCH   1  26
TORSDOF 19
ENDMDL
