MODEL 1
REMARK VINA RESULT:     -11.7      0.000      0.000
REMARK SMILES CC(C)[N@@H+](C)Cc1cc2c(cc1Cl)C=C(C(=O)OCCOCCOC(=O)c1ccc(-c3c4nc(c(-c5c(F)c(F)c(F)c(F)c5F)c5ccc([nH]5)c(-c5c(F)c(F)c(F)c(F)c5F)c5nc(c(-c6c(F)c(F)c(F)c(F)c6F)c6ccc3[nH]6)C=C5)C=C4)cc1)[C@@H](C(F)(F)F)O2
REMARK SMILES IDX 20 1 19 2 18 3 16 4 17 5 15 6 7 7 8 8 12 9 9 10 11 11 13 12
REMARK SMILES IDX 10 13 95 14 14 15 90 16 6 17 4 18 5 19 2 21 1 22 3 23 91 24
REMARK SMILES IDX 92 25 93 26 94 27 21 28 22 29 23 30 24 31 25 32 26 33 27 34
REMARK SMILES IDX 28 35 89 36 29 37 88 38 30 39 31 40 32 41 82 42 33 43 87 44
REMARK SMILES IDX 81 45 83 46 34 47 86 48 80 49 79 50 35 52 67 53 47 54 66 55
REMARK SMILES IDX 48 56 51 57 65 58 84 59 49 60 50 61 64 63 85 64 52 65 36 66
REMARK SMILES IDX 37 67 45 68 38 69 39 70 43 71 46 72 40 73 41 74 44 75 42 76
REMARK SMILES IDX 68 77 69 78 77 79 70 80 71 81 75 82 78 83 72 84 73 85 76 86
REMARK SMILES IDX 74 87 53 88 54 89 62 90 55 91 56 92 60 93 63 94 57 95 58 96
REMARK SMILES IDX 61 97 59 98
REMARK H PARENT 4 20 83 51 51 62
REMARK Flexibility Score: inf
ROOT
ATOM      1  C   UNL A   1      32.641  29.580  25.580  1.00  0.00     0.202 C 
ENDROOT
BRANCH   1   2
ATOM      2  C   UNL A   1      31.388  28.966  24.947  1.00  0.00     0.261 C 
BRANCH   2   3
ATOM      3  O   UNL A   1      31.273  27.560  25.208  1.00  0.00    -0.460 OA
BRANCH   3   4
ATOM      4  C   UNL A   1      30.393  26.941  24.389  1.00  0.00     0.338 C 
ATOM      5  O   UNL A   1      29.461  27.460  23.795  1.00  0.00    -0.246 OA
BRANCH   4   6
ATOM      6  C   UNL A   1      30.779  25.540  24.174  1.00  0.00     0.087 C 
ATOM      7  C   UNL A   1      33.104  21.219  25.088  1.00  0.00     0.029 A 
ATOM      8  C   UNL A   1      32.480  21.748  23.929  1.00  0.00     0.058 A 
ATOM      9  C   UNL A   1      33.072  21.998  26.256  1.00  0.00     0.050 A 
ATOM     10  C   UNL A   1      31.812  22.976  23.977  1.00  0.00     0.128 A 
ATOM     11  C   UNL A   1      32.254  23.117  26.341  1.00  0.00     0.033 A 
ATOM     12  Cl  UNL A   1      34.087  21.741  27.626  1.00  0.00    -0.084 Cl
ATOM     13  C   UNL A   1      31.624  23.599  25.206  1.00  0.00     0.019 A 
ATOM     14  O   UNL A   1      31.369  23.542  22.808  1.00  0.00    -0.475 OA
ATOM     15  C   UNL A   1      30.899  24.841  25.305  1.00  0.00     0.027 C 
ATOM     16  C   UNL A   1      31.173  25.002  22.830  1.00  0.00     0.316 C 
BRANCH   7  17
ATOM     17  C   UNL A   1      33.806  19.874  25.020  1.00  0.00     0.300 C 
BRANCH  17  18
ATOM     18  N   UNL A   1      33.009  18.696  24.632  1.00  0.00    -0.332 N 
ATOM     19  C   UNL A   1      32.725  17.786  25.734  1.00  0.00     0.333 C 
ATOM     20  H   UNL A   1      32.151  19.185  24.376  1.00  0.00     0.348 HD
BRANCH  18  21
ATOM     21  C   UNL A   1      33.266  18.003  23.357  1.00  0.00     0.177 C 
ATOM     22  C   UNL A   1      33.823  16.578  23.505  1.00  0.00     0.075 C 
ATOM     23  C   UNL A   1      32.159  18.114  22.295  1.00  0.00     0.075 C 
ENDBRANCH  18  21
ENDBRANCH  17  18
ENDBRANCH   7  17
BRANCH  16  24
ATOM     24  C   UNL A   1      32.406  25.739  22.285  1.00  0.00     0.430 C 
ATOM     25  F   UNL A   1      32.998  25.047  21.285  1.00  0.00    -0.167 F 
ATOM     26  F   UNL A   1      32.060  26.946  21.773  1.00  0.00    -0.167 F 
ATOM     27  F   UNL A   1      33.337  25.958  23.239  1.00  0.00    -0.167 F 
ENDBRANCH  16  24
ENDBRANCH   4   6
ENDBRANCH   3   4
ENDBRANCH   2   3
ENDBRANCH   1   2
BRANCH   1  28
ATOM     28  O   UNL A   1      32.479  30.568  26.591  1.00  0.00    -0.374 OA
BRANCH  28  29
ATOM     29  C   UNL A   1      31.411  31.506  26.490  1.00  0.00     0.202 C 
BRANCH  29  30
ATOM     30  C   UNL A   1      31.656  32.971  26.877  1.00  0.00     0.261 C 
BRANCH  30  31
ATOM     31  O   UNL A   1      33.047  33.329  26.897  1.00  0.00    -0.460 OA
BRANCH  31  32
ATOM     32  C   UNL A   1      33.467  33.902  28.055  1.00  0.00     0.338 C 
ATOM     33  O   UNL A   1      32.892  34.739  28.723  1.00  0.00    -0.246 OA
BRANCH  32  34
ATOM     34  C   UNL A   1      34.677  33.201  28.523  1.00  0.00     0.060 A 
ATOM     35  C   UNL A   1      35.925  33.819  28.473  1.00  0.00     0.016 A 
ATOM     36  C   UNL A   1      34.530  31.922  29.076  1.00  0.00     0.016 A 
ATOM     37  C   UNL A   1      37.032  33.155  29.004  1.00  0.00     0.010 A 
ATOM     38  C   UNL A   1      35.637  31.259  29.600  1.00  0.00     0.010 A 
ATOM     39  C   UNL A   1      36.892  31.882  29.588  1.00  0.00    -0.014 A 
BRANCH  39  40
ATOM     40  C   UNL A   1      38.028  31.267  30.315  1.00  0.00     0.031 A 
ATOM     41  C   UNL A   1      38.335  31.623  31.736  1.00  0.00     0.074 A 
ATOM     42  C   UNL A   1      38.803  30.388  29.654  1.00  0.00     0.049 A 
ATOM     43  N   UNL A   1      39.251  31.122  32.527  1.00  0.00    -0.248 NA
ATOM     44  C   UNL A   1      37.519  32.680  32.347  1.00  0.00     0.031 C 
ATOM     45  C   UNL A   1      38.622  30.005  28.252  1.00  0.00     0.029 A 
ATOM     46  N   UNL A   1      39.886  29.655  30.065  1.00  0.00    -0.354 N 
ATOM     47  C   UNL A   1      39.109  31.786  33.737  1.00  0.00     0.074 A 
ATOM     48  C   UNL A   1      38.055  32.763  33.559  1.00  0.00     0.031 C 
ATOM     49  C   UNL A   1      39.538  29.081  27.931  1.00  0.00     0.029 A 
ATOM     50  C   UNL A   1      40.390  28.829  29.090  1.00  0.00     0.049 A 
ATOM     51  H   UNL A   1      40.266  29.714  30.971  1.00  0.00     0.167 HD
ATOM     52  C   UNL A   1      39.785  31.578  34.893  1.00  0.00     0.037 A 
ATOM     53  C   UNL A   1      41.419  27.963  29.126  1.00  0.00     0.037 A 
ATOM     54  C   UNL A   1      40.848  30.615  35.051  1.00  0.00     0.049 A 
ATOM     55  C   UNL A   1      42.181  27.783  30.408  1.00  0.00     0.074 A 
ATOM     56  C   UNL A   1      41.568  30.306  36.192  1.00  0.00     0.029 A 
ATOM     57  N   UNL A   1      41.358  29.819  34.034  1.00  0.00    -0.354 N 
ATOM     58  N   UNL A   1      41.987  28.354  31.572  1.00  0.00    -0.248 NA
ATOM     59  C   UNL A   1      43.301  26.833  30.386  1.00  0.00     0.031 C 
ATOM     60  C   UNL A   1      42.551  29.372  35.852  1.00  0.00     0.029 A 
ATOM     61  C   UNL A   1      42.404  29.045  34.514  1.00  0.00     0.049 A 
ATOM     62  H   UNL A   1      41.025  29.806  33.107  1.00  0.00     0.167 HD
ATOM     63  C   UNL A   1      42.942  27.819  32.425  1.00  0.00     0.074 A 
ATOM     64  C   UNL A   1      43.705  26.864  31.649  1.00  0.00     0.031 C 
ATOM     65  C   UNL A   1      43.163  28.098  33.734  1.00  0.00     0.037 A 
BRANCH  52  66
ATOM     66  C   UNL A   1      39.397  32.400  36.089  1.00  0.00     0.064 A 
ATOM     67  C   UNL A   1      38.421  31.959  36.996  1.00  0.00     0.173 A 
ATOM     68  C   UNL A   1      40.054  33.607  36.373  1.00  0.00     0.173 A 
ATOM     69  F   UNL A   1      37.759  30.813  36.769  1.00  0.00    -0.203 F 
ATOM     70  C   UNL A   1      38.103  32.703  38.129  1.00  0.00     0.198 A 
ATOM     71  C   UNL A   1      39.756  34.334  37.524  1.00  0.00     0.198 A 
ATOM     72  F   UNL A   1      41.002  34.073  35.546  1.00  0.00    -0.203 F 
ATOM     73  F   UNL A   1      37.140  32.278  38.959  1.00  0.00    -0.200 F 
ATOM     74  C   UNL A   1      38.777  33.885  38.397  1.00  0.00     0.200 A 
ATOM     75  F   UNL A   1      40.422  35.466  37.790  1.00  0.00    -0.200 F 
ATOM     76  F   UNL A   1      38.481  34.592  39.496  1.00  0.00    -0.200 F 
ENDBRANCH  52  66
BRANCH  53  77
ATOM     77  C   UNL A   1      41.742  27.169  27.914  1.00  0.00     0.064 A 
ATOM     78  C   UNL A   1      42.675  27.634  26.979  1.00  0.00     0.173 A 
ATOM     79  C   UNL A   1      41.168  25.908  27.694  1.00  0.00     0.173 A 
ATOM     80  F   UNL A   1      43.237  28.841  27.137  1.00  0.00    -0.203 F 
ATOM     81  C   UNL A   1      43.021  26.868  25.867  1.00  0.00     0.198 A 
ATOM     82  C   UNL A   1      41.537  25.130  26.599  1.00  0.00     0.198 A 
ATOM     83  F   UNL A   1      40.276  25.416  28.566  1.00  0.00    -0.203 F 
ATOM     84  F   UNL A   1      43.898  27.348  24.974  1.00  0.00    -0.200 F 
ATOM     85  C   UNL A   1      42.461  25.613  25.685  1.00  0.00     0.200 A 
ATOM     86  F   UNL A   1      41.009  23.910  26.438  1.00  0.00    -0.200 F 
ATOM     87  F   UNL A   1      42.812  24.868  24.628  1.00  0.00    -0.200 F 
ENDBRANCH  53  77
BRANCH  65  88
ATOM     88  C   UNL A   1      44.267  27.351  34.428  1.00  0.00     0.064 A 
ATOM     89  C   UNL A   1      45.560  27.885  34.541  1.00  0.00     0.173 A 
ATOM     90  C   UNL A   1      44.012  26.118  35.050  1.00  0.00     0.173 A 
ATOM     91  F   UNL A   1      45.862  29.054  33.954  1.00  0.00    -0.203 F 
ATOM     92  C   UNL A   1      46.559  27.205  35.234  1.00  0.00     0.198 A 
ATOM     93  C   UNL A   1      45.003  25.458  35.770  1.00  0.00     0.198 A 
ATOM     94  F   UNL A   1      42.792  25.565  34.979  1.00  0.00    -0.203 F 
ATOM     95  F   UNL A   1      47.796  27.716  35.294  1.00  0.00    -0.200 F 
ATOM     96  C   UNL A   1      46.277  25.999  35.857  1.00  0.00     0.200 A 
ATOM     97  F   UNL A   1      44.724  24.301  36.387  1.00  0.00    -0.200 F 
ATOM     98  F   UNL A   1      47.234  25.356  36.540  1.00  0.00    -0.200 F 
ENDBRANCH  65  88
ENDBRANCH  39  40
ENDBRANCH  32  34
ENDBRANCH  31  32
ENDBRANCH  30  31
ENDBRANCH  29  30
ENDBRANCH  28  29
ENDBRANCH   1  28
TORSDOF 18
ENDMDL
MODEL 2
REMARK VINA RESULT:     -11.5      4.937      8.615
REMARK SMILES CC(C)[N@@H+](C)Cc1cc2c(cc1Cl)C=C(C(=O)OCCOCCOC(=O)c1ccc(-c3c4nc(c(-c5c(F)c(F)c(F)c(F)c5F)c5ccc([nH]5)c(-c5c(F)c(F)c(F)c(F)c5F)c5nc(c(-c6c(F)c(F)c(F)c(F)c6F)c6ccc3[nH]6)C=C5)C=C4)cc1)[C@@H](C(F)(F)F)O2
REMARK SMILES IDX 20 1 19 2 18 3 16 4 17 5 15 6 7 7 8 8 12 9 9 10 11 11 13 12
REMARK SMILES IDX 10 13 95 14 14 15 90 16 6 17 4 18 5 19 2 21 1 22 3 23 91 24
REMARK SMILES IDX 92 25 93 26 94 27 21 28 22 29 23 30 24 31 25 32 26 33 27 34
REMARK SMILES IDX 28 35 89 36 29 37 88 38 30 39 31 40 32 41 82 42 33 43 87 44
REMARK SMILES IDX 81 45 83 46 34 47 86 48 80 49 79 50 35 52 67 53 47 54 66 55
REMARK SMILES IDX 48 56 51 57 65 58 84 59 49 60 50 61 64 63 85 64 52 65 36 66
REMARK SMILES IDX 37 67 45 68 38 69 39 70 43 71 46 72 40 73 41 74 44 75 42 76
REMARK SMILES IDX 68 77 69 78 77 79 70 80 71 81 75 82 78 83 72 84 73 85 76 86
REMARK SMILES IDX 74 87 53 88 54 89 62 90 55 91 56 92 60 93 63 94 57 95 58 96
REMARK SMILES IDX 61 97 59 98
REMARK H PARENT 4 20 83 51 51 62
REMARK Flexibility Score: inf
ROOT
ATOM      1  C   UNL A   1      37.209  22.035  24.684  1.00  0.00     0.202 C 
ENDROOT
BRANCH   1   2
ATOM      2  C   UNL A   1      35.967  22.580  23.972  1.00  0.00     0.261 C 
BRANCH   2   3
ATOM      3  O   UNL A   1      34.756  22.306  24.691  1.00  0.00    -0.460 OA
BRANCH   3   4
ATOM      4  C   UNL A   1      34.425  23.287  25.562  1.00  0.00     0.338 C 
ATOM      5  O   UNL A   1      34.758  23.363  26.734  1.00  0.00    -0.246 OA
BRANCH   4   6
ATOM      6  C   UNL A   1      33.704  24.369  24.879  1.00  0.00     0.087 C 
ATOM      7  C   UNL A   1      31.194  28.661  24.441  1.00  0.00     0.029 A 
ATOM      8  C   UNL A   1      31.330  27.536  23.588  1.00  0.00     0.058 A 
ATOM      9  C   UNL A   1      31.903  28.647  25.653  1.00  0.00     0.050 A 
ATOM     10  C   UNL A   1      32.187  26.484  23.928  1.00  0.00     0.128 A 
ATOM     11  C   UNL A   1      32.885  27.693  25.890  1.00  0.00     0.033 A 
ATOM     12  Cl  UNL A   1      31.577  29.691  26.985  1.00  0.00    -0.084 Cl
ATOM     13  C   UNL A   1      33.027  26.620  25.026  1.00  0.00     0.019 A 
ATOM     14  O   UNL A   1      32.169  25.337  23.173  1.00  0.00    -0.475 OA
ATOM     15  C   UNL A   1      33.959  25.579  25.382  1.00  0.00     0.027 C 
ATOM     16  C   UNL A   1      32.650  24.116  23.841  1.00  0.00     0.316 C 
BRANCH   7  17
ATOM     17  C   UNL A   1      30.274  29.803  24.044  1.00  0.00     0.300 C 
BRANCH  17  18
ATOM     18  N   UNL A   1      29.420  29.623  22.856  1.00  0.00    -0.332 N 
ATOM     19  C   UNL A   1      30.037  30.069  21.613  1.00  0.00     0.333 C 
ATOM     20  H   UNL A   1      29.385  28.603  22.862  1.00  0.00     0.348 HD
BRANCH  18  21
ATOM     21  C   UNL A   1      27.975  29.902  22.921  1.00  0.00     0.177 C 
ATOM     22  C   UNL A   1      27.110  28.700  23.335  1.00  0.00     0.075 C 
ATOM     23  C   UNL A   1      27.572  31.209  23.622  1.00  0.00     0.075 C 
ENDBRANCH  18  21
ENDBRANCH  17  18
ENDBRANCH   7  17
BRANCH  16  24
ATOM     24  C   UNL A   1      31.486  23.305  24.429  1.00  0.00     0.430 C 
ATOM     25  F   UNL A   1      31.636  21.980  24.199  1.00  0.00    -0.167 F 
ATOM     26  F   UNL A   1      31.419  23.461  25.775  1.00  0.00    -0.167 F 
ATOM     27  F   UNL A   1      30.291  23.677  23.921  1.00  0.00    -0.167 F 
ENDBRANCH  16  24
ENDBRANCH   4   6
ENDBRANCH   3   4
ENDBRANCH   2   3
ENDBRANCH   1   2
BRANCH   1  28
ATOM     28  O   UNL A   1      37.809  20.843  24.190  1.00  0.00    -0.374 OA
BRANCH  28  29
ATOM     29  C   UNL A   1      37.876  19.693  25.028  1.00  0.00     0.202 C 
BRANCH  29  30
ATOM     30  C   UNL A   1      39.213  19.313  25.680  1.00  0.00     0.261 C 
BRANCH  30  31
ATOM     31  O   UNL A   1      40.086  20.436  25.884  1.00  0.00    -0.460 OA
BRANCH  31  32
ATOM     32  C   UNL A   1      40.631  20.511  27.127  1.00  0.00     0.338 C 
ATOM     33  O   UNL A   1      40.986  19.593  27.840  1.00  0.00    -0.246 OA
BRANCH  32  34
ATOM     34  C   UNL A   1      40.934  21.921  27.431  1.00  0.00     0.060 A 
ATOM     35  C   UNL A   1      41.814  22.257  28.457  1.00  0.00     0.016 A 
ATOM     36  C   UNL A   1      40.361  22.912  26.622  1.00  0.00     0.016 A 
ATOM     37  C   UNL A   1      42.141  23.599  28.658  1.00  0.00     0.010 A 
ATOM     38  C   UNL A   1      40.684  24.251  26.828  1.00  0.00     0.010 A 
ATOM     39  C   UNL A   1      41.596  24.601  27.834  1.00  0.00    -0.014 A 
BRANCH  39  40
ATOM     40  C   UNL A   1      42.089  25.996  27.930  1.00  0.00     0.031 A 
ATOM     41  C   UNL A   1      41.294  27.063  28.615  1.00  0.00     0.074 A 
ATOM     42  C   UNL A   1      43.272  26.291  27.360  1.00  0.00     0.049 A 
ATOM     43  N   UNL A   1      41.620  28.312  28.839  1.00  0.00    -0.248 NA
ATOM     44  C   UNL A   1      39.960  26.689  29.102  1.00  0.00     0.031 C 
ATOM     45  C   UNL A   1      44.106  25.337  26.626  1.00  0.00     0.029 A 
ATOM     46  N   UNL A   1      43.979  27.464  27.311  1.00  0.00    -0.354 N 
ATOM     47  C   UNL A   1      40.544  28.869  29.513  1.00  0.00     0.074 A 
ATOM     48  C   UNL A   1      39.532  27.836  29.613  1.00  0.00     0.031 C 
ATOM     49  C   UNL A   1      45.229  25.953  26.232  1.00  0.00     0.029 A 
ATOM     50  C   UNL A   1      45.181  27.350  26.656  1.00  0.00     0.049 A 
ATOM     51  H   UNL A   1      43.658  28.306  27.707  1.00  0.00     0.167 HD
ATOM     52  C   UNL A   1      40.426  30.120  30.019  1.00  0.00     0.037 A 
ATOM     53  C   UNL A   1      46.139  28.267  26.425  1.00  0.00     0.037 A 
ATOM     54  C   UNL A   1      41.433  31.145  29.894  1.00  0.00     0.049 A 
ATOM     55  C   UNL A   1      45.965  29.660  26.959  1.00  0.00     0.074 A 
ATOM     56  C   UNL A   1      41.421  32.432  30.404  1.00  0.00     0.029 A 
ATOM     57  N   UNL A   1      42.624  31.008  29.194  1.00  0.00    -0.354 N 
ATOM     58  N   UNL A   1      44.980  30.156  27.669  1.00  0.00    -0.248 NA
ATOM     59  C   UNL A   1      47.037  30.621  26.668  1.00  0.00     0.031 C 
ATOM     60  C   UNL A   1      42.572  33.091  29.962  1.00  0.00     0.029 A 
ATOM     61  C   UNL A   1      43.338  32.197  29.231  1.00  0.00     0.049 A 
ATOM     62  H   UNL A   1      42.920  30.187  28.737  1.00  0.00     0.167 HD
ATOM     63  C   UNL A   1      45.321  31.476  27.927  1.00  0.00     0.074 A 
ATOM     64  C   UNL A   1      46.613  31.700  27.313  1.00  0.00     0.031 C 
ATOM     65  C   UNL A   1      44.623  32.415  28.613  1.00  0.00     0.037 A 
BRANCH  52  66
ATOM     66  C   UNL A   1      39.166  30.459  30.764  1.00  0.00     0.064 A 
ATOM     67  C   UNL A   1      39.056  30.253  32.149  1.00  0.00     0.173 A 
ATOM     68  C   UNL A   1      38.083  31.059  30.106  1.00  0.00     0.173 A 
ATOM     69  F   UNL A   1      40.061  29.677  32.827  1.00  0.00    -0.203 F 
ATOM     70  C   UNL A   1      37.904  30.616  32.840  1.00  0.00     0.198 A 
ATOM     71  C   UNL A   1      36.944  31.450  30.806  1.00  0.00     0.198 A 
ATOM     72  F   UNL A   1      38.136  31.289  28.785  1.00  0.00    -0.203 F 
ATOM     73  F   UNL A   1      37.809  30.374  34.155  1.00  0.00    -0.200 F 
ATOM     74  C   UNL A   1      36.852  31.223  32.170  1.00  0.00     0.200 A 
ATOM     75  F   UNL A   1      35.936  32.054  30.159  1.00  0.00    -0.200 F 
ATOM     76  F   UNL A   1      35.750  31.587  32.840  1.00  0.00    -0.200 F 
ENDBRANCH  52  66
BRANCH  53  77
ATOM     77  C   UNL A   1      47.368  27.864  25.695  1.00  0.00     0.064 A 
ATOM     78  C   UNL A   1      48.525  27.490  26.390  1.00  0.00     0.173 A 
ATOM     79  C   UNL A   1      47.393  27.791  24.295  1.00  0.00     0.173 A 
ATOM     80  F   UNL A   1      48.555  27.559  27.729  1.00  0.00    -0.203 F 
ATOM     81  C   UNL A   1      49.663  27.059  25.711  1.00  0.00     0.198 A 
ATOM     82  C   UNL A   1      48.521  27.331  23.619  1.00  0.00     0.198 A 
ATOM     83  F   UNL A   1      46.307  28.130  23.585  1.00  0.00    -0.203 F 
ATOM     84  F   UNL A   1      50.766  26.731  26.399  1.00  0.00    -0.200 F 
ATOM     85  C   UNL A   1      49.656  26.970  24.327  1.00  0.00     0.200 A 
ATOM     86  F   UNL A   1      48.503  27.227  22.283  1.00  0.00    -0.200 F 
ATOM     87  F   UNL A   1      50.743  26.534  23.677  1.00  0.00    -0.200 F 
ENDBRANCH  53  77
BRANCH  65  88
ATOM     88  C   UNL A   1      45.244  33.776  28.757  1.00  0.00     0.064 A 
ATOM     89  C   UNL A   1      46.131  34.075  29.801  1.00  0.00     0.173 A 
ATOM     90  C   UNL A   1      45.004  34.773  27.797  1.00  0.00     0.173 A 
ATOM     91  F   UNL A   1      46.386  33.163  30.753  1.00  0.00    -0.203 F 
ATOM     92  C   UNL A   1      46.740  35.325  29.890  1.00  0.00     0.198 A 
ATOM     93  C   UNL A   1      45.640  36.008  27.870  1.00  0.00     0.198 A 
ATOM     94  F   UNL A   1      44.168  34.539  26.773  1.00  0.00    -0.203 F 
ATOM     95  F   UNL A   1      47.553  35.600  30.919  1.00  0.00    -0.200 F 
ATOM     96  C   UNL A   1      46.503  36.285  28.919  1.00  0.00     0.200 A 
ATOM     97  F   UNL A   1      45.423  36.930  26.920  1.00  0.00    -0.200 F 
ATOM     98  F   UNL A   1      47.106  37.481  28.995  1.00  0.00    -0.200 F 
ENDBRANCH  65  88
ENDBRANCH  39  40
ENDBRANCH  32  34
ENDBRANCH  31  32
ENDBRANCH  30  31
ENDBRANCH  29  30
ENDBRANCH  28  29
ENDBRANCH   1  28
TORSDOF 18
ENDMDL
MODEL 3
REMARK VINA RESULT:     -11.5      4.670     10.322
REMARK SMILES CC(C)[N@@H+](C)Cc1cc2c(cc1Cl)C=C(C(=O)OCCOCCOC(=O)c1ccc(-c3c4nc(c(-c5c(F)c(F)c(F)c(F)c5F)c5ccc([nH]5)c(-c5c(F)c(F)c(F)c(F)c5F)c5nc(c(-c6c(F)c(F)c(F)c(F)c6F)c6ccc3[nH]6)C=C5)C=C4)cc1)[C@@H](C(F)(F)F)O2
REMARK SMILES IDX 20 1 19 2 18 3 16 4 17 5 15 6 7 7 8 8 12 9 9 10 11 11 13 12
REMARK SMILES IDX 10 13 95 14 14 15 90 16 6 17 4 18 5 19 2 21 1 22 3 23 91 24
REMARK SMILES IDX 92 25 93 26 94 27 21 28 22 29 23 30 24 31 25 32 26 33 27 34
REMARK SMILES IDX 28 35 89 36 29 37 88 38 30 39 31 40 32 41 82 42 33 43 87 44
REMARK SMILES IDX 81 45 83 46 34 47 86 48 80 49 79 50 35 52 67 53 47 54 66 55
REMARK SMILES IDX 48 56 51 57 65 58 84 59 49 60 50 61 64 63 85 64 52 65 36 66
REMARK SMILES IDX 37 67 45 68 38 69 39 70 43 71 46 72 40 73 41 74 44 75 42 76
REMARK SMILES IDX 68 77 69 78 77 79 70 80 71 81 75 82 78 83 72 84 73 85 76 86
REMARK SMILES IDX 74 87 53 88 54 89 62 90 55 91 56 92 60 93 63 94 57 95 58 96
REMARK SMILES IDX 61 97 59 98
REMARK H PARENT 4 20 83 51 51 62
REMARK Flexibility Score: inf
ROOT
ATOM      1  C   UNL A   1      33.614  20.251  25.166  1.00  0.00     0.202 C 
ENDROOT
BRANCH   1   2
ATOM      2  C   UNL A   1      33.309  20.991  26.472  1.00  0.00     0.261 C 
BRANCH   2   3
ATOM      3  O   UNL A   1      32.812  22.318  26.251  1.00  0.00    -0.460 OA
BRANCH   3   4
ATOM      4  C   UNL A   1      33.730  23.276  26.511  1.00  0.00     0.338 C 
ATOM      5  O   UNL A   1      34.770  23.139  27.137  1.00  0.00    -0.246 OA
BRANCH   4   6
ATOM      6  C   UNL A   1      33.393  24.524  25.814  1.00  0.00     0.087 C 
ATOM      7  C   UNL A   1      30.502  27.821  23.428  1.00  0.00     0.029 A 
ATOM      8  C   UNL A   1      31.909  27.665  23.519  1.00  0.00     0.058 A 
ATOM      9  C   UNL A   1      29.701  26.923  24.152  1.00  0.00     0.050 A 
ATOM     10  C   UNL A   1      32.465  26.685  24.348  1.00  0.00     0.128 A 
ATOM     11  C   UNL A   1      30.260  26.085  25.107  1.00  0.00     0.033 A 
ATOM     12  Cl  UNL A   1      28.017  26.678  23.874  1.00  0.00    -0.084 Cl
ATOM     13  C   UNL A   1      31.637  25.972  25.206  1.00  0.00     0.019 A 
ATOM     14  O   UNL A   1      33.816  26.445  24.285  1.00  0.00    -0.475 OA
ATOM     15  C   UNL A   1      32.176  24.988  26.112  1.00  0.00     0.027 C 
ATOM     16  C   UNL A   1      34.257  25.115  24.739  1.00  0.00     0.316 C 
BRANCH   7  17
ATOM     17  C   UNL A   1      29.918  28.904  22.537  1.00  0.00     0.300 C 
BRANCH  17  18
ATOM     18  N   UNL A   1      29.922  30.290  23.040  1.00  0.00    -0.332 N 
ATOM     19  C   UNL A   1      30.480  30.430  24.380  1.00  0.00     0.333 C 
ATOM     20  H   UNL A   1      30.578  30.682  22.364  1.00  0.00     0.348 HD
BRANCH  18  21
ATOM     21  C   UNL A   1      28.777  31.182  22.791  1.00  0.00     0.177 C 
ATOM     22  C   UNL A   1      28.567  31.557  21.315  1.00  0.00     0.075 C 
ATOM     23  C   UNL A   1      27.470  30.819  23.515  1.00  0.00     0.075 C 
ENDBRANCH  18  21
ENDBRANCH  17  18
ENDBRANCH   7  17
BRANCH  16  24
ATOM     24  C   UNL A   1      34.405  24.143  23.559  1.00  0.00     0.430 C 
ATOM     25  F   UNL A   1      35.588  23.487  23.600  1.00  0.00    -0.167 F 
ATOM     26  F   UNL A   1      33.434  23.197  23.587  1.00  0.00    -0.167 F 
ATOM     27  F   UNL A   1      34.324  24.768  22.364  1.00  0.00    -0.167 F 
ENDBRANCH  16  24
ENDBRANCH   4   6
ENDBRANCH   3   4
ENDBRANCH   2   3
ENDBRANCH   1   2
BRANCH   1  28
ATOM     28  O   UNL A   1      34.950  19.829  24.918  1.00  0.00    -0.374 OA
BRANCH  28  29
ATOM     29  C   UNL A   1      36.012  20.774  25.008  1.00  0.00     0.202 C 
BRANCH  29  30
ATOM     30  C   UNL A   1      37.463  20.276  25.047  1.00  0.00     0.261 C 
BRANCH  30  31
ATOM     31  O   UNL A   1      38.423  21.332  25.217  1.00  0.00    -0.460 OA
BRANCH  31  32
ATOM     32  C   UNL A   1      39.383  21.080  26.145  1.00  0.00     0.338 C 
ATOM     33  O   UNL A   1      39.891  20.010  26.419  1.00  0.00    -0.246 OA
BRANCH  32  34
ATOM     34  C   UNL A   1      39.895  22.362  26.663  1.00  0.00     0.060 A 
ATOM     35  C   UNL A   1      40.935  22.394  27.589  1.00  0.00     0.016 A 
ATOM     36  C   UNL A   1      39.349  23.548  26.153  1.00  0.00     0.016 A 
ATOM     37  C   UNL A   1      41.449  23.629  27.990  1.00  0.00     0.010 A 
ATOM     38  C   UNL A   1      39.860  24.779  26.559  1.00  0.00     0.010 A 
ATOM     39  C   UNL A   1      40.929  24.826  27.464  1.00  0.00    -0.014 A 
BRANCH  39  40
ATOM     40  C   UNL A   1      41.599  26.117  27.748  1.00  0.00     0.031 A 
ATOM     41  C   UNL A   1      42.995  26.396  27.284  1.00  0.00     0.074 A 
ATOM     42  C   UNL A   1      40.926  27.038  28.462  1.00  0.00     0.049 A 
ATOM     43  N   UNL A   1      43.691  27.499  27.396  1.00  0.00    -0.248 NA
ATOM     44  C   UNL A   1      43.705  25.296  26.619  1.00  0.00     0.031 C 
ATOM     45  C   UNL A   1      39.579  26.852  29.004  1.00  0.00     0.029 A 
ATOM     46  N   UNL A   1      41.272  28.306  28.849  1.00  0.00    -0.354 N 
ATOM     47  C   UNL A   1      44.914  27.236  26.795  1.00  0.00     0.074 A 
ATOM     48  C   UNL A   1      44.884  25.852  26.370  1.00  0.00     0.031 C 
ATOM     49  C   UNL A   1      39.198  27.979  29.621  1.00  0.00     0.029 A 
ATOM     50  C   UNL A   1      40.283  28.954  29.548  1.00  0.00     0.049 A 
ATOM     51  H   UNL A   1      42.145  28.714  28.646  1.00  0.00     0.167 HD
ATOM     52  C   UNL A   1      45.953  28.084  26.601  1.00  0.00     0.037 A 
ATOM     53  C   UNL A   1      40.250  30.195  30.067  1.00  0.00     0.037 A 
ATOM     54  C   UNL A   1      45.978  29.455  27.049  1.00  0.00     0.049 A 
ATOM     55  C   UNL A   1      41.434  31.101  29.876  1.00  0.00     0.074 A 
ATOM     56  C   UNL A   1      46.970  30.403  26.867  1.00  0.00     0.029 A 
ATOM     57  N   UNL A   1      44.974  30.070  27.785  1.00  0.00    -0.354 N 
ATOM     58  N   UNL A   1      42.554  30.873  29.234  1.00  0.00    -0.248 NA
ATOM     59  C   UNL A   1      41.347  32.440  30.474  1.00  0.00     0.031 C 
ATOM     60  C   UNL A   1      46.595  31.568  27.544  1.00  0.00     0.029 A 
ATOM     61  C   UNL A   1      45.338  31.372  28.092  1.00  0.00     0.049 A 
ATOM     62  H   UNL A   1      44.126  29.643  28.049  1.00  0.00     0.167 HD
ATOM     63  C   UNL A   1      43.295  32.042  29.331  1.00  0.00     0.074 A 
ATOM     64  C   UNL A   1      42.490  32.985  30.079  1.00  0.00     0.031 C 
ATOM     65  C   UNL A   1      44.533  32.305  28.842  1.00  0.00     0.037 A 
BRANCH  52  66
ATOM     66  C   UNL A   1      47.155  27.562  25.866  1.00  0.00     0.064 A 
ATOM     67  C   UNL A   1      47.272  27.686  24.472  1.00  0.00     0.173 A 
ATOM     68  C   UNL A   1      48.232  26.996  26.563  1.00  0.00     0.173 A 
ATOM     69  F   UNL A   1      46.268  28.216  23.756  1.00  0.00    -0.203 F 
ATOM     70  C   UNL A   1      48.411  27.246  23.804  1.00  0.00     0.198 A 
ATOM     71  C   UNL A   1      49.384  26.585  25.895  1.00  0.00     0.198 A 
ATOM     72  F   UNL A   1      48.180  26.861  27.897  1.00  0.00    -0.203 F 
ATOM     73  F   UNL A   1      48.481  27.340  22.469  1.00  0.00    -0.200 F 
ATOM     74  C   UNL A   1      49.470  26.704  24.517  1.00  0.00     0.200 A 
ATOM     75  F   UNL A   1      50.414  26.078  26.588  1.00  0.00    -0.200 F 
ATOM     76  F   UNL A   1      50.572  26.294  23.874  1.00  0.00    -0.200 F 
ENDBRANCH  52  66
BRANCH  53  77
ATOM     77  C   UNL A   1      39.026  30.656  30.770  1.00  0.00     0.064 A 
ATOM     78  C   UNL A   1      37.969  31.241  30.061  1.00  0.00     0.173 A 
ATOM     79  C   UNL A   1      38.865  30.470  32.150  1.00  0.00     0.173 A 
ATOM     80  F   UNL A   1      38.084  31.455  28.742  1.00  0.00    -0.203 F 
ATOM     81  C   UNL A   1      36.797  31.626  30.708  1.00  0.00     0.198 A 
ATOM     82  C   UNL A   1      37.680  30.827  32.791  1.00  0.00     0.198 A 
ATOM     83  F   UNL A   1      39.845  29.906  32.871  1.00  0.00    -0.203 F 
ATOM     84  F   UNL A   1      35.810  32.207  30.010  1.00  0.00    -0.200 F 
ATOM     85  C   UNL A   1      36.649  31.408  32.069  1.00  0.00     0.200 A 
ATOM     86  F   UNL A   1      37.534  30.596  34.102  1.00  0.00    -0.200 F 
ATOM     87  F   UNL A   1      35.512  31.758  32.685  1.00  0.00    -0.200 F 
ENDBRANCH  53  77
BRANCH  65  88
ATOM     88  C   UNL A   1      45.098  33.678  29.082  1.00  0.00     0.064 A 
ATOM     89  C   UNL A   1      44.842  34.743  28.205  1.00  0.00     0.173 A 
ATOM     90  C   UNL A   1      45.844  33.948  30.239  1.00  0.00     0.173 A 
ATOM     91  F   UNL A   1      44.145  34.537  27.077  1.00  0.00    -0.203 F 
ATOM     92  C   UNL A   1      45.327  36.022  28.469  1.00  0.00     0.198 A 
ATOM     93  C   UNL A   1      46.299  35.233  30.517  1.00  0.00     0.198 A 
ATOM     94  F   UNL A   1      46.113  32.967  31.115  1.00  0.00    -0.203 F 
ATOM     95  F   UNL A   1      45.104  37.014  27.598  1.00  0.00    -0.200 F 
ATOM     96  C   UNL A   1      46.045  36.268  29.630  1.00  0.00     0.200 A 
ATOM     97  F   UNL A   1      46.977  35.473  31.649  1.00  0.00    -0.200 F 
ATOM     98  F   UNL A   1      46.494  37.503  29.893  1.00  0.00    -0.200 F 
ENDBRANCH  65  88
ENDBRANCH  39  40
ENDBRANCH  32  34
ENDBRANCH  31  32
ENDBRANCH  30  31
ENDBRANCH  29  30
ENDBRANCH  28  29
ENDBRANCH   1  28
TORSDOF 18
ENDMDL
