MODEL 1
REMARK VINA RESULT:     -11.5      0.000      0.000
REMARK SMILES CCS(=O)(=O)Nc1ccc(N2CC[NH+](C)CC2)cc1C(=O)OCCOCCOC(=O)c1ccc(-c2c3nc(c(-c4c(F)c(F)c(F)c(F)c4F)c4ccc([nH]4)c(-c4c(F)c(F)c(F)c(F)c4F)c4nc(c(-c5c(F)c(F)c(F)c(F)c5F)c5ccc2[nH]5)C=C4)C=C3)cc1
REMARK SMILES IDX 24 1 23 2 22 3 20 4 21 5 19 6 7 7 8 8 9 9 18 10 10 11 6 12
REMARK SMILES IDX 3 14 4 15 5 16 2 17 1 18 11 19 12 20 17 21 13 22 16 23 14 24
REMARK SMILES IDX 15 25 25 27 26 28 27 29 28 30 29 31 30 32 31 33 32 34 93 35
REMARK SMILES IDX 33 36 92 37 34 38 35 39 36 40 86 41 37 42 91 43 85 44 87 45
REMARK SMILES IDX 38 46 90 47 84 48 83 49 39 51 71 52 51 53 70 54 52 55 55 56
REMARK SMILES IDX 69 57 88 58 53 59 54 60 68 62 89 63 56 64 40 65 41 66 49 67
REMARK SMILES IDX 42 68 43 69 47 70 50 71 44 72 45 73 48 74 46 75 72 76 73 77
REMARK SMILES IDX 81 78 74 79 75 80 79 81 82 82 76 83 77 84 80 85 78 86 57 87
REMARK SMILES IDX 58 88 66 89 59 90 60 91 64 92 67 93 61 94 62 95 65 96 63 97
REMARK H PARENT 6 13 14 26 87 50 55 61
REMARK Flexibility Score: inf
ROOT
ATOM      1  C   UNL A   1      36.659  22.946  24.603  1.00  0.00     0.202 C 
ENDROOT
BRANCH   1   2
ATOM      2  C   UNL A   1      36.400  23.142  26.098  1.00  0.00     0.261 C 
BRANCH   2   3
ATOM      3  O   UNL A   1      35.035  23.424  26.440  1.00  0.00    -0.460 OA
BRANCH   3   4
ATOM      4  C   UNL A   1      34.176  22.395  26.211  1.00  0.00     0.340 C 
ATOM      5  O   UNL A   1      34.186  21.314  26.775  1.00  0.00    -0.246 OA
BRANCH   4   6
ATOM      6  C   UNL A   1      33.197  22.721  25.148  1.00  0.00     0.086 A 
ATOM      7  C   UNL A   1      32.816  21.814  24.146  1.00  0.00     0.063 A 
ATOM      8  C   UNL A   1      31.733  22.129  23.330  1.00  0.00     0.030 A 
ATOM      9  C   UNL A   1      31.060  23.353  23.502  1.00  0.00     0.028 A 
ATOM     10  C   UNL A   1      32.528  23.945  25.289  1.00  0.00     0.043 A 
ATOM     11  C   UNL A   1      31.456  24.292  24.468  1.00  0.00     0.038 A 
BRANCH   7  12
ATOM     12  N   UNL A   1      33.545  20.605  23.958  1.00  0.00    -0.283 N 
ATOM     13  H   UNL A   1      34.497  20.677  23.716  1.00  0.00     0.180 HD
BRANCH  12  14
ATOM     14  S   UNL A   1      32.902  19.084  24.115  1.00  0.00     0.232 S 
ATOM     15  O   UNL A   1      32.234  18.851  22.847  1.00  0.00    -0.207 OA
ATOM     16  O   UNL A   1      32.152  19.048  25.352  1.00  0.00    -0.207 OA
BRANCH  14  17
ATOM     17  C   UNL A   1      34.225  17.883  24.255  1.00  0.00     0.156 C 
ATOM     18  C   UNL A   1      33.901  16.456  23.885  1.00  0.00     0.023 C 
ENDBRANCH  14  17
ENDBRANCH  12  14
ENDBRANCH   7  12
BRANCH  11  19
ATOM     19  N   UNL A   1      30.810  25.500  24.608  1.00  0.00    -0.360 N 
ATOM     20  C   UNL A   1      30.630  26.440  23.489  1.00  0.00     0.178 C 
ATOM     21  C   UNL A   1      30.582  26.081  25.941  1.00  0.00     0.178 C 
ATOM     22  C   UNL A   1      31.426  27.747  23.716  1.00  0.00     0.283 C 
ATOM     23  C   UNL A   1      31.390  27.396  26.102  1.00  0.00     0.283 C 
ATOM     24  N   UNL A   1      31.119  28.372  25.021  1.00  0.00    -0.334 N 
ATOM     25  C   UNL A   1      31.899  29.593  25.208  1.00  0.00     0.332 C 
ATOM     26  H   UNL A   1      30.133  28.633  25.048  1.00  0.00     0.347 HD
ENDBRANCH  11  19
ENDBRANCH   4   6
ENDBRANCH   3   4
ENDBRANCH   2   3
ENDBRANCH   1   2
BRANCH   1  27
ATOM     27  O   UNL A   1      37.301  21.755  24.169  1.00  0.00    -0.374 OA
BRANCH  27  28
ATOM     28  C   UNL A   1      37.284  20.606  25.009  1.00  0.00     0.202 C 
BRANCH  28  29
ATOM     29  C   UNL A   1      38.605  19.905  25.344  1.00  0.00     0.261 C 
BRANCH  29  30
ATOM     30  O   UNL A   1      39.741  20.784  25.420  1.00  0.00    -0.460 OA
BRANCH  30  31
ATOM     31  C   UNL A   1      40.446  20.667  26.574  1.00  0.00     0.338 C 
ATOM     32  O   UNL A   1      41.030  19.680  26.989  1.00  0.00    -0.246 OA
BRANCH  31  33
ATOM     33  C   UNL A   1      40.547  21.958  27.272  1.00  0.00     0.060 A 
ATOM     34  C   UNL A   1      39.770  23.019  26.789  1.00  0.00     0.016 A 
ATOM     35  C   UNL A   1      41.545  22.177  28.222  1.00  0.00     0.016 A 
ATOM     36  C   UNL A   1      40.045  24.322  27.198  1.00  0.00     0.010 A 
ATOM     37  C   UNL A   1      41.826  23.487  28.624  1.00  0.00     0.010 A 
ATOM     38  C   UNL A   1      41.116  24.566  28.068  1.00  0.00    -0.014 A 
BRANCH  38  39
ATOM     39  C   UNL A   1      41.618  25.953  28.216  1.00  0.00     0.031 A 
ATOM     40  C   UNL A   1      42.967  26.298  27.645  1.00  0.00     0.074 A 
ATOM     41  C   UNL A   1      40.870  26.900  28.805  1.00  0.00     0.049 A 
ATOM     42  N   UNL A   1      43.612  27.437  27.659  1.00  0.00    -0.248 NA
ATOM     43  C   UNL A   1      43.685  25.211  26.960  1.00  0.00     0.031 C 
ATOM     44  C   UNL A   1      39.534  26.697  29.358  1.00  0.00     0.029 A 
ATOM     45  N   UNL A   1      41.135  28.227  29.031  1.00  0.00    -0.354 N 
ATOM     46  C   UNL A   1      44.811  27.201  26.997  1.00  0.00     0.074 A 
ATOM     47  C   UNL A   1      44.816  25.807  26.613  1.00  0.00     0.031 C 
ATOM     48  C   UNL A   1      39.096  27.860  29.872  1.00  0.00     0.029 A 
ATOM     49  C   UNL A   1      40.132  28.879  29.702  1.00  0.00     0.049 A 
ATOM     50  H   UNL A   1      41.966  28.668  28.741  1.00  0.00     0.167 HD
ATOM     51  C   UNL A   1      45.812  28.071  26.726  1.00  0.00     0.037 A 
ATOM     52  C   UNL A   1      40.068  30.150  30.140  1.00  0.00     0.037 A 
ATOM     53  C   UNL A   1      45.807  29.458  27.106  1.00  0.00     0.049 A 
ATOM     54  C   UNL A   1      41.215  31.087  29.867  1.00  0.00     0.074 A 
ATOM     55  C   UNL A   1      46.773  30.422  26.878  1.00  0.00     0.029 A 
ATOM     56  N   UNL A   1      44.778  30.079  27.798  1.00  0.00    -0.354 N 
ATOM     57  N   UNL A   1      42.337  30.861  29.229  1.00  0.00    -0.248 NA
ATOM     58  C   UNL A   1      41.081  32.461  30.372  1.00  0.00     0.031 C 
ATOM     59  C   UNL A   1      46.344  31.619  27.464  1.00  0.00     0.029 A 
ATOM     60  C   UNL A   1      45.092  31.410  28.018  1.00  0.00     0.049 A 
ATOM     61  H   UNL A   1      43.947  29.638  28.091  1.00  0.00     0.167 HD
ATOM     62  C   UNL A   1      43.028  32.065  29.229  1.00  0.00     0.074 A 
ATOM     63  C   UNL A   1      42.194  33.025  29.923  1.00  0.00     0.031 C 
ATOM     64  C   UNL A   1      44.242  32.352  28.698  1.00  0.00     0.037 A 
BRANCH  51  65
ATOM     65  C   UNL A   1      47.013  27.535  26.003  1.00  0.00     0.064 A 
ATOM     66  C   UNL A   1      47.107  27.571  24.605  1.00  0.00     0.173 A 
ATOM     67  C   UNL A   1      48.091  26.997  26.722  1.00  0.00     0.173 A 
ATOM     68  F   UNL A   1      46.095  28.062  23.873  1.00  0.00    -0.203 F 
ATOM     69  C   UNL A   1      48.227  27.067  23.949  1.00  0.00     0.198 A 
ATOM     70  C   UNL A   1      49.220  26.516  26.064  1.00  0.00     0.198 A 
ATOM     71  F   UNL A   1      48.053  26.942  28.061  1.00  0.00    -0.203 F 
ATOM     72  F   UNL A   1      48.277  27.071  22.610  1.00  0.00    -0.200 F 
ATOM     73  C   UNL A   1      49.285  26.544  24.679  1.00  0.00     0.200 A 
ATOM     74  F   UNL A   1      50.246  26.020  26.771  1.00  0.00    -0.200 F 
ATOM     75  F   UNL A   1      50.364  26.062  24.047  1.00  0.00    -0.200 F 
ENDBRANCH  51  65
BRANCH  52  76
ATOM     76  C   UNL A   1      38.868  30.614  30.882  1.00  0.00     0.064 A 
ATOM     77  C   UNL A   1      37.765  31.155  30.208  1.00  0.00     0.173 A 
ATOM     78  C   UNL A   1      38.807  30.535  32.281  1.00  0.00     0.173 A 
ATOM     79  F   UNL A   1      37.790  31.275  28.873  1.00  0.00    -0.203 F 
ATOM     80  C   UNL A   1      36.650  31.611  30.907  1.00  0.00     0.198 A 
ATOM     81  C   UNL A   1      37.680  30.969  32.977  1.00  0.00     0.198 A 
ATOM     82  F   UNL A   1      39.840  30.031  32.971  1.00  0.00    -0.203 F 
ATOM     83  F   UNL A   1      35.625  32.162  30.242  1.00  0.00    -0.200 F 
ATOM     84  C   UNL A   1      36.607  31.513  32.290  1.00  0.00     0.200 A 
ATOM     85  F   UNL A   1      37.640  30.867  34.312  1.00  0.00    -0.200 F 
ATOM     86  F   UNL A   1      35.532  31.951  32.961  1.00  0.00    -0.200 F 
ENDBRANCH  52  76
BRANCH  64  87
ATOM     87  C   UNL A   1      44.724  33.770  28.809  1.00  0.00     0.064 A 
ATOM     88  C   UNL A   1      45.526  34.194  29.878  1.00  0.00     0.173 A 
ATOM     89  C   UNL A   1      44.410  34.704  27.811  1.00  0.00     0.173 A 
ATOM     90  F   UNL A   1      45.843  33.341  30.865  1.00  0.00    -0.203 F 
ATOM     91  C   UNL A   1      45.976  35.509  29.957  1.00  0.00     0.198 A 
ATOM     92  C   UNL A   1      44.882  36.011  27.879  1.00  0.00     0.198 A 
ATOM     93  F   UNL A   1      43.652  34.345  26.763  1.00  0.00    -0.203 F 
ATOM     94  F   UNL A   1      46.705  35.905  31.009  1.00  0.00    -0.200 F 
ATOM     95  C   UNL A   1      45.659  36.414  28.954  1.00  0.00     0.200 A 
ATOM     96  F   UNL A   1      44.584  36.881  26.903  1.00  0.00    -0.200 F 
ATOM     97  F   UNL A   1      46.096  37.679  29.029  1.00  0.00    -0.200 F 
ENDBRANCH  64  87
ENDBRANCH  38  39
ENDBRANCH  31  33
ENDBRANCH  30  31
ENDBRANCH  29  30
ENDBRANCH  28  29
ENDBRANCH  27  28
ENDBRANCH   1  27
TORSDOF 18
ENDMDL
MODEL 2
REMARK VINA RESULT:     -11.1      4.844     10.461
REMARK SMILES CCS(=O)(=O)Nc1ccc(N2CC[NH+](C)CC2)cc1C(=O)OCCOCCOC(=O)c1ccc(-c2c3nc(c(-c4c(F)c(F)c(F)c(F)c4F)c4ccc([nH]4)c(-c4c(F)c(F)c(F)c(F)c4F)c4nc(c(-c5c(F)c(F)c(F)c(F)c5F)c5ccc2[nH]5)C=C4)C=C3)cc1
REMARK SMILES IDX 24 1 23 2 22 3 20 4 21 5 19 6 7 7 8 8 9 9 18 10 10 11 6 12
REMARK SMILES IDX 3 14 4 15 5 16 2 17 1 18 11 19 12 20 17 21 13 22 16 23 14 24
REMARK SMILES IDX 15 25 25 27 26 28 27 29 28 30 29 31 30 32 31 33 32 34 93 35
REMARK SMILES IDX 33 36 92 37 34 38 35 39 36 40 86 41 37 42 91 43 85 44 87 45
REMARK SMILES IDX 38 46 90 47 84 48 83 49 39 51 71 52 51 53 70 54 52 55 55 56
REMARK SMILES IDX 69 57 88 58 53 59 54 60 68 62 89 63 56 64 40 65 41 66 49 67
REMARK SMILES IDX 42 68 43 69 47 70 50 71 44 72 45 73 48 74 46 75 72 76 73 77
REMARK SMILES IDX 81 78 74 79 75 80 79 81 82 82 76 83 77 84 80 85 78 86 57 87
REMARK SMILES IDX 58 88 66 89 59 90 60 91 64 92 67 93 61 94 62 95 65 96 63 97
REMARK H PARENT 6 13 14 26 87 50 55 61
REMARK Flexibility Score: inf
ROOT
ATOM      1  C   UNL A   1      33.397  30.306  27.003  1.00  0.00     0.202 C 
ENDROOT
BRANCH   1   2
ATOM      2  C   UNL A   1      33.518  28.801  27.256  1.00  0.00     0.261 C 
BRANCH   2   3
ATOM      3  O   UNL A   1      32.870  27.973  26.279  1.00  0.00    -0.460 OA
BRANCH   3   4
ATOM      4  C   UNL A   1      31.707  27.410  26.705  1.00  0.00     0.340 C 
ATOM      5  O   UNL A   1      31.029  27.788  27.645  1.00  0.00    -0.246 OA
BRANCH   4   6
ATOM      6  C   UNL A   1      31.339  26.227  25.892  1.00  0.00     0.086 A 
ATOM      7  C   UNL A   1      30.561  26.304  24.727  1.00  0.00     0.063 A 
ATOM      8  C   UNL A   1      30.455  25.178  23.913  1.00  0.00     0.030 A 
ATOM      9  C   UNL A   1      31.100  23.984  24.283  1.00  0.00     0.028 A 
ATOM     10  C   UNL A   1      31.956  25.021  26.256  1.00  0.00     0.043 A 
ATOM     11  C   UNL A   1      31.845  23.876  25.470  1.00  0.00     0.038 A 
BRANCH   7  12
ATOM     12  N   UNL A   1      29.875  27.508  24.400  1.00  0.00    -0.283 N 
ATOM     13  H   UNL A   1      29.053  27.717  24.899  1.00  0.00     0.180 HD
BRANCH  12  14
ATOM     14  S   UNL A   1      30.363  28.583  23.235  1.00  0.00     0.232 S 
ATOM     15  O   UNL A   1      30.277  27.827  21.999  1.00  0.00    -0.207 OA
ATOM     16  O   UNL A   1      31.626  29.148  23.658  1.00  0.00    -0.207 OA
BRANCH  14  17
ATOM     17  C   UNL A   1      29.183  29.929  23.125  1.00  0.00     0.156 C 
ATOM     18  C   UNL A   1      28.949  30.529  21.760  1.00  0.00     0.023 C 
ENDBRANCH  14  17
ENDBRANCH  12  14
ENDBRANCH   7  12
BRANCH  11  19
ATOM     19  N   UNL A   1      32.448  22.694  25.838  1.00  0.00    -0.360 N 
ATOM     20  C   UNL A   1      33.314  22.579  27.024  1.00  0.00     0.178 C 
ATOM     21  C   UNL A   1      32.559  21.577  24.886  1.00  0.00     0.178 C 
ATOM     22  C   UNL A   1      34.778  22.275  26.627  1.00  0.00     0.283 C 
ATOM     23  C   UNL A   1      34.048  21.308  24.541  1.00  0.00     0.283 C 
ATOM     24  N   UNL A   1      34.886  21.094  25.743  1.00  0.00    -0.334 N 
ATOM     25  C   UNL A   1      36.278  20.847  25.376  1.00  0.00     0.332 C 
ATOM     26  H   UNL A   1      34.551  20.268  26.239  1.00  0.00     0.347 HD
ENDBRANCH  11  19
ENDBRANCH   4   6
ENDBRANCH   3   4
ENDBRANCH   2   3
ENDBRANCH   1   2
BRANCH   1  27
ATOM     27  O   UNL A   1      32.157  30.826  26.547  1.00  0.00    -0.374 OA
BRANCH  27  28
ATOM     28  C   UNL A   1      31.782  32.152  26.904  1.00  0.00     0.202 C 
BRANCH  28  29
ATOM     29  C   UNL A   1      32.875  33.172  27.248  1.00  0.00     0.261 C 
BRANCH  29  30
ATOM     30  O   UNL A   1      32.520  34.089  28.299  1.00  0.00    -0.460 OA
BRANCH  30  31
ATOM     31  C   UNL A   1      33.587  34.576  28.981  1.00  0.00     0.338 C 
ATOM     32  O   UNL A   1      33.658  35.630  29.590  1.00  0.00    -0.246 OA
BRANCH  31  33
ATOM     33  C   UNL A   1      34.688  33.601  29.020  1.00  0.00     0.060 A 
ATOM     34  C   UNL A   1      34.451  32.381  29.666  1.00  0.00     0.016 A 
ATOM     35  C   UNL A   1      35.978  33.970  28.638  1.00  0.00     0.016 A 
ATOM     36  C   UNL A   1      35.521  31.556  30.005  1.00  0.00     0.010 A 
ATOM     37  C   UNL A   1      37.053  33.145  28.987  1.00  0.00     0.010 A 
ATOM     38  C   UNL A   1      36.831  31.967  29.723  1.00  0.00    -0.014 A 
BRANCH  38  39
ATOM     39  C   UNL A   1      37.959  31.273  30.389  1.00  0.00     0.031 A 
ATOM     40  C   UNL A   1      38.257  31.594  31.829  1.00  0.00     0.074 A 
ATOM     41  C   UNL A   1      38.676  30.339  29.741  1.00  0.00     0.049 A 
ATOM     42  N   UNL A   1      39.193  31.121  32.613  1.00  0.00    -0.248 NA
ATOM     43  C   UNL A   1      37.377  32.582  32.474  1.00  0.00     0.031 C 
ATOM     44  C   UNL A   1      38.456  29.914  28.362  1.00  0.00     0.029 A 
ATOM     45  N   UNL A   1      39.737  29.582  30.168  1.00  0.00    -0.354 N 
ATOM     46  C   UNL A   1      39.020  31.758  33.835  1.00  0.00     0.074 A 
ATOM     47  C   UNL A   1      37.906  32.668  33.686  1.00  0.00     0.031 C 
ATOM     48  C   UNL A   1      39.363  28.973  28.049  1.00  0.00     0.029 A 
ATOM     49  C   UNL A   1      40.239  28.750  29.199  1.00  0.00     0.049 A 
ATOM     50  H   UNL A   1      40.102  29.630  31.081  1.00  0.00     0.167 HD
ATOM     51  C   UNL A   1      39.722  31.591  34.982  1.00  0.00     0.037 A 
ATOM     52  C   UNL A   1      41.295  27.916  29.238  1.00  0.00     0.037 A 
ATOM     53  C   UNL A   1      40.828  30.685  35.132  1.00  0.00     0.049 A 
ATOM     54  C   UNL A   1      42.089  27.783  30.511  1.00  0.00     0.074 A 
ATOM     55  C   UNL A   1      41.604  30.443  36.252  1.00  0.00     0.029 A 
ATOM     56  N   UNL A   1      41.318  29.869  34.122  1.00  0.00    -0.354 N 
ATOM     57  N   UNL A   1      41.911  28.377  31.666  1.00  0.00    -0.248 NA
ATOM     58  C   UNL A   1      43.229  26.855  30.485  1.00  0.00     0.031 C 
ATOM     59  C   UNL A   1      42.586  29.507  35.910  1.00  0.00     0.029 A 
ATOM     60  C   UNL A   1      42.394  29.133  34.589  1.00  0.00     0.049 A 
ATOM     61  H   UNL A   1      40.954  29.822  33.208  1.00  0.00     0.167 HD
ATOM     62  C   UNL A   1      42.893  27.876  32.510  1.00  0.00     0.074 A 
ATOM     63  C   UNL A   1      43.660  26.921  31.738  1.00  0.00     0.031 C 
ATOM     64  C   UNL A   1      43.135  28.177  33.810  1.00  0.00     0.037 A 
BRANCH  51  65
ATOM     65  C   UNL A   1      39.324  32.432  36.160  1.00  0.00     0.064 A 
ATOM     66  C   UNL A   1      39.895  33.691  36.392  1.00  0.00     0.173 A 
ATOM     67  C   UNL A   1      38.344  31.978  37.056  1.00  0.00     0.173 A 
ATOM     68  F   UNL A   1      40.848  34.162  35.571  1.00  0.00    -0.203 F 
ATOM     69  C   UNL A   1      39.518  34.457  37.491  1.00  0.00     0.198 A 
ATOM     70  C   UNL A   1      37.952  32.758  38.140  1.00  0.00     0.198 A 
ATOM     71  F   UNL A   1      37.765  30.782  36.877  1.00  0.00    -0.203 F 
ATOM     72  F   UNL A   1      40.108  35.639  37.719  1.00  0.00    -0.200 F 
ATOM     73  C   UNL A   1      38.543  33.992  38.362  1.00  0.00     0.200 A 
ATOM     74  F   UNL A   1      37.002  32.312  38.975  1.00  0.00    -0.200 F 
ATOM     75  F   UNL A   1      38.177  34.732  39.418  1.00  0.00    -0.200 F 
ENDBRANCH  51  65
BRANCH  52  76
ATOM     76  C   UNL A   1      41.662  27.136  28.028  1.00  0.00     0.064 A 
ATOM     77  C   UNL A   1      42.535  27.661  27.066  1.00  0.00     0.173 A 
ATOM     78  C   UNL A   1      41.138  25.854  27.808  1.00  0.00     0.173 A 
ATOM     79  F   UNL A   1      43.038  28.894  27.221  1.00  0.00    -0.203 F 
ATOM     80  C   UNL A   1      42.860  26.938  25.921  1.00  0.00     0.198 A 
ATOM     81  C   UNL A   1      41.485  25.122  26.674  1.00  0.00     0.198 A 
ATOM     82  F   UNL A   1      40.295  25.310  28.697  1.00  0.00    -0.203 F 
ATOM     83  F   UNL A   1      43.663  27.480  24.996  1.00  0.00    -0.200 F 
ATOM     84  C   UNL A   1      42.339  25.667  25.729  1.00  0.00     0.200 A 
ATOM     85  F   UNL A   1      40.984  23.891  26.495  1.00  0.00    -0.200 F 
ATOM     86  F   UNL A   1      42.654  24.972  24.627  1.00  0.00    -0.200 F 
ENDBRANCH  52  76
BRANCH  64  87
ATOM     87  C   UNL A   1      44.248  27.436  34.491  1.00  0.00     0.064 A 
ATOM     88  C   UNL A   1      45.550  27.952  34.549  1.00  0.00     0.173 A 
ATOM     89  C   UNL A   1      43.996  26.212  35.129  1.00  0.00     0.173 A 
ATOM     90  F   UNL A   1      45.844  29.113  33.943  1.00  0.00    -0.203 F 
ATOM     91  C   UNL A   1      46.566  27.257  35.199  1.00  0.00     0.198 A 
ATOM     92  C   UNL A   1      45.008  25.532  35.800  1.00  0.00     0.198 A 
ATOM     93  F   UNL A   1      42.764  25.680  35.110  1.00  0.00    -0.203 F 
ATOM     94  F   UNL A   1      47.814  27.747  35.205  1.00  0.00    -0.200 F 
ATOM     95  C   UNL A   1      46.293  26.051  35.829  1.00  0.00     0.200 A 
ATOM     96  F   UNL A   1      44.740  24.373  36.419  1.00  0.00    -0.200 F 
ATOM     97  F   UNL A   1      47.272  25.386  36.458  1.00  0.00    -0.200 F 
ENDBRANCH  64  87
ENDBRANCH  38  39
ENDBRANCH  31  33
ENDBRANCH  30  31
ENDBRANCH  29  30
ENDBRANCH  28  29
ENDBRANCH  27  28
ENDBRANCH   1  27
TORSDOF 18
ENDMDL
MODEL 3
REMARK VINA RESULT:     -11.1      1.959      2.977
REMARK SMILES CCS(=O)(=O)Nc1ccc(N2CC[NH+](C)CC2)cc1C(=O)OCCOCCOC(=O)c1ccc(-c2c3nc(c(-c4c(F)c(F)c(F)c(F)c4F)c4ccc([nH]4)c(-c4c(F)c(F)c(F)c(F)c4F)c4nc(c(-c5c(F)c(F)c(F)c(F)c5F)c5ccc2[nH]5)C=C4)C=C3)cc1
REMARK SMILES IDX 24 1 23 2 22 3 20 4 21 5 19 6 7 7 8 8 9 9 18 10 10 11 6 12
REMARK SMILES IDX 3 14 4 15 5 16 2 17 1 18 11 19 12 20 17 21 13 22 16 23 14 24
REMARK SMILES IDX 15 25 25 27 26 28 27 29 28 30 29 31 30 32 31 33 32 34 93 35
REMARK SMILES IDX 33 36 92 37 34 38 35 39 36 40 86 41 37 42 91 43 85 44 87 45
REMARK SMILES IDX 38 46 90 47 84 48 83 49 39 51 71 52 51 53 70 54 52 55 55 56
REMARK SMILES IDX 69 57 88 58 53 59 54 60 68 62 89 63 56 64 40 65 41 66 49 67
REMARK SMILES IDX 42 68 43 69 47 70 50 71 44 72 45 73 48 74 46 75 72 76 73 77
REMARK SMILES IDX 81 78 74 79 75 80 79 81 82 82 76 83 77 84 80 85 78 86 57 87
REMARK SMILES IDX 58 88 66 89 59 90 60 91 64 92 67 93 61 94 62 95 65 96 63 97
REMARK H PARENT 6 13 14 26 87 50 55 61
REMARK Flexibility Score: inf
ROOT
ATOM      1  C   UNL A   1      37.401  22.349  24.743  1.00  0.00     0.202 C 
ENDROOT
BRANCH   1   2
ATOM      2  C   UNL A   1      36.572  22.573  23.477  1.00  0.00     0.261 C 
BRANCH   2   3
ATOM      3  O   UNL A   1      35.994  23.881  23.360  1.00  0.00    -0.460 OA
BRANCH   3   4
ATOM      4  C   UNL A   1      34.647  23.884  23.171  1.00  0.00     0.340 C 
ATOM      5  O   UNL A   1      34.041  23.259  22.318  1.00  0.00    -0.246 OA
BRANCH   4   6
ATOM      6  C   UNL A   1      33.958  24.777  24.132  1.00  0.00     0.086 A 
ATOM      7  C   UNL A   1      33.830  24.487  25.499  1.00  0.00     0.063 A 
ATOM      8  C   UNL A   1      33.368  25.482  26.357  1.00  0.00     0.030 A 
ATOM      9  C   UNL A   1      33.013  26.742  25.842  1.00  0.00     0.028 A 
ATOM     10  C   UNL A   1      33.578  26.032  23.633  1.00  0.00     0.043 A 
ATOM     11  C   UNL A   1      33.091  27.035  24.470  1.00  0.00     0.038 A 
BRANCH   7  12
ATOM     12  N   UNL A   1      34.147  23.188  25.990  1.00  0.00    -0.283 N 
ATOM     13  H   UNL A   1      35.089  22.906  25.962  1.00  0.00     0.180 HD
BRANCH  12  14
ATOM     14  S   UNL A   1      33.038  22.119  26.606  1.00  0.00     0.232 S 
ATOM     15  O   UNL A   1      32.867  22.544  27.983  1.00  0.00    -0.207 OA
ATOM     16  O   UNL A   1      33.502  20.782  26.307  1.00  0.00    -0.207 OA
BRANCH  14  17
ATOM     17  C   UNL A   1      31.465  22.339  25.775  1.00  0.00     0.156 C 
ATOM     18  C   UNL A   1      30.398  23.110  26.515  1.00  0.00     0.023 C 
ENDBRANCH  14  17
ENDBRANCH  12  14
ENDBRANCH   7  12
BRANCH  11  19
ATOM     19  N   UNL A   1      32.713  28.261  23.971  1.00  0.00    -0.360 N 
ATOM     20  C   UNL A   1      32.496  29.437  24.832  1.00  0.00     0.178 C 
ATOM     21  C   UNL A   1      32.157  28.383  22.614  1.00  0.00     0.178 C 
ATOM     22  C   UNL A   1      31.012  29.872  24.831  1.00  0.00     0.283 C 
ATOM     23  C   UNL A   1      30.675  28.839  22.677  1.00  0.00     0.283 C 
ATOM     24  N   UNL A   1      30.490  30.081  23.462  1.00  0.00    -0.334 N 
ATOM     25  C   UNL A   1      29.083  30.475  23.499  1.00  0.00     0.332 C 
ATOM     26  H   UNL A   1      31.006  30.838  23.014  1.00  0.00     0.347 HD
ENDBRANCH  11  19
ENDBRANCH   4   6
ENDBRANCH   3   4
ENDBRANCH   2   3
ENDBRANCH   1   2
BRANCH   1  27
ATOM     27  O   UNL A   1      37.297  21.106  25.421  1.00  0.00    -0.374 OA
BRANCH  27  28
ATOM     28  C   UNL A   1      37.786  19.925  24.793  1.00  0.00     0.202 C 
BRANCH  28  29
ATOM     29  C   UNL A   1      38.954  19.166  25.433  1.00  0.00     0.261 C 
BRANCH  29  30
ATOM     30  O   UNL A   1      39.851  19.992  26.196  1.00  0.00    -0.460 OA
BRANCH  30  31
ATOM     31  C   UNL A   1      41.149  19.604  26.120  1.00  0.00     0.338 C 
ATOM     32  O   UNL A   1      41.577  18.513  25.783  1.00  0.00    -0.246 OA
BRANCH  31  33
ATOM     33  C   UNL A   1      42.060  20.728  26.385  1.00  0.00     0.060 A 
ATOM     34  C   UNL A   1      42.239  21.117  27.718  1.00  0.00     0.016 A 
ATOM     35  C   UNL A   1      42.538  21.518  25.338  1.00  0.00     0.016 A 
ATOM     36  C   UNL A   1      42.830  22.344  28.009  1.00  0.00     0.010 A 
ATOM     37  C   UNL A   1      43.123  22.754  25.632  1.00  0.00     0.010 A 
ATOM     38  C   UNL A   1      43.216  23.195  26.964  1.00  0.00    -0.014 A 
BRANCH  38  39
ATOM     39  C   UNL A   1      43.508  24.616  27.267  1.00  0.00     0.031 A 
ATOM     40  C   UNL A   1      44.895  25.139  27.010  1.00  0.00     0.074 A 
ATOM     41  C   UNL A   1      42.547  25.439  27.717  1.00  0.00     0.049 A 
ATOM     42  N   UNL A   1      45.384  26.339  27.204  1.00  0.00    -0.248 NA
ATOM     43  C   UNL A   1      45.864  24.180  26.454  1.00  0.00     0.031 C 
ATOM     44  C   UNL A   1      41.159  25.059  27.966  1.00  0.00     0.029 A 
ATOM     45  N   UNL A   1      42.600  26.770  28.045  1.00  0.00    -0.354 N 
ATOM     46  C   UNL A   1      46.713  26.275  26.804  1.00  0.00     0.074 A 
ATOM     47  C   UNL A   1      46.963  24.916  26.379  1.00  0.00     0.031 C 
ATOM     48  C   UNL A   1      40.489  26.134  28.417  1.00  0.00     0.029 A 
ATOM     49  C   UNL A   1      41.409  27.267  28.510  1.00  0.00     0.049 A 
ATOM     50  H   UNL A   1      43.415  27.316  27.955  1.00  0.00     0.167 HD
ATOM     51  C   UNL A   1      47.639  27.263  26.785  1.00  0.00     0.037 A 
ATOM     52  C   UNL A   1      41.105  28.495  28.971  1.00  0.00     0.037 A 
ATOM     53  C   UNL A   1      47.389  28.616  27.206  1.00  0.00     0.049 A 
ATOM     54  C   UNL A   1      42.165  29.566  28.984  1.00  0.00     0.074 A 
ATOM     55  C   UNL A   1      48.261  29.691  27.225  1.00  0.00     0.029 A 
ATOM     56  N   UNL A   1      46.173  29.078  27.686  1.00  0.00    -0.354 N 
ATOM     57  N   UNL A   1      43.414  29.502  28.591  1.00  0.00    -0.248 NA
ATOM     58  C   UNL A   1      41.766  30.884  29.499  1.00  0.00     0.031 C 
ATOM     59  C   UNL A   1      47.581  30.796  27.750  1.00  0.00     0.029 A 
ATOM     60  C   UNL A   1      46.274  30.419  28.017  1.00  0.00     0.049 A 
ATOM     61  H   UNL A   1      45.358  28.533  27.779  1.00  0.00     0.167 HD
ATOM     62  C   UNL A   1      43.941  30.772  28.783  1.00  0.00     0.074 A 
ATOM     63  C   UNL A   1      42.874  31.591  29.319  1.00  0.00     0.031 C 
ATOM     64  C   UNL A   1      45.196  31.221  28.535  1.00  0.00     0.037 A 
BRANCH  51  65
ATOM     65  C   UNL A   1      49.018  26.906  26.316  1.00  0.00     0.064 A 
ATOM     66  C   UNL A   1      49.988  26.401  27.194  1.00  0.00     0.173 A 
ATOM     67  C   UNL A   1      49.366  27.051  24.964  1.00  0.00     0.173 A 
ATOM     68  F   UNL A   1      49.707  26.259  28.499  1.00  0.00    -0.203 F 
ATOM     69  C   UNL A   1      51.264  26.077  26.742  1.00  0.00     0.198 A 
ATOM     70  C   UNL A   1      50.636  26.703  24.512  1.00  0.00     0.198 A 
ATOM     71  F   UNL A   1      48.475  27.526  24.082  1.00  0.00    -0.203 F 
ATOM     72  F   UNL A   1      52.189  25.638  27.607  1.00  0.00    -0.200 F 
ATOM     73  C   UNL A   1      51.586  26.223  25.401  1.00  0.00     0.200 A 
ATOM     74  F   UNL A   1      50.943  26.834  23.213  1.00  0.00    -0.200 F 
ATOM     75  F   UNL A   1      52.814  25.908  24.966  1.00  0.00    -0.200 F 
ENDBRANCH  51  65
BRANCH  52  76
ATOM     76  C   UNL A   1      39.731  28.780  29.457  1.00  0.00     0.064 A 
ATOM     77  C   UNL A   1      38.759  29.316  28.602  1.00  0.00     0.173 A 
ATOM     78  C   UNL A   1      39.369  28.532  30.789  1.00  0.00     0.173 A 
ATOM     79  F   UNL A   1      39.068  29.596  27.328  1.00  0.00    -0.203 F 
ATOM     80  C   UNL A   1      37.477  29.605  29.065  1.00  0.00     0.198 A 
ATOM     81  C   UNL A   1      38.079  28.798  31.244  1.00  0.00     0.198 A 
ATOM     82  F   UNL A   1      40.266  28.025  31.646  1.00  0.00    -0.203 F 
ATOM     83  F   UNL A   1      36.577  30.156  28.239  1.00  0.00    -0.200 F 
ATOM     84  C   UNL A   1      37.137  29.341  30.384  1.00  0.00     0.200 A 
ATOM     85  F   UNL A   1      37.752  28.535  32.517  1.00  0.00    -0.200 F 
ATOM     86  F   UNL A   1      35.902  29.617  30.827  1.00  0.00    -0.200 F 
ENDBRANCH  52  76
BRANCH  64  87
ATOM     87  C   UNL A   1      45.472  32.672  28.798  1.00  0.00     0.064 A 
ATOM     88  C   UNL A   1      45.991  33.113  30.025  1.00  0.00     0.173 A 
ATOM     89  C   UNL A   1      45.252  33.628  27.795  1.00  0.00     0.173 A 
ATOM     90  F   UNL A   1      46.206  32.239  31.020  1.00  0.00    -0.203 F 
ATOM     91  C   UNL A   1      46.255  34.461  30.246  1.00  0.00     0.198 A 
ATOM     92  C   UNL A   1      45.541  34.972  28.011  1.00  0.00     0.198 A 
ATOM     93  F   UNL A   1      44.765  33.255  26.602  1.00  0.00    -0.203 F 
ATOM     94  F   UNL A   1      46.709  34.867  31.439  1.00  0.00    -0.200 F 
ATOM     95  C   UNL A   1      46.036  35.389  29.237  1.00  0.00     0.200 A 
ATOM     96  F   UNL A   1      45.340  35.865  27.031  1.00  0.00    -0.200 F 
ATOM     97  F   UNL A   1      46.295  36.686  29.450  1.00  0.00    -0.200 F 
ENDBRANCH  64  87
ENDBRANCH  38  39
ENDBRANCH  31  33
ENDBRANCH  30  31
ENDBRANCH  29  30
ENDBRANCH  28  29
ENDBRANCH  27  28
ENDBRANCH   1  27
TORSDOF 18
ENDMDL
