MODEL 1
REMARK VINA RESULT:     -11.7      0.000      0.000
REMARK SMILES O=C(OCCOCCOC(=O)c1cccnc1C[N@@H+]1CCC[C@H]1c1ccccn1)c1ccc(-c2c3nc(c(-c4c(F)c(F)c(F)c(F)c4F)c4ccc([nH]4)c(-c4c(F)c(F)c(F)c(F)c4F)c4nc(c(-c5c(F)c(F)c(F)c(F)c5F)c5ccc2[nH]5)C=C4)C=C3)cc1
REMARK SMILES IDX 7 1 6 2 5 3 4 4 3 5 2 6 1 7 30 8 31 9 92 10 32 11 91 12
REMARK SMILES IDX 33 13 34 14 35 15 85 16 36 17 90 18 84 19 86 20 37 21 89 22
REMARK SMILES IDX 83 23 82 24 38 26 70 27 50 28 69 29 51 30 54 31 68 32 87 33
REMARK SMILES IDX 52 34 53 35 67 37 88 38 55 39 39 40 40 41 48 42 41 43 42 44
REMARK SMILES IDX 46 45 49 46 43 47 44 48 47 49 45 50 71 51 72 52 80 53 73 54
REMARK SMILES IDX 74 55 78 56 81 57 75 58 76 59 79 60 77 61 56 62 57 63 65 64
REMARK SMILES IDX 58 65 59 66 63 67 66 68 60 69 61 70 64 71 62 72 8 73 9 74
REMARK SMILES IDX 10 75 11 76 12 77 13 78 17 79 14 80 16 81 15 82 18 83 19 84
REMARK SMILES IDX 20 85 23 86 21 88 22 89 24 90 25 91 29 92 26 93 28 94 27 95
REMARK H PARENT 86 25 54 36 19 87
REMARK Flexibility Score: inf
ROOT
ATOM      1  C   UNL A   1      32.700  27.935  22.925  1.00  0.00     0.202 C 
ENDROOT
BRANCH   1   2
ATOM      2  O   UNL A   1      31.528  28.029  23.716  1.00  0.00    -0.374 OA
BRANCH   2   3
ATOM      3  C   UNL A   1      31.170  29.276  24.300  1.00  0.00     0.202 C 
BRANCH   3   4
ATOM      4  C   UNL A   1      31.637  29.662  25.728  1.00  0.00     0.261 C 
BRANCH   4   5
ATOM      5  O   UNL A   1      32.903  30.359  25.874  1.00  0.00    -0.460 OA
BRANCH   5   6
ATOM      6  C   UNL A   1      33.206  31.165  26.928  1.00  0.00     0.338 C 
ATOM      7  O   UNL A   1      32.485  32.080  27.303  1.00  0.00    -0.246 OA
BRANCH   6   8
ATOM      8  C   UNL A   1      34.531  30.942  27.539  1.00  0.00     0.060 A 
ATOM      9  C   UNL A   1      34.925  29.643  27.769  1.00  0.00     0.016 A 
ATOM     10  C   UNL A   1      35.395  31.976  27.891  1.00  0.00     0.016 A 
ATOM     11  C   UNL A   1      35.902  29.371  28.687  1.00  0.00     0.010 A 
ATOM     12  C   UNL A   1      36.586  31.669  28.567  1.00  0.00     0.010 A 
ATOM     13  C   UNL A   1      36.819  30.360  29.026  1.00  0.00    -0.014 A 
BRANCH  13  14
ATOM     14  C   UNL A   1      37.981  29.941  29.850  1.00  0.00     0.031 A 
ATOM     15  C   UNL A   1      39.118  29.198  29.216  1.00  0.00     0.074 A 
ATOM     16  C   UNL A   1      38.065  30.363  31.132  1.00  0.00     0.049 A 
ATOM     17  N   UNL A   1      40.159  28.653  29.785  1.00  0.00    -0.248 NA
ATOM     18  C   UNL A   1      39.074  29.023  27.755  1.00  0.00     0.031 C 
ATOM     19  C   UNL A   1      37.050  31.163  31.832  1.00  0.00     0.029 A 
ATOM     20  N   UNL A   1      39.074  30.265  32.055  1.00  0.00    -0.354 N 
ATOM     21  C   UNL A   1      40.836  27.989  28.772  1.00  0.00     0.074 A 
ATOM     22  C   UNL A   1      40.109  28.223  27.546  1.00  0.00     0.031 C 
ATOM     23  C   UNL A   1      37.552  31.617  32.985  1.00  0.00     0.029 A 
ATOM     24  C   UNL A   1      38.840  30.985  33.205  1.00  0.00     0.049 A 
ATOM     25  H   UNL A   1      39.888  29.731  31.909  1.00  0.00     0.167 HD
ATOM     26  C   UNL A   1      41.954  27.232  28.883  1.00  0.00     0.037 A 
ATOM     27  C   UNL A   1      39.559  31.080  34.338  1.00  0.00     0.037 A 
ATOM     28  C   UNL A   1      42.686  27.084  30.112  1.00  0.00     0.049 A 
ATOM     29  C   UNL A   1      40.796  30.239  34.432  1.00  0.00     0.074 A 
ATOM     30  C   UNL A   1      43.791  26.299  30.379  1.00  0.00     0.029 A 
ATOM     31  N   UNL A   1      42.391  27.775  31.283  1.00  0.00    -0.354 N 
ATOM     32  N   UNL A   1      41.351  29.486  33.511  1.00  0.00    -0.248 NA
ATOM     33  C   UNL A   1      41.476  30.212  35.729  1.00  0.00     0.031 C 
ATOM     34  C   UNL A   1      44.150  26.496  31.718  1.00  0.00     0.029 A 
ATOM     35  C   UNL A   1      43.295  27.437  32.275  1.00  0.00     0.049 A 
ATOM     36  H   UNL A   1      41.648  28.412  31.391  1.00  0.00     0.167 HD
ATOM     37  C   UNL A   1      42.442  28.889  34.116  1.00  0.00     0.074 A 
ATOM     38  C   UNL A   1      42.492  29.399  35.475  1.00  0.00     0.031 C 
ATOM     39  C   UNL A   1      43.313  27.984  33.607  1.00  0.00     0.037 A 
BRANCH  26  40
ATOM     40  C   UNL A   1      42.373  26.453  27.671  1.00  0.00     0.064 A 
ATOM     41  C   UNL A   1      41.867  25.179  27.380  1.00  0.00     0.173 A 
ATOM     42  C   UNL A   1      43.344  26.985  26.805  1.00  0.00     0.173 A 
ATOM     43  F   UNL A   1      40.960  24.611  28.189  1.00  0.00    -0.203 F 
ATOM     44  C   UNL A   1      42.344  24.450  26.291  1.00  0.00     0.198 A 
ATOM     45  C   UNL A   1      43.797  26.267  25.703  1.00  0.00     0.198 A 
ATOM     46  F   UNL A   1      43.867  28.198  27.040  1.00  0.00    -0.203 F 
ATOM     47  F   UNL A   1      41.896  23.207  26.071  1.00  0.00    -0.200 F 
ATOM     48  C   UNL A   1      43.306  24.995  25.452  1.00  0.00     0.200 A 
ATOM     49  F   UNL A   1      44.726  26.797  24.895  1.00  0.00    -0.200 F 
ATOM     50  F   UNL A   1      43.773  24.287  24.415  1.00  0.00    -0.200 F 
ENDBRANCH  26  40
BRANCH  27  51
ATOM     51  C   UNL A   1      39.085  31.920  35.472  1.00  0.00     0.064 A 
ATOM     52  C   UNL A   1      39.397  33.286  35.543  1.00  0.00     0.173 A 
ATOM     53  C   UNL A   1      38.297  31.386  36.506  1.00  0.00     0.173 A 
ATOM     54  F   UNL A   1      40.165  33.847  34.597  1.00  0.00    -0.203 F 
ATOM     55  C   UNL A   1      38.946  34.076  36.600  1.00  0.00     0.198 A 
ATOM     56  C   UNL A   1      37.814  32.185  37.540  1.00  0.00     0.198 A 
ATOM     57  F   UNL A   1      37.971  30.085  36.499  1.00  0.00    -0.203 F 
ATOM     58  F   UNL A   1      39.297  35.369  36.664  1.00  0.00    -0.200 F 
ATOM     59  C   UNL A   1      38.146  33.529  37.591  1.00  0.00     0.200 A 
ATOM     60  F   UNL A   1      37.024  31.652  38.481  1.00  0.00    -0.200 F 
ATOM     61  F   UNL A   1      37.702  34.291  38.599  1.00  0.00    -0.200 F 
ENDBRANCH  27  51
BRANCH  39  62
ATOM     62  C   UNL A   1      44.407  27.535  34.522  1.00  0.00     0.064 A 
ATOM     63  C   UNL A   1      45.623  28.228  34.604  1.00  0.00     0.173 A 
ATOM     64  C   UNL A   1      44.225  26.409  35.337  1.00  0.00     0.173 A 
ATOM     65  F   UNL A   1      45.845  29.297  33.825  1.00  0.00    -0.203 F 
ATOM     66  C   UNL A   1      46.633  27.791  35.454  1.00  0.00     0.198 A 
ATOM     67  C   UNL A   1      45.227  25.991  36.205  1.00  0.00     0.198 A 
ATOM     68  F   UNL A   1      43.077  25.718  35.289  1.00  0.00    -0.203 F 
ATOM     69  F   UNL A   1      47.807  28.436  35.484  1.00  0.00    -0.200 F 
ATOM     70  C   UNL A   1      46.431  26.678  36.258  1.00  0.00     0.200 A 
ATOM     71  F   UNL A   1      45.030  24.921  36.986  1.00  0.00    -0.200 F 
ATOM     72  F   UNL A   1      47.405  26.259  37.079  1.00  0.00    -0.200 F 
ENDBRANCH  39  62
ENDBRANCH  13  14
ENDBRANCH   6   8
ENDBRANCH   5   6
ENDBRANCH   4   5
ENDBRANCH   3   4
ENDBRANCH   2   3
ENDBRANCH   1   2
BRANCH   1  73
ATOM     73  C   UNL A   1      33.595  26.737  23.199  1.00  0.00     0.261 C 
BRANCH  73  74
ATOM     74  O   UNL A   1      32.993  25.725  24.021  1.00  0.00    -0.460 OA
BRANCH  74  75
ATOM     75  C   UNL A   1      33.170  25.889  25.350  1.00  0.00     0.340 C 
ATOM     76  O   UNL A   1      34.051  26.526  25.918  1.00  0.00    -0.246 OA
BRANCH  75  77
ATOM     77  C   UNL A   1      32.252  25.025  26.082  1.00  0.00     0.087 A 
ATOM     78  C   UNL A   1      30.897  25.361  25.953  1.00  0.00     0.019 A 
ATOM     79  C   UNL A   1      32.617  23.810  26.673  1.00  0.00     0.109 A 
ATOM     80  C   UNL A   1      29.928  24.462  26.364  1.00  0.00     0.021 A 
ATOM     81  N   UNL A   1      31.655  22.919  27.039  1.00  0.00    -0.254 NA
ATOM     82  C   UNL A   1      30.354  23.253  26.876  1.00  0.00     0.111 A 
BRANCH  79  83
ATOM     83  C   UNL A   1      34.062  23.355  26.844  1.00  0.00     0.321 C 
BRANCH  83  84
ATOM     84  N   UNL A   1      34.701  22.508  25.805  1.00  0.00    -0.322 N 
ATOM     85  C   UNL A   1      35.984  23.013  25.318  1.00  0.00     0.263 C 
ATOM     86  C   UNL A   1      33.862  22.195  24.628  1.00  0.00     0.234 C 
ATOM     87  H   UNL A   1      34.847  21.646  26.330  1.00  0.00     0.349 HD
ATOM     88  C   UNL A   1      35.746  23.574  23.929  1.00  0.00     0.068 C 
ATOM     89  C   UNL A   1      34.505  22.874  23.415  1.00  0.00     0.078 C 
BRANCH  86  90
ATOM     90  C   UNL A   1      33.698  20.693  24.356  1.00  0.00     0.098 A 
ATOM     91  C   UNL A   1      32.525  20.160  23.818  1.00  0.00     0.030 A 
ATOM     92  N   UNL A   1      34.715  19.887  24.760  1.00  0.00    -0.255 NA
ATOM     93  C   UNL A   1      32.392  18.776  23.695  1.00  0.00     0.004 A 
ATOM     94  C   UNL A   1      34.561  18.548  24.629  1.00  0.00     0.111 A 
ATOM     95  C   UNL A   1      33.429  17.951  24.106  1.00  0.00     0.020 A 
ENDBRANCH  86  90
ENDBRANCH  83  84
ENDBRANCH  79  83
ENDBRANCH  75  77
ENDBRANCH  74  75
ENDBRANCH  73  74
ENDBRANCH   1  73
TORSDOF 17
ENDMDL
MODEL 2
REMARK VINA RESULT:     -11.6      0.897      2.011
REMARK SMILES O=C(OCCOCCOC(=O)c1cccnc1C[N@@H+]1CCC[C@H]1c1ccccn1)c1ccc(-c2c3nc(c(-c4c(F)c(F)c(F)c(F)c4F)c4ccc([nH]4)c(-c4c(F)c(F)c(F)c(F)c4F)c4nc(c(-c5c(F)c(F)c(F)c(F)c5F)c5ccc2[nH]5)C=C4)C=C3)cc1
REMARK SMILES IDX 7 1 6 2 5 3 4 4 3 5 2 6 1 7 30 8 31 9 92 10 32 11 91 12
REMARK SMILES IDX 33 13 34 14 35 15 85 16 36 17 90 18 84 19 86 20 37 21 89 22
REMARK SMILES IDX 83 23 82 24 38 26 70 27 50 28 69 29 51 30 54 31 68 32 87 33
REMARK SMILES IDX 52 34 53 35 67 37 88 38 55 39 39 40 40 41 48 42 41 43 42 44
REMARK SMILES IDX 46 45 49 46 43 47 44 48 47 49 45 50 71 51 72 52 80 53 73 54
REMARK SMILES IDX 74 55 78 56 81 57 75 58 76 59 79 60 77 61 56 62 57 63 65 64
REMARK SMILES IDX 58 65 59 66 63 67 66 68 60 69 61 70 64 71 62 72 8 73 9 74
REMARK SMILES IDX 10 75 11 76 12 77 13 78 17 79 14 80 16 81 15 82 18 83 19 84
REMARK SMILES IDX 20 85 23 86 21 88 22 89 24 90 25 91 29 92 26 93 28 94 27 95
REMARK H PARENT 86 25 54 36 19 87
REMARK Flexibility Score: inf
ROOT
ATOM      1  C   UNL A   1      32.910  28.911  22.882  1.00  0.00     0.202 C 
ENDROOT
BRANCH   1   2
ATOM      2  O   UNL A   1      31.526  28.849  23.178  1.00  0.00    -0.374 OA
BRANCH   2   3
ATOM      3  C   UNL A   1      31.022  29.498  24.339  1.00  0.00     0.202 C 
BRANCH   3   4
ATOM      4  C   UNL A   1      31.810  29.485  25.675  1.00  0.00     0.261 C 
BRANCH   4   5
ATOM      5  O   UNL A   1      32.982  30.336  25.792  1.00  0.00    -0.460 OA
BRANCH   5   6
ATOM      6  C   UNL A   1      33.243  31.117  26.875  1.00  0.00     0.338 C 
ATOM      7  O   UNL A   1      32.485  31.991  27.272  1.00  0.00    -0.246 OA
BRANCH   6   8
ATOM      8  C   UNL A   1      34.571  30.926  27.492  1.00  0.00     0.060 A 
ATOM      9  C   UNL A   1      35.010  29.636  27.689  1.00  0.00     0.016 A 
ATOM     10  C   UNL A   1      35.394  31.980  27.881  1.00  0.00     0.016 A 
ATOM     11  C   UNL A   1      35.990  29.375  28.609  1.00  0.00     0.010 A 
ATOM     12  C   UNL A   1      36.590  31.698  28.559  1.00  0.00     0.010 A 
ATOM     13  C   UNL A   1      36.867  30.386  28.984  1.00  0.00    -0.014 A 
BRANCH  13  14
ATOM     14  C   UNL A   1      38.037  29.987  29.806  1.00  0.00     0.031 A 
ATOM     15  C   UNL A   1      39.178  29.250  29.174  1.00  0.00     0.074 A 
ATOM     16  C   UNL A   1      38.122  30.421  31.084  1.00  0.00     0.049 A 
ATOM     17  N   UNL A   1      40.227  28.720  29.743  1.00  0.00    -0.248 NA
ATOM     18  C   UNL A   1      39.130  29.060  27.715  1.00  0.00     0.031 C 
ATOM     19  C   UNL A   1      37.101  31.218  31.781  1.00  0.00     0.029 A 
ATOM     20  N   UNL A   1      39.135  30.342  32.003  1.00  0.00    -0.354 N 
ATOM     21  C   UNL A   1      40.907  28.054  28.734  1.00  0.00     0.074 A 
ATOM     22  C   UNL A   1      40.172  28.269  27.509  1.00  0.00     0.031 C 
ATOM     23  C   UNL A   1      37.603  31.688  32.928  1.00  0.00     0.029 A 
ATOM     24  C   UNL A   1      38.899  31.071  33.147  1.00  0.00     0.049 A 
ATOM     25  H   UNL A   1      39.954  29.815  31.859  1.00  0.00     0.167 HD
ATOM     26  C   UNL A   1      42.032  27.309  28.847  1.00  0.00     0.037 A 
ATOM     27  C   UNL A   1      39.622  31.183  34.276  1.00  0.00     0.037 A 
ATOM     28  C   UNL A   1      42.771  27.180  30.074  1.00  0.00     0.049 A 
ATOM     29  C   UNL A   1      40.868  30.356  34.372  1.00  0.00     0.074 A 
ATOM     30  C   UNL A   1      43.885  26.409  30.344  1.00  0.00     0.029 A 
ATOM     31  N   UNL A   1      42.474  27.879  31.240  1.00  0.00    -0.354 N 
ATOM     32  N   UNL A   1      41.426  29.600  33.457  1.00  0.00    -0.248 NA
ATOM     33  C   UNL A   1      41.553  30.348  35.667  1.00  0.00     0.031 C 
ATOM     34  C   UNL A   1      44.248  26.622  31.679  1.00  0.00     0.029 A 
ATOM     35  C   UNL A   1      43.386  27.559  32.231  1.00  0.00     0.049 A 
ATOM     36  H   UNL A   1      41.725  28.509  31.345  1.00  0.00     0.167 HD
ATOM     37  C   UNL A   1      42.526  29.019  34.062  1.00  0.00     0.074 A 
ATOM     38  C   UNL A   1      42.576  29.543  35.416  1.00  0.00     0.031 C 
ATOM     39  C   UNL A   1      43.404  28.119  33.558  1.00  0.00     0.037 A 
BRANCH  26  40
ATOM     40  C   UNL A   1      42.454  26.524  27.640  1.00  0.00     0.064 A 
ATOM     41  C   UNL A   1      41.938  25.254  27.348  1.00  0.00     0.173 A 
ATOM     42  C   UNL A   1      43.438  27.044  26.782  1.00  0.00     0.173 A 
ATOM     43  F   UNL A   1      41.019  24.697  28.151  1.00  0.00    -0.203 F 
ATOM     44  C   UNL A   1      42.417  24.517  26.265  1.00  0.00     0.198 A 
ATOM     45  C   UNL A   1      43.894  26.318  25.685  1.00  0.00     0.198 A 
ATOM     46  F   UNL A   1      43.971  28.252  27.019  1.00  0.00    -0.203 F 
ATOM     47  F   UNL A   1      41.959  23.278  26.044  1.00  0.00    -0.200 F 
ATOM     48  C   UNL A   1      43.392  25.051  25.433  1.00  0.00     0.200 A 
ATOM     49  F   UNL A   1      44.834  26.837  24.884  1.00  0.00    -0.200 F 
ATOM     50  F   UNL A   1      43.861  24.336  24.401  1.00  0.00    -0.200 F 
ENDBRANCH  26  40
BRANCH  27  51
ATOM     51  C   UNL A   1      39.143  32.030  35.405  1.00  0.00     0.064 A 
ATOM     52  C   UNL A   1      38.377  31.484  36.445  1.00  0.00     0.173 A 
ATOM     53  C   UNL A   1      39.451  33.398  35.481  1.00  0.00     0.173 A 
ATOM     54  F   UNL A   1      38.031  30.189  36.415  1.00  0.00    -0.203 F 
ATOM     55  C   UNL A   1      37.936  32.274  37.507  1.00  0.00     0.198 A 
ATOM     56  C   UNL A   1      39.045  34.176  36.563  1.00  0.00     0.198 A 
ATOM     57  F   UNL A   1      40.175  33.980  34.513  1.00  0.00    -0.203 F 
ATOM     58  F   UNL A   1      37.167  31.736  38.465  1.00  0.00    -0.200 F 
ATOM     59  C   UNL A   1      38.280  33.615  37.572  1.00  0.00     0.200 A 
ATOM     60  F   UNL A   1      39.400  35.467  36.627  1.00  0.00    -0.200 F 
ATOM     61  F   UNL A   1      37.867  34.370  38.599  1.00  0.00    -0.200 F 
ENDBRANCH  27  51
BRANCH  39  62
ATOM     62  C   UNL A   1      44.507  27.689  34.472  1.00  0.00     0.064 A 
ATOM     63  C   UNL A   1      45.700  28.419  34.573  1.00  0.00     0.173 A 
ATOM     64  C   UNL A   1      44.356  26.545  35.267  1.00  0.00     0.173 A 
ATOM     65  F   UNL A   1      45.892  29.508  33.814  1.00  0.00    -0.203 F 
ATOM     66  C   UNL A   1      46.718  28.000  35.422  1.00  0.00     0.198 A 
ATOM     67  C   UNL A   1      45.365  26.145  36.135  1.00  0.00     0.198 A 
ATOM     68  F   UNL A   1      43.230  25.820  35.201  1.00  0.00    -0.203 F 
ATOM     69  F   UNL A   1      47.871  28.682  35.470  1.00  0.00    -0.200 F 
ATOM     70  C   UNL A   1      46.547  26.868  36.207  1.00  0.00     0.200 A 
ATOM     71  F   UNL A   1      45.198  25.056  36.897  1.00  0.00    -0.200 F 
ATOM     72  F   UNL A   1      47.529  26.467  37.027  1.00  0.00    -0.200 F 
ENDBRANCH  39  62
ENDBRANCH  13  14
ENDBRANCH   6   8
ENDBRANCH   5   6
ENDBRANCH   4   5
ENDBRANCH   3   4
ENDBRANCH   2   3
ENDBRANCH   1   2
BRANCH   1  73
ATOM     73  C   UNL A   1      33.546  27.621  22.392  1.00  0.00     0.261 C 
BRANCH  73  74
ATOM     74  O   UNL A   1      32.718  26.457  22.547  1.00  0.00    -0.460 OA
BRANCH  74  75
ATOM     75  C   UNL A   1      33.321  25.402  23.133  1.00  0.00     0.340 C 
ATOM     76  O   UNL A   1      34.292  24.769  22.729  1.00  0.00    -0.246 OA
BRANCH  75  77
ATOM     77  C   UNL A   1      32.536  24.956  24.278  1.00  0.00     0.087 A 
ATOM     78  C   UNL A   1      32.257  25.951  25.226  1.00  0.00     0.019 A 
ATOM     79  C   UNL A   1      31.884  23.720  24.351  1.00  0.00     0.109 A 
ATOM     80  C   UNL A   1      31.297  25.721  26.196  1.00  0.00     0.021 A 
ATOM     81  N   UNL A   1      30.916  23.519  25.287  1.00  0.00    -0.254 NA
ATOM     82  C   UNL A   1      30.643  24.506  26.171  1.00  0.00     0.111 A 
BRANCH  79  83
ATOM     83  C   UNL A   1      32.112  22.585  23.359  1.00  0.00     0.321 C 
BRANCH  83  84
ATOM     84  N   UNL A   1      33.099  21.519  23.665  1.00  0.00    -0.322 N 
ATOM     85  C   UNL A   1      32.601  20.159  23.466  1.00  0.00     0.263 C 
ATOM     86  C   UNL A   1      33.717  21.584  25.006  1.00  0.00     0.234 C 
ATOM     87  H   UNL A   1      33.819  21.727  22.972  1.00  0.00     0.349 HD
ATOM     88  C   UNL A   1      32.360  19.566  24.842  1.00  0.00     0.068 C 
ATOM     89  C   UNL A   1      33.253  20.349  25.784  1.00  0.00     0.078 C 
BRANCH  86  90
ATOM     90  C   UNL A   1      35.252  21.639  24.989  1.00  0.00     0.098 A 
ATOM     91  C   UNL A   1      36.035  20.490  24.868  1.00  0.00     0.030 A 
ATOM     92  N   UNL A   1      35.819  22.857  25.202  1.00  0.00    -0.255 NA
ATOM     93  C   UNL A   1      37.423  20.590  24.969  1.00  0.00     0.004 A 
ATOM     94  C   UNL A   1      37.168  22.926  25.295  1.00  0.00     0.111 A 
ATOM     95  C   UNL A   1      38.004  21.831  25.186  1.00  0.00     0.020 A 
ENDBRANCH  86  90
ENDBRANCH  83  84
ENDBRANCH  79  83
ENDBRANCH  75  77
ENDBRANCH  74  75
ENDBRANCH  73  74
ENDBRANCH   1  73
TORSDOF 17
ENDMDL
MODEL 3
REMARK VINA RESULT:     -11.5      4.209      7.088
REMARK SMILES O=C(OCCOCCOC(=O)c1cccnc1C[N@@H+]1CCC[C@H]1c1ccccn1)c1ccc(-c2c3nc(c(-c4c(F)c(F)c(F)c(F)c4F)c4ccc([nH]4)c(-c4c(F)c(F)c(F)c(F)c4F)c4nc(c(-c5c(F)c(F)c(F)c(F)c5F)c5ccc2[nH]5)C=C4)C=C3)cc1
REMARK SMILES IDX 7 1 6 2 5 3 4 4 3 5 2 6 1 7 30 8 31 9 92 10 32 11 91 12
REMARK SMILES IDX 33 13 34 14 35 15 85 16 36 17 90 18 84 19 86 20 37 21 89 22
REMARK SMILES IDX 83 23 82 24 38 26 70 27 50 28 69 29 51 30 54 31 68 32 87 33
REMARK SMILES IDX 52 34 53 35 67 37 88 38 55 39 39 40 40 41 48 42 41 43 42 44
REMARK SMILES IDX 46 45 49 46 43 47 44 48 47 49 45 50 71 51 72 52 80 53 73 54
REMARK SMILES IDX 74 55 78 56 81 57 75 58 76 59 79 60 77 61 56 62 57 63 65 64
REMARK SMILES IDX 58 65 59 66 63 67 66 68 60 69 61 70 64 71 62 72 8 73 9 74
REMARK SMILES IDX 10 75 11 76 12 77 13 78 17 79 14 80 16 81 15 82 18 83 19 84
REMARK SMILES IDX 20 85 23 86 21 88 22 89 24 90 25 91 29 92 26 93 28 94 27 95
REMARK H PARENT 86 25 54 36 19 87
REMARK Flexibility Score: inf
ROOT
ATOM      1  C   UNL A   1      34.816  22.238  27.205  1.00  0.00     0.202 C 
ENDROOT
BRANCH   1   2
ATOM      2  O   UNL A   1      34.701  21.110  26.355  1.00  0.00    -0.374 OA
BRANCH   2   3
ATOM      3  C   UNL A   1      35.341  21.117  25.084  1.00  0.00     0.202 C 
BRANCH   3   4
ATOM      4  C   UNL A   1      36.846  20.772  24.937  1.00  0.00     0.261 C 
BRANCH   4   5
ATOM      5  O   UNL A   1      37.823  21.799  25.261  1.00  0.00    -0.460 OA
BRANCH   5   6
ATOM      6  C   UNL A   1      38.971  21.558  25.950  1.00  0.00     0.338 C 
ATOM      7  O   UNL A   1      39.455  20.442  26.083  1.00  0.00    -0.246 OA
BRANCH   6   8
ATOM      8  C   UNL A   1      39.556  22.726  26.637  1.00  0.00     0.060 A 
ATOM      9  C   UNL A   1      39.050  23.971  26.338  1.00  0.00     0.016 A 
ATOM     10  C   UNL A   1      40.589  22.630  27.567  1.00  0.00     0.016 A 
ATOM     11  C   UNL A   1      39.791  25.095  26.587  1.00  0.00     0.010 A 
ATOM     12  C   UNL A   1      41.153  23.806  28.085  1.00  0.00     0.010 A 
ATOM     13  C   UNL A   1      40.795  25.055  27.548  1.00  0.00    -0.014 A 
BRANCH  13  14
ATOM     14  C   UNL A   1      41.407  26.353  27.931  1.00  0.00     0.031 A 
ATOM     15  C   UNL A   1      42.779  26.705  27.441  1.00  0.00     0.074 A 
ATOM     16  C   UNL A   1      40.660  27.261  28.598  1.00  0.00     0.049 A 
ATOM     17  N   UNL A   1      43.522  27.732  27.756  1.00  0.00    -0.248 NA
ATOM     18  C   UNL A   1      43.412  25.778  26.490  1.00  0.00     0.031 C 
ATOM     19  C   UNL A   1      39.278  27.054  29.056  1.00  0.00     0.029 A 
ATOM     20  N   UNL A   1      40.906  28.567  28.934  1.00  0.00    -0.354 N 
ATOM     21  C   UNL A   1      44.740  27.522  27.125  1.00  0.00     0.074 A 
ATOM     22  C   UNL A   1      44.630  26.288  26.382  1.00  0.00     0.031 C 
ATOM     23  C   UNL A   1      38.755  28.220  29.448  1.00  0.00     0.029 A 
ATOM     24  C   UNL A   1      39.812  29.216  29.460  1.00  0.00     0.049 A 
ATOM     25  H   UNL A   1      41.781  29.000  28.809  1.00  0.00     0.167 HD
ATOM     26  C   UNL A   1      45.851  28.293  27.195  1.00  0.00     0.037 A 
ATOM     27  C   UNL A   1      39.688  30.461  29.954  1.00  0.00     0.037 A 
ATOM     28  C   UNL A   1      45.894  29.551  27.890  1.00  0.00     0.049 A 
ATOM     29  C   UNL A   1      40.930  31.297  30.012  1.00  0.00     0.074 A 
ATOM     30  C   UNL A   1      46.966  30.398  28.094  1.00  0.00     0.029 A 
ATOM     31  N   UNL A   1      44.786  30.158  28.473  1.00  0.00    -0.354 N 
ATOM     32  N   UNL A   1      42.127  31.026  29.546  1.00  0.00    -0.248 NA
ATOM     33  C   UNL A   1      40.827  32.581  30.709  1.00  0.00     0.031 C 
ATOM     34  C   UNL A   1      46.513  31.506  28.821  1.00  0.00     0.029 A 
ATOM     35  C   UNL A   1      45.148  31.370  29.034  1.00  0.00     0.049 A 
ATOM     36  H   UNL A   1      43.876  29.781  28.484  1.00  0.00     0.167 HD
ATOM     37  C   UNL A   1      42.924  32.101  29.897  1.00  0.00     0.074 A 
ATOM     38  C   UNL A   1      42.062  33.047  30.583  1.00  0.00     0.031 C 
ATOM     39  C   UNL A   1      44.251  32.284  29.693  1.00  0.00     0.037 A 
BRANCH  26  40
ATOM     40  C   UNL A   1      47.104  27.740  26.583  1.00  0.00     0.064 A 
ATOM     41  C   UNL A   1      47.413  27.894  25.225  1.00  0.00     0.173 A 
ATOM     42  C   UNL A   1      47.994  26.995  27.376  1.00  0.00     0.173 A 
ATOM     43  F   UNL A   1      46.583  28.569  24.415  1.00  0.00    -0.203 F 
ATOM     44  C   UNL A   1      48.544  27.292  24.674  1.00  0.00     0.198 A 
ATOM     45  C   UNL A   1      49.138  26.420  26.829  1.00  0.00     0.198 A 
ATOM     46  F   UNL A   1      47.744  26.811  28.681  1.00  0.00    -0.203 F 
ATOM     47  F   UNL A   1      48.783  27.395  23.359  1.00  0.00    -0.200 F 
ATOM     48  C   UNL A   1      49.406  26.559  25.476  1.00  0.00     0.200 A 
ATOM     49  F   UNL A   1      49.968  25.713  27.608  1.00  0.00    -0.200 F 
ATOM     50  F   UNL A   1      50.485  25.970  24.942  1.00  0.00    -0.200 F 
ENDBRANCH  26  40
BRANCH  27  51
ATOM     51  C   UNL A   1      38.386  30.939  30.496  1.00  0.00     0.064 A 
ATOM     52  C   UNL A   1      37.376  31.413  29.645  1.00  0.00     0.173 A 
ATOM     53  C   UNL A   1      38.110  30.922  31.874  1.00  0.00     0.173 A 
ATOM     54  F   UNL A   1      37.590  31.476  28.323  1.00  0.00    -0.203 F 
ATOM     55  C   UNL A   1      36.153  31.853  30.151  1.00  0.00     0.198 A 
ATOM     56  C   UNL A   1      36.874  31.323  32.373  1.00  0.00     0.198 A 
ATOM     57  F   UNL A   1      39.038  30.486  32.740  1.00  0.00    -0.203 F 
ATOM     58  F   UNL A   1      35.224  32.342  29.318  1.00  0.00    -0.200 F 
ATOM     59  C   UNL A   1      35.898  31.797  31.512  1.00  0.00     0.200 A 
ATOM     60  F   UNL A   1      36.628  31.246  33.688  1.00  0.00    -0.200 F 
ATOM     61  F   UNL A   1      34.718  32.207  31.996  1.00  0.00    -0.200 F 
ENDBRANCH  27  51
BRANCH  39  62
ATOM     62  C   UNL A   1      44.822  33.576  30.186  1.00  0.00     0.064 A 
ATOM     63  C   UNL A   1      44.845  34.721  29.378  1.00  0.00     0.173 A 
ATOM     64  C   UNL A   1      45.332  33.667  31.488  1.00  0.00     0.173 A 
ATOM     65  F   UNL A   1      44.386  34.670  28.119  1.00  0.00    -0.203 F 
ATOM     66  C   UNL A   1      45.388  35.911  29.850  1.00  0.00     0.198 A 
ATOM     67  C   UNL A   1      45.849  34.865  31.965  1.00  0.00     0.198 A 
ATOM     68  F   UNL A   1      45.328  32.595  32.293  1.00  0.00    -0.203 F 
ATOM     69  F   UNL A   1      45.447  36.983  29.048  1.00  0.00    -0.200 F 
ATOM     70  C   UNL A   1      45.882  35.984  31.145  1.00  0.00     0.200 A 
ATOM     71  F   UNL A   1      46.320  34.938  33.217  1.00  0.00    -0.200 F 
ATOM     72  F   UNL A   1      46.403  37.133  31.599  1.00  0.00    -0.200 F 
ENDBRANCH  39  62
ENDBRANCH  13  14
ENDBRANCH   6   8
ENDBRANCH   5   6
ENDBRANCH   4   5
ENDBRANCH   3   4
ENDBRANCH   2   3
ENDBRANCH   1   2
BRANCH   1  73
ATOM     73  C   UNL A   1      33.576  22.596  28.009  1.00  0.00     0.261 C 
BRANCH  73  74
ATOM     74  O   UNL A   1      32.337  22.347  27.326  1.00  0.00    -0.460 OA
BRANCH  74  75
ATOM     75  C   UNL A   1      31.801  23.422  26.710  1.00  0.00     0.340 C 
ATOM     76  O   UNL A   1      30.904  24.154  27.118  1.00  0.00    -0.246 OA
BRANCH  75  77
ATOM     77  C   UNL A   1      32.308  23.514  25.346  1.00  0.00     0.087 A 
ATOM     78  C   UNL A   1      31.808  22.546  24.464  1.00  0.00     0.019 A 
ATOM     79  C   UNL A   1      33.036  24.601  24.849  1.00  0.00     0.109 A 
ATOM     80  C   UNL A   1      31.993  22.702  23.101  1.00  0.00     0.021 A 
ATOM     81  N   UNL A   1      33.181  24.762  23.505  1.00  0.00    -0.254 NA
ATOM     82  C   UNL A   1      32.662  23.830  22.673  1.00  0.00     0.111 A 
BRANCH  79  83
ATOM     83  C   UNL A   1      33.606  25.708  25.729  1.00  0.00     0.321 C 
BRANCH  83  84
ATOM     84  N   UNL A   1      33.147  27.108  25.550  1.00  0.00    -0.322 N 
ATOM     85  C   UNL A   1      33.978  28.107  26.221  1.00  0.00     0.263 C 
ATOM     86  C   UNL A   1      31.739  27.373  25.915  1.00  0.00     0.234 C 
ATOM     87  H   UNL A   1      33.238  27.207  24.539  1.00  0.00     0.349 HD
ATOM     88  C   UNL A   1      33.205  28.591  27.433  1.00  0.00     0.068 C 
ATOM     89  C   UNL A   1      31.748  28.313  27.124  1.00  0.00     0.078 C 
BRANCH  86  90
ATOM     90  C   UNL A   1      30.903  27.990  24.784  1.00  0.00     0.098 A 
ATOM     91  C   UNL A   1      30.910  29.361  24.519  1.00  0.00     0.030 A 
ATOM     92  N   UNL A   1      30.071  27.149  24.114  1.00  0.00    -0.255 NA
ATOM     93  C   UNL A   1      30.047  29.878  23.552  1.00  0.00     0.004 A 
ATOM     94  C   UNL A   1      29.244  27.678  23.180  1.00  0.00     0.111 A 
ATOM     95  C   UNL A   1      29.197  29.022  22.866  1.00  0.00     0.020 A 
ENDBRANCH  86  90
ENDBRANCH  83  84
ENDBRANCH  79  83
ENDBRANCH  75  77
ENDBRANCH  74  75
ENDBRANCH  73  74
ENDBRANCH   1  73
TORSDOF 17
ENDMDL
