MODEL 1
REMARK VINA RESULT:     -11.9      0.000      0.000
REMARK SMILES O=C(OCCOCCOC(=O)[C@@H]1CCCC[C@H]1C(=O)Nc1ccc(NC(=O)c2ccco2)cc1)c1ccc(-c2c3nc(c(-c4c(F)c(F)c(F)c(F)c4F)c4ccc([nH]4)c(-c4c(F)c(F)c(F)c(F)c4F)c4nc(c(-c5c(F)c(F)c(F)c(F)c5F)c5ccc2[nH]5)C=C4)C=C3)cc1
REMARK SMILES IDX 7 1 6 2 5 3 4 4 3 5 2 6 1 7 35 8 36 9 97 10 37 11 96 12
REMARK SMILES IDX 38 13 39 14 40 15 90 16 41 17 95 18 89 19 91 20 42 21 94 22
REMARK SMILES IDX 88 23 87 24 43 26 75 27 55 28 74 29 56 30 59 31 73 32 92 33
REMARK SMILES IDX 57 34 58 35 72 37 93 38 60 39 44 40 45 41 53 42 46 43 47 44
REMARK SMILES IDX 51 45 54 46 48 47 49 48 52 49 50 50 76 51 77 52 85 53 78 54
REMARK SMILES IDX 79 55 83 56 86 57 80 58 81 59 84 60 82 61 61 62 62 63 70 64
REMARK SMILES IDX 63 65 64 66 68 67 71 68 65 69 66 70 69 71 67 72 8 73 9 74
REMARK SMILES IDX 10 75 11 76 12 77 13 78 17 79 14 80 16 81 15 82 18 83 19 84
REMARK SMILES IDX 20 85 21 87 22 88 34 89 23 90 33 91 24 92 25 93 26 94 27 96
REMARK SMILES IDX 28 97 29 98 32 99 30 100 31 101
REMARK H PARENT 91 25 59 36 20 86 25 95
REMARK Flexibility Score: inf
ROOT
ATOM      1  C   UNL A   1      31.876  26.419  26.526  1.00  0.00     0.202 C 
ENDROOT
BRANCH   1   2
ATOM      2  O   UNL A   1      31.051  27.443  27.092  1.00  0.00    -0.374 OA
BRANCH   2   3
ATOM      3  C   UNL A   1      31.756  28.577  27.598  1.00  0.00     0.202 C 
BRANCH   3   4
ATOM      4  C   UNL A   1      32.878  29.141  26.705  1.00  0.00     0.261 C 
BRANCH   4   5
ATOM      5  O   UNL A   1      32.885  30.576  26.676  1.00  0.00    -0.460 OA
BRANCH   5   6
ATOM      6  C   UNL A   1      33.666  31.421  27.387  1.00  0.00     0.338 C 
ATOM      7  O   UNL A   1      33.307  32.586  27.538  1.00  0.00    -0.246 OA
BRANCH   6   8
ATOM      8  C   UNL A   1      34.945  30.998  28.031  1.00  0.00     0.060 A 
ATOM      9  C   UNL A   1      35.206  29.719  28.522  1.00  0.00     0.016 A 
ATOM     10  C   UNL A   1      35.977  31.949  28.104  1.00  0.00     0.016 A 
ATOM     11  C   UNL A   1      36.402  29.387  29.112  1.00  0.00     0.010 A 
ATOM     12  C   UNL A   1      37.205  31.625  28.683  1.00  0.00     0.010 A 
ATOM     13  C   UNL A   1      37.400  30.343  29.201  1.00  0.00    -0.014 A 
BRANCH  13  14
ATOM     14  C   UNL A   1      38.566  29.969  29.995  1.00  0.00     0.031 A 
ATOM     15  C   UNL A   1      39.615  29.144  29.333  1.00  0.00     0.074 A 
ATOM     16  C   UNL A   1      38.751  30.552  31.190  1.00  0.00     0.049 A 
ATOM     17  N   UNL A   1      40.699  28.627  29.836  1.00  0.00    -0.248 NA
ATOM     18  C   UNL A   1      39.430  28.885  27.893  1.00  0.00     0.031 C 
ATOM     19  C   UNL A   1      37.851  31.542  31.788  1.00  0.00     0.029 A 
ATOM     20  N   UNL A   1      39.769  30.431  32.089  1.00  0.00    -0.354 N 
ATOM     21  C   UNL A   1      41.295  27.937  28.793  1.00  0.00     0.074 A 
ATOM     22  C   UNL A   1      40.482  28.133  27.616  1.00  0.00     0.031 C 
ATOM     23  C   UNL A   1      38.365  31.943  32.961  1.00  0.00     0.029 A 
ATOM     24  C   UNL A   1      39.575  31.173  33.225  1.00  0.00     0.049 A 
ATOM     25  H   UNL A   1      40.562  29.869  31.938  1.00  0.00     0.167 HD
ATOM     26  C   UNL A   1      42.409  27.176  28.849  1.00  0.00     0.037 A 
ATOM     27  C   UNL A   1      40.277  31.168  34.372  1.00  0.00     0.037 A 
ATOM     28  C   UNL A   1      43.170  27.012  30.056  1.00  0.00     0.049 A 
ATOM     29  C   UNL A   1      41.460  30.246  34.449  1.00  0.00     0.074 A 
ATOM     30  C   UNL A   1      44.243  26.183  30.308  1.00  0.00     0.029 A 
ATOM     31  N   UNL A   1      42.915  27.717  31.230  1.00  0.00    -0.354 N 
ATOM     32  N   UNL A   1      41.953  29.464  33.515  1.00  0.00    -0.248 NA
ATOM     33  C   UNL A   1      42.165  30.171  35.731  1.00  0.00     0.031 C 
ATOM     34  C   UNL A   1      44.618  26.363  31.645  1.00  0.00     0.029 A 
ATOM     35  C   UNL A   1      43.804  27.335  32.214  1.00  0.00     0.049 A 
ATOM     36  H   UNL A   1      42.205  28.390  31.341  1.00  0.00     0.167 HD
ATOM     37  C   UNL A   1      43.024  28.802  34.092  1.00  0.00     0.074 A 
ATOM     38  C   UNL A   1      43.118  29.290  35.457  1.00  0.00     0.031 C 
ATOM     39  C   UNL A   1      43.848  27.869  33.555  1.00  0.00     0.037 A 
BRANCH  26  40
ATOM     40  C   UNL A   1      42.749  26.395  27.618  1.00  0.00     0.064 A 
ATOM     41  C   UNL A   1      42.215  25.122  27.367  1.00  0.00     0.173 A 
ATOM     42  C   UNL A   1      43.707  26.894  26.722  1.00  0.00     0.173 A 
ATOM     43  F   UNL A   1      41.330  24.582  28.218  1.00  0.00    -0.203 F 
ATOM     44  C   UNL A   1      42.653  24.365  26.281  1.00  0.00     0.198 A 
ATOM     45  C   UNL A   1      44.125  26.144  25.626  1.00  0.00     0.198 A 
ATOM     46  F   UNL A   1      44.263  28.097  26.930  1.00  0.00    -0.203 F 
ATOM     47  F   UNL A   1      42.182  23.123  26.099  1.00  0.00    -0.200 F 
ATOM     48  C   UNL A   1      43.606  24.876  25.413  1.00  0.00     0.200 A 
ATOM     49  F   UNL A   1      45.053  26.637  24.794  1.00  0.00    -0.200 F 
ATOM     50  F   UNL A   1      44.043  24.137  24.384  1.00  0.00    -0.200 F 
ENDBRANCH  26  40
BRANCH  27  51
ATOM     51  C   UNL A   1      39.810  31.987  35.518  1.00  0.00     0.064 A 
ATOM     52  C   UNL A   1      40.311  33.273  35.751  1.00  0.00     0.173 A 
ATOM     53  C   UNL A   1      38.792  31.522  36.368  1.00  0.00     0.173 A 
ATOM     54  F   UNL A   1      41.294  33.759  34.979  1.00  0.00    -0.203 F 
ATOM     55  C   UNL A   1      39.806  34.066  36.782  1.00  0.00     0.198 A 
ATOM     56  C   UNL A   1      38.269  32.324  37.379  1.00  0.00     0.198 A 
ATOM     57  F   UNL A   1      38.275  30.297  36.189  1.00  0.00    -0.203 F 
ATOM     58  F   UNL A   1      40.311  35.289  36.994  1.00  0.00    -0.200 F 
ATOM     59  C   UNL A   1      38.777  33.596  37.586  1.00  0.00     0.200 A 
ATOM     60  F   UNL A   1      37.262  31.870  38.140  1.00  0.00    -0.200 F 
ATOM     61  F   UNL A   1      38.275  34.368  38.560  1.00  0.00    -0.200 F 
ENDBRANCH  27  51
BRANCH  39  62
ATOM     62  C   UNL A   1      44.928  27.340  34.442  1.00  0.00     0.064 A 
ATOM     63  C   UNL A   1      44.740  26.174  35.196  1.00  0.00     0.173 A 
ATOM     64  C   UNL A   1      46.184  27.960  34.468  1.00  0.00     0.173 A 
ATOM     65  F   UNL A   1      43.548  25.560  35.205  1.00  0.00    -0.203 F 
ATOM     66  C   UNL A   1      45.780  25.647  35.953  1.00  0.00     0.198 A 
ATOM     67  C   UNL A   1      47.226  27.420  35.210  1.00  0.00     0.198 A 
ATOM     68  F   UNL A   1      46.402  29.075  33.754  1.00  0.00    -0.203 F 
ATOM     69  F   UNL A   1      45.581  24.541  36.683  1.00  0.00    -0.200 F 
ATOM     70  C   UNL A   1      47.024  26.264  35.952  1.00  0.00     0.200 A 
ATOM     71  F   UNL A   1      48.429  28.010  35.202  1.00  0.00    -0.200 F 
ATOM     72  F   UNL A   1      48.029  25.746  36.670  1.00  0.00    -0.200 F 
ENDBRANCH  39  62
ENDBRANCH  13  14
ENDBRANCH   6   8
ENDBRANCH   5   6
ENDBRANCH   4   5
ENDBRANCH   3   4
ENDBRANCH   2   3
ENDBRANCH   1   2
BRANCH   1  73
ATOM     73  C   UNL A   1      31.092  25.127  26.312  1.00  0.00     0.261 C 
BRANCH  73  74
ATOM     74  O   UNL A   1      31.833  24.007  26.833  1.00  0.00    -0.463 OA
BRANCH  74  75
ATOM     75  C   UNL A   1      31.980  22.942  26.009  1.00  0.00     0.309 C 
ATOM     76  O   UNL A   1      31.106  22.132  25.725  1.00  0.00    -0.252 OA
BRANCH  75  77
ATOM     77  C   UNL A   1      33.392  22.840  25.471  1.00  0.00     0.111 C 
ATOM     78  C   UNL A   1      34.362  23.220  26.594  1.00  0.00     0.016 C 
ATOM     79  C   UNL A   1      33.650  23.631  24.179  1.00  0.00     0.093 C 
ATOM     80  C   UNL A   1      35.803  23.068  26.124  1.00  0.00     0.001 C 
ATOM     81  C   UNL A   1      35.122  23.557  23.752  1.00  0.00     0.014 C 
ATOM     82  C   UNL A   1      36.062  23.926  24.893  1.00  0.00     0.001 C 
BRANCH  79  83
ATOM     83  C   UNL A   1      32.790  23.427  22.923  1.00  0.00     0.228 C 
ATOM     84  O   UNL A   1      32.809  22.313  22.379  1.00  0.00    -0.274 OA
ATOM     85  N   UNL A   1      31.877  24.302  22.416  1.00  0.00    -0.326 N 
ATOM     86  H   UNL A   1      31.280  23.895  21.747  1.00  0.00     0.169 HD
BRANCH  85  87
ATOM     87  C   UNL A   1      31.610  25.651  22.644  1.00  0.00     0.041 A 
ATOM     88  C   UNL A   1      30.309  26.003  22.986  1.00  0.00     0.028 A 
ATOM     89  C   UNL A   1      32.542  26.663  22.489  1.00  0.00     0.028 A 
ATOM     90  C   UNL A   1      30.032  27.296  23.441  1.00  0.00     0.028 A 
ATOM     91  C   UNL A   1      32.285  27.941  22.992  1.00  0.00     0.028 A 
ATOM     92  C   UNL A   1      31.054  28.229  23.583  1.00  0.00     0.041 A 
BRANCH  92  93
ATOM     93  N   UNL A   1      30.965  29.431  24.304  1.00  0.00    -0.319 N 
ATOM     94  C   UNL A   1      30.212  30.576  24.132  1.00  0.00     0.291 C 
ATOM     95  H   UNL A   1      31.560  29.465  25.088  1.00  0.00     0.170 HD
ATOM     96  O   UNL A   1      30.353  31.466  24.974  1.00  0.00    -0.265 OA
BRANCH  94  97
ATOM     97  C   UNL A   1      29.282  30.691  23.037  1.00  0.00     0.191 A 
ATOM     98  C   UNL A   1      29.407  30.511  21.669  1.00  0.00     0.056 A 
ATOM     99  O   UNL A   1      27.998  31.065  23.330  1.00  0.00    -0.459 OA
ATOM    100  C   UNL A   1      28.150  30.843  21.101  1.00  0.00     0.043 A 
ATOM    101  C   UNL A   1      27.327  31.161  22.155  1.00  0.00     0.196 A 
ENDBRANCH  94  97
ENDBRANCH  92  93
ENDBRANCH  85  87
ENDBRANCH  79  83
ENDBRANCH  75  77
ENDBRANCH  74  75
ENDBRANCH  73  74
ENDBRANCH   1  73
TORSDOF 18
ENDMDL
MODEL 2
REMARK VINA RESULT:     -11.8      2.420      5.325
REMARK SMILES O=C(OCCOCCOC(=O)[C@@H]1CCCC[C@H]1C(=O)Nc1ccc(NC(=O)c2ccco2)cc1)c1ccc(-c2c3nc(c(-c4c(F)c(F)c(F)c(F)c4F)c4ccc([nH]4)c(-c4c(F)c(F)c(F)c(F)c4F)c4nc(c(-c5c(F)c(F)c(F)c(F)c5F)c5ccc2[nH]5)C=C4)C=C3)cc1
REMARK SMILES IDX 7 1 6 2 5 3 4 4 3 5 2 6 1 7 35 8 36 9 97 10 37 11 96 12
REMARK SMILES IDX 38 13 39 14 40 15 90 16 41 17 95 18 89 19 91 20 42 21 94 22
REMARK SMILES IDX 88 23 87 24 43 26 75 27 55 28 74 29 56 30 59 31 73 32 92 33
REMARK SMILES IDX 57 34 58 35 72 37 93 38 60 39 44 40 45 41 53 42 46 43 47 44
REMARK SMILES IDX 51 45 54 46 48 47 49 48 52 49 50 50 76 51 77 52 85 53 78 54
REMARK SMILES IDX 79 55 83 56 86 57 80 58 81 59 84 60 82 61 61 62 62 63 70 64
REMARK SMILES IDX 63 65 64 66 68 67 71 68 65 69 66 70 69 71 67 72 8 73 9 74
REMARK SMILES IDX 10 75 11 76 12 77 13 78 17 79 14 80 16 81 15 82 18 83 19 84
REMARK SMILES IDX 20 85 21 87 22 88 34 89 23 90 33 91 24 92 25 93 26 94 27 96
REMARK SMILES IDX 28 97 29 98 32 99 30 100 31 101
REMARK H PARENT 91 25 59 36 20 86 25 95
REMARK Flexibility Score: inf
ROOT
ATOM      1  C   UNL A   1      32.512  29.745  26.767  1.00  0.00     0.202 C 
ENDROOT
BRANCH   1   2
ATOM      2  O   UNL A   1      31.786  30.740  26.037  1.00  0.00    -0.374 OA
BRANCH   2   3
ATOM      3  C   UNL A   1      31.543  31.954  26.749  1.00  0.00     0.202 C 
BRANCH   3   4
ATOM      4  C   UNL A   1      32.767  32.623  27.402  1.00  0.00     0.261 C 
BRANCH   4   5
ATOM      5  O   UNL A   1      32.508  33.981  27.787  1.00  0.00    -0.460 OA
BRANCH   5   6
ATOM      6  C   UNL A   1      33.140  34.715  28.731  1.00  0.00     0.338 C 
ATOM      7  O   UNL A   1      32.726  35.844  28.989  1.00  0.00    -0.246 OA
BRANCH   6   8
ATOM      8  C   UNL A   1      34.312  34.209  29.506  1.00  0.00     0.060 A 
ATOM      9  C   UNL A   1      35.647  34.423  29.163  1.00  0.00     0.016 A 
ATOM     10  C   UNL A   1      34.046  33.507  30.693  1.00  0.00     0.016 A 
ATOM     11  C   UNL A   1      36.687  33.927  29.912  1.00  0.00     0.010 A 
ATOM     12  C   UNL A   1      35.090  33.011  31.477  1.00  0.00     0.010 A 
ATOM     13  C   UNL A   1      36.409  33.213  31.065  1.00  0.00    -0.014 A 
BRANCH  13  14
ATOM     14  C   UNL A   1      37.554  32.571  31.704  1.00  0.00     0.031 A 
ATOM     15  C   UNL A   1      38.308  31.560  30.911  1.00  0.00     0.074 A 
ATOM     16  C   UNL A   1      38.008  33.064  32.867  1.00  0.00     0.049 A 
ATOM     17  N   UNL A   1      39.307  30.806  31.271  1.00  0.00    -0.248 NA
ATOM     18  C   UNL A   1      37.895  31.391  29.506  1.00  0.00     0.031 C 
ATOM     19  C   UNL A   1      37.426  34.207  33.577  1.00  0.00     0.029 A 
ATOM     20  N   UNL A   1      39.078  32.699  33.629  1.00  0.00    -0.354 N 
ATOM     21  C   UNL A   1      39.604  30.036  30.159  1.00  0.00     0.074 A 
ATOM     22  C   UNL A   1      38.715  30.438  29.095  1.00  0.00     0.031 C 
ATOM     23  C   UNL A   1      38.156  34.451  34.676  1.00  0.00     0.029 A 
ATOM     24  C   UNL A   1      39.192  33.430  34.783  1.00  0.00     0.049 A 
ATOM     25  H   UNL A   1      39.704  31.983  33.377  1.00  0.00     0.167 HD
ATOM     26  C   UNL A   1      40.523  29.050  30.071  1.00  0.00     0.037 A 
ATOM     27  C   UNL A   1      40.012  33.238  35.832  1.00  0.00     0.037 A 
ATOM     28  C   UNL A   1      41.372  28.688  31.172  1.00  0.00     0.049 A 
ATOM     29  C   UNL A   1      40.965  32.080  35.755  1.00  0.00     0.074 A 
ATOM     30  C   UNL A   1      42.262  27.640  31.282  1.00  0.00     0.029 A 
ATOM     31  N   UNL A   1      41.425  29.396  32.370  1.00  0.00    -0.354 N 
ATOM     32  N   UNL A   1      41.157  31.239  34.763  1.00  0.00    -0.248 NA
ATOM     33  C   UNL A   1      41.789  31.816  36.937  1.00  0.00     0.031 C 
ATOM     34  C   UNL A   1      42.828  27.694  32.562  1.00  0.00     0.029 A 
ATOM     35  C   UNL A   1      42.323  28.801  33.233  1.00  0.00     0.049 A 
ATOM     36  H   UNL A   1      40.898  30.203  32.572  1.00  0.00     0.167 HD
ATOM     37  C   UNL A   1      42.119  30.343  35.199  1.00  0.00     0.074 A 
ATOM     38  C   UNL A   1      42.486  30.758  36.541  1.00  0.00     0.031 C 
ATOM     39  C   UNL A   1      42.648  29.271  34.558  1.00  0.00     0.037 A 
BRANCH  26  40
ATOM     40  C   UNL A   1      40.530  28.252  28.805  1.00  0.00     0.064 A 
ATOM     41  C   UNL A   1      39.814  27.053  28.670  1.00  0.00     0.173 A 
ATOM     42  C   UNL A   1      41.352  28.649  27.738  1.00  0.00     0.173 A 
ATOM     43  F   UNL A   1      39.050  26.607  29.679  1.00  0.00    -0.203 F 
ATOM     44  C   UNL A   1      39.946  26.265  27.528  1.00  0.00     0.198 A 
ATOM     45  C   UNL A   1      41.464  27.870  26.590  1.00  0.00     0.198 A 
ATOM     46  F   UNL A   1      42.073  29.776  27.826  1.00  0.00    -0.203 F 
ATOM     47  F   UNL A   1      39.308  25.088  27.450  1.00  0.00    -0.200 F 
ATOM     48  C   UNL A   1      40.770  26.674  26.490  1.00  0.00     0.200 A 
ATOM     49  F   UNL A   1      42.268  28.264  25.591  1.00  0.00    -0.200 F 
ATOM     50  F   UNL A   1      40.915  25.904  25.404  1.00  0.00    -0.200 F 
ENDBRANCH  26  40
BRANCH  27  51
ATOM     51  C   UNL A   1      39.880  34.104  37.029  1.00  0.00     0.064 A 
ATOM     52  C   UNL A   1      40.538  35.336  37.119  1.00  0.00     0.173 A 
ATOM     53  C   UNL A   1      39.027  33.743  38.088  1.00  0.00     0.173 A 
ATOM     54  F   UNL A   1      41.375  35.720  36.144  1.00  0.00    -0.203 F 
ATOM     55  C   UNL A   1      40.342  36.178  38.214  1.00  0.00     0.198 A 
ATOM     56  C   UNL A   1      38.811  34.597  39.167  1.00  0.00     0.198 A 
ATOM     57  F   UNL A   1      38.371  32.574  38.053  1.00  0.00    -0.203 F 
ATOM     58  F   UNL A   1      40.993  37.347  38.283  1.00  0.00    -0.200 F 
ATOM     59  C   UNL A   1      39.469  35.814  39.229  1.00  0.00     0.200 A 
ATOM     60  F   UNL A   1      37.952  34.246  40.135  1.00  0.00    -0.200 F 
ATOM     61  F   UNL A   1      39.262  36.636  40.268  1.00  0.00    -0.200 F 
ENDBRANCH  27  51
BRANCH  39  62
ATOM     62  C   UNL A   1      43.687  28.495  35.300  1.00  0.00     0.064 A 
ATOM     63  C   UNL A   1      45.049  28.792  35.163  1.00  0.00     0.173 A 
ATOM     64  C   UNL A   1      43.305  27.507  36.217  1.00  0.00     0.173 A 
ATOM     65  F   UNL A   1      45.452  29.723  34.287  1.00  0.00    -0.203 F 
ATOM     66  C   UNL A   1      45.999  28.118  35.921  1.00  0.00     0.198 A 
ATOM     67  C   UNL A   1      44.256  26.849  36.986  1.00  0.00     0.198 A 
ATOM     68  F   UNL A   1      42.009  27.200  36.379  1.00  0.00    -0.203 F 
ATOM     69  F   UNL A   1      47.300  28.399  35.766  1.00  0.00    -0.200 F 
ATOM     70  C   UNL A   1      45.601  27.154  36.838  1.00  0.00     0.200 A 
ATOM     71  F   UNL A   1      43.871  25.926  37.878  1.00  0.00    -0.200 F 
ATOM     72  F   UNL A   1      46.518  26.516  37.579  1.00  0.00    -0.200 F 
ENDBRANCH  39  62
ENDBRANCH  13  14
ENDBRANCH   6   8
ENDBRANCH   5   6
ENDBRANCH   4   5
ENDBRANCH   3   4
ENDBRANCH   2   3
ENDBRANCH   1   2
BRANCH   1  73
ATOM     73  C   UNL A   1      33.726  29.254  25.982  1.00  0.00     0.261 C 
BRANCH  73  74
ATOM     74  O   UNL A   1      33.355  28.148  25.137  1.00  0.00    -0.463 OA
BRANCH  74  75
ATOM     75  C   UNL A   1      32.996  28.451  23.867  1.00  0.00     0.309 C 
ATOM     76  O   UNL A   1      33.506  29.318  23.167  1.00  0.00    -0.252 OA
BRANCH  75  77
ATOM     77  C   UNL A   1      31.844  27.592  23.389  1.00  0.00     0.111 C 
ATOM     78  C   UNL A   1      30.689  27.743  24.383  1.00  0.00     0.016 C 
ATOM     79  C   UNL A   1      32.202  26.122  23.122  1.00  0.00     0.093 C 
ATOM     80  C   UNL A   1      29.476  26.950  23.912  1.00  0.00     0.001 C 
ATOM     81  C   UNL A   1      30.966  25.297  22.737  1.00  0.00     0.014 C 
ATOM     82  C   UNL A   1      29.830  25.478  23.736  1.00  0.00     0.001 C 
BRANCH  79  83
ATOM     83  C   UNL A   1      33.339  25.728  22.169  1.00  0.00     0.228 C 
ATOM     84  O   UNL A   1      33.740  26.577  21.358  1.00  0.00    -0.274 OA
ATOM     85  N   UNL A   1      34.074  24.581  22.214  1.00  0.00    -0.326 N 
ATOM     86  H   UNL A   1      34.890  24.621  21.666  1.00  0.00     0.169 HD
BRANCH  85  87
ATOM     87  C   UNL A   1      33.914  23.364  22.874  1.00  0.00     0.041 A 
ATOM     88  C   UNL A   1      34.898  22.985  23.780  1.00  0.00     0.028 A 
ATOM     89  C   UNL A   1      32.872  22.484  22.636  1.00  0.00     0.028 A 
ATOM     90  C   UNL A   1      34.685  21.895  24.629  1.00  0.00     0.028 A 
ATOM     91  C   UNL A   1      32.627  21.426  23.516  1.00  0.00     0.028 A 
ATOM     92  C   UNL A   1      33.481  21.200  24.596  1.00  0.00     0.041 A 
BRANCH  92  93
ATOM     93  N   UNL A   1      33.029  20.307  25.581  1.00  0.00    -0.319 N 
ATOM     94  C   UNL A   1      32.893  18.932  25.612  1.00  0.00     0.291 C 
ATOM     95  H   UNL A   1      32.752  20.748  26.417  1.00  0.00     0.170 HD
ATOM     96  O   UNL A   1      32.478  18.437  26.664  1.00  0.00    -0.265 OA
BRANCH  94  97
ATOM     97  C   UNL A   1      33.259  18.127  24.474  1.00  0.00     0.191 A 
ATOM     98  C   UNL A   1      34.340  17.302  24.210  1.00  0.00     0.056 A 
ATOM     99  O   UNL A   1      32.424  18.143  23.389  1.00  0.00    -0.459 OA
ATOM    100  C   UNL A   1      34.177  16.837  22.880  1.00  0.00     0.043 A 
ATOM    101  C   UNL A   1      32.991  17.368  22.431  1.00  0.00     0.196 A 
ENDBRANCH  94  97
ENDBRANCH  92  93
ENDBRANCH  85  87
ENDBRANCH  79  83
ENDBRANCH  75  77
ENDBRANCH  74  75
ENDBRANCH  73  74
ENDBRANCH   1  73
TORSDOF 18
ENDMDL
MODEL 3
REMARK VINA RESULT:     -11.8      2.367      8.817
REMARK SMILES O=C(OCCOCCOC(=O)[C@@H]1CCCC[C@H]1C(=O)Nc1ccc(NC(=O)c2ccco2)cc1)c1ccc(-c2c3nc(c(-c4c(F)c(F)c(F)c(F)c4F)c4ccc([nH]4)c(-c4c(F)c(F)c(F)c(F)c4F)c4nc(c(-c5c(F)c(F)c(F)c(F)c5F)c5ccc2[nH]5)C=C4)C=C3)cc1
REMARK SMILES IDX 7 1 6 2 5 3 4 4 3 5 2 6 1 7 35 8 36 9 97 10 37 11 96 12
REMARK SMILES IDX 38 13 39 14 40 15 90 16 41 17 95 18 89 19 91 20 42 21 94 22
REMARK SMILES IDX 88 23 87 24 43 26 75 27 55 28 74 29 56 30 59 31 73 32 92 33
REMARK SMILES IDX 57 34 58 35 72 37 93 38 60 39 44 40 45 41 53 42 46 43 47 44
REMARK SMILES IDX 51 45 54 46 48 47 49 48 52 49 50 50 76 51 77 52 85 53 78 54
REMARK SMILES IDX 79 55 83 56 86 57 80 58 81 59 84 60 82 61 61 62 62 63 70 64
REMARK SMILES IDX 63 65 64 66 68 67 71 68 65 69 66 70 69 71 67 72 8 73 9 74
REMARK SMILES IDX 10 75 11 76 12 77 13 78 17 79 14 80 16 81 15 82 18 83 19 84
REMARK SMILES IDX 20 85 21 87 22 88 34 89 23 90 33 91 24 92 25 93 26 94 27 96
REMARK SMILES IDX 28 97 29 98 32 99 30 100 31 101
REMARK H PARENT 91 25 59 36 20 86 25 95
REMARK Flexibility Score: inf
ROOT
ATOM      1  C   UNL A   1      32.317  29.873  26.714  1.00  0.00     0.202 C 
ENDROOT
BRANCH   1   2
ATOM      2  O   UNL A   1      31.579  30.847  25.969  1.00  0.00    -0.374 OA
BRANCH   2   3
ATOM      3  C   UNL A   1      31.403  32.103  26.625  1.00  0.00     0.202 C 
BRANCH   3   4
ATOM      4  C   UNL A   1      32.663  32.734  27.248  1.00  0.00     0.261 C 
BRANCH   4   5
ATOM      5  O   UNL A   1      32.426  34.064  27.734  1.00  0.00    -0.460 OA
BRANCH   5   6
ATOM      6  C   UNL A   1      33.116  34.741  28.680  1.00  0.00     0.338 C 
ATOM      7  O   UNL A   1      32.765  35.881  28.976  1.00  0.00    -0.246 OA
BRANCH   6   8
ATOM      8  C   UNL A   1      34.278  34.157  29.414  1.00  0.00     0.060 A 
ATOM      9  C   UNL A   1      35.617  34.398  29.106  1.00  0.00     0.016 A 
ATOM     10  C   UNL A   1      33.998  33.344  30.525  1.00  0.00     0.016 A 
ATOM     11  C   UNL A   1      36.648  33.827  29.814  1.00  0.00     0.010 A 
ATOM     12  C   UNL A   1      35.032  32.771  31.267  1.00  0.00     0.010 A 
ATOM     13  C   UNL A   1      36.356  33.006  30.890  1.00  0.00    -0.014 A 
BRANCH  13  14
ATOM     14  C   UNL A   1      37.493  32.300  31.474  1.00  0.00     0.031 A 
ATOM     15  C   UNL A   1      37.856  32.626  32.882  1.00  0.00     0.074 A 
ATOM     16  C   UNL A   1      38.015  31.254  30.816  1.00  0.00     0.049 A 
ATOM     17  N   UNL A   1      38.854  32.195  33.598  1.00  0.00    -0.248 NA
ATOM     18  C   UNL A   1      36.950  33.547  33.593  1.00  0.00     0.031 C 
ATOM     19  C   UNL A   1      37.543  30.758  29.520  1.00  0.00     0.029 A 
ATOM     20  N   UNL A   1      39.020  30.399  31.160  1.00  0.00    -0.354 N 
ATOM     21  C   UNL A   1      38.731  32.834  34.821  1.00  0.00     0.074 A 
ATOM     22  C   UNL A   1      37.539  33.648  34.773  1.00  0.00     0.031 C 
ATOM     23  C   UNL A   1      38.260  29.676  29.181  1.00  0.00     0.029 A 
ATOM     24  C   UNL A   1      39.289  29.467  30.193  1.00  0.00     0.049 A 
ATOM     25  H   UNL A   1      39.502  30.446  32.017  1.00  0.00     0.167 HD
ATOM     26  C   UNL A   1      39.581  32.762  35.869  1.00  0.00     0.037 A 
ATOM     27  C   UNL A   1      40.305  28.588  30.120  1.00  0.00     0.037 A 
ATOM     28  C   UNL A   1      40.758  31.940  35.850  1.00  0.00     0.049 A 
ATOM     29  C   UNL A   1      41.293  28.585  31.253  1.00  0.00     0.074 A 
ATOM     30  C   UNL A   1      41.777  31.851  36.775  1.00  0.00     0.029 A 
ATOM     31  N   UNL A   1      41.061  31.050  34.823  1.00  0.00    -0.354 N 
ATOM     32  N   UNL A   1      41.276  29.297  32.357  1.00  0.00    -0.248 NA
ATOM     33  C   UNL A   1      42.449  27.696  31.125  1.00  0.00     0.031 C 
ATOM     34  C   UNL A   1      42.715  30.931  36.290  1.00  0.00     0.029 A 
ATOM     35  C   UNL A   1      42.258  30.414  35.084  1.00  0.00     0.049 A 
ATOM     36  H   UNL A   1      40.503  30.896  34.027  1.00  0.00     0.167 HD
ATOM     37  C   UNL A   1      42.418  28.946  33.058  1.00  0.00     0.074 A 
ATOM     38  C   UNL A   1      43.096  27.941  32.258  1.00  0.00     0.031 C 
ATOM     39  C   UNL A   1      42.876  29.414  34.246  1.00  0.00     0.037 A 
BRANCH  26  40
ATOM     40  C   UNL A   1      39.310  33.686  37.014  1.00  0.00     0.064 A 
ATOM     41  C   UNL A   1      39.799  35.000  37.049  1.00  0.00     0.173 A 
ATOM     42  C   UNL A   1      38.629  33.209  38.145  1.00  0.00     0.173 A 
ATOM     43  F   UNL A   1      40.495  35.488  36.011  1.00  0.00    -0.203 F 
ATOM     44  C   UNL A   1      39.644  35.792  38.186  1.00  0.00     0.198 A 
ATOM     45  C   UNL A   1      38.458  34.010  39.271  1.00  0.00     0.198 A 
ATOM     46  F   UNL A   1      38.161  31.953  38.171  1.00  0.00    -0.203 F 
ATOM     47  F   UNL A   1      40.181  37.020  38.224  1.00  0.00    -0.200 F 
ATOM     48  C   UNL A   1      38.975  35.296  39.295  1.00  0.00     0.200 A 
ATOM     49  F   UNL A   1      37.817  33.525  40.345  1.00  0.00    -0.200 F 
ATOM     50  F   UNL A   1      38.848  36.049  40.396  1.00  0.00    -0.200 F 
ENDBRANCH  26  40
BRANCH  27  51
ATOM     51  C   UNL A   1      40.454  27.741  28.911  1.00  0.00     0.064 A 
ATOM     52  C   UNL A   1      39.755  26.538  28.769  1.00  0.00     0.173 A 
ATOM     53  C   UNL A   1      41.252  28.162  27.832  1.00  0.00     0.173 A 
ATOM     54  F   UNL A   1      38.993  26.083  29.774  1.00  0.00    -0.203 F 
ATOM     55  C   UNL A   1      39.840  25.791  27.593  1.00  0.00     0.198 A 
ATOM     56  C   UNL A   1      41.314  27.430  26.649  1.00  0.00     0.198 A 
ATOM     57  F   UNL A   1      41.943  29.309  27.915  1.00  0.00    -0.203 F 
ATOM     58  F   UNL A   1      39.171  24.634  27.486  1.00  0.00    -0.200 F 
ATOM     59  C   UNL A   1      40.608  26.245  26.531  1.00  0.00     0.200 A 
ATOM     60  F   UNL A   1      42.043  27.885  25.619  1.00  0.00    -0.200 F 
ATOM     61  F   UNL A   1      40.668  25.539  25.392  1.00  0.00    -0.200 F 
ENDBRANCH  27  51
BRANCH  39  62
ATOM     62  C   UNL A   1      44.153  28.826  34.749  1.00  0.00     0.064 A 
ATOM     63  C   UNL A   1      45.387  29.432  34.479  1.00  0.00     0.173 A 
ATOM     64  C   UNL A   1      44.128  27.696  35.578  1.00  0.00     0.173 A 
ATOM     65  F   UNL A   1      45.450  30.508  33.681  1.00  0.00    -0.203 F 
ATOM     66  C   UNL A   1      46.559  28.922  35.023  1.00  0.00     0.198 A 
ATOM     67  C   UNL A   1      45.300  27.200  36.134  1.00  0.00     0.198 A 
ATOM     68  F   UNL A   1      42.965  27.092  35.863  1.00  0.00    -0.203 F 
ATOM     69  F   UNL A   1      47.734  29.501  34.741  1.00  0.00    -0.200 F 
ATOM     70  C   UNL A   1      46.515  27.812  35.857  1.00  0.00     0.200 A 
ATOM     71  F   UNL A   1      45.256  26.136  36.947  1.00  0.00    -0.200 F 
ATOM     72  F   UNL A   1      47.644  27.331  36.392  1.00  0.00    -0.200 F 
ENDBRANCH  39  62
ENDBRANCH  13  14
ENDBRANCH   6   8
ENDBRANCH   5   6
ENDBRANCH   4   5
ENDBRANCH   3   4
ENDBRANCH   2   3
ENDBRANCH   1   2
BRANCH   1  73
ATOM     73  C   UNL A   1      33.544  29.393  25.942  1.00  0.00     0.261 C 
BRANCH  73  74
ATOM     74  O   UNL A   1      33.206  28.246  25.139  1.00  0.00    -0.463 OA
BRANCH  74  75
ATOM     75  C   UNL A   1      32.879  28.488  23.847  1.00  0.00     0.309 C 
ATOM     76  O   UNL A   1      33.404  29.323  23.121  1.00  0.00    -0.252 OA
BRANCH  75  77
ATOM     77  C   UNL A   1      31.743  27.602  23.381  1.00  0.00     0.111 C 
ATOM     78  C   UNL A   1      30.591  27.732  24.383  1.00  0.00     0.016 C 
ATOM     79  C   UNL A   1      32.130  26.138  23.119  1.00  0.00     0.093 C 
ATOM     80  C   UNL A   1      29.393  26.911  23.924  1.00  0.00     0.001 C 
ATOM     81  C   UNL A   1      30.909  25.285  22.746  1.00  0.00     0.014 C 
ATOM     82  C   UNL A   1      29.776  25.447  23.752  1.00  0.00     0.001 C 
BRANCH  79  83
ATOM     83  C   UNL A   1      33.269  25.765  22.159  1.00  0.00     0.228 C 
ATOM     84  O   UNL A   1      33.659  26.625  21.355  1.00  0.00    -0.274 OA
ATOM     85  N   UNL A   1      34.015  24.624  22.192  1.00  0.00    -0.326 N 
ATOM     86  H   UNL A   1      34.829  24.678  21.642  1.00  0.00     0.169 HD
BRANCH  85  87
ATOM     87  C   UNL A   1      33.868  23.399  22.841  1.00  0.00     0.041 A 
ATOM     88  C   UNL A   1      34.879  23.002  23.708  1.00  0.00     0.028 A 
ATOM     89  C   UNL A   1      32.812  22.530  22.627  1.00  0.00     0.028 A 
ATOM     90  C   UNL A   1      34.687  21.902  24.550  1.00  0.00     0.028 A 
ATOM     91  C   UNL A   1      32.590  21.462  23.500  1.00  0.00     0.028 A 
ATOM     92  C   UNL A   1      33.477  21.216  24.548  1.00  0.00     0.041 A 
BRANCH  92  93
ATOM     93  N   UNL A   1      33.052  20.312  25.536  1.00  0.00    -0.319 N 
ATOM     94  C   UNL A   1      32.914  18.938  25.555  1.00  0.00     0.291 C 
ATOM     95  H   UNL A   1      32.800  20.745  26.383  1.00  0.00     0.170 HD
ATOM     96  O   UNL A   1      32.528  18.433  26.613  1.00  0.00    -0.265 OA
BRANCH  94  97
ATOM     97  C   UNL A   1      33.247  18.145  24.399  1.00  0.00     0.191 A 
ATOM     98  C   UNL A   1      34.347  17.371  24.070  1.00  0.00     0.056 A 
ATOM     99  O   UNL A   1      32.346  18.115  23.368  1.00  0.00    -0.459 OA
ATOM    100  C   UNL A   1      34.124  16.891  22.754  1.00  0.00     0.043 A 
ATOM    101  C   UNL A   1      32.889  17.363  22.379  1.00  0.00     0.196 A 
ENDBRANCH  94  97
ENDBRANCH  92  93
ENDBRANCH  85  87
ENDBRANCH  79  83
ENDBRANCH  75  77
ENDBRANCH  74  75
ENDBRANCH  73  74
ENDBRANCH   1  73
TORSDOF 18
ENDMDL
