MODEL 1
REMARK VINA RESULT:     -12.3      0.000      0.000
REMARK SMILES O=C(OCCOCCOC(=O)c1cc(-c2ccccc2)nc(Nc2nc3ccccc3s2)n1)c1ccc(-c2c3nc(c(-c4c(F)c(F)c(F)c(F)c4F)c4ccc([nH]4)c(-c4c(F)c(F)c(F)c(F)c4F)c4nc(c(-c5c(F)c(F)c(F)c(F)c5F)c5ccc2[nH]5)C=C4)C=C3)cc1
REMARK SMILES IDX 6 1 5 2 4 3 3 4 2 5 1 6 34 7 35 8 96 9 36 10 95 11 37 12
REMARK SMILES IDX 38 13 39 14 89 15 40 16 94 17 88 18 90 19 41 20 93 21 87 22
REMARK SMILES IDX 86 23 42 25 74 26 54 27 73 28 55 29 58 30 72 31 91 32 56 33
REMARK SMILES IDX 57 34 71 36 92 37 59 38 43 39 44 40 52 41 45 42 46 43 50 44
REMARK SMILES IDX 53 45 47 46 48 47 51 48 49 49 75 50 76 51 84 52 77 53 78 54
REMARK SMILES IDX 82 55 85 56 79 57 80 58 83 59 81 60 60 61 61 62 69 63 62 64
REMARK SMILES IDX 63 65 67 66 70 67 64 68 65 69 68 70 66 71 7 72 8 73 9 74
REMARK SMILES IDX 10 75 11 76 12 77 13 78 33 79 14 80 22 81 21 82 15 83 16 84
REMARK SMILES IDX 20 85 17 86 19 87 18 88 23 89 24 91 25 92 32 93 26 94 31 95
REMARK SMILES IDX 27 96 30 97 28 98 29 99
REMARK H PARENT 90 24 58 35 23 90
REMARK Flexibility Score: inf
ROOT
ATOM      1  O   UNL A   1      40.383  20.859  25.739  1.00  0.00    -0.374 OA
ENDROOT
BRANCH   1   2
ATOM      2  C   UNL A   1      41.573  20.719  26.517  1.00  0.00     0.202 C 
BRANCH   2   3
ATOM      3  C   UNL A   1      42.825  21.181  25.778  1.00  0.00     0.261 C 
BRANCH   3   4
ATOM      4  O   UNL A   1      42.549  22.367  25.022  1.00  0.00    -0.460 OA
BRANCH   4   5
ATOM      5  C   UNL A   1      43.045  23.606  25.231  1.00  0.00     0.338 C 
ATOM      6  O   UNL A   1      43.921  24.015  24.468  1.00  0.00    -0.246 OA
BRANCH   5   7
ATOM      7  C   UNL A   1      42.595  24.537  26.319  1.00  0.00     0.060 A 
ATOM      8  C   UNL A   1      41.695  24.238  27.348  1.00  0.00     0.016 A 
ATOM      9  C   UNL A   1      43.224  25.795  26.353  1.00  0.00     0.016 A 
ATOM     10  C   UNL A   1      41.431  25.133  28.377  1.00  0.00     0.010 A 
ATOM     11  C   UNL A   1      42.973  26.700  27.385  1.00  0.00     0.010 A 
ATOM     12  C   UNL A   1      42.075  26.363  28.401  1.00  0.00    -0.014 A 
BRANCH  12  13
ATOM     13  C   UNL A   1      41.712  27.320  29.453  1.00  0.00     0.031 A 
ATOM     14  C   UNL A   1      42.537  27.346  30.696  1.00  0.00     0.074 A 
ATOM     15  C   UNL A   1      40.709  28.188  29.243  1.00  0.00     0.049 A 
ATOM     16  N   UNL A   1      42.356  28.022  31.796  1.00  0.00    -0.248 NA
ATOM     17  C   UNL A   1      43.738  26.495  30.693  1.00  0.00     0.031 C 
ATOM     18  C   UNL A   1      39.939  28.296  28.004  1.00  0.00     0.029 A 
ATOM     19  N   UNL A   1      40.170  29.141  30.062  1.00  0.00    -0.354 N 
ATOM     20  C   UNL A   1      43.400  27.654  32.631  1.00  0.00     0.074 A 
ATOM     21  C   UNL A   1      44.213  26.699  31.911  1.00  0.00     0.031 C 
ATOM     22  C   UNL A   1      39.011  29.256  28.150  1.00  0.00     0.029 A 
ATOM     23  C   UNL A   1      39.087  29.780  29.510  1.00  0.00     0.049 A 
ATOM     24  H   UNL A   1      40.523  29.348  30.958  1.00  0.00     0.167 HD
ATOM     25  C   UNL A   1      43.636  28.072  33.895  1.00  0.00     0.037 A 
ATOM     26  C   UNL A   1      38.230  30.652  30.072  1.00  0.00     0.037 A 
ATOM     27  C   UNL A   1      42.792  29.014  34.578  1.00  0.00     0.049 A 
ATOM     28  C   UNL A   1      38.463  31.044  31.506  1.00  0.00     0.074 A 
ATOM     29  C   UNL A   1      42.889  29.488  35.871  1.00  0.00     0.029 A 
ATOM     30  N   UNL A   1      41.678  29.621  34.007  1.00  0.00    -0.354 N 
ATOM     31  N   UNL A   1      39.420  30.663  32.320  1.00  0.00    -0.248 NA
ATOM     32  C   UNL A   1      37.499  31.973  32.108  1.00  0.00     0.031 C 
ATOM     33  C   UNL A   1      41.804  30.343  36.098  1.00  0.00     0.029 A 
ATOM     34  C   UNL A   1      41.063  30.446  34.929  1.00  0.00     0.049 A 
ATOM     35  H   UNL A   1      41.373  29.482  33.082  1.00  0.00     0.167 HD
ATOM     36  C   UNL A   1      39.186  31.310  33.523  1.00  0.00     0.074 A 
ATOM     37  C   UNL A   1      37.998  32.121  33.328  1.00  0.00     0.031 C 
ATOM     38  C   UNL A   1      39.882  31.241  34.685  1.00  0.00     0.037 A 
BRANCH  25  39
ATOM     39  C   UNL A   1      44.785  27.433  34.614  1.00  0.00     0.064 A 
ATOM     40  C   UNL A   1      44.630  26.273  35.390  1.00  0.00     0.173 A 
ATOM     41  C   UNL A   1      46.052  28.035  34.584  1.00  0.00     0.173 A 
ATOM     42  F   UNL A   1      43.431  25.676  35.478  1.00  0.00    -0.203 F 
ATOM     43  C   UNL A   1      45.687  25.769  36.145  1.00  0.00     0.198 A 
ATOM     44  C   UNL A   1      47.114  27.512  35.317  1.00  0.00     0.198 A 
ATOM     45  F   UNL A   1      46.254  29.149  33.866  1.00  0.00    -0.203 F 
ATOM     46  F   UNL A   1      45.494  24.708  36.941  1.00  0.00    -0.200 F 
ATOM     47  C   UNL A   1      46.927  26.389  36.107  1.00  0.00     0.200 A 
ATOM     48  F   UNL A   1      48.312  28.111  35.277  1.00  0.00    -0.200 F 
ATOM     49  F   UNL A   1      47.937  25.913  36.849  1.00  0.00    -0.200 F 
ENDBRANCH  25  39
BRANCH  26  50
ATOM     50  C   UNL A   1      37.067  31.147  29.292  1.00  0.00     0.064 A 
ATOM     51  C   UNL A   1      35.977  30.318  28.996  1.00  0.00     0.173 A 
ATOM     52  C   UNL A   1      37.004  32.481  28.857  1.00  0.00     0.173 A 
ATOM     53  F   UNL A   1      35.995  29.029  29.368  1.00  0.00    -0.203 F 
ATOM     54  C   UNL A   1      34.872  30.803  28.297  1.00  0.00     0.198 A 
ATOM     55  C   UNL A   1      35.887  32.972  28.185  1.00  0.00     0.198 A 
ATOM     56  F   UNL A   1      38.020  33.319  29.113  1.00  0.00    -0.203 F 
ATOM     57  F   UNL A   1      33.855  29.982  28.002  1.00  0.00    -0.200 F 
ATOM     58  C   UNL A   1      34.823  32.132  27.901  1.00  0.00     0.200 A 
ATOM     59  F   UNL A   1      35.841  34.261  27.818  1.00  0.00    -0.200 F 
ATOM     60  F   UNL A   1      33.754  32.601  27.243  1.00  0.00    -0.200 F 
ENDBRANCH  26  50
BRANCH  38  61
ATOM     61  C   UNL A   1      39.392  32.083  35.823  1.00  0.00     0.064 A 
ATOM     62  C   UNL A   1      39.833  33.400  36.002  1.00  0.00     0.173 A 
ATOM     63  C   UNL A   1      38.404  31.590  36.688  1.00  0.00     0.173 A 
ATOM     64  F   UNL A   1      40.787  33.908  35.206  1.00  0.00    -0.203 F 
ATOM     65  C   UNL A   1      39.306  34.195  37.013  1.00  0.00     0.198 A 
ATOM     66  C   UNL A   1      37.860  32.396  37.681  1.00  0.00     0.198 A 
ATOM     67  F   UNL A   1      37.948  30.335  36.549  1.00  0.00    -0.203 F 
ATOM     68  F   UNL A   1      39.757  35.444  37.186  1.00  0.00    -0.200 F 
ATOM     69  C   UNL A   1      38.312  33.697  37.845  1.00  0.00     0.200 A 
ATOM     70  F   UNL A   1      36.891  31.918  38.473  1.00  0.00    -0.200 F 
ATOM     71  F   UNL A   1      37.790  34.472  38.805  1.00  0.00    -0.200 F 
ENDBRANCH  38  61
ENDBRANCH  12  13
ENDBRANCH   5   7
ENDBRANCH   4   5
ENDBRANCH   3   4
ENDBRANCH   2   3
ENDBRANCH   1   2
BRANCH   1  72
ATOM     72  C   UNL A   1      39.304  21.569  26.345  1.00  0.00     0.202 C 
BRANCH  72  73
ATOM     73  C   UNL A   1      38.146  21.632  25.347  1.00  0.00     0.261 C 
BRANCH  73  74
ATOM     74  O   UNL A   1      36.983  22.094  26.049  1.00  0.00    -0.459 OA
BRANCH  74  75
ATOM     75  C   UNL A   1      36.759  23.436  25.958  1.00  0.00     0.357 C 
ATOM     76  O   UNL A   1      37.599  24.313  25.856  1.00  0.00    -0.244 OA
BRANCH  75  77
ATOM     77  C   UNL A   1      35.289  23.628  25.873  1.00  0.00     0.154 A 
ATOM     78  C   UNL A   1      34.794  24.891  25.721  1.00  0.00     0.065 A 
ATOM     79  N   UNL A   1      34.515  22.532  25.972  1.00  0.00    -0.206 NA
ATOM     80  C   UNL A   1      33.434  24.980  25.556  1.00  0.00     0.077 A 
ATOM     81  C   UNL A   1      33.191  22.706  25.916  1.00  0.00     0.230 A 
ATOM     82  N   UNL A   1      32.620  23.902  25.663  1.00  0.00    -0.213 NA
BRANCH  80  83
ATOM     83  C   UNL A   1      32.862  26.277  25.165  1.00  0.00     0.000 A 
ATOM     84  C   UNL A   1      31.507  26.453  24.860  1.00  0.00     0.010 A 
ATOM     85  C   UNL A   1      33.691  27.421  25.176  1.00  0.00     0.010 A 
ATOM     86  C   UNL A   1      30.998  27.736  24.620  1.00  0.00     0.001 A 
ATOM     87  C   UNL A   1      33.185  28.696  24.943  1.00  0.00     0.001 A 
ATOM     88  C   UNL A   1      31.832  28.854  24.671  1.00  0.00     0.000 A 
ENDBRANCH  80  83
BRANCH  81  89
ATOM     89  N   UNL A   1      32.344  21.605  26.017  1.00  0.00    -0.300 N 
ATOM     90  H   UNL A   1      31.497  21.733  26.500  1.00  0.00     0.172 HD
BRANCH  89  91
ATOM     91  C   UNL A   1      32.587  20.377  25.511  1.00  0.00     0.190 A 
ATOM     92  N   UNL A   1      32.603  19.247  26.190  1.00  0.00    -0.220 NA
ATOM     93  S   UNL A   1      32.822  20.181  23.811  1.00  0.00    -0.097 S 
ATOM     94  C   UNL A   1      32.902  18.174  25.361  1.00  0.00     0.084 A 
ATOM     95  C   UNL A   1      33.115  18.498  24.023  1.00  0.00     0.056 A 
ATOM     96  C   UNL A   1      33.009  16.822  25.750  1.00  0.00     0.030 A 
ATOM     97  C   UNL A   1      33.488  17.527  23.076  1.00  0.00     0.021 A 
ATOM     98  C   UNL A   1      33.381  15.845  24.821  1.00  0.00     0.002 A 
ATOM     99  C   UNL A   1      33.629  16.199  23.500  1.00  0.00     0.002 A 
ENDBRANCH  89  91
ENDBRANCH  81  89
ENDBRANCH  75  77
ENDBRANCH  74  75
ENDBRANCH  73  74
ENDBRANCH  72  73
ENDBRANCH   1  72
TORSDOF 17
ENDMDL
MODEL 2
REMARK VINA RESULT:     -12.3      3.027      7.960
REMARK SMILES O=C(OCCOCCOC(=O)c1cc(-c2ccccc2)nc(Nc2nc3ccccc3s2)n1)c1ccc(-c2c3nc(c(-c4c(F)c(F)c(F)c(F)c4F)c4ccc([nH]4)c(-c4c(F)c(F)c(F)c(F)c4F)c4nc(c(-c5c(F)c(F)c(F)c(F)c5F)c5ccc2[nH]5)C=C4)C=C3)cc1
REMARK SMILES IDX 6 1 5 2 4 3 3 4 2 5 1 6 34 7 35 8 96 9 36 10 95 11 37 12
REMARK SMILES IDX 38 13 39 14 89 15 40 16 94 17 88 18 90 19 41 20 93 21 87 22
REMARK SMILES IDX 86 23 42 25 74 26 54 27 73 28 55 29 58 30 72 31 91 32 56 33
REMARK SMILES IDX 57 34 71 36 92 37 59 38 43 39 44 40 52 41 45 42 46 43 50 44
REMARK SMILES IDX 53 45 47 46 48 47 51 48 49 49 75 50 76 51 84 52 77 53 78 54
REMARK SMILES IDX 82 55 85 56 79 57 80 58 83 59 81 60 60 61 61 62 69 63 62 64
REMARK SMILES IDX 63 65 67 66 70 67 64 68 65 69 68 70 66 71 7 72 8 73 9 74
REMARK SMILES IDX 10 75 11 76 12 77 13 78 33 79 14 80 22 81 21 82 15 83 16 84
REMARK SMILES IDX 20 85 17 86 19 87 18 88 23 89 24 91 25 92 32 93 26 94 31 95
REMARK SMILES IDX 27 96 30 97 28 98 29 99
REMARK H PARENT 90 24 58 35 23 90
REMARK Flexibility Score: inf
ROOT
ATOM      1  O   UNL A   1      30.868  27.928  24.692  1.00  0.00    -0.374 OA
ENDROOT
BRANCH   1   2
ATOM      2  C   UNL A   1      31.576  29.153  24.499  1.00  0.00     0.202 C 
BRANCH   2   3
ATOM      3  C   UNL A   1      31.687  29.983  25.773  1.00  0.00     0.261 C 
BRANCH   3   4
ATOM      4  O   UNL A   1      33.021  30.482  25.929  1.00  0.00    -0.460 OA
BRANCH   4   5
ATOM      5  C   UNL A   1      33.494  31.262  26.927  1.00  0.00     0.338 C 
ATOM      6  O   UNL A   1      32.818  32.230  27.274  1.00  0.00    -0.246 OA
BRANCH   5   7
ATOM      7  C   UNL A   1      34.781  31.024  27.664  1.00  0.00     0.060 A 
ATOM      8  C   UNL A   1      35.765  31.978  27.944  1.00  0.00     0.016 A 
ATOM      9  C   UNL A   1      34.950  29.737  28.206  1.00  0.00     0.016 A 
ATOM     10  C   UNL A   1      36.868  31.684  28.736  1.00  0.00     0.010 A 
ATOM     11  C   UNL A   1      36.050  29.431  29.008  1.00  0.00     0.010 A 
ATOM     12  C   UNL A   1      37.009  30.412  29.275  1.00  0.00    -0.014 A 
BRANCH  12  13
ATOM     13  C   UNL A   1      38.227  30.108  30.036  1.00  0.00     0.031 A 
ATOM     14  C   UNL A   1      39.243  29.215  29.410  1.00  0.00     0.074 A 
ATOM     15  C   UNL A   1      38.428  30.694  31.228  1.00  0.00     0.049 A 
ATOM     16  N   UNL A   1      40.339  28.722  29.918  1.00  0.00    -0.248 NA
ATOM     17  C   UNL A   1      38.991  28.827  28.012  1.00  0.00     0.031 C 
ATOM     18  C   UNL A   1      37.530  31.671  31.845  1.00  0.00     0.029 A 
ATOM     19  N   UNL A   1      39.449  30.557  32.127  1.00  0.00    -0.354 N 
ATOM     20  C   UNL A   1      40.891  27.940  28.914  1.00  0.00     0.074 A 
ATOM     21  C   UNL A   1      40.014  28.025  27.768  1.00  0.00     0.031 C 
ATOM     22  C   UNL A   1      38.035  32.036  33.034  1.00  0.00     0.029 A 
ATOM     23  C   UNL A   1      39.253  31.271  33.283  1.00  0.00     0.049 A 
ATOM     24  H   UNL A   1      40.245  30.001  31.962  1.00  0.00     0.167 HD
ATOM     25  C   UNL A   1      42.025  27.205  28.968  1.00  0.00     0.037 A 
ATOM     26  C   UNL A   1      39.961  31.259  34.427  1.00  0.00     0.037 A 
ATOM     27  C   UNL A   1      42.860  27.139  30.136  1.00  0.00     0.049 A 
ATOM     28  C   UNL A   1      41.175  30.372  34.495  1.00  0.00     0.074 A 
ATOM     29  C   UNL A   1      44.008  26.400  30.341  1.00  0.00     0.029 A 
ATOM     30  N   UNL A   1      42.619  27.847  31.308  1.00  0.00    -0.354 N 
ATOM     31  N   UNL A   1      41.678  29.590  33.567  1.00  0.00    -0.248 NA
ATOM     32  C   UNL A   1      41.915  30.352  35.762  1.00  0.00     0.031 C 
ATOM     33  C   UNL A   1      44.434  26.622  31.655  1.00  0.00     0.029 A 
ATOM     34  C   UNL A   1      43.583  27.542  32.252  1.00  0.00     0.049 A 
ATOM     35  H   UNL A   1      41.872  28.471  31.447  1.00  0.00     0.167 HD
ATOM     36  C   UNL A   1      42.796  28.994  34.128  1.00  0.00     0.074 A 
ATOM     37  C   UNL A   1      42.906  29.517  35.478  1.00  0.00     0.031 C 
ATOM     38  C   UNL A   1      43.654  28.095  33.584  1.00  0.00     0.037 A 
BRANCH  25  39
ATOM     39  C   UNL A   1      42.341  26.364  27.768  1.00  0.00     0.064 A 
ATOM     40  C   UNL A   1      41.832  25.064  27.612  1.00  0.00     0.173 A 
ATOM     41  C   UNL A   1      43.229  26.841  26.792  1.00  0.00     0.173 A 
ATOM     42  F   UNL A   1      41.004  24.548  28.533  1.00  0.00    -0.203 F 
ATOM     43  C   UNL A   1      42.238  24.260  26.548  1.00  0.00     0.198 A 
ATOM     44  C   UNL A   1      43.609  26.045  25.715  1.00  0.00     0.198 A 
ATOM     45  F   UNL A   1      43.750  28.072  26.897  1.00  0.00    -0.203 F 
ATOM     46  F   UNL A   1      41.801  22.995  26.463  1.00  0.00    -0.200 F 
ATOM     47  C   UNL A   1      43.125  24.751  25.602  1.00  0.00     0.200 A 
ATOM     48  F   UNL A   1      44.465  26.522  24.801  1.00  0.00    -0.200 F 
ATOM     49  F   UNL A   1      43.529  23.969  24.591  1.00  0.00    -0.200 F 
ENDBRANCH  25  39
BRANCH  26  50
ATOM     50  C   UNL A   1      39.498  32.061  35.588  1.00  0.00     0.064 A 
ATOM     51  C   UNL A   1      39.913  33.386  35.775  1.00  0.00     0.173 A 
ATOM     52  C   UNL A   1      38.591  31.528  36.519  1.00  0.00     0.173 A 
ATOM     53  F   UNL A   1      40.795  33.938  34.928  1.00  0.00    -0.203 F 
ATOM     54  C   UNL A   1      39.441  34.144  36.847  1.00  0.00     0.198 A 
ATOM     55  C   UNL A   1      38.098  32.295  37.572  1.00  0.00     0.198 A 
ATOM     56  F   UNL A   1      38.160  30.265  36.388  1.00  0.00    -0.203 F 
ATOM     57  F   UNL A   1      39.876  35.400  37.020  1.00  0.00    -0.200 F 
ATOM     58  C   UNL A   1      38.527  33.602  37.739  1.00  0.00     0.200 A 
ATOM     59  F   UNL A   1      37.204  31.769  38.421  1.00  0.00    -0.200 F 
ATOM     60  F   UNL A   1      38.062  34.337  38.759  1.00  0.00    -0.200 F 
ENDBRANCH  26  50
BRANCH  38  61
ATOM     61  C   UNL A   1      44.797  27.641  34.439  1.00  0.00     0.064 A 
ATOM     62  C   UNL A   1      44.706  26.491  35.233  1.00  0.00     0.173 A 
ATOM     63  C   UNL A   1      46.024  28.320  34.391  1.00  0.00     0.173 A 
ATOM     64  F   UNL A   1      43.547  25.819  35.319  1.00  0.00    -0.203 F 
ATOM     65  C   UNL A   1      45.804  26.036  35.955  1.00  0.00     0.198 A 
ATOM     66  C   UNL A   1      47.127  27.848  35.093  1.00  0.00     0.198 A 
ATOM     67  F   UNL A   1      46.158  29.423  33.639  1.00  0.00    -0.203 F 
ATOM     68  F   UNL A   1      45.692  24.949  36.729  1.00  0.00    -0.200 F 
ATOM     69  C   UNL A   1      47.017  26.708  35.876  1.00  0.00     0.200 A 
ATOM     70  F   UNL A   1      48.300  28.489  35.004  1.00  0.00    -0.200 F 
ATOM     71  F   UNL A   1      48.079  26.255  36.555  1.00  0.00    -0.200 F 
ENDBRANCH  38  61
ENDBRANCH  12  13
ENDBRANCH   5   7
ENDBRANCH   4   5
ENDBRANCH   3   4
ENDBRANCH   2   3
ENDBRANCH   1   2
BRANCH   1  72
ATOM     72  C   UNL A   1      30.131  27.433  23.575  1.00  0.00     0.202 C 
BRANCH  72  73
ATOM     73  C   UNL A   1      31.124  26.950  22.517  1.00  0.00     0.261 C 
BRANCH  73  74
ATOM     74  O   UNL A   1      32.201  26.284  23.191  1.00  0.00    -0.459 OA
BRANCH  74  75
ATOM     75  C   UNL A   1      33.160  25.776  22.366  1.00  0.00     0.357 C 
ATOM     76  O   UNL A   1      33.687  26.338  21.422  1.00  0.00    -0.244 OA
BRANCH  75  77
ATOM     77  C   UNL A   1      33.543  24.448  22.910  1.00  0.00     0.154 A 
ATOM     78  C   UNL A   1      34.781  24.290  23.463  1.00  0.00     0.065 A 
ATOM     79  N   UNL A   1      32.641  23.454  22.808  1.00  0.00    -0.206 NA
ATOM     80  C   UNL A   1      35.028  23.064  24.028  1.00  0.00     0.077 A 
ATOM     81  C   UNL A   1      32.993  22.254  23.279  1.00  0.00     0.230 A 
ATOM     82  N   UNL A   1      34.152  22.034  23.933  1.00  0.00    -0.213 NA
BRANCH  80  83
ATOM     83  C   UNL A   1      36.247  22.899  24.834  1.00  0.00     0.000 A 
ATOM     84  C   UNL A   1      37.039  21.746  24.793  1.00  0.00     0.010 A 
ATOM     85  C   UNL A   1      36.695  23.982  25.624  1.00  0.00     0.010 A 
ATOM     86  C   UNL A   1      38.256  21.700  25.485  1.00  0.00     0.001 A 
ATOM     87  C   UNL A   1      37.907  23.939  26.307  1.00  0.00     0.001 A 
ATOM     88  C   UNL A   1      38.692  22.796  26.231  1.00  0.00     0.000 A 
ENDBRANCH  80  83
BRANCH  81  89
ATOM     89  N   UNL A   1      32.098  21.190  23.194  1.00  0.00    -0.300 N 
ATOM     90  H   UNL A   1      31.216  21.375  22.800  1.00  0.00     0.172 HD
BRANCH  89  91
ATOM     91  C   UNL A   1      32.336  19.927  23.608  1.00  0.00     0.190 A 
ATOM     92  N   UNL A   1      32.229  19.482  24.843  1.00  0.00    -0.220 NA
ATOM     93  S   UNL A   1      32.742  18.708  22.452  1.00  0.00    -0.097 S 
ATOM     94  C   UNL A   1      32.565  18.137  24.918  1.00  0.00     0.084 A 
ATOM     95  C   UNL A   1      32.933  17.548  23.710  1.00  0.00     0.056 A 
ATOM     96  C   UNL A   1      32.568  17.339  26.082  1.00  0.00     0.030 A 
ATOM     97  C   UNL A   1      33.360  16.209  23.638  1.00  0.00     0.021 A 
ATOM     98  C   UNL A   1      32.991  16.007  26.026  1.00  0.00     0.002 A 
ATOM     99  C   UNL A   1      33.394  15.454  24.817  1.00  0.00     0.002 A 
ENDBRANCH  89  91
ENDBRANCH  81  89
ENDBRANCH  75  77
ENDBRANCH  74  75
ENDBRANCH  73  74
ENDBRANCH  72  73
ENDBRANCH   1  72
TORSDOF 17
ENDMDL
MODEL 3
REMARK VINA RESULT:     -12.1      4.422      8.730
REMARK SMILES O=C(OCCOCCOC(=O)c1cc(-c2ccccc2)nc(Nc2nc3ccccc3s2)n1)c1ccc(-c2c3nc(c(-c4c(F)c(F)c(F)c(F)c4F)c4ccc([nH]4)c(-c4c(F)c(F)c(F)c(F)c4F)c4nc(c(-c5c(F)c(F)c(F)c(F)c5F)c5ccc2[nH]5)C=C4)C=C3)cc1
REMARK SMILES IDX 6 1 5 2 4 3 3 4 2 5 1 6 34 7 35 8 96 9 36 10 95 11 37 12
REMARK SMILES IDX 38 13 39 14 89 15 40 16 94 17 88 18 90 19 41 20 93 21 87 22
REMARK SMILES IDX 86 23 42 25 74 26 54 27 73 28 55 29 58 30 72 31 91 32 56 33
REMARK SMILES IDX 57 34 71 36 92 37 59 38 43 39 44 40 52 41 45 42 46 43 50 44
REMARK SMILES IDX 53 45 47 46 48 47 51 48 49 49 75 50 76 51 84 52 77 53 78 54
REMARK SMILES IDX 82 55 85 56 79 57 80 58 83 59 81 60 60 61 61 62 69 63 62 64
REMARK SMILES IDX 63 65 67 66 70 67 64 68 65 69 68 70 66 71 7 72 8 73 9 74
REMARK SMILES IDX 10 75 11 76 12 77 13 78 33 79 14 80 22 81 21 82 15 83 16 84
REMARK SMILES IDX 20 85 17 86 19 87 18 88 23 89 24 91 25 92 32 93 26 94 31 95
REMARK SMILES IDX 27 96 30 97 28 98 29 99
REMARK H PARENT 90 24 58 35 23 90
REMARK Flexibility Score: inf
ROOT
ATOM      1  O   UNL A   1      38.444  21.646  26.186  1.00  0.00    -0.374 OA
ENDROOT
BRANCH   1   2
ATOM      2  C   UNL A   1      39.099  20.772  25.265  1.00  0.00     0.202 C 
BRANCH   2   3
ATOM      3  C   UNL A   1      39.464  19.425  25.880  1.00  0.00     0.261 C 
BRANCH   3   4
ATOM      4  O   UNL A   1      40.792  19.046  25.497  1.00  0.00    -0.460 OA
BRANCH   4   5
ATOM      5  C   UNL A   1      41.946  19.341  26.137  1.00  0.00     0.338 C 
ATOM      6  O   UNL A   1      42.742  18.426  26.344  1.00  0.00    -0.246 OA
BRANCH   5   7
ATOM      7  C   UNL A   1      42.342  20.713  26.600  1.00  0.00     0.060 A 
ATOM      8  C   UNL A   1      42.341  21.175  27.921  1.00  0.00     0.016 A 
ATOM      9  C   UNL A   1      42.858  21.571  25.613  1.00  0.00     0.016 A 
ATOM     10  C   UNL A   1      42.838  22.427  28.261  1.00  0.00     0.010 A 
ATOM     11  C   UNL A   1      43.366  22.828  25.942  1.00  0.00     0.010 A 
ATOM     12  C   UNL A   1      43.358  23.253  27.273  1.00  0.00    -0.014 A 
BRANCH  12  13
ATOM     13  C   UNL A   1      43.797  24.602  27.651  1.00  0.00     0.031 A 
ATOM     14  C   UNL A   1      42.757  25.596  28.045  1.00  0.00     0.074 A 
ATOM     15  C   UNL A   1      45.109  24.881  27.706  1.00  0.00     0.049 A 
ATOM     16  N   UNL A   1      42.884  26.865  28.316  1.00  0.00    -0.248 NA
ATOM     17  C   UNL A   1      41.380  25.084  28.152  1.00  0.00     0.031 C 
ATOM     18  C   UNL A   1      46.183  23.922  27.449  1.00  0.00     0.029 A 
ATOM     19  N   UNL A   1      45.760  26.049  27.997  1.00  0.00    -0.354 N 
ATOM     20  C   UNL A   1      41.601  27.312  28.595  1.00  0.00     0.074 A 
ATOM     21  C   UNL A   1      40.711  26.181  28.464  1.00  0.00     0.031 C 
ATOM     22  C   UNL A   1      47.365  24.545  27.581  1.00  0.00     0.029 A 
ATOM     23  C   UNL A   1      47.123  25.956  27.868  1.00  0.00     0.049 A 
ATOM     24  H   UNL A   1      45.297  26.873  28.272  1.00  0.00     0.167 HD
ATOM     25  C   UNL A   1      41.215  28.569  28.914  1.00  0.00     0.037 A 
ATOM     26  C   UNL A   1      48.057  26.923  27.926  1.00  0.00     0.037 A 
ATOM     27  C   UNL A   1      42.135  29.668  29.019  1.00  0.00     0.049 A 
ATOM     28  C   UNL A   1      47.597  28.329  28.203  1.00  0.00     0.074 A 
ATOM     29  C   UNL A   1      41.873  30.996  29.290  1.00  0.00     0.029 A 
ATOM     30  N   UNL A   1      43.510  29.553  28.848  1.00  0.00    -0.354 N 
ATOM     31  N   UNL A   1      46.380  28.771  28.419  1.00  0.00    -0.248 NA
ATOM     32  C   UNL A   1      48.629  29.373  28.232  1.00  0.00     0.031 C 
ATOM     33  C   UNL A   1      43.085  31.694  29.232  1.00  0.00     0.029 A 
ATOM     34  C   UNL A   1      44.109  30.792  28.981  1.00  0.00     0.049 A 
ATOM     35  H   UNL A   1      43.987  28.713  28.659  1.00  0.00     0.167 HD
ATOM     36  C   UNL A   1      46.495  30.137  28.623  1.00  0.00     0.074 A 
ATOM     37  C   UNL A   1      47.908  30.451  28.517  1.00  0.00     0.031 C 
ATOM     38  C   UNL A   1      45.526  31.053  28.872  1.00  0.00     0.037 A 
BRANCH  25  39
ATOM     39  C   UNL A   1      39.742  28.803  29.066  1.00  0.00     0.064 A 
ATOM     40  C   UNL A   1      38.944  29.259  28.004  1.00  0.00     0.173 A 
ATOM     41  C   UNL A   1      39.132  28.638  30.318  1.00  0.00     0.173 A 
ATOM     42  F   UNL A   1      39.485  29.464  26.793  1.00  0.00    -0.203 F 
ATOM     43  C   UNL A   1      37.604  29.584  28.203  1.00  0.00     0.198 A 
ATOM     44  C   UNL A   1      37.785  28.936  30.507  1.00  0.00     0.198 A 
ATOM     45  F   UNL A   1      39.849  28.213  31.368  1.00  0.00    -0.203 F 
ATOM     46  F   UNL A   1      36.883  30.093  27.194  1.00  0.00    -0.200 F 
ATOM     47  C   UNL A   1      37.027  29.422  29.454  1.00  0.00     0.200 A 
ATOM     48  F   UNL A   1      37.229  28.777  31.715  1.00  0.00    -0.200 F 
ATOM     49  F   UNL A   1      35.742  29.754  29.647  1.00  0.00    -0.200 F 
ENDBRANCH  25  39
BRANCH  26  50
ATOM     50  C   UNL A   1      49.480  26.590  27.662  1.00  0.00     0.064 A 
ATOM     51  C   UNL A   1      49.991  26.537  26.359  1.00  0.00     0.173 A 
ATOM     52  C   UNL A   1      50.374  26.354  28.720  1.00  0.00     0.173 A 
ATOM     53  F   UNL A   1      49.176  26.732  25.312  1.00  0.00    -0.203 F 
ATOM     54  C   UNL A   1      51.338  26.262  26.124  1.00  0.00     0.198 A 
ATOM     55  C   UNL A   1      51.725  26.108  28.485  1.00  0.00     0.198 A 
ATOM     56  F   UNL A   1      49.939  26.392  29.988  1.00  0.00    -0.203 F 
ATOM     57  F   UNL A   1      51.795  26.189  24.867  1.00  0.00    -0.200 F 
ATOM     58  C   UNL A   1      52.206  26.058  27.187  1.00  0.00     0.200 A 
ATOM     59  F   UNL A   1      52.561  25.927  29.517  1.00  0.00    -0.200 F 
ATOM     60  F   UNL A   1      53.503  25.810  26.960  1.00  0.00    -0.200 F 
ENDBRANCH  26  50
BRANCH  38  61
ATOM     61  C   UNL A   1      45.964  32.471  29.071  1.00  0.00     0.064 A 
ATOM     62  C   UNL A   1      45.994  33.384  28.009  1.00  0.00     0.173 A 
ATOM     63  C   UNL A   1      46.271  32.939  30.357  1.00  0.00     0.173 A 
ATOM     64  F   UNL A   1      45.721  32.976  26.759  1.00  0.00    -0.203 F 
ATOM     65  C   UNL A   1      46.321  34.718  28.226  1.00  0.00     0.198 A 
ATOM     66  C   UNL A   1      46.573  34.278  30.575  1.00  0.00     0.198 A 
ATOM     67  F   UNL A   1      46.249  32.101  31.405  1.00  0.00    -0.203 F 
ATOM     68  F   UNL A   1      46.370  35.571  27.195  1.00  0.00    -0.200 F 
ATOM     69  C   UNL A   1      46.599  35.167  29.510  1.00  0.00     0.200 A 
ATOM     70  F   UNL A   1      46.826  34.713  31.817  1.00  0.00    -0.200 F 
ATOM     71  F   UNL A   1      46.894  36.457  29.720  1.00  0.00    -0.200 F 
ENDBRANCH  38  61
ENDBRANCH  12  13
ENDBRANCH   5   7
ENDBRANCH   4   5
ENDBRANCH   3   4
ENDBRANCH   2   3
ENDBRANCH   1   2
BRANCH   1  72
ATOM     72  C   UNL A   1      39.102  22.878  26.476  1.00  0.00     0.202 C 
BRANCH  72  73
ATOM     73  C   UNL A   1      38.069  24.004  26.417  1.00  0.00     0.261 C 
BRANCH  73  74
ATOM     74  O   UNL A   1      36.792  23.418  26.123  1.00  0.00    -0.459 OA
BRANCH  74  75
ATOM     75  C   UNL A   1      36.302  23.715  24.885  1.00  0.00     0.357 C 
ATOM     76  O   UNL A   1      36.911  23.688  23.831  1.00  0.00    -0.244 OA
BRANCH  75  77
ATOM     77  C   UNL A   1      34.844  23.954  25.040  1.00  0.00     0.154 A 
ATOM     78  C   UNL A   1      34.414  25.183  25.448  1.00  0.00     0.065 A 
ATOM     79  N   UNL A   1      34.018  22.923  24.784  1.00  0.00    -0.206 NA
ATOM     80  C   UNL A   1      33.053  25.357  25.477  1.00  0.00     0.077 A 
ATOM     81  C   UNL A   1      32.707  23.131  24.942  1.00  0.00     0.230 A 
ATOM     82  N   UNL A   1      32.188  24.341  25.240  1.00  0.00    -0.213 NA
BRANCH  80  83
ATOM     83  C   UNL A   1      32.527  26.714  25.688  1.00  0.00     0.000 A 
ATOM     84  C   UNL A   1      32.277  27.247  26.958  1.00  0.00     0.010 A 
ATOM     85  C   UNL A   1      32.343  27.557  24.569  1.00  0.00     0.010 A 
ATOM     86  C   UNL A   1      31.899  28.589  27.099  1.00  0.00     0.001 A 
ATOM     87  C   UNL A   1      31.974  28.892  24.709  1.00  0.00     0.001 A 
ATOM     88  C   UNL A   1      31.758  29.410  25.979  1.00  0.00     0.000 A 
ENDBRANCH  80  83
BRANCH  81  89
ATOM     89  N   UNL A   1      31.808  22.097  24.694  1.00  0.00    -0.300 N 
ATOM     90  H   UNL A   1      30.856  22.335  24.633  1.00  0.00     0.172 HD
BRANCH  89  91
ATOM     91  C   UNL A   1      32.131  20.796  24.532  1.00  0.00     0.190 A 
ATOM     92  N   UNL A   1      32.246  19.900  25.492  1.00  0.00    -0.220 NA
ATOM     93  S   UNL A   1      32.346  20.157  22.941  1.00  0.00    -0.097 S 
ATOM     94  C   UNL A   1      32.607  18.663  24.975  1.00  0.00     0.084 A 
ATOM     95  C   UNL A   1      32.768  18.620  23.592  1.00  0.00     0.056 A 
ATOM     96  C   UNL A   1      32.822  17.479  25.713  1.00  0.00     0.030 A 
ATOM     97  C   UNL A   1      33.193  17.453  22.931  1.00  0.00     0.021 A 
ATOM     98  C   UNL A   1      33.246  16.312  25.071  1.00  0.00     0.002 A 
ATOM     99  C   UNL A   1      33.441  16.305  23.695  1.00  0.00     0.002 A 
ENDBRANCH  89  91
ENDBRANCH  81  89
ENDBRANCH  75  77
ENDBRANCH  74  75
ENDBRANCH  73  74
ENDBRANCH  72  73
ENDBRANCH   1  72
TORSDOF 17
ENDMDL
