MODEL 1
REMARK VINA RESULT:     -11.4      0.000      0.000
REMARK SMILES CCCC[C@@H](C(=O)OCCOCCOC(=O)c1ccc(-c2c3nc(c(-c4c(F)c(F)c(F)c(F)c4F)c4ccc([nH]4)c(-c4c(F)c(F)c(F)c(F)c4F)c4nc(c(-c5c(F)c(F)c(F)c(F)c5F)c5ccc2[nH]5)C=C4)C=C3)cc1)C1(O)Cc2ccccc2C1
REMARK SMILES IDX 10 1 9 2 8 3 6 4 7 5 5 6 4 7 3 8 2 9 1 10 80 11 82 12 89 13
REMARK SMILES IDX 83 14 88 15 84 16 87 17 85 18 86 19 81 20 11 22 12 23 13 24
REMARK SMILES IDX 14 25 15 26 16 27 17 28 18 29 79 30 19 31 78 32 20 33 21 34
REMARK SMILES IDX 22 35 72 36 23 37 77 38 71 39 73 40 24 41 76 42 70 43 69 44
REMARK SMILES IDX 25 46 57 47 37 48 56 49 38 50 41 51 55 52 74 53 39 54 40 55
REMARK SMILES IDX 54 57 75 58 42 59 26 60 27 61 35 62 28 63 29 64 33 65 36 66
REMARK SMILES IDX 30 67 31 68 34 69 32 70 58 71 59 72 67 73 60 74 61 75 65 76
REMARK SMILES IDX 68 77 62 78 63 79 66 80 64 81 43 82 44 83 52 84 45 85 46 86
REMARK SMILES IDX 50 87 53 88 47 89 48 90 51 91 49 92
REMARK H PARENT 81 21 73 45 41 56
REMARK Flexibility Score: inf
ROOT
ATOM      1  C   UNL A   1      31.979  27.523  25.937  1.00  0.00     0.202 C 
ENDROOT
BRANCH   1   2
ATOM      2  C   UNL A   1      30.874  26.444  26.071  1.00  0.00     0.261 C 
BRANCH   2   3
ATOM      3  O   UNL A   1      31.225  25.247  25.348  1.00  0.00    -0.463 OA
BRANCH   3   4
ATOM      4  C   UNL A   1      31.674  24.168  26.053  1.00  0.00     0.311 C 
ATOM      5  O   UNL A   1      31.428  23.965  27.236  1.00  0.00    -0.252 OA
BRANCH   4   6
ATOM      6  C   UNL A   1      32.280  23.091  25.116  1.00  0.00     0.131 C 
BRANCH   6   7
ATOM      7  C   UNL A   1      31.898  21.635  25.565  1.00  0.00     0.018 C 
BRANCH   7   8
ATOM      8  C   UNL A   1      32.150  20.394  24.688  1.00  0.00     0.001 C 
BRANCH   8   9
ATOM      9  C   UNL A   1      32.965  19.261  25.284  1.00  0.00    -0.003 C 
ATOM     10  C   UNL A   1      34.325  19.139  24.628  1.00  0.00     0.004 C 
ENDBRANCH   8   9
ENDBRANCH   7   8
ENDBRANCH   6   7
BRANCH   6  11
ATOM     11  C   UNL A   1      33.844  23.341  25.049  1.00  0.00     0.086 C 
ATOM     12  C   UNL A   1      34.529  22.952  23.676  1.00  0.00     0.072 C 
ATOM     13  C   UNL A   1      34.607  24.683  25.283  1.00  0.00     0.072 C 
ATOM     14  C   UNL A   1      35.986  23.132  24.055  1.00  0.00    -0.042 A 
ATOM     15  C   UNL A   1      36.036  24.079  25.099  1.00  0.00    -0.042 A 
ATOM     16  C   UNL A   1      36.900  22.086  23.921  1.00  0.00     0.004 A 
ATOM     17  C   UNL A   1      36.946  23.858  26.134  1.00  0.00     0.004 A 
ATOM     18  C   UNL A   1      37.740  21.832  24.997  1.00  0.00     0.000 A 
ATOM     19  C   UNL A   1      37.745  22.697  26.102  1.00  0.00     0.000 A 
BRANCH  11  20
ATOM     20  O   UNL A   1      34.334  22.545  26.171  1.00  0.00    -0.388 OA
ATOM     21  H   UNL A   1      35.059  23.017  26.610  1.00  0.00     0.211 HD
ENDBRANCH  11  20
ENDBRANCH   6  11
ENDBRANCH   4   6
ENDBRANCH   3   4
ENDBRANCH   2   3
ENDBRANCH   1   2
BRANCH   1  22
ATOM     22  O   UNL A   1      31.836  28.761  26.649  1.00  0.00    -0.374 OA
BRANCH  22  23
ATOM     23  C   UNL A   1      31.878  29.923  25.828  1.00  0.00     0.202 C 
BRANCH  23  24
ATOM     24  C   UNL A   1      31.996  31.260  26.548  1.00  0.00     0.261 C 
BRANCH  24  25
ATOM     25  O   UNL A   1      32.911  31.077  27.621  1.00  0.00    -0.460 OA
BRANCH  25  26
ATOM     26  C   UNL A   1      33.658  32.187  27.800  1.00  0.00     0.338 C 
ATOM     27  O   UNL A   1      33.257  33.316  27.984  1.00  0.00    -0.246 OA
BRANCH  26  28
ATOM     28  C   UNL A   1      35.070  31.785  27.919  1.00  0.00     0.060 A 
ATOM     29  C   UNL A   1      35.315  30.411  27.872  1.00  0.00     0.016 A 
ATOM     30  C   UNL A   1      36.114  32.701  28.105  1.00  0.00     0.016 A 
ATOM     31  C   UNL A   1      36.576  29.936  28.176  1.00  0.00     0.010 A 
ATOM     32  C   UNL A   1      37.388  32.223  28.398  1.00  0.00     0.010 A 
ATOM     33  C   UNL A   1      37.587  30.840  28.523  1.00  0.00    -0.014 A 
BRANCH  33  34
ATOM     34  C   UNL A   1      38.732  30.310  29.286  1.00  0.00     0.031 A 
ATOM     35  C   UNL A   1      38.875  30.734  30.723  1.00  0.00     0.074 A 
ATOM     36  C   UNL A   1      39.526  29.373  28.745  1.00  0.00     0.049 A 
ATOM     37  N   UNL A   1      39.735  30.340  31.625  1.00  0.00    -0.248 NA
ATOM     38  C   UNL A   1      37.913  31.738  31.212  1.00  0.00     0.031 C 
ATOM     39  C   UNL A   1      39.418  28.866  27.379  1.00  0.00     0.029 A 
ATOM     40  N   UNL A   1      40.562  28.667  29.292  1.00  0.00    -0.354 N 
ATOM     41  C   UNL A   1      39.418  31.047  32.778  1.00  0.00     0.074 A 
ATOM     42  C   UNL A   1      38.320  31.927  32.457  1.00  0.00     0.031 C 
ATOM     43  C   UNL A   1      40.350  27.916  27.194  1.00  0.00     0.029 A 
ATOM     44  C   UNL A   1      41.131  27.775  28.421  1.00  0.00     0.049 A 
ATOM     45  H   UNL A   1      40.868  28.789  30.219  1.00  0.00     0.167 HD
ATOM     46  C   UNL A   1      39.986  30.954  34.003  1.00  0.00     0.037 A 
ATOM     47  C   UNL A   1      42.173  26.944  28.606  1.00  0.00     0.037 A 
ATOM     48  C   UNL A   1      41.074  30.063  34.303  1.00  0.00     0.049 A 
ATOM     49  C   UNL A   1      42.821  26.898  29.966  1.00  0.00     0.074 A 
ATOM     50  C   UNL A   1      41.741  29.883  35.501  1.00  0.00     0.029 A 
ATOM     51  N   UNL A   1      41.656  29.200  33.384  1.00  0.00    -0.354 N 
ATOM     52  N   UNL A   1      42.517  27.565  31.054  1.00  0.00    -0.248 NA
ATOM     53  C   UNL A   1      43.946  25.971  30.125  1.00  0.00     0.031 C 
ATOM     54  C   UNL A   1      42.764  28.953  35.292  1.00  0.00     0.029 A 
ATOM     55  C   UNL A   1      42.687  28.498  33.983  1.00  0.00     0.049 A 
ATOM     56  H   UNL A   1      41.376  29.102  32.445  1.00  0.00     0.167 HD
ATOM     57  C   UNL A   1      43.386  27.112  32.037  1.00  0.00     0.074 A 
ATOM     58  C   UNL A   1      44.217  26.101  31.416  1.00  0.00     0.031 C 
ATOM     59  C   UNL A   1      43.489  27.490  33.337  1.00  0.00     0.037 A 
BRANCH  46  60
ATOM     60  C   UNL A   1      39.465  31.858  35.084  1.00  0.00     0.064 A 
ATOM     61  C   UNL A   1      39.831  33.211  35.166  1.00  0.00     0.173 A 
ATOM     62  C   UNL A   1      38.576  31.364  36.051  1.00  0.00     0.173 A 
ATOM     63  F   UNL A   1      40.696  33.732  34.281  1.00  0.00    -0.203 F 
ATOM     64  C   UNL A   1      39.349  34.026  36.187  1.00  0.00     0.198 A 
ATOM     65  C   UNL A   1      38.070  32.190  37.051  1.00  0.00     0.198 A 
ATOM     66  F   UNL A   1      38.196  30.078  36.025  1.00  0.00    -0.203 F 
ATOM     67  F   UNL A   1      39.755  35.300  36.276  1.00  0.00    -0.200 F 
ATOM     68  C   UNL A   1      38.461  33.517  37.123  1.00  0.00     0.200 A 
ATOM     69  F   UNL A   1      37.204  31.697  37.948  1.00  0.00    -0.200 F 
ATOM     70  F   UNL A   1      37.992  34.303  38.102  1.00  0.00    -0.200 F 
ENDBRANCH  46  60
BRANCH  47  71
ATOM     71  C   UNL A   1      42.657  26.096  27.485  1.00  0.00     0.064 A 
ATOM     72  C   UNL A   1      42.080  24.848  27.211  1.00  0.00     0.173 A 
ATOM     73  C   UNL A   1      43.720  26.515  26.670  1.00  0.00     0.173 A 
ATOM     74  F   UNL A   1      41.072  24.395  27.970  1.00  0.00    -0.203 F 
ATOM     75  C   UNL A   1      42.567  24.041  26.184  1.00  0.00     0.198 A 
ATOM     76  C   UNL A   1      44.183  25.722  25.624  1.00  0.00     0.198 A 
ATOM     77  F   UNL A   1      44.304  27.704  26.886  1.00  0.00    -0.203 F 
ATOM     78  F   UNL A   1      42.034  22.829  25.979  1.00  0.00    -0.200 F 
ATOM     79  C   UNL A   1      43.613  24.481  25.388  1.00  0.00     0.200 A 
ATOM     80  F   UNL A   1      45.183  26.160  24.847  1.00  0.00    -0.200 F 
ATOM     81  F   UNL A   1      44.079  23.704  24.400  1.00  0.00    -0.200 F 
ENDBRANCH  47  71
BRANCH  59  82
ATOM     82  C   UNL A   1      44.497  26.760  34.179  1.00  0.00     0.064 A 
ATOM     83  C   UNL A   1      45.818  27.212  34.318  1.00  0.00     0.173 A 
ATOM     84  C   UNL A   1      44.125  25.596  34.869  1.00  0.00     0.173 A 
ATOM     85  F   UNL A   1      46.225  28.315  33.671  1.00  0.00    -0.203 F 
ATOM     86  C   UNL A   1      46.742  26.498  35.075  1.00  0.00     0.198 A 
ATOM     87  C   UNL A   1      45.040  24.907  35.658  1.00  0.00     0.198 A 
ATOM     88  F   UNL A   1      42.871  25.129  34.784  1.00  0.00    -0.203 F 
ATOM     89  F   UNL A   1      48.016  26.907  35.133  1.00  0.00    -0.200 F 
ATOM     90  C   UNL A   1      46.351  25.351  35.749  1.00  0.00     0.200 A 
ATOM     91  F   UNL A   1      44.656  23.810  36.326  1.00  0.00    -0.200 F 
ATOM     92  F   UNL A   1      47.242  24.663  36.477  1.00  0.00    -0.200 F 
ENDBRANCH  59  82
ENDBRANCH  33  34
ENDBRANCH  26  28
ENDBRANCH  25  26
ENDBRANCH  24  25
ENDBRANCH  23  24
ENDBRANCH  22  23
ENDBRANCH   1  22
TORSDOF 19
ENDMDL
MODEL 2
REMARK VINA RESULT:     -11.3      0.728      7.476
REMARK SMILES CCCC[C@@H](C(=O)OCCOCCOC(=O)c1ccc(-c2c3nc(c(-c4c(F)c(F)c(F)c(F)c4F)c4ccc([nH]4)c(-c4c(F)c(F)c(F)c(F)c4F)c4nc(c(-c5c(F)c(F)c(F)c(F)c5F)c5ccc2[nH]5)C=C4)C=C3)cc1)C1(O)Cc2ccccc2C1
REMARK SMILES IDX 10 1 9 2 8 3 6 4 7 5 5 6 4 7 3 8 2 9 1 10 80 11 82 12 89 13
REMARK SMILES IDX 83 14 88 15 84 16 87 17 85 18 86 19 81 20 11 22 12 23 13 24
REMARK SMILES IDX 14 25 15 26 16 27 17 28 18 29 79 30 19 31 78 32 20 33 21 34
REMARK SMILES IDX 22 35 72 36 23 37 77 38 71 39 73 40 24 41 76 42 70 43 69 44
REMARK SMILES IDX 25 46 57 47 37 48 56 49 38 50 41 51 55 52 74 53 39 54 40 55
REMARK SMILES IDX 54 57 75 58 42 59 26 60 27 61 35 62 28 63 29 64 33 65 36 66
REMARK SMILES IDX 30 67 31 68 34 69 32 70 58 71 59 72 67 73 60 74 61 75 65 76
REMARK SMILES IDX 68 77 62 78 63 79 66 80 64 81 43 82 44 83 52 84 45 85 46 86
REMARK SMILES IDX 50 87 53 88 47 89 48 90 51 91 49 92
REMARK H PARENT 81 21 73 45 41 56
REMARK Flexibility Score: inf
ROOT
ATOM      1  C   UNL A   1      31.780  27.278  25.350  1.00  0.00     0.202 C 
ENDROOT
BRANCH   1   2
ATOM      2  C   UNL A   1      30.832  26.290  26.078  1.00  0.00     0.261 C 
BRANCH   2   3
ATOM      3  O   UNL A   1      30.889  24.978  25.480  1.00  0.00    -0.463 OA
BRANCH   3   4
ATOM      4  C   UNL A   1      31.648  24.019  26.086  1.00  0.00     0.311 C 
ATOM      5  O   UNL A   1      31.685  23.829  27.296  1.00  0.00    -0.252 OA
BRANCH   4   6
ATOM      6  C   UNL A   1      32.226  23.018  25.053  1.00  0.00     0.131 C 
BRANCH   6   7
ATOM      7  C   UNL A   1      31.856  21.531  25.401  1.00  0.00     0.018 C 
BRANCH   7   8
ATOM      8  C   UNL A   1      32.243  20.339  24.505  1.00  0.00     0.001 C 
BRANCH   8   9
ATOM      9  C   UNL A   1      32.945  19.162  25.158  1.00  0.00    -0.003 C 
ATOM     10  C   UNL A   1      34.271  18.857  24.493  1.00  0.00     0.004 C 
ENDBRANCH   8   9
ENDBRANCH   7   8
ENDBRANCH   6   7
BRANCH   6  11
ATOM     11  C   UNL A   1      33.787  23.275  24.959  1.00  0.00     0.086 C 
ATOM     12  C   UNL A   1      34.473  22.772  23.623  1.00  0.00     0.072 C 
ATOM     13  C   UNL A   1      34.538  24.639  25.071  1.00  0.00     0.072 C 
ATOM     14  C   UNL A   1      35.928  22.998  23.980  1.00  0.00    -0.042 A 
ATOM     15  C   UNL A   1      35.972  24.034  24.936  1.00  0.00    -0.042 A 
ATOM     16  C   UNL A   1      36.852  21.952  23.936  1.00  0.00     0.004 A 
ATOM     17  C   UNL A   1      36.887  23.913  25.983  1.00  0.00     0.004 A 
ATOM     18  C   UNL A   1      37.697  21.802  25.027  1.00  0.00     0.000 A 
ATOM     19  C   UNL A   1      37.697  22.762  26.052  1.00  0.00     0.000 A 
BRANCH  11  20
ATOM     20  O   UNL A   1      34.287  22.586  26.145  1.00  0.00    -0.388 OA
ATOM     21  H   UNL A   1      33.540  22.275  26.678  1.00  0.00     0.211 HD
ENDBRANCH  11  20
ENDBRANCH   6  11
ENDBRANCH   4   6
ENDBRANCH   3   4
ENDBRANCH   2   3
ENDBRANCH   1   2
BRANCH   1  22
ATOM     22  O   UNL A   1      31.285  28.572  24.975  1.00  0.00    -0.374 OA
BRANCH  22  23
ATOM     23  C   UNL A   1      32.208  29.637  25.173  1.00  0.00     0.202 C 
BRANCH  23  24
ATOM     24  C   UNL A   1      31.808  30.706  26.180  1.00  0.00     0.261 C 
BRANCH  24  25
ATOM     25  O   UNL A   1      32.671  30.567  27.302  1.00  0.00    -0.460 OA
BRANCH  25  26
ATOM     26  C   UNL A   1      33.399  31.688  27.482  1.00  0.00     0.338 C 
ATOM     27  O   UNL A   1      32.986  32.827  27.534  1.00  0.00    -0.246 OA
BRANCH  26  28
ATOM     28  C   UNL A   1      34.786  31.300  27.790  1.00  0.00     0.060 A 
ATOM     29  C   UNL A   1      35.021  29.929  27.902  1.00  0.00     0.016 A 
ATOM     30  C   UNL A   1      35.813  32.231  27.997  1.00  0.00     0.016 A 
ATOM     31  C   UNL A   1      36.237  29.486  28.385  1.00  0.00     0.010 A 
ATOM     32  C   UNL A   1      37.044  31.784  28.471  1.00  0.00     0.010 A 
ATOM     33  C   UNL A   1      37.215  30.420  28.750  1.00  0.00    -0.014 A 
BRANCH  33  34
ATOM     34  C   UNL A   1      38.266  29.966  29.678  1.00  0.00     0.031 A 
ATOM     35  C   UNL A   1      39.299  29.005  29.154  1.00  0.00     0.074 A 
ATOM     36  C   UNL A   1      38.367  30.512  30.900  1.00  0.00     0.049 A 
ATOM     37  N   UNL A   1      40.368  28.533  29.738  1.00  0.00    -0.248 NA
ATOM     38  C   UNL A   1      39.101  28.510  27.779  1.00  0.00     0.031 C 
ATOM     39  C   UNL A   1      37.440  31.493  31.461  1.00  0.00     0.029 A 
ATOM     40  N   UNL A   1      39.309  30.333  31.874  1.00  0.00    -0.354 N 
ATOM     41  C   UNL A   1      40.963  27.690  28.807  1.00  0.00     0.074 A 
ATOM     42  C   UNL A   1      40.118  27.676  27.637  1.00  0.00     0.031 C 
ATOM     43  C   UNL A   1      37.868  31.841  32.686  1.00  0.00     0.029 A 
ATOM     44  C   UNL A   1      39.079  31.084  32.998  1.00  0.00     0.049 A 
ATOM     45  H   UNL A   1      40.077  29.725  31.778  1.00  0.00     0.167 HD
ATOM     46  C   UNL A   1      42.123  27.003  28.917  1.00  0.00     0.037 A 
ATOM     47  C   UNL A   1      39.776  31.141  34.147  1.00  0.00     0.037 A 
ATOM     48  C   UNL A   1      42.954  27.038  30.090  1.00  0.00     0.049 A 
ATOM     49  C   UNL A   1      41.038  30.325  34.262  1.00  0.00     0.074 A 
ATOM     50  C   UNL A   1      44.147  26.380  30.327  1.00  0.00     0.029 A 
ATOM     51  N   UNL A   1      42.669  27.779  31.229  1.00  0.00    -0.354 N 
ATOM     52  N   UNL A   1      41.598  29.533  33.379  1.00  0.00    -0.248 NA
ATOM     53  C   UNL A   1      41.771  30.426  35.528  1.00  0.00     0.031 C 
ATOM     54  C   UNL A   1      44.554  26.678  31.631  1.00  0.00     0.029 A 
ATOM     55  C   UNL A   1      43.654  27.580  32.180  1.00  0.00     0.049 A 
ATOM     56  H   UNL A   1      41.883  28.360  31.343  1.00  0.00     0.167 HD
ATOM     57  C   UNL A   1      42.768  29.070  33.966  1.00  0.00     0.074 A 
ATOM     58  C   UNL A   1      42.842  29.686  35.276  1.00  0.00     0.031 C 
ATOM     59  C   UNL A   1      43.702  28.218  33.472  1.00  0.00     0.037 A 
BRANCH  46  60
ATOM     60  C   UNL A   1      42.533  26.136  27.760  1.00  0.00     0.064 A 
ATOM     61  C   UNL A   1      43.507  26.540  26.833  1.00  0.00     0.173 A 
ATOM     62  C   UNL A   1      41.946  24.874  27.580  1.00  0.00     0.173 A 
ATOM     63  F   UNL A   1      44.086  27.746  26.943  1.00  0.00    -0.203 F 
ATOM     64  C   UNL A   1      43.858  25.725  25.759  1.00  0.00     0.198 A 
ATOM     65  C   UNL A   1      42.323  24.049  26.525  1.00  0.00     0.198 A 
ATOM     66  F   UNL A   1      41.005  24.439  28.432  1.00  0.00    -0.203 F 
ATOM     67  F   UNL A   1      44.752  26.155  24.856  1.00  0.00    -0.200 F 
ATOM     68  C   UNL A   1      43.273  24.477  25.611  1.00  0.00     0.200 A 
ATOM     69  F   UNL A   1      41.763  22.839  26.390  1.00  0.00    -0.200 F 
ATOM     70  F   UNL A   1      43.615  23.691  24.581  1.00  0.00    -0.200 F 
ENDBRANCH  46  60
BRANCH  47  71
ATOM     71  C   UNL A   1      39.300  31.998  35.264  1.00  0.00     0.064 A 
ATOM     72  C   UNL A   1      39.669  33.347  35.359  1.00  0.00     0.173 A 
ATOM     73  C   UNL A   1      38.472  31.477  36.271  1.00  0.00     0.173 A 
ATOM     74  F   UNL A   1      40.471  33.890  34.432  1.00  0.00    -0.203 F 
ATOM     75  C   UNL A   1      39.251  34.133  36.432  1.00  0.00     0.198 A 
ATOM     76  C   UNL A   1      38.029  32.272  37.324  1.00  0.00     0.198 A 
ATOM     77  F   UNL A   1      38.085  30.193  36.225  1.00  0.00    -0.203 F 
ATOM     78  F   UNL A   1      39.664  35.404  36.528  1.00  0.00    -0.200 F 
ATOM     79  C   UNL A   1      38.427  33.597  37.410  1.00  0.00     0.200 A 
ATOM     80  F   UNL A   1      37.219  31.753  38.257  1.00  0.00    -0.200 F 
ATOM     81  F   UNL A   1      38.026  34.354  38.440  1.00  0.00    -0.200 F 
ENDBRANCH  47  71
BRANCH  59  82
ATOM     82  C   UNL A   1      44.906  27.956  34.331  1.00  0.00     0.064 A 
ATOM     83  C   UNL A   1      44.958  26.883  35.233  1.00  0.00     0.173 A 
ATOM     84  C   UNL A   1      46.032  28.790  34.236  1.00  0.00     0.173 A 
ATOM     85  F   UNL A   1      43.904  26.063  35.368  1.00  0.00    -0.203 F 
ATOM     86  C   UNL A   1      46.072  26.684  36.043  1.00  0.00     0.198 A 
ATOM     87  C   UNL A   1      47.159  28.563  35.017  1.00  0.00     0.198 A 
ATOM     88  F   UNL A   1      46.041  29.821  33.378  1.00  0.00    -0.203 F 
ATOM     89  F   UNL A   1      46.069  25.698  36.950  1.00  0.00    -0.200 F 
ATOM     90  C   UNL A   1      47.173  27.520  35.931  1.00  0.00     0.200 A 
ATOM     91  F   UNL A   1      48.230  29.359  34.894  1.00  0.00    -0.200 F 
ATOM     92  F   UNL A   1      48.244  27.327  36.713  1.00  0.00    -0.200 F 
ENDBRANCH  59  82
ENDBRANCH  33  34
ENDBRANCH  26  28
ENDBRANCH  25  26
ENDBRANCH  24  25
ENDBRANCH  23  24
ENDBRANCH  22  23
ENDBRANCH   1  22
TORSDOF 19
ENDMDL
MODEL 3
REMARK VINA RESULT:     -11.3      0.964      2.450
REMARK SMILES CCCC[C@@H](C(=O)OCCOCCOC(=O)c1ccc(-c2c3nc(c(-c4c(F)c(F)c(F)c(F)c4F)c4ccc([nH]4)c(-c4c(F)c(F)c(F)c(F)c4F)c4nc(c(-c5c(F)c(F)c(F)c(F)c5F)c5ccc2[nH]5)C=C4)C=C3)cc1)C1(O)Cc2ccccc2C1
REMARK SMILES IDX 10 1 9 2 8 3 6 4 7 5 5 6 4 7 3 8 2 9 1 10 80 11 82 12 89 13
REMARK SMILES IDX 83 14 88 15 84 16 87 17 85 18 86 19 81 20 11 22 12 23 13 24
REMARK SMILES IDX 14 25 15 26 16 27 17 28 18 29 79 30 19 31 78 32 20 33 21 34
REMARK SMILES IDX 22 35 72 36 23 37 77 38 71 39 73 40 24 41 76 42 70 43 69 44
REMARK SMILES IDX 25 46 57 47 37 48 56 49 38 50 41 51 55 52 74 53 39 54 40 55
REMARK SMILES IDX 54 57 75 58 42 59 26 60 27 61 35 62 28 63 29 64 33 65 36 66
REMARK SMILES IDX 30 67 31 68 34 69 32 70 58 71 59 72 67 73 60 74 61 75 65 76
REMARK SMILES IDX 68 77 62 78 63 79 66 80 64 81 43 82 44 83 52 84 45 85 46 86
REMARK SMILES IDX 50 87 53 88 47 89 48 90 51 91 49 92
REMARK H PARENT 81 21 73 45 41 56
REMARK Flexibility Score: inf
ROOT
ATOM      1  C   UNL A   1      32.982  28.342  27.086  1.00  0.00     0.202 C 
ENDROOT
BRANCH   1   2
ATOM      2  C   UNL A   1      32.768  27.037  26.276  1.00  0.00     0.261 C 
BRANCH   2   3
ATOM      3  O   UNL A   1      31.764  26.203  26.890  1.00  0.00    -0.463 OA
BRANCH   3   4
ATOM      4  C   UNL A   1      31.219  25.191  26.153  1.00  0.00     0.311 C 
ATOM      5  O   UNL A   1      30.372  24.411  26.573  1.00  0.00    -0.252 OA
BRANCH   4   6
ATOM      6  C   UNL A   1      31.577  25.327  24.651  1.00  0.00     0.131 C 
BRANCH   6   7
ATOM      7  C   UNL A   1      30.301  25.512  23.754  1.00  0.00     0.018 C 
BRANCH   7   8
ATOM      8  C   UNL A   1      29.422  26.776  23.798  1.00  0.00     0.001 C 
BRANCH   8   9
ATOM      9  C   UNL A   1      29.726  27.884  22.806  1.00  0.00    -0.003 C 
ATOM     10  C   UNL A   1      29.955  29.212  23.497  1.00  0.00     0.004 C 
ENDBRANCH   8   9
ENDBRANCH   7   8
ENDBRANCH   6   7
BRANCH   6  11
ATOM     11  C   UNL A   1      32.451  24.066  24.253  1.00  0.00     0.086 C 
ATOM     12  C   UNL A   1      31.677  22.933  23.461  1.00  0.00     0.072 C 
ATOM     13  C   UNL A   1      33.763  24.042  23.408  1.00  0.00     0.072 C 
ATOM     14  C   UNL A   1      32.745  21.857  23.443  1.00  0.00    -0.042 A 
ATOM     15  C   UNL A   1      33.995  22.502  23.529  1.00  0.00    -0.042 A 
ATOM     16  C   UNL A   1      32.496  20.587  23.964  1.00  0.00     0.004 A 
ATOM     17  C   UNL A   1      34.981  21.906  24.318  1.00  0.00     0.004 A 
ATOM     18  C   UNL A   1      33.454  20.048  24.813  1.00  0.00     0.000 A 
ATOM     19  C   UNL A   1      34.675  20.714  25.005  1.00  0.00     0.000 A 
BRANCH  11  20
ATOM     20  O   UNL A   1      32.949  23.611  25.548  1.00  0.00    -0.388 OA
ATOM     21  H   UNL A   1      32.677  22.692  25.695  1.00  0.00     0.211 HD
ENDBRANCH  11  20
ENDBRANCH   6  11
ENDBRANCH   4   6
ENDBRANCH   3   4
ENDBRANCH   2   3
ENDBRANCH   1   2
BRANCH   1  22
ATOM     22  O   UNL A   1      31.919  29.304  27.154  1.00  0.00    -0.374 OA
BRANCH  22  23
ATOM     23  C   UNL A   1      32.053  30.397  26.254  1.00  0.00     0.202 C 
BRANCH  23  24
ATOM     24  C   UNL A   1      32.119  31.786  26.874  1.00  0.00     0.261 C 
BRANCH  24  25
ATOM     25  O   UNL A   1      33.037  31.716  27.959  1.00  0.00    -0.460 OA
BRANCH  25  26
ATOM     26  C   UNL A   1      33.845  32.796  27.966  1.00  0.00     0.338 C 
ATOM     27  O   UNL A   1      33.510  33.960  28.012  1.00  0.00    -0.246 OA
BRANCH  26  28
ATOM     28  C   UNL A   1      35.238  32.335  28.090  1.00  0.00     0.060 A 
ATOM     29  C   UNL A   1      35.431  30.955  27.999  1.00  0.00     0.016 A 
ATOM     30  C   UNL A   1      36.314  33.202  28.322  1.00  0.00     0.016 A 
ATOM     31  C   UNL A   1      36.667  30.420  28.305  1.00  0.00     0.010 A 
ATOM     32  C   UNL A   1      37.564  32.665  28.617  1.00  0.00     0.010 A 
ATOM     33  C   UNL A   1      37.708  31.271  28.697  1.00  0.00    -0.014 A 
BRANCH  33  34
ATOM     34  C   UNL A   1      38.819  30.671  29.457  1.00  0.00     0.031 A 
ATOM     35  C   UNL A   1      38.946  31.026  30.914  1.00  0.00     0.074 A 
ATOM     36  C   UNL A   1      39.593  29.733  28.890  1.00  0.00     0.049 A 
ATOM     37  N   UNL A   1      39.774  30.565  31.814  1.00  0.00    -0.248 NA
ATOM     38  C   UNL A   1      38.006  32.039  31.429  1.00  0.00     0.031 C 
ATOM     39  C   UNL A   1      39.497  29.291  27.501  1.00  0.00     0.029 A 
ATOM     40  N   UNL A   1      40.595  28.971  29.425  1.00  0.00    -0.354 N 
ATOM     41  C   UNL A   1      39.456  31.231  32.991  1.00  0.00     0.074 A 
ATOM     42  C   UNL A   1      38.394  32.160  32.688  1.00  0.00     0.031 C 
ATOM     43  C   UNL A   1      40.402  28.320  27.292  1.00  0.00     0.029 A 
ATOM     44  C   UNL A   1      41.153  28.099  28.526  1.00  0.00     0.049 A 
ATOM     45  H   UNL A   1      40.886  29.041  30.362  1.00  0.00     0.167 HD
ATOM     46  C   UNL A   1      39.996  31.065  34.221  1.00  0.00     0.037 A 
ATOM     47  C   UNL A   1      42.164  27.227  28.694  1.00  0.00     0.037 A 
ATOM     48  C   UNL A   1      41.049  30.128  34.502  1.00  0.00     0.049 A 
ATOM     49  C   UNL A   1      42.782  27.100  30.062  1.00  0.00     0.074 A 
ATOM     50  C   UNL A   1      41.685  29.873  35.703  1.00  0.00     0.029 A 
ATOM     51  N   UNL A   1      41.622  29.287  33.557  1.00  0.00    -0.354 N 
ATOM     52  N   UNL A   1      42.478  27.728  31.173  1.00  0.00    -0.248 NA
ATOM     53  C   UNL A   1      43.873  26.130  30.201  1.00  0.00     0.031 C 
ATOM     54  C   UNL A   1      42.681  28.920  35.472  1.00  0.00     0.029 A 
ATOM     55  C   UNL A   1      42.617  28.526  34.143  1.00  0.00     0.049 A 
ATOM     56  H   UNL A   1      41.358  29.240  32.609  1.00  0.00     0.167 HD
ATOM     57  C   UNL A   1      43.311  27.204  32.151  1.00  0.00     0.074 A 
ATOM     58  C   UNL A   1      44.122  26.194  31.502  1.00  0.00     0.031 C 
ATOM     59  C   UNL A   1      43.400  27.521  33.468  1.00  0.00     0.037 A 
BRANCH  46  60
ATOM     60  C   UNL A   1      39.482  31.938  35.331  1.00  0.00     0.064 A 
ATOM     61  C   UNL A   1      38.550  31.476  36.273  1.00  0.00     0.173 A 
ATOM     62  C   UNL A   1      39.939  33.259  35.460  1.00  0.00     0.173 A 
ATOM     63  F   UNL A   1      38.062  30.229  36.186  1.00  0.00    -0.203 F 
ATOM     64  C   UNL A   1      38.076  32.309  37.284  1.00  0.00     0.198 A 
ATOM     65  C   UNL A   1      39.489  34.078  36.491  1.00  0.00     0.198 A 
ATOM     66  F   UNL A   1      40.826  33.756  34.585  1.00  0.00    -0.203 F 
ATOM     67  F   UNL A   1      37.145  31.863  38.140  1.00  0.00    -0.200 F 
ATOM     68  C   UNL A   1      38.552  33.606  37.398  1.00  0.00     0.200 A 
ATOM     69  F   UNL A   1      39.959  35.329  36.604  1.00  0.00    -0.200 F 
ATOM     70  F   UNL A   1      38.101  34.406  38.374  1.00  0.00    -0.200 F 
ENDBRANCH  46  60
BRANCH  47  71
ATOM     71  C   UNL A   1      42.643  26.414  27.545  1.00  0.00     0.064 A 
ATOM     72  C   UNL A   1      42.110  25.146  27.274  1.00  0.00     0.173 A 
ATOM     73  C   UNL A   1      43.659  26.887  26.700  1.00  0.00     0.173 A 
ATOM     74  F   UNL A   1      41.148  24.641  28.061  1.00  0.00    -0.203 F 
ATOM     75  C   UNL A   1      42.593  24.373  26.221  1.00  0.00     0.198 A 
ATOM     76  C   UNL A   1      44.118  26.126  25.628  1.00  0.00     0.198 A 
ATOM     77  F   UNL A   1      44.200  28.096  26.912  1.00  0.00    -0.203 F 
ATOM     78  F   UNL A   1      42.104  23.142  26.018  1.00  0.00    -0.200 F 
ATOM     79  C   UNL A   1      43.592  24.866  25.395  1.00  0.00     0.200 A 
ATOM     80  F   UNL A   1      45.071  26.615  24.823  1.00  0.00    -0.200 F 
ATOM     81  F   UNL A   1      44.055  24.121  24.381  1.00  0.00    -0.200 F 
ENDBRANCH  47  71
BRANCH  59  82
ATOM     82  C   UNL A   1      44.366  26.722  34.296  1.00  0.00     0.064 A 
ATOM     83  C   UNL A   1      45.693  27.134  34.494  1.00  0.00     0.173 A 
ATOM     84  C   UNL A   1      43.948  25.532  34.912  1.00  0.00     0.173 A 
ATOM     85  F   UNL A   1      46.144  28.259  33.919  1.00  0.00    -0.203 F 
ATOM     86  C   UNL A   1      46.578  26.357  35.236  1.00  0.00     0.198 A 
ATOM     87  C   UNL A   1      44.824  24.780  35.686  1.00  0.00     0.198 A 
ATOM     88  F   UNL A   1      42.686  25.102  34.767  1.00  0.00    -0.203 F 
ATOM     89  F   UNL A   1      47.860  26.731  35.350  1.00  0.00    -0.200 F 
ATOM     90  C   UNL A   1      46.142  25.185  35.836  1.00  0.00     0.200 A 
ATOM     91  F   UNL A   1      44.397  23.659  36.282  1.00  0.00    -0.200 F 
ATOM     92  F   UNL A   1      46.997  24.438  36.549  1.00  0.00    -0.200 F 
ENDBRANCH  59  82
ENDBRANCH  33  34
ENDBRANCH  26  28
ENDBRANCH  25  26
ENDBRANCH  24  25
ENDBRANCH  23  24
ENDBRANCH  22  23
ENDBRANCH   1  22
TORSDOF 19
ENDMDL
