MODEL 1
REMARK VINA RESULT:     -12.4      0.000      0.000
REMARK SMILES O=C(COc1ccccc1/C=N/N1[C@@H](S)N=N[C@H]1[C@@H]1C=C(c2ccccc2)N=N1)OCCOCCOC(=O)c1ccc(-c2c3nc(c(-c4c(F)c(F)c(F)c(F)c4F)c4ccc([nH]4)c(-c4c(F)c(F)c(F)c(F)c4F)c4nc(c(-c5c(F)c(F)c(F)c(F)c5F)c5ccc2[nH]5)C=C4)C=C3)cc1
REMARK SMILES IDX 31 1 30 2 2 3 1 4 3 5 4 6 5 7 6 8 10 9 7 10 9 11 8 12 11 13
REMARK SMILES IDX 12 14 13 15 14 16 18 17 16 18 17 19 15 20 19 22 20 23 29 24
REMARK SMILES IDX 21 25 28 26 22 27 23 28 27 29 24 30 26 31 25 32 32 33 33 34
REMARK SMILES IDX 34 35 35 36 36 37 37 38 38 39 39 40 40 41 101 42 41 43
REMARK SMILES IDX 100 44 42 45 43 46 44 47 94 48 45 49 99 50 93 51 95 52 46 53
REMARK SMILES IDX 98 54 92 55 91 56 47 58 79 59 59 60 78 61 60 62 63 63 77 64
REMARK SMILES IDX 96 65 61 66 62 67 76 69 97 70 64 71 48 72 49 73 57 74 50 75
REMARK SMILES IDX 51 76 55 77 58 78 52 79 53 80 56 81 54 82 80 83 81 84 89 85
REMARK SMILES IDX 82 86 83 87 87 88 90 89 84 90 85 91 88 92 86 93 65 94 66 95
REMARK SMILES IDX 74 96 67 97 68 98 72 99 75 100 69 101 70 102 73 103 71 104
REMARK H PARENT 15 21 95 57 63 68
REMARK Flexibility Score: inf
ROOT
ATOM      1  C   UNL A   1      38.243  21.481  25.419  1.00  0.00     0.261 C 
ENDROOT
BRANCH   1   2
ATOM      2  O   UNL A   1      37.971  22.879  25.595  1.00  0.00    -0.461 OA
BRANCH   2   3
ATOM      3  C   UNL A   1      36.653  23.257  25.557  1.00  0.00     0.344 C 
ATOM      4  O   UNL A   1      36.200  24.347  25.850  1.00  0.00    -0.248 OA
BRANCH   3   5
ATOM      5  C   UNL A   1      35.803  22.124  25.020  1.00  0.00     0.352 C 
BRANCH   5   6
ATOM      6  O   UNL A   1      34.474  22.534  25.306  1.00  0.00    -0.481 OA
BRANCH   6   7
ATOM      7  C   UNL A   1      33.476  21.817  24.707  1.00  0.00     0.129 A 
ATOM      8  C   UNL A   1      33.427  20.463  25.043  1.00  0.00     0.047 A 
ATOM      9  C   UNL A   1      32.833  22.283  23.547  1.00  0.00     0.037 A 
ATOM     10  C   UNL A   1      32.799  19.558  24.189  1.00  0.00     0.004 A 
ATOM     11  C   UNL A   1      32.214  21.368  22.690  1.00  0.00     0.013 A 
ATOM     12  C   UNL A   1      32.220  20.006  23.001  1.00  0.00     0.001 A 
BRANCH   9  13
ATOM     13  C   UNL A   1      32.875  23.712  23.175  1.00  0.00     0.145 C 
ATOM     14  N   UNL A   1      31.814  24.469  23.085  1.00  0.00    -0.180 NA
BRANCH  14  15
ATOM     15  N   UNL A   1      32.160  25.715  22.648  1.00  0.00    -0.233 NA
ATOM     16  C   UNL A   1      33.235  25.903  21.666  1.00  0.00     0.298 C 
ATOM     17  C   UNL A   1      32.569  26.747  23.625  1.00  0.00     0.274 C 
ATOM     18  N   UNL A   1      33.617  27.336  21.730  1.00  0.00    -0.153 NA
ATOM     19  N   UNL A   1      33.242  27.817  22.832  1.00  0.00    -0.161 NA
BRANCH  16  20
ATOM     20  S   UNL A   1      32.770  25.269  20.029  1.00  0.00    -0.128 SA
ATOM     21  H   UNL A   1      33.674  24.333  19.632  1.00  0.00     0.106 HD
ENDBRANCH  16  20
BRANCH  17  22
ATOM     22  C   UNL A   1      31.444  27.393  24.472  1.00  0.00     0.202 C 
ATOM     23  C   UNL A   1      30.197  27.779  23.724  1.00  0.00     0.037 C 
ATOM     24  N   UNL A   1      31.912  28.698  24.991  1.00  0.00    -0.177 NA
ATOM     25  C   UNL A   1      30.154  29.110  23.781  1.00  0.00     0.091 C 
ATOM     26  N   UNL A   1      31.209  29.611  24.494  1.00  0.00    -0.155 NA
BRANCH  25  27
ATOM     27  C   UNL A   1      29.187  30.075  23.250  1.00  0.00     0.002 A 
ATOM     28  C   UNL A   1      28.597  29.876  21.998  1.00  0.00     0.010 A 
ATOM     29  C   UNL A   1      29.099  31.343  23.844  1.00  0.00     0.010 A 
ATOM     30  C   UNL A   1      28.049  30.957  21.298  1.00  0.00     0.001 A 
ATOM     31  C   UNL A   1      28.554  32.421  23.144  1.00  0.00     0.001 A 
ATOM     32  C   UNL A   1      28.059  32.234  21.856  1.00  0.00     0.000 A 
ENDBRANCH  25  27
ENDBRANCH  17  22
ENDBRANCH  14  15
ENDBRANCH   9  13
ENDBRANCH   6   7
ENDBRANCH   5   6
ENDBRANCH   3   5
ENDBRANCH   2   3
ENDBRANCH   1   2
BRANCH   1  33
ATOM     33  C   UNL A   1      39.545  21.061  26.077  1.00  0.00     0.202 C 
BRANCH  33  34
ATOM     34  O   UNL A   1      40.079  19.776  25.769  1.00  0.00    -0.374 OA
BRANCH  34  35
ATOM     35  C   UNL A   1      41.387  19.441  26.214  1.00  0.00     0.202 C 
BRANCH  35  36
ATOM     36  C   UNL A   1      42.375  20.581  26.427  1.00  0.00     0.261 C 
BRANCH  36  37
ATOM     37  O   UNL A   1      43.730  20.218  26.180  1.00  0.00    -0.460 OA
BRANCH  37  38
ATOM     38  C   UNL A   1      44.137  20.432  24.917  1.00  0.00     0.338 C 
ATOM     39  O   UNL A   1      44.224  19.595  24.020  1.00  0.00    -0.246 OA
BRANCH  38  40
ATOM     40  C   UNL A   1      44.736  21.768  24.796  1.00  0.00     0.060 A 
ATOM     41  C   UNL A   1      45.648  22.063  25.812  1.00  0.00     0.016 A 
ATOM     42  C   UNL A   1      43.985  22.766  24.156  1.00  0.00     0.016 A 
ATOM     43  C   UNL A   1      45.523  23.275  26.443  1.00  0.00     0.010 A 
ATOM     44  C   UNL A   1      43.860  23.979  24.792  1.00  0.00     0.010 A 
ATOM     45  C   UNL A   1      44.540  24.163  25.992  1.00  0.00    -0.014 A 
BRANCH  45  46
ATOM     46  C   UNL A   1      44.282  25.318  26.825  1.00  0.00     0.031 A 
ATOM     47  C   UNL A   1      45.327  26.353  26.711  1.00  0.00     0.074 A 
ATOM     48  C   UNL A   1      43.172  25.442  27.576  1.00  0.00     0.049 A 
ATOM     49  N   UNL A   1      46.125  26.787  27.629  1.00  0.00    -0.248 NA
ATOM     50  C   UNL A   1      45.612  26.856  25.359  1.00  0.00     0.031 C 
ATOM     51  C   UNL A   1      41.958  24.625  27.556  1.00  0.00     0.029 A 
ATOM     52  N   UNL A   1      42.869  26.420  28.471  1.00  0.00    -0.354 N 
ATOM     53  C   UNL A   1      46.910  27.747  27.003  1.00  0.00     0.074 A 
ATOM     54  C   UNL A   1      46.670  27.631  25.589  1.00  0.00     0.031 C 
ATOM     55  C   UNL A   1      40.977  25.274  28.227  1.00  0.00     0.029 A 
ATOM     56  C   UNL A   1      41.529  26.482  28.819  1.00  0.00     0.049 A 
ATOM     57  H   UNL A   1      43.545  27.033  28.841  1.00  0.00     0.167 HD
ATOM     58  C   UNL A   1      47.521  28.733  27.709  1.00  0.00     0.037 A 
ATOM     59  C   UNL A   1      40.924  27.510  29.463  1.00  0.00     0.037 A 
ATOM     60  C   UNL A   1      47.677  28.382  29.093  1.00  0.00     0.049 A 
ATOM     61  C   UNL A   1      41.987  28.320  30.116  1.00  0.00     0.074 A 
ATOM     62  C   UNL A   1      48.345  27.371  29.759  1.00  0.00     0.029 A 
ATOM     63  N   UNL A   1      46.795  28.903  30.007  1.00  0.00    -0.354 N 
ATOM     64  N   UNL A   1      42.692  27.917  31.136  1.00  0.00    -0.248 NA
ATOM     65  C   UNL A   1      42.569  29.416  29.352  1.00  0.00     0.031 C 
ATOM     66  C   UNL A   1      47.506  27.028  30.859  1.00  0.00     0.029 A 
ATOM     67  C   UNL A   1      46.399  27.876  30.825  1.00  0.00     0.049 A 
ATOM     68  H   UNL A   1      46.500  29.841  30.063  1.00  0.00     0.167 HD
ATOM     69  C   UNL A   1      43.971  28.402  30.897  1.00  0.00     0.074 A 
ATOM     70  C   UNL A   1      43.813  29.392  29.836  1.00  0.00     0.031 C 
ATOM     71  C   UNL A   1      45.071  27.756  31.381  1.00  0.00     0.037 A 
BRANCH  58  72
ATOM     72  C   UNL A   1      47.652  30.136  27.188  1.00  0.00     0.064 A 
ATOM     73  C   UNL A   1      48.901  30.779  27.231  1.00  0.00     0.173 A 
ATOM     74  C   UNL A   1      46.544  30.964  26.895  1.00  0.00     0.173 A 
ATOM     75  F   UNL A   1      50.011  30.094  27.542  1.00  0.00    -0.203 F 
ATOM     76  C   UNL A   1      49.021  32.158  27.036  1.00  0.00     0.198 A 
ATOM     77  C   UNL A   1      46.677  32.325  26.640  1.00  0.00     0.198 A 
ATOM     78  F   UNL A   1      45.285  30.516  26.953  1.00  0.00    -0.203 F 
ATOM     79  F   UNL A   1      50.212  32.750  27.199  1.00  0.00    -0.200 F 
ATOM     80  C   UNL A   1      47.910  32.928  26.739  1.00  0.00     0.200 A 
ATOM     81  F   UNL A   1      45.584  33.055  26.376  1.00  0.00    -0.200 F 
ATOM     82  F   UNL A   1      48.018  34.256  26.600  1.00  0.00    -0.200 F 
ENDBRANCH  58  72
BRANCH  59  83
ATOM     83  C   UNL A   1      39.549  28.028  29.265  1.00  0.00     0.064 A 
ATOM     84  C   UNL A   1      38.654  28.136  30.342  1.00  0.00     0.173 A 
ATOM     85  C   UNL A   1      39.177  28.683  28.074  1.00  0.00     0.173 A 
ATOM     86  F   UNL A   1      38.954  27.584  31.526  1.00  0.00    -0.203 F 
ATOM     87  C   UNL A   1      37.469  28.873  30.239  1.00  0.00     0.198 A 
ATOM     88  C   UNL A   1      37.990  29.409  27.970  1.00  0.00     0.198 A 
ATOM     89  F   UNL A   1      40.001  28.716  27.018  1.00  0.00    -0.203 F 
ATOM     90  F   UNL A   1      36.670  29.007  31.307  1.00  0.00    -0.200 F 
ATOM     91  C   UNL A   1      37.143  29.515  29.056  1.00  0.00     0.200 A 
ATOM     92  F   UNL A   1      37.706  30.057  26.832  1.00  0.00    -0.200 F 
ATOM     93  F   UNL A   1      36.038  30.270  28.976  1.00  0.00    -0.200 F 
ENDBRANCH  59  83
BRANCH  71  94
ATOM     94  C   UNL A   1      44.848  26.659  32.385  1.00  0.00     0.064 A 
ATOM     95  C   UNL A   1      44.614  25.317  32.039  1.00  0.00     0.173 A 
ATOM     96  C   UNL A   1      45.011  26.954  33.745  1.00  0.00     0.173 A 
ATOM     97  F   UNL A   1      44.553  24.936  30.757  1.00  0.00    -0.203 F 
ATOM     98  C   UNL A   1      44.496  24.327  33.014  1.00  0.00     0.198 A 
ATOM     99  C   UNL A   1      44.933  25.957  34.715  1.00  0.00     0.198 A 
ATOM    100  F   UNL A   1      45.295  28.206  34.133  1.00  0.00    -0.203 F 
ATOM    101  F   UNL A   1      44.255  23.057  32.659  1.00  0.00    -0.200 F 
ATOM    102  C   UNL A   1      44.664  24.648  34.351  1.00  0.00     0.200 A 
ATOM    103  F   UNL A   1      45.147  26.262  36.002  1.00  0.00    -0.200 F 
ATOM    104  F   UNL A   1      44.592  23.690  35.287  1.00  0.00    -0.200 F 
ENDBRANCH  71  94
ENDBRANCH  45  46
ENDBRANCH  38  40
ENDBRANCH  37  38
ENDBRANCH  36  37
ENDBRANCH  35  36
ENDBRANCH  34  35
ENDBRANCH  33  34
ENDBRANCH   1  33
TORSDOF 21
ENDMDL
MODEL 2
REMARK VINA RESULT:     -11.9      2.583      3.615
REMARK SMILES O=C(COc1ccccc1/C=N/N1[C@@H](S)N=N[C@H]1[C@@H]1C=C(c2ccccc2)N=N1)OCCOCCOC(=O)c1ccc(-c2c3nc(c(-c4c(F)c(F)c(F)c(F)c4F)c4ccc([nH]4)c(-c4c(F)c(F)c(F)c(F)c4F)c4nc(c(-c5c(F)c(F)c(F)c(F)c5F)c5ccc2[nH]5)C=C4)C=C3)cc1
REMARK SMILES IDX 31 1 30 2 2 3 1 4 3 5 4 6 5 7 6 8 10 9 7 10 9 11 8 12 11 13
REMARK SMILES IDX 12 14 13 15 14 16 18 17 16 18 17 19 15 20 19 22 20 23 29 24
REMARK SMILES IDX 21 25 28 26 22 27 23 28 27 29 24 30 26 31 25 32 32 33 33 34
REMARK SMILES IDX 34 35 35 36 36 37 37 38 38 39 39 40 40 41 101 42 41 43
REMARK SMILES IDX 100 44 42 45 43 46 44 47 94 48 45 49 99 50 93 51 95 52 46 53
REMARK SMILES IDX 98 54 92 55 91 56 47 58 79 59 59 60 78 61 60 62 63 63 77 64
REMARK SMILES IDX 96 65 61 66 62 67 76 69 97 70 64 71 48 72 49 73 57 74 50 75
REMARK SMILES IDX 51 76 55 77 58 78 52 79 53 80 56 81 54 82 80 83 81 84 89 85
REMARK SMILES IDX 82 86 83 87 87 88 90 89 84 90 85 91 88 92 86 93 65 94 66 95
REMARK SMILES IDX 74 96 67 97 68 98 72 99 75 100 69 101 70 102 73 103 71 104
REMARK H PARENT 15 21 95 57 63 68
REMARK Flexibility Score: inf
ROOT
ATOM      1  C   UNL A   1      37.687  22.231  25.812  1.00  0.00     0.261 C 
ENDROOT
BRANCH   1   2
ATOM      2  O   UNL A   1      37.079  23.500  26.098  1.00  0.00    -0.461 OA
BRANCH   2   3
ATOM      3  C   UNL A   1      35.754  23.633  25.770  1.00  0.00     0.344 C 
ATOM      4  O   UNL A   1      35.197  24.647  25.395  1.00  0.00    -0.248 OA
BRANCH   3   5
ATOM      5  C   UNL A   1      35.056  22.293  25.874  1.00  0.00     0.352 C 
BRANCH   5   6
ATOM      6  O   UNL A   1      33.677  22.624  25.801  1.00  0.00    -0.481 OA
BRANCH   6   7
ATOM      7  C   UNL A   1      32.908  21.844  24.983  1.00  0.00     0.129 A 
ATOM      8  C   UNL A   1      32.824  20.499  25.347  1.00  0.00     0.047 A 
ATOM      9  C   UNL A   1      32.586  22.248  23.676  1.00  0.00     0.037 A 
ATOM     10  C   UNL A   1      32.487  19.542  24.390  1.00  0.00     0.004 A 
ATOM     11  C   UNL A   1      32.259  21.281  22.720  1.00  0.00     0.013 A 
ATOM     12  C   UNL A   1      32.234  19.929  23.074  1.00  0.00     0.001 A 
BRANCH   9  13
ATOM     13  C   UNL A   1      32.670  23.666  23.274  1.00  0.00     0.145 C 
ATOM     14  N   UNL A   1      31.633  24.390  22.946  1.00  0.00    -0.180 NA
BRANCH  14  15
ATOM     15  N   UNL A   1      32.032  25.633  22.548  1.00  0.00    -0.233 NA
ATOM     16  C   UNL A   1      33.134  25.806  21.593  1.00  0.00     0.298 C 
ATOM     17  C   UNL A   1      32.457  26.625  23.559  1.00  0.00     0.274 C 
ATOM     18  N   UNL A   1      33.566  27.222  21.701  1.00  0.00    -0.153 NA
ATOM     19  N   UNL A   1      33.184  27.689  22.807  1.00  0.00    -0.161 NA
BRANCH  16  20
ATOM     20  S   UNL A   1      32.682  25.229  19.932  1.00  0.00    -0.128 SA
ATOM     21  H   UNL A   1      33.804  24.841  19.266  1.00  0.00     0.106 HD
ENDBRANCH  16  20
BRANCH  17  22
ATOM     22  C   UNL A   1      31.338  27.291  24.399  1.00  0.00     0.202 C 
ATOM     23  C   UNL A   1      30.115  27.725  23.638  1.00  0.00     0.037 C 
ATOM     24  N   UNL A   1      31.836  28.573  24.946  1.00  0.00    -0.177 NA
ATOM     25  C   UNL A   1      30.111  29.056  23.716  1.00  0.00     0.091 C 
ATOM     26  N   UNL A   1      31.168  29.514  24.453  1.00  0.00    -0.155 NA
BRANCH  25  27
ATOM     27  C   UNL A   1      29.181  30.058  23.186  1.00  0.00     0.002 A 
ATOM     28  C   UNL A   1      28.644  29.922  21.901  1.00  0.00     0.010 A 
ATOM     29  C   UNL A   1      29.083  31.299  23.830  1.00  0.00     0.010 A 
ATOM     30  C   UNL A   1      28.142  31.039  21.226  1.00  0.00     0.001 A 
ATOM     31  C   UNL A   1      28.583  32.415  23.155  1.00  0.00     0.001 A 
ATOM     32  C   UNL A   1      28.144  32.291  21.840  1.00  0.00     0.000 A 
ENDBRANCH  25  27
ENDBRANCH  17  22
ENDBRANCH  14  15
ENDBRANCH   9  13
ENDBRANCH   6   7
ENDBRANCH   5   6
ENDBRANCH   3   5
ENDBRANCH   2   3
ENDBRANCH   1   2
BRANCH   1  33
ATOM     33  C   UNL A   1      39.194  22.261  25.994  1.00  0.00     0.202 C 
BRANCH  33  34
ATOM     34  O   UNL A   1      39.875  21.030  26.225  1.00  0.00    -0.374 OA
BRANCH  34  35
ATOM     35  C   UNL A   1      41.282  20.966  26.027  1.00  0.00     0.202 C 
BRANCH  35  36
ATOM     36  C   UNL A   1      42.109  22.178  26.438  1.00  0.00     0.261 C 
BRANCH  36  37
ATOM     37  O   UNL A   1      42.740  22.835  25.343  1.00  0.00    -0.460 OA
BRANCH  37  38
ATOM     38  C   UNL A   1      42.771  24.175  25.448  1.00  0.00     0.338 C 
ATOM     39  O   UNL A   1      43.636  24.928  25.004  1.00  0.00    -0.246 OA
BRANCH  38  40
ATOM     40  C   UNL A   1      41.758  24.634  26.408  1.00  0.00     0.060 A 
ATOM     41  C   UNL A   1      40.875  25.577  25.876  1.00  0.00     0.016 A 
ATOM     42  C   UNL A   1      42.089  24.608  27.770  1.00  0.00     0.016 A 
ATOM     43  C   UNL A   1      40.639  26.710  26.614  1.00  0.00     0.010 A 
ATOM     44  C   UNL A   1      41.852  25.745  28.508  1.00  0.00     0.010 A 
ATOM     45  C   UNL A   1      41.238  26.822  27.874  1.00  0.00    -0.014 A 
BRANCH  45  46
ATOM     46  C   UNL A   1      41.160  28.116  28.514  1.00  0.00     0.031 A 
ATOM     47  C   UNL A   1      42.294  28.996  28.170  1.00  0.00     0.074 A 
ATOM     48  C   UNL A   1      40.128  28.484  29.296  1.00  0.00     0.049 A 
ATOM     49  N   UNL A   1      43.197  29.480  28.954  1.00  0.00    -0.248 NA
ATOM     50  C   UNL A   1      42.527  29.240  26.738  1.00  0.00     0.031 C 
ATOM     51  C   UNL A   1      38.839  27.814  29.482  1.00  0.00     0.029 A 
ATOM     52  N   UNL A   1      39.993  29.620  30.030  1.00  0.00    -0.354 N 
ATOM     53  C   UNL A   1      44.027  30.233  28.133  1.00  0.00     0.074 A 
ATOM     54  C   UNL A   1      43.672  29.919  26.774  1.00  0.00     0.031 C 
ATOM     55  C   UNL A   1      37.982  28.669  30.089  1.00  0.00     0.029 A 
ATOM     56  C   UNL A   1      38.696  29.886  30.437  1.00  0.00     0.049 A 
ATOM     57  H   UNL A   1      40.753  30.205  30.253  1.00  0.00     0.167 HD
ATOM     58  C   UNL A   1      44.785  31.245  28.628  1.00  0.00     0.037 A 
ATOM     59  C   UNL A   1      38.247  31.066  30.933  1.00  0.00     0.037 A 
ATOM     60  C   UNL A   1      45.007  31.105  30.040  1.00  0.00     0.049 A 
ATOM     61  C   UNL A   1      39.432  31.846  31.380  1.00  0.00     0.074 A 
ATOM     62  C   UNL A   1      45.618  30.147  30.828  1.00  0.00     0.029 A 
ATOM     63  N   UNL A   1      44.253  31.863  30.902  1.00  0.00    -0.354 N 
ATOM     64  N   UNL A   1      40.167  31.536  32.411  1.00  0.00    -0.248 NA
ATOM     65  C   UNL A   1      40.063  32.733  30.411  1.00  0.00     0.031 C 
ATOM     66  C   UNL A   1      44.832  30.081  32.015  1.00  0.00     0.029 A 
ATOM     67  C   UNL A   1      43.817  31.031  31.902  1.00  0.00     0.049 A 
ATOM     68  H   UNL A   1      44.059  32.824  30.816  1.00  0.00     0.167 HD
ATOM     69  C   UNL A   1      41.466  31.831  32.022  1.00  0.00     0.074 A 
ATOM     70  C   UNL A   1      41.331  32.648  30.821  1.00  0.00     0.031 C 
ATOM     71  C   UNL A   1      42.529  31.152  32.544  1.00  0.00     0.037 A 
BRANCH  58  72
ATOM     72  C   UNL A   1      45.018  32.522  27.872  1.00  0.00     0.064 A 
ATOM     73  C   UNL A   1      46.276  32.770  27.297  1.00  0.00     0.173 A 
ATOM     74  C   UNL A   1      44.137  33.627  27.919  1.00  0.00     0.173 A 
ATOM     75  F   UNL A   1      47.203  31.802  27.241  1.00  0.00    -0.203 F 
ATOM     76  C   UNL A   1      46.637  34.041  26.843  1.00  0.00     0.198 A 
ATOM     77  C   UNL A   1      44.477  34.875  27.410  1.00  0.00     0.198 A 
ATOM     78  F   UNL A   1      42.962  33.574  28.557  1.00  0.00    -0.203 F 
ATOM     79  F   UNL A   1      47.885  34.262  26.408  1.00  0.00    -0.200 F 
ATOM     80  C   UNL A   1      45.737  35.091  26.898  1.00  0.00     0.200 A 
ATOM     81  F   UNL A   1      43.597  35.883  27.493  1.00  0.00    -0.200 F 
ATOM     82  F   UNL A   1      46.098  36.320  26.507  1.00  0.00    -0.200 F 
ENDBRANCH  58  72
BRANCH  59  83
ATOM     83  C   UNL A   1      36.920  31.696  30.729  1.00  0.00     0.064 A 
ATOM     84  C   UNL A   1      36.026  31.861  31.799  1.00  0.00     0.173 A 
ATOM     85  C   UNL A   1      36.615  32.395  29.544  1.00  0.00     0.173 A 
ATOM     86  F   UNL A   1      36.267  31.272  32.979  1.00  0.00    -0.203 F 
ATOM     87  C   UNL A   1      34.905  32.693  31.695  1.00  0.00     0.198 A 
ATOM     88  C   UNL A   1      35.492  33.215  29.440  1.00  0.00     0.198 A 
ATOM     89  F   UNL A   1      37.450  32.375  28.497  1.00  0.00    -0.203 F 
ATOM     90  F   UNL A   1      34.108  32.877  32.758  1.00  0.00    -0.200 F 
ATOM     91  C   UNL A   1      34.644  33.375  30.519  1.00  0.00     0.200 A 
ATOM     92  F   UNL A   1      35.273  33.900  28.308  1.00  0.00    -0.200 F 
ATOM     93  F   UNL A   1      33.605  34.218  30.439  1.00  0.00    -0.200 F 
ENDBRANCH  59  83
BRANCH  71  94
ATOM     94  C   UNL A   1      42.271  30.263  33.730  1.00  0.00     0.064 A 
ATOM     95  C   UNL A   1      41.865  28.920  33.628  1.00  0.00     0.173 A 
ATOM     96  C   UNL A   1      42.577  30.747  35.008  1.00  0.00     0.173 A 
ATOM     97  F   UNL A   1      41.658  28.351  32.433  1.00  0.00    -0.203 F 
ATOM     98  C   UNL A   1      41.722  28.119  34.760  1.00  0.00     0.198 A 
ATOM     99  C   UNL A   1      42.471  29.933  36.134  1.00  0.00     0.198 A 
ATOM    100  F   UNL A   1      43.026  32.001  35.163  1.00  0.00    -0.203 F 
ATOM    101  F   UNL A   1      41.315  26.847  34.637  1.00  0.00    -0.200 F 
ATOM    102  C   UNL A   1      42.032  28.624  36.011  1.00  0.00     0.200 A 
ATOM    103  F   UNL A   1      42.822  30.409  37.336  1.00  0.00    -0.200 F 
ATOM    104  F   UNL A   1      41.935  27.843  37.096  1.00  0.00    -0.200 F 
ENDBRANCH  71  94
ENDBRANCH  45  46
ENDBRANCH  38  40
ENDBRANCH  37  38
ENDBRANCH  36  37
ENDBRANCH  35  36
ENDBRANCH  34  35
ENDBRANCH  33  34
ENDBRANCH   1  33
TORSDOF 21
ENDMDL
MODEL 3
REMARK VINA RESULT:     -11.1      2.945      4.277
REMARK SMILES O=C(COc1ccccc1/C=N/N1[C@@H](S)N=N[C@H]1[C@@H]1C=C(c2ccccc2)N=N1)OCCOCCOC(=O)c1ccc(-c2c3nc(c(-c4c(F)c(F)c(F)c(F)c4F)c4ccc([nH]4)c(-c4c(F)c(F)c(F)c(F)c4F)c4nc(c(-c5c(F)c(F)c(F)c(F)c5F)c5ccc2[nH]5)C=C4)C=C3)cc1
REMARK SMILES IDX 31 1 30 2 2 3 1 4 3 5 4 6 5 7 6 8 10 9 7 10 9 11 8 12 11 13
REMARK SMILES IDX 12 14 13 15 14 16 18 17 16 18 17 19 15 20 19 22 20 23 29 24
REMARK SMILES IDX 21 25 28 26 22 27 23 28 27 29 24 30 26 31 25 32 32 33 33 34
REMARK SMILES IDX 34 35 35 36 36 37 37 38 38 39 39 40 40 41 101 42 41 43
REMARK SMILES IDX 100 44 42 45 43 46 44 47 94 48 45 49 99 50 93 51 95 52 46 53
REMARK SMILES IDX 98 54 92 55 91 56 47 58 79 59 59 60 78 61 60 62 63 63 77 64
REMARK SMILES IDX 96 65 61 66 62 67 76 69 97 70 64 71 48 72 49 73 57 74 50 75
REMARK SMILES IDX 51 76 55 77 58 78 52 79 53 80 56 81 54 82 80 83 81 84 89 85
REMARK SMILES IDX 82 86 83 87 87 88 90 89 84 90 85 91 88 92 86 93 65 94 66 95
REMARK SMILES IDX 74 96 67 97 68 98 72 99 75 100 69 101 70 102 73 103 71 104
REMARK H PARENT 15 21 95 57 63 68
REMARK Flexibility Score: inf
ROOT
ATOM      1  C   UNL A   1      37.174  22.223  25.568  1.00  0.00     0.261 C 
ENDROOT
BRANCH   1   2
ATOM      2  O   UNL A   1      36.371  23.196  26.253  1.00  0.00    -0.461 OA
BRANCH   2   3
ATOM      3  C   UNL A   1      35.028  22.931  26.339  1.00  0.00     0.344 C 
ATOM      4  O   UNL A   1      34.226  23.472  27.076  1.00  0.00    -0.248 OA
BRANCH   3   5
ATOM      5  C   UNL A   1      34.638  21.886  25.314  1.00  0.00     0.352 C 
BRANCH   5   6
ATOM      6  O   UNL A   1      33.227  21.794  25.446  1.00  0.00    -0.481 OA
BRANCH   6   7
ATOM      7  C   UNL A   1      32.567  21.132  24.449  1.00  0.00     0.129 A 
ATOM      8  C   UNL A   1      32.394  19.761  24.654  1.00  0.00     0.047 A 
ATOM      9  C   UNL A   1      32.452  21.676  23.159  1.00  0.00     0.037 A 
ATOM     10  C   UNL A   1      32.177  18.919  23.565  1.00  0.00     0.004 A 
ATOM     11  C   UNL A   1      32.244  20.823  22.070  1.00  0.00     0.013 A 
ATOM     12  C   UNL A   1      32.131  19.446  22.273  1.00  0.00     0.001 A 
BRANCH   9  13
ATOM     13  C   UNL A   1      32.632  23.123  22.923  1.00  0.00     0.145 C 
ATOM     14  N   UNL A   1      31.648  23.945  22.675  1.00  0.00    -0.180 NA
BRANCH  14  15
ATOM     15  N   UNL A   1      32.131  25.197  22.425  1.00  0.00    -0.233 NA
ATOM     16  C   UNL A   1      33.068  25.441  21.321  1.00  0.00     0.298 C 
ATOM     17  C   UNL A   1      32.846  25.933  23.490  1.00  0.00     0.274 C 
ATOM     18  N   UNL A   1      33.692  26.763  21.584  1.00  0.00    -0.153 NA
ATOM     19  N   UNL A   1      33.567  27.045  22.805  1.00  0.00    -0.161 NA
BRANCH  16  20
ATOM     20  S   UNL A   1      32.271  25.238  19.703  1.00  0.00    -0.128 SA
ATOM     21  H   UNL A   1      32.942  24.300  18.982  1.00  0.00     0.106 HD
ENDBRANCH  16  20
BRANCH  17  22
ATOM     22  C   UNL A   1      31.981  26.531  24.628  1.00  0.00     0.202 C 
ATOM     23  C   UNL A   1      32.180  27.996  24.904  1.00  0.00     0.037 C 
ATOM     24  N   UNL A   1      32.374  25.915  25.915  1.00  0.00    -0.177 NA
ATOM     25  C   UNL A   1      32.716  28.051  26.123  1.00  0.00     0.091 C 
ATOM     26  N   UNL A   1      32.857  26.801  26.661  1.00  0.00    -0.155 NA
BRANCH  25  27
ATOM     27  C   UNL A   1      33.132  29.187  26.952  1.00  0.00     0.002 A 
ATOM     28  C   UNL A   1      32.362  30.353  27.000  1.00  0.00     0.010 A 
ATOM     29  C   UNL A   1      34.448  29.226  27.436  1.00  0.00     0.010 A 
ATOM     30  C   UNL A   1      32.941  31.563  27.399  1.00  0.00     0.001 A 
ATOM     31  C   UNL A   1      35.025  30.434  27.832  1.00  0.00     0.001 A 
ATOM     32  C   UNL A   1      34.281  31.609  27.781  1.00  0.00     0.000 A 
ENDBRANCH  25  27
ENDBRANCH  17  22
ENDBRANCH  14  15
ENDBRANCH   9  13
ENDBRANCH   6   7
ENDBRANCH   5   6
ENDBRANCH   3   5
ENDBRANCH   2   3
ENDBRANCH   1   2
BRANCH   1  33
ATOM     33  C   UNL A   1      38.656  22.403  25.844  1.00  0.00     0.202 C 
BRANCH  33  34
ATOM     34  O   UNL A   1      39.406  21.277  26.293  1.00  0.00    -0.374 OA
BRANCH  34  35
ATOM     35  C   UNL A   1      40.786  21.183  25.963  1.00  0.00     0.202 C 
BRANCH  35  36
ATOM     36  C   UNL A   1      41.727  22.223  26.558  1.00  0.00     0.261 C 
BRANCH  36  37
ATOM     37  O   UNL A   1      42.598  22.819  25.601  1.00  0.00    -0.460 OA
BRANCH  37  38
ATOM     38  C   UNL A   1      42.495  24.156  25.518  1.00  0.00     0.338 C 
ATOM     39  O   UNL A   1      43.213  24.911  24.865  1.00  0.00    -0.246 OA
BRANCH  38  40
ATOM     40  C   UNL A   1      41.559  24.658  26.534  1.00  0.00     0.060 A 
ATOM     41  C   UNL A   1      40.662  25.609  26.041  1.00  0.00     0.016 A 
ATOM     42  C   UNL A   1      41.981  24.654  27.871  1.00  0.00     0.016 A 
ATOM     43  C   UNL A   1      40.500  26.762  26.768  1.00  0.00     0.010 A 
ATOM     44  C   UNL A   1      41.819  25.812  28.597  1.00  0.00     0.010 A 
ATOM     45  C   UNL A   1      41.185  26.888  27.982  1.00  0.00    -0.014 A 
BRANCH  45  46
ATOM     46  C   UNL A   1      41.178  28.197  28.595  1.00  0.00     0.031 A 
ATOM     47  C   UNL A   1      42.316  29.036  28.173  1.00  0.00     0.074 A 
ATOM     48  C   UNL A   1      40.199  28.611  29.421  1.00  0.00     0.049 A 
ATOM     49  N   UNL A   1      43.273  29.509  28.899  1.00  0.00    -0.248 NA
ATOM     50  C   UNL A   1      42.481  29.243  26.726  1.00  0.00     0.031 C 
ATOM     51  C   UNL A   1      38.903  27.985  29.689  1.00  0.00     0.029 A 
ATOM     52  N   UNL A   1      40.135  29.767  30.135  1.00  0.00    -0.354 N 
ATOM     53  C   UNL A   1      44.080  30.219  28.019  1.00  0.00     0.074 A 
ATOM     54  C   UNL A   1      43.645  29.888  26.688  1.00  0.00     0.031 C 
ATOM     55  C   UNL A   1      38.103  28.877  30.319  1.00  0.00     0.029 A 
ATOM     56  C   UNL A   1      38.869  30.079  30.603  1.00  0.00     0.049 A 
ATOM     57  H   UNL A   1      40.922  30.333  30.305  1.00  0.00     0.167 HD
ATOM     58  C   UNL A   1      44.891  31.219  28.451  1.00  0.00     0.037 A 
ATOM     59  C   UNL A   1      38.481  31.282  31.095  1.00  0.00     0.037 A 
ATOM     60  C   UNL A   1      45.183  31.102  29.853  1.00  0.00     0.049 A 
ATOM     61  C   UNL A   1      39.709  32.036  31.462  1.00  0.00     0.074 A 
ATOM     62  C   UNL A   1      45.807  30.143  30.629  1.00  0.00     0.029 A 
ATOM     63  N   UNL A   1      44.497  31.900  30.735  1.00  0.00    -0.354 N 
ATOM     64  N   UNL A   1      40.488  31.726  32.461  1.00  0.00    -0.248 NA
ATOM     65  C   UNL A   1      40.313  32.883  30.442  1.00  0.00     0.031 C 
ATOM     66  C   UNL A   1      45.083  30.126  31.856  1.00  0.00     0.029 A 
ATOM     67  C   UNL A   1      44.091  31.102  31.775  1.00  0.00     0.049 A 
ATOM     68  H   UNL A   1      44.326  32.864  30.638  1.00  0.00     0.167 HD
ATOM     69  C   UNL A   1      41.773  31.974  31.999  1.00  0.00     0.074 A 
ATOM     70  C   UNL A   1      41.598  32.770  30.788  1.00  0.00     0.031 C 
ATOM     71  C   UNL A   1      42.842  31.274  32.480  1.00  0.00     0.037 A 
BRANCH  58  72
ATOM     72  C   UNL A   1      45.121  32.472  27.655  1.00  0.00     0.064 A 
ATOM     73  C   UNL A   1      46.355  32.672  27.013  1.00  0.00     0.173 A 
ATOM     74  C   UNL A   1      44.274  33.603  27.722  1.00  0.00     0.173 A 
ATOM     75  F   UNL A   1      47.251  31.677  26.933  1.00  0.00    -0.203 F 
ATOM     76  C   UNL A   1      46.727  33.922  26.513  1.00  0.00     0.198 A 
ATOM     77  C   UNL A   1      44.622  34.830  27.168  1.00  0.00     0.198 A 
ATOM     78  F   UNL A   1      43.131  33.597  28.419  1.00  0.00    -0.203 F 
ATOM     79  F   UNL A   1      47.956  34.098  26.011  1.00  0.00    -0.200 F 
ATOM     80  C   UNL A   1      45.859  34.999  26.589  1.00  0.00     0.200 A 
ATOM     81  F   UNL A   1      43.775  35.864  27.272  1.00  0.00    -0.200 F 
ATOM     82  F   UNL A   1      46.234  36.208  26.153  1.00  0.00    -0.200 F 
ENDBRANCH  58  72
BRANCH  59  83
ATOM     83  C   UNL A   1      37.164  31.946  30.946  1.00  0.00     0.064 A 
ATOM     84  C   UNL A   1      36.222  31.928  31.988  1.00  0.00     0.173 A 
ATOM     85  C   UNL A   1      36.910  32.844  29.889  1.00  0.00     0.173 A 
ATOM     86  F   UNL A   1      36.411  31.139  33.055  1.00  0.00    -0.203 F 
ATOM     87  C   UNL A   1      35.106  32.772  31.981  1.00  0.00     0.198 A 
ATOM     88  C   UNL A   1      35.792  33.677  29.880  1.00  0.00     0.198 A 
ATOM     89  F   UNL A   1      37.792  33.002  28.893  1.00  0.00    -0.203 F 
ATOM     90  F   UNL A   1      34.261  32.772  33.023  1.00  0.00    -0.200 F 
ATOM     91  C   UNL A   1      34.897  33.652  30.932  1.00  0.00     0.200 A 
ATOM     92  F   UNL A   1      35.623  34.551  28.877  1.00  0.00    -0.200 F 
ATOM     93  F   UNL A   1      33.861  34.502  30.955  1.00  0.00    -0.200 F 
ENDBRANCH  59  83
BRANCH  71  94
ATOM     94  C   UNL A   1      42.621  30.419  33.697  1.00  0.00     0.064 A 
ATOM     95  C   UNL A   1      42.690  30.901  35.016  1.00  0.00     0.173 A 
ATOM     96  C   UNL A   1      42.193  29.097  33.517  1.00  0.00     0.173 A 
ATOM     97  F   UNL A   1      42.987  32.182  35.267  1.00  0.00    -0.203 F 
ATOM     98  C   UNL A   1      42.395  30.080  36.103  1.00  0.00     0.198 A 
ATOM     99  C   UNL A   1      41.860  28.290  34.603  1.00  0.00     0.198 A 
ATOM    100  F   UNL A   1      42.051  28.598  32.280  1.00  0.00    -0.203 F 
ATOM    101  F   UNL A   1      42.486  30.559  37.353  1.00  0.00    -0.200 F 
ATOM    102  C   UNL A   1      41.973  28.777  35.895  1.00  0.00     0.200 A 
ATOM    103  F   UNL A   1      41.403  27.049  34.395  1.00  0.00    -0.200 F 
ATOM    104  F   UNL A   1      41.649  28.000  36.938  1.00  0.00    -0.200 F 
ENDBRANCH  71  94
ENDBRANCH  45  46
ENDBRANCH  38  40
ENDBRANCH  37  38
ENDBRANCH  36  37
ENDBRANCH  35  36
ENDBRANCH  34  35
ENDBRANCH  33  34
ENDBRANCH   1  33
TORSDOF 21
ENDMDL
