MODEL 1
REMARK VINA RESULT:     -12.1      0.000      0.000
REMARK SMILES O=C(OCCOCCOC(=O)c1ccc([S@@](=O)[C@H]2CCOC3(CCCC3)C2)cc1)c1ccc(-c2c3nc(c(-c4c(F)c(F)c(F)c(F)c4F)c4ccc([nH]4)c(-c4c(F)c(F)c(F)c(F)c4F)c4nc(c(-c5c(F)c(F)c(F)c(F)c5F)c5ccc2[nH]5)C=C4)C=C3)cc1
REMARK SMILES IDX 6 1 5 2 4 3 3 4 2 5 1 6 30 7 31 8 92 9 32 10 91 11 33 12
REMARK SMILES IDX 34 13 35 14 85 15 36 16 90 17 84 18 86 19 37 20 89 21 83 22
REMARK SMILES IDX 82 23 38 25 70 26 50 27 69 28 51 29 54 30 68 31 87 32 52 33
REMARK SMILES IDX 53 34 67 36 88 37 55 38 39 39 40 40 48 41 41 42 42 43 46 44
REMARK SMILES IDX 49 45 43 46 44 47 47 48 45 49 71 50 72 51 80 52 73 53 74 54
REMARK SMILES IDX 78 55 81 56 75 57 76 58 79 59 77 60 56 61 57 62 65 63 58 64
REMARK SMILES IDX 59 65 63 66 66 67 60 68 61 69 64 70 62 71 7 72 8 73 9 74
REMARK SMILES IDX 10 75 11 76 12 77 13 78 29 79 14 80 28 81 15 82 16 83 17 84
REMARK SMILES IDX 18 85 19 86 27 87 20 88 22 89 21 90 23 91 26 92 24 93 25 94
REMARK H PARENT 86 24 54 35
REMARK Flexibility Score: inf
ROOT
ATOM      1  O   UNL A   1      31.299  31.041  26.230  1.00  0.00    -0.374 OA
ENDROOT
BRANCH   1   2
ATOM      2  C   UNL A   1      31.348  32.452  26.448  1.00  0.00     0.202 C 
BRANCH   2   3
ATOM      3  C   UNL A   1      32.557  32.932  27.254  1.00  0.00     0.261 C 
BRANCH   3   4
ATOM      4  O   UNL A   1      32.282  34.210  27.850  1.00  0.00    -0.460 OA
BRANCH   4   5
ATOM      5  C   UNL A   1      32.984  34.852  28.810  1.00  0.00     0.338 C 
ATOM      6  O   UNL A   1      32.672  36.007  29.096  1.00  0.00    -0.246 OA
BRANCH   5   7
ATOM      7  C   UNL A   1      34.129  34.239  29.550  1.00  0.00     0.060 A 
ATOM      8  C   UNL A   1      34.008  33.305  30.581  1.00  0.00     0.016 A 
ATOM      9  C   UNL A   1      35.420  34.553  29.093  1.00  0.00     0.016 A 
ATOM     10  C   UNL A   1      35.122  32.738  31.183  1.00  0.00     0.010 A 
ATOM     11  C   UNL A   1      36.547  33.954  29.660  1.00  0.00     0.010 A 
ATOM     12  C   UNL A   1      36.396  33.049  30.716  1.00  0.00    -0.014 A 
BRANCH  12  13
ATOM     13  C   UNL A   1      37.553  32.449  31.399  1.00  0.00     0.031 A 
ATOM     14  C   UNL A   1      38.345  31.404  30.681  1.00  0.00     0.074 A 
ATOM     15  C   UNL A   1      37.930  32.925  32.598  1.00  0.00     0.049 A 
ATOM     16  N   UNL A   1      39.361  30.701  31.101  1.00  0.00    -0.248 NA
ATOM     17  C   UNL A   1      37.944  31.122  29.292  1.00  0.00     0.031 C 
ATOM     18  C   UNL A   1      37.274  34.025  33.309  1.00  0.00     0.029 A 
ATOM     19  N   UNL A   1      38.965  32.567  33.419  1.00  0.00    -0.354 N 
ATOM     20  C   UNL A   1      39.704  29.873  30.042  1.00  0.00     0.074 A 
ATOM     21  C   UNL A   1      38.791  30.161  28.958  1.00  0.00     0.031 C 
ATOM     22  C   UNL A   1      37.932  34.261  34.456  1.00  0.00     0.029 A 
ATOM     23  C   UNL A   1      39.009  33.286  34.588  1.00  0.00     0.049 A 
ATOM     24  H   UNL A   1      39.614  31.862  33.194  1.00  0.00     0.167 HD
ATOM     25  C   UNL A   1      40.689  28.949  29.998  1.00  0.00     0.037 A 
ATOM     26  C   UNL A   1      39.810  33.136  35.659  1.00  0.00     0.037 A 
ATOM     27  C   UNL A   1      41.576  28.689  31.099  1.00  0.00     0.049 A 
ATOM     28  C   UNL A   1      40.840  32.039  35.617  1.00  0.00     0.074 A 
ATOM     29  C   UNL A   1      42.579  27.746  31.202  1.00  0.00     0.029 A 
ATOM     30  N   UNL A   1      41.555  29.389  32.299  1.00  0.00    -0.354 N 
ATOM     31  N   UNL A   1      41.128  31.214  34.638  1.00  0.00    -0.248 NA
ATOM     32  C   UNL A   1      41.641  31.835  36.830  1.00  0.00     0.031 C 
ATOM     33  C   UNL A   1      43.136  27.846  32.482  1.00  0.00     0.029 A 
ATOM     34  C   UNL A   1      42.513  28.884  33.159  1.00  0.00     0.049 A 
ATOM     35  H   UNL A   1      40.948  30.136  32.507  1.00  0.00     0.167 HD
ATOM     36  C   UNL A   1      42.146  30.399  35.108  1.00  0.00     0.074 A 
ATOM     37  C   UNL A   1      42.444  30.847  36.455  1.00  0.00     0.031 C 
ATOM     38  C   UNL A   1      42.776  29.369  34.492  1.00  0.00     0.037 A 
BRANCH  25  39
ATOM     39  C   UNL A   1      40.789  28.116  28.756  1.00  0.00     0.064 A 
ATOM     40  C   UNL A   1      41.595  28.490  27.670  1.00  0.00     0.173 A 
ATOM     41  C   UNL A   1      40.035  26.939  28.637  1.00  0.00     0.173 A 
ATOM     42  F   UNL A   1      42.313  29.623  27.721  1.00  0.00    -0.203 F 
ATOM     43  C   UNL A   1      41.618  27.733  26.500  1.00  0.00     0.198 A 
ATOM     44  C   UNL A   1      40.080  26.170  27.477  1.00  0.00     0.198 A 
ATOM     45  F   UNL A   1      39.241  26.540  29.643  1.00  0.00    -0.203 F 
ATOM     46  F   UNL A   1      42.348  28.142  25.454  1.00  0.00    -0.200 F 
ATOM     47  C   UNL A   1      40.863  26.573  26.406  1.00  0.00     0.200 A 
ATOM     48  F   UNL A   1      39.350  25.049  27.388  1.00  0.00    -0.200 F 
ATOM     49  F   UNL A   1      40.878  25.852  25.277  1.00  0.00    -0.200 F 
ENDBRANCH  25  39
BRANCH  26  50
ATOM     50  C   UNL A   1      39.629  33.994  36.861  1.00  0.00     0.064 A 
ATOM     51  C   UNL A   1      38.841  33.581  37.943  1.00  0.00     0.173 A 
ATOM     52  C   UNL A   1      40.237  35.258  36.948  1.00  0.00     0.173 A 
ATOM     53  F   UNL A   1      38.218  32.394  37.902  1.00  0.00    -0.203 F 
ATOM     54  C   UNL A   1      38.657  34.400  39.057  1.00  0.00     0.198 A 
ATOM     55  C   UNL A   1      40.079  36.062  38.075  1.00  0.00     0.198 A 
ATOM     56  F   UNL A   1      40.999  35.708  35.941  1.00  0.00    -0.203 F 
ATOM     57  F   UNL A   1      37.860  33.999  40.057  1.00  0.00    -0.200 F 
ATOM     58  C   UNL A   1      39.282  35.637  39.125  1.00  0.00     0.200 A 
ATOM     59  F   UNL A   1      40.697  37.249  38.140  1.00  0.00    -0.200 F 
ATOM     60  F   UNL A   1      39.107  36.421  40.197  1.00  0.00    -0.200 F 
ENDBRANCH  26  50
BRANCH  38  61
ATOM     61  C   UNL A   1      43.855  28.676  35.266  1.00  0.00     0.064 A 
ATOM     62  C   UNL A   1      43.571  27.577  36.090  1.00  0.00     0.173 A 
ATOM     63  C   UNL A   1      45.191  29.079  35.133  1.00  0.00     0.173 A 
ATOM     64  F   UNL A   1      42.306  27.169  36.259  1.00  0.00    -0.203 F 
ATOM     65  C   UNL A   1      44.591  26.915  36.767  1.00  0.00     0.198 A 
ATOM     66  C   UNL A   1      46.210  28.398  35.790  1.00  0.00     0.198 A 
ATOM     67  F   UNL A   1      45.508  30.122  34.352  1.00  0.00    -0.203 F 
ATOM     68  F   UNL A   1      44.296  25.890  37.578  1.00  0.00    -0.200 F 
ATOM     69  C   UNL A   1      45.908  27.319  36.609  1.00  0.00     0.200 A 
ATOM     70  F   UNL A   1      47.483  28.780  35.626  1.00  0.00    -0.200 F 
ATOM     71  F   UNL A   1      46.890  26.671  37.251  1.00  0.00    -0.200 F 
ENDBRANCH  38  61
ENDBRANCH  12  13
ENDBRANCH   5   7
ENDBRANCH   4   5
ENDBRANCH   3   4
ENDBRANCH   2   3
ENDBRANCH   1   2
BRANCH   1  72
ATOM     72  C   UNL A   1      32.363  30.283  26.823  1.00  0.00     0.202 C 
BRANCH  72  73
ATOM     73  C   UNL A   1      32.006  28.792  26.803  1.00  0.00     0.261 C 
BRANCH  73  74
ATOM     74  O   UNL A   1      32.281  28.284  25.489  1.00  0.00    -0.460 OA
BRANCH  74  75
ATOM     75  C   UNL A   1      31.487  27.251  25.118  1.00  0.00     0.338 C 
ATOM     76  O   UNL A   1      30.459  27.294  24.461  1.00  0.00    -0.246 OA
BRANCH  75  77
ATOM     77  C   UNL A   1      32.220  26.007  25.414  1.00  0.00     0.060 A 
ATOM     78  C   UNL A   1      33.476  25.840  24.825  1.00  0.00     0.017 A 
ATOM     79  C   UNL A   1      31.727  25.058  26.310  1.00  0.00     0.017 A 
ATOM     80  C   UNL A   1      34.251  24.730  25.147  1.00  0.00     0.018 A 
ATOM     81  C   UNL A   1      32.472  23.905  26.559  1.00  0.00     0.018 A 
ATOM     82  C   UNL A   1      33.719  23.715  25.947  1.00  0.00     0.039 A 
BRANCH  82  83
ATOM     83  S   UNL A   1      34.635  22.192  26.217  1.00  0.00     0.056 S 
ATOM     84  O   UNL A   1      34.535  21.911  27.689  1.00  0.00    -0.254 OA
BRANCH  83  85
ATOM     85  C   UNL A   1      33.633  20.919  25.354  1.00  0.00     0.089 C 
ATOM     86  C   UNL A   1      32.962  21.305  24.041  1.00  0.00     0.046 C 
ATOM     87  C   UNL A   1      34.509  19.685  25.144  1.00  0.00     0.053 C 
ATOM     88  C   UNL A   1      32.228  20.117  23.437  1.00  0.00     0.162 C 
ATOM     89  C   UNL A   1      33.702  18.537  24.529  1.00  0.00     0.069 C 
ATOM     90  O   UNL A   1      33.085  18.982  23.313  1.00  0.00    -0.375 OA
ATOM     91  C   UNL A   1      34.635  17.356  24.168  1.00  0.00     0.035 C 
ATOM     92  C   UNL A   1      32.664  17.938  25.505  1.00  0.00     0.035 C 
ATOM     93  C   UNL A   1      34.212  16.200  25.064  1.00  0.00     0.003 C 
ATOM     94  C   UNL A   1      32.730  16.437  25.267  1.00  0.00     0.003 C 
ENDBRANCH  83  85
ENDBRANCH  82  83
ENDBRANCH  75  77
ENDBRANCH  74  75
ENDBRANCH  73  74
ENDBRANCH  72  73
ENDBRANCH   1  72
TORSDOF 16
ENDMDL
MODEL 2
REMARK VINA RESULT:     -12.0      0.156      1.574
REMARK SMILES O=C(OCCOCCOC(=O)c1ccc([S@@](=O)[C@H]2CCOC3(CCCC3)C2)cc1)c1ccc(-c2c3nc(c(-c4c(F)c(F)c(F)c(F)c4F)c4ccc([nH]4)c(-c4c(F)c(F)c(F)c(F)c4F)c4nc(c(-c5c(F)c(F)c(F)c(F)c5F)c5ccc2[nH]5)C=C4)C=C3)cc1
REMARK SMILES IDX 6 1 5 2 4 3 3 4 2 5 1 6 30 7 31 8 92 9 32 10 91 11 33 12
REMARK SMILES IDX 34 13 35 14 85 15 36 16 90 17 84 18 86 19 37 20 89 21 83 22
REMARK SMILES IDX 82 23 38 25 70 26 50 27 69 28 51 29 54 30 68 31 87 32 52 33
REMARK SMILES IDX 53 34 67 36 88 37 55 38 39 39 40 40 48 41 41 42 42 43 46 44
REMARK SMILES IDX 49 45 43 46 44 47 47 48 45 49 71 50 72 51 80 52 73 53 74 54
REMARK SMILES IDX 78 55 81 56 75 57 76 58 79 59 77 60 56 61 57 62 65 63 58 64
REMARK SMILES IDX 59 65 63 66 66 67 60 68 61 69 64 70 62 71 7 72 8 73 9 74
REMARK SMILES IDX 10 75 11 76 12 77 13 78 29 79 14 80 28 81 15 82 16 83 17 84
REMARK SMILES IDX 18 85 19 86 27 87 20 88 22 89 21 90 23 91 26 92 24 93 25 94
REMARK H PARENT 86 24 54 35
REMARK Flexibility Score: inf
ROOT
ATOM      1  O   UNL A   1      31.282  30.991  26.219  1.00  0.00    -0.374 OA
ENDROOT
BRANCH   1   2
ATOM      2  C   UNL A   1      31.287  32.392  26.495  1.00  0.00     0.202 C 
BRANCH   2   3
ATOM      3  C   UNL A   1      32.533  32.893  27.228  1.00  0.00     0.261 C 
BRANCH   3   4
ATOM      4  O   UNL A   1      32.265  34.156  27.859  1.00  0.00    -0.460 OA
BRANCH   4   5
ATOM      5  C   UNL A   1      33.012  34.803  28.781  1.00  0.00     0.338 C 
ATOM      6  O   UNL A   1      32.740  35.974  29.043  1.00  0.00    -0.246 OA
BRANCH   5   7
ATOM      7  C   UNL A   1      34.160  34.179  29.507  1.00  0.00     0.060 A 
ATOM      8  C   UNL A   1      34.045  33.192  30.489  1.00  0.00     0.016 A 
ATOM      9  C   UNL A   1      35.450  34.541  29.084  1.00  0.00     0.016 A 
ATOM     10  C   UNL A   1      35.163  32.620  31.078  1.00  0.00     0.010 A 
ATOM     11  C   UNL A   1      36.582  33.938  29.637  1.00  0.00     0.010 A 
ATOM     12  C   UNL A   1      36.436  32.980  30.645  1.00  0.00    -0.014 A 
BRANCH  12  13
ATOM     13  C   UNL A   1      37.596  32.371  31.314  1.00  0.00     0.031 A 
ATOM     14  C   UNL A   1      38.374  31.323  30.586  1.00  0.00     0.074 A 
ATOM     15  C   UNL A   1      37.988  32.841  32.511  1.00  0.00     0.049 A 
ATOM     16  N   UNL A   1      39.390  30.614  30.993  1.00  0.00    -0.248 NA
ATOM     17  C   UNL A   1      37.958  31.048  29.200  1.00  0.00     0.031 C 
ATOM     18  C   UNL A   1      37.346  33.942  33.232  1.00  0.00     0.029 A 
ATOM     19  N   UNL A   1      39.030  32.475  33.320  1.00  0.00    -0.354 N 
ATOM     20  C   UNL A   1      39.717  29.787  29.928  1.00  0.00     0.074 A 
ATOM     21  C   UNL A   1      38.796  30.083  28.854  1.00  0.00     0.031 C 
ATOM     22  C   UNL A   1      38.018  34.171  34.372  1.00  0.00     0.029 A 
ATOM     23  C   UNL A   1      39.090  33.190  34.491  1.00  0.00     0.049 A 
ATOM     24  H   UNL A   1      39.672  31.767  33.086  1.00  0.00     0.167 HD
ATOM     25  C   UNL A   1      40.696  28.856  29.871  1.00  0.00     0.037 A 
ATOM     26  C   UNL A   1      39.901  33.031  35.553  1.00  0.00     0.037 A 
ATOM     27  C   UNL A   1      41.594  28.588  30.962  1.00  0.00     0.049 A 
ATOM     28  C   UNL A   1      40.924  31.928  35.497  1.00  0.00     0.074 A 
ATOM     29  C   UNL A   1      42.592  27.639  31.051  1.00  0.00     0.029 A 
ATOM     30  N   UNL A   1      41.589  29.285  32.164  1.00  0.00    -0.354 N 
ATOM     31  N   UNL A   1      41.197  31.105  34.512  1.00  0.00    -0.248 NA
ATOM     32  C   UNL A   1      41.736  31.716  36.701  1.00  0.00     0.031 C 
ATOM     33  C   UNL A   1      43.163  27.731  32.326  1.00  0.00     0.029 A 
ATOM     34  C   UNL A   1      42.553  28.772  33.013  1.00  0.00     0.049 A 
ATOM     35  H   UNL A   1      40.988  30.034  32.380  1.00  0.00     0.167 HD
ATOM     36  C   UNL A   1      42.215  30.283  34.970  1.00  0.00     0.074 A 
ATOM     37  C   UNL A   1      42.529  30.725  36.315  1.00  0.00     0.031 C 
ATOM     38  C   UNL A   1      42.832  29.251  34.344  1.00  0.00     0.037 A 
BRANCH  25  39
ATOM     39  C   UNL A   1      40.779  28.026  28.625  1.00  0.00     0.064 A 
ATOM     40  C   UNL A   1      40.082  26.816  28.488  1.00  0.00     0.173 A 
ATOM     41  C   UNL A   1      41.601  28.433  27.564  1.00  0.00     0.173 A 
ATOM     42  F   UNL A   1      39.306  26.367  29.487  1.00  0.00    -0.203 F 
ATOM     43  C   UNL A   1      40.230  26.030  27.347  1.00  0.00     0.198 A 
ATOM     44  C   UNL A   1      41.725  27.658  26.414  1.00  0.00     0.198 A 
ATOM     45  F   UNL A   1      42.295  29.578  27.647  1.00  0.00    -0.203 F 
ATOM     46  F   UNL A   1      39.602  24.849  27.264  1.00  0.00    -0.200 F 
ATOM     47  C   UNL A   1      41.048  26.453  26.310  1.00  0.00     0.200 A 
ATOM     48  F   UNL A   1      42.517  28.069  25.413  1.00  0.00    -0.200 F 
ATOM     49  F   UNL A   1      41.197  25.691  25.219  1.00  0.00    -0.200 F 
ENDBRANCH  25  39
BRANCH  26  50
ATOM     50  C   UNL A   1      39.738  33.887  36.759  1.00  0.00     0.064 A 
ATOM     51  C   UNL A   1      38.938  33.486  37.838  1.00  0.00     0.173 A 
ATOM     52  C   UNL A   1      40.374  35.136  36.854  1.00  0.00     0.173 A 
ATOM     53  F   UNL A   1      38.288  32.314  37.789  1.00  0.00    -0.203 F 
ATOM     54  C   UNL A   1      38.771  34.303  38.956  1.00  0.00     0.198 A 
ATOM     55  C   UNL A   1      40.233  35.938  37.985  1.00  0.00     0.198 A 
ATOM     56  F   UNL A   1      41.148  35.575  35.851  1.00  0.00    -0.203 F 
ATOM     57  F   UNL A   1      37.964  33.915  39.952  1.00  0.00    -0.200 F 
ATOM     58  C   UNL A   1      39.423  35.525  39.031  1.00  0.00     0.200 A 
ATOM     59  F   UNL A   1      40.877  37.110  38.058  1.00  0.00    -0.200 F 
ATOM     60  F   UNL A   1      39.265  36.308  40.108  1.00  0.00    -0.200 F 
ENDBRANCH  26  50
BRANCH  38  61
ATOM     61  C   UNL A   1      43.915  28.549  35.106  1.00  0.00     0.064 A 
ATOM     62  C   UNL A   1      45.246  28.988  35.051  1.00  0.00     0.173 A 
ATOM     63  C   UNL A   1      43.605  27.468  35.942  1.00  0.00     0.173 A 
ATOM     64  F   UNL A   1      45.590  30.008  34.252  1.00  0.00    -0.203 F 
ATOM     65  C   UNL A   1      46.233  28.355  35.801  1.00  0.00     0.198 A 
ATOM     66  C   UNL A   1      44.590  26.856  36.710  1.00  0.00     0.198 A 
ATOM     67  F   UNL A   1      42.345  27.020  36.028  1.00  0.00    -0.203 F 
ATOM     68  F   UNL A   1      47.506  28.765  35.708  1.00  0.00    -0.200 F 
ATOM     69  C   UNL A   1      45.904  27.298  36.635  1.00  0.00     0.200 A 
ATOM     70  F   UNL A   1      44.268  25.845  37.527  1.00  0.00    -0.200 F 
ATOM     71  F   UNL A   1      46.854  26.699  37.366  1.00  0.00    -0.200 F 
ENDBRANCH  38  61
ENDBRANCH  12  13
ENDBRANCH   5   7
ENDBRANCH   4   5
ENDBRANCH   3   4
ENDBRANCH   2   3
ENDBRANCH   1   2
BRANCH   1  72
ATOM     72  C   UNL A   1      32.337  30.233  26.827  1.00  0.00     0.202 C 
BRANCH  72  73
ATOM     73  C   UNL A   1      31.957  28.747  26.847  1.00  0.00     0.261 C 
BRANCH  73  74
ATOM     74  O   UNL A   1      32.249  28.194  25.555  1.00  0.00    -0.460 OA
BRANCH  74  75
ATOM     75  C   UNL A   1      31.448  27.159  25.203  1.00  0.00     0.338 C 
ATOM     76  O   UNL A   1      30.402  27.201  24.576  1.00  0.00    -0.246 OA
BRANCH  75  77
ATOM     77  C   UNL A   1      32.194  25.917  25.474  1.00  0.00     0.060 A 
ATOM     78  C   UNL A   1      33.441  25.763  24.861  1.00  0.00     0.017 A 
ATOM     79  C   UNL A   1      31.724  24.957  26.370  1.00  0.00     0.017 A 
ATOM     80  C   UNL A   1      34.228  24.655  25.158  1.00  0.00     0.018 A 
ATOM     81  C   UNL A   1      32.480  23.806  26.595  1.00  0.00     0.018 A 
ATOM     82  C   UNL A   1      33.716  23.629  25.958  1.00  0.00     0.039 A 
BRANCH  82  83
ATOM     83  S   UNL A   1      34.646  22.110  26.197  1.00  0.00     0.056 S 
ATOM     84  O   UNL A   1      34.584  21.820  27.669  1.00  0.00    -0.254 OA
BRANCH  83  85
ATOM     85  C   UNL A   1      33.631  20.837  25.351  1.00  0.00     0.089 C 
ATOM     86  C   UNL A   1      32.920  21.229  24.060  1.00  0.00     0.046 C 
ATOM     87  C   UNL A   1      34.510  19.611  25.106  1.00  0.00     0.053 C 
ATOM     88  C   UNL A   1      32.178  20.040  23.467  1.00  0.00     0.162 C 
ATOM     89  C   UNL A   1      33.694  18.462  24.504  1.00  0.00     0.069 C 
ATOM     90  O   UNL A   1      33.040  18.912  23.309  1.00  0.00    -0.375 OA
ATOM     91  C   UNL A   1      34.626  17.292  24.106  1.00  0.00     0.035 C 
ATOM     92  C   UNL A   1      32.688  17.847  25.503  1.00  0.00     0.035 C 
ATOM     93  C   UNL A   1      34.236  16.124  25.004  1.00  0.00     0.003 C 
ATOM     94  C   UNL A   1      32.759  16.348  25.250  1.00  0.00     0.003 C 
ENDBRANCH  83  85
ENDBRANCH  82  83
ENDBRANCH  75  77
ENDBRANCH  74  75
ENDBRANCH  73  74
ENDBRANCH  72  73
ENDBRANCH   1  72
TORSDOF 16
ENDMDL
MODEL 3
REMARK VINA RESULT:     -11.9      1.486      2.677
REMARK SMILES O=C(OCCOCCOC(=O)c1ccc([S@@](=O)[C@H]2CCOC3(CCCC3)C2)cc1)c1ccc(-c2c3nc(c(-c4c(F)c(F)c(F)c(F)c4F)c4ccc([nH]4)c(-c4c(F)c(F)c(F)c(F)c4F)c4nc(c(-c5c(F)c(F)c(F)c(F)c5F)c5ccc2[nH]5)C=C4)C=C3)cc1
REMARK SMILES IDX 6 1 5 2 4 3 3 4 2 5 1 6 30 7 31 8 92 9 32 10 91 11 33 12
REMARK SMILES IDX 34 13 35 14 85 15 36 16 90 17 84 18 86 19 37 20 89 21 83 22
REMARK SMILES IDX 82 23 38 25 70 26 50 27 69 28 51 29 54 30 68 31 87 32 52 33
REMARK SMILES IDX 53 34 67 36 88 37 55 38 39 39 40 40 48 41 41 42 42 43 46 44
REMARK SMILES IDX 49 45 43 46 44 47 47 48 45 49 71 50 72 51 80 52 73 53 74 54
REMARK SMILES IDX 78 55 81 56 75 57 76 58 79 59 77 60 56 61 57 62 65 63 58 64
REMARK SMILES IDX 59 65 63 66 66 67 60 68 61 69 64 70 62 71 7 72 8 73 9 74
REMARK SMILES IDX 10 75 11 76 12 77 13 78 29 79 14 80 28 81 15 82 16 83 17 84
REMARK SMILES IDX 18 85 19 86 27 87 20 88 22 89 21 90 23 91 26 92 24 93 25 94
REMARK H PARENT 86 24 54 35
REMARK Flexibility Score: inf
ROOT
ATOM      1  O   UNL A   1      31.026  30.843  25.961  1.00  0.00    -0.374 OA
ENDROOT
BRANCH   1   2
ATOM      2  C   UNL A   1      31.073  32.227  26.312  1.00  0.00     0.202 C 
BRANCH   2   3
ATOM      3  C   UNL A   1      32.321  32.645  27.092  1.00  0.00     0.261 C 
BRANCH   3   4
ATOM      4  O   UNL A   1      32.155  33.969  27.624  1.00  0.00    -0.460 OA
BRANCH   4   5
ATOM      5  C   UNL A   1      32.966  34.635  28.476  1.00  0.00     0.338 C 
ATOM      6  O   UNL A   1      32.703  35.806  28.747  1.00  0.00    -0.246 OA
BRANCH   5   7
ATOM      7  C   UNL A   1      34.176  34.032  29.112  1.00  0.00     0.060 A 
ATOM      8  C   UNL A   1      35.495  34.392  28.827  1.00  0.00     0.016 A 
ATOM      9  C   UNL A   1      33.954  33.112  30.151  1.00  0.00     0.016 A 
ATOM     10  C   UNL A   1      36.566  33.824  29.501  1.00  0.00     0.010 A 
ATOM     11  C   UNL A   1      35.022  32.569  30.868  1.00  0.00     0.010 A 
ATOM     12  C   UNL A   1      36.334  32.920  30.535  1.00  0.00    -0.014 A 
BRANCH  12  13
ATOM     13  C   UNL A   1      37.496  32.320  31.207  1.00  0.00     0.031 A 
ATOM     14  C   UNL A   1      38.287  31.281  30.480  1.00  0.00     0.074 A 
ATOM     15  C   UNL A   1      37.879  32.790  32.408  1.00  0.00     0.049 A 
ATOM     16  N   UNL A   1      39.307  30.579  30.889  1.00  0.00    -0.248 NA
ATOM     17  C   UNL A   1      37.879  31.006  29.091  1.00  0.00     0.031 C 
ATOM     18  C   UNL A   1      37.223  33.884  33.128  1.00  0.00     0.029 A 
ATOM     19  N   UNL A   1      38.920  32.431  33.220  1.00  0.00    -0.354 N 
ATOM     20  C   UNL A   1      39.646  29.758  29.824  1.00  0.00     0.074 A 
ATOM     21  C   UNL A   1      38.727  30.049  28.747  1.00  0.00     0.031 C 
ATOM     22  C   UNL A   1      37.888  34.116  34.272  1.00  0.00     0.029 A 
ATOM     23  C   UNL A   1      38.968  33.143  34.393  1.00  0.00     0.049 A 
ATOM     24  H   UNL A   1      39.569  31.729  32.988  1.00  0.00     0.167 HD
ATOM     25  C   UNL A   1      40.633  28.836  29.769  1.00  0.00     0.037 A 
ATOM     26  C   UNL A   1      39.776  32.989  35.459  1.00  0.00     0.037 A 
ATOM     27  C   UNL A   1      41.528  28.573  30.864  1.00  0.00     0.049 A 
ATOM     28  C   UNL A   1      40.809  31.895  35.404  1.00  0.00     0.074 A 
ATOM     29  C   UNL A   1      42.534  27.632  30.955  1.00  0.00     0.029 A 
ATOM     30  N   UNL A   1      41.512  29.267  32.068  1.00  0.00    -0.354 N 
ATOM     31  N   UNL A   1      41.093  31.077  34.419  1.00  0.00    -0.248 NA
ATOM     32  C   UNL A   1      41.617  31.687  36.612  1.00  0.00     0.031 C 
ATOM     33  C   UNL A   1      43.098  27.726  32.233  1.00  0.00     0.029 A 
ATOM     34  C   UNL A   1      42.476  28.759  32.919  1.00  0.00     0.049 A 
ATOM     35  H   UNL A   1      40.904  30.010  32.283  1.00  0.00     0.167 HD
ATOM     36  C   UNL A   1      42.116  30.262  34.879  1.00  0.00     0.074 A 
ATOM     37  C   UNL A   1      42.420  30.703  36.226  1.00  0.00     0.031 C 
ATOM     38  C   UNL A   1      42.745  29.237  34.253  1.00  0.00     0.037 A 
BRANCH  25  39
ATOM     39  C   UNL A   1      40.729  28.010  28.522  1.00  0.00     0.064 A 
ATOM     40  C   UNL A   1      40.048  26.791  28.381  1.00  0.00     0.173 A 
ATOM     41  C   UNL A   1      41.547  28.431  27.462  1.00  0.00     0.173 A 
ATOM     42  F   UNL A   1      39.277  26.330  29.378  1.00  0.00    -0.203 F 
ATOM     43  C   UNL A   1      40.208  26.010  27.238  1.00  0.00     0.198 A 
ATOM     44  C   UNL A   1      41.684  27.660  26.311  1.00  0.00     0.198 A 
ATOM     45  F   UNL A   1      42.226  29.584  27.550  1.00  0.00    -0.203 F 
ATOM     46  F   UNL A   1      39.596  24.821  27.151  1.00  0.00    -0.200 F 
ATOM     47  C   UNL A   1      41.022  26.446  26.204  1.00  0.00     0.200 A 
ATOM     48  F   UNL A   1      42.471  28.084  25.312  1.00  0.00    -0.200 F 
ATOM     49  F   UNL A   1      41.183  25.688  25.111  1.00  0.00    -0.200 F 
ENDBRANCH  25  39
BRANCH  26  50
ATOM     50  C   UNL A   1      39.600  33.840  36.666  1.00  0.00     0.064 A 
ATOM     51  C   UNL A   1      40.265  35.067  36.799  1.00  0.00     0.173 A 
ATOM     52  C   UNL A   1      38.765  33.439  37.722  1.00  0.00     0.173 A 
ATOM     53  F   UNL A   1      41.093  35.487  35.832  1.00  0.00    -0.203 F 
ATOM     54  C   UNL A   1      40.114  35.850  37.943  1.00  0.00     0.198 A 
ATOM     55  C   UNL A   1      38.589  34.236  38.851  1.00  0.00     0.198 A 
ATOM     56  F   UNL A   1      38.107  32.273  37.653  1.00  0.00    -0.203 F 
ATOM     57  F   UNL A   1      40.798  36.995  38.065  1.00  0.00    -0.200 F 
ATOM     58  C   UNL A   1      39.271  35.437  38.966  1.00  0.00     0.200 A 
ATOM     59  F   UNL A   1      37.763  33.839  39.828  1.00  0.00    -0.200 F 
ATOM     60  F   UNL A   1      39.124  36.192  40.063  1.00  0.00    -0.200 F 
ENDBRANCH  26  50
BRANCH  38  61
ATOM     61  C   UNL A   1      43.831  28.543  35.018  1.00  0.00     0.064 A 
ATOM     62  C   UNL A   1      43.564  27.404  35.791  1.00  0.00     0.173 A 
ATOM     63  C   UNL A   1      45.157  28.988  34.924  1.00  0.00     0.173 A 
ATOM     64  F   UNL A   1      42.308  26.954  35.921  1.00  0.00    -0.203 F 
ATOM     65  C   UNL A   1      44.591  26.743  36.458  1.00  0.00     0.198 A 
ATOM     66  C   UNL A   1      46.184  28.308  35.571  1.00  0.00     0.198 A 
ATOM     67  F   UNL A   1      45.457  30.070  34.191  1.00  0.00    -0.203 F 
ATOM     68  F   UNL A   1      44.312  25.678  37.222  1.00  0.00    -0.200 F 
ATOM     69  C   UNL A   1      45.899  27.189  36.340  1.00  0.00     0.200 A 
ATOM     70  F   UNL A   1      47.448  28.731  35.444  1.00  0.00    -0.200 F 
ATOM     71  F   UNL A   1      46.888  26.542  36.972  1.00  0.00    -0.200 F 
ENDBRANCH  38  61
ENDBRANCH  12  13
ENDBRANCH   5   7
ENDBRANCH   4   5
ENDBRANCH   3   4
ENDBRANCH   2   3
ENDBRANCH   1   2
BRANCH   1  72
ATOM     72  C   UNL A   1      32.291  30.231  25.672  1.00  0.00     0.202 C 
BRANCH  72  73
ATOM     73  C   UNL A   1      32.136  29.262  24.494  1.00  0.00     0.261 C 
BRANCH  73  74
ATOM     74  O   UNL A   1      30.751  29.233  24.118  1.00  0.00    -0.460 OA
BRANCH  74  75
ATOM     75  C   UNL A   1      30.515  28.650  22.918  1.00  0.00     0.338 C 
ATOM     76  O   UNL A   1      30.288  29.196  21.851  1.00  0.00    -0.246 OA
BRANCH  75  77
ATOM     77  C   UNL A   1      30.847  27.221  23.054  1.00  0.00     0.060 A 
ATOM     78  C   UNL A   1      30.064  26.453  23.920  1.00  0.00     0.017 A 
ATOM     79  C   UNL A   1      31.851  26.622  22.293  1.00  0.00     0.017 A 
ATOM     80  C   UNL A   1      30.272  25.080  24.013  1.00  0.00     0.018 A 
ATOM     81  C   UNL A   1      32.113  25.262  22.456  1.00  0.00     0.018 A 
ATOM     82  C   UNL A   1      31.353  24.492  23.348  1.00  0.00     0.039 A 
BRANCH  82  83
ATOM     83  S   UNL A   1      31.746  22.758  23.606  1.00  0.00     0.056 S 
ATOM     84  O   UNL A   1      32.435  22.304  22.352  1.00  0.00    -0.254 OA
BRANCH  83  85
ATOM     85  C   UNL A   1      33.010  22.788  24.937  1.00  0.00     0.089 C 
ATOM     86  C   UNL A   1      32.557  22.493  26.363  1.00  0.00     0.046 C 
ATOM     87  C   UNL A   1      34.139  21.835  24.545  1.00  0.00     0.053 C 
ATOM     88  C   UNL A   1      33.739  22.501  27.320  1.00  0.00     0.162 C 
ATOM     89  C   UNL A   1      35.286  21.897  25.559  1.00  0.00     0.069 C 
ATOM     90  O   UNL A   1      34.779  21.631  26.874  1.00  0.00    -0.375 OA
ATOM     91  C   UNL A   1      36.341  20.809  25.243  1.00  0.00     0.035 C 
ATOM     92  C   UNL A   1      36.064  23.231  25.510  1.00  0.00     0.035 C 
ATOM     93  C   UNL A   1      37.612  21.559  24.862  1.00  0.00     0.003 C 
ATOM     94  C   UNL A   1      37.524  22.834  25.674  1.00  0.00     0.003 C 
ENDBRANCH  83  85
ENDBRANCH  82  83
ENDBRANCH  75  77
ENDBRANCH  74  75
ENDBRANCH  73  74
ENDBRANCH  72  73
ENDBRANCH   1  72
TORSDOF 16
ENDMDL
