MODEL 1
REMARK VINA RESULT:     -12.6      0.000      0.000
REMARK SMILES O=C(OCCOCCOC(=O)c1cc(S(=O)(=O)NNC(=O)[C@H]2C=C(c3ccccc3)N=N2)ccc1F)c1ccc(-c2c3nc(c(-c4c(F)c(F)c(F)c(F)c4F)c4ccc([nH]4)c(-c4c(F)c(F)c(F)c(F)c4F)c4nc(c(-c5c(F)c(F)c(F)c(F)c5F)c5ccc2[nH]5)C=C4)C=C3)cc1
REMARK SMILES IDX 7 1 6 2 5 3 4 4 3 5 2 6 1 7 37 8 38 9 99 10 39 11 98 12
REMARK SMILES IDX 40 13 41 14 42 15 92 16 43 17 97 18 91 19 93 20 44 21 96 22
REMARK SMILES IDX 90 23 89 24 45 26 77 27 57 28 76 29 58 30 61 31 75 32 94 33
REMARK SMILES IDX 59 34 60 35 74 37 95 38 62 39 46 40 47 41 55 42 48 43 49 44
REMARK SMILES IDX 53 45 56 46 50 47 51 48 54 49 52 50 78 51 79 52 87 53 80 54
REMARK SMILES IDX 81 55 85 56 88 57 82 58 83 59 86 60 84 61 63 62 64 63 72 64
REMARK SMILES IDX 65 65 66 66 70 67 73 68 67 69 68 70 71 71 69 72 8 73 9 74
REMARK SMILES IDX 10 75 11 76 12 77 13 78 35 79 14 80 34 81 36 82 33 83 15 84
REMARK SMILES IDX 16 85 17 86 18 87 19 89 20 90 21 92 22 93 23 94 32 95 24 96
REMARK SMILES IDX 31 97 25 98 26 99 30 100 27 101 29 102 28 103
REMARK H PARENT 93 25 61 36 18 88 19 91
REMARK Flexibility Score: inf
ROOT
ATOM      1  C   UNL A   1      40.299  21.638  27.264  1.00  0.00     0.202 C 
ENDROOT
BRANCH   1   2
ATOM      2  O   UNL A   1      41.723  21.480  27.186  1.00  0.00    -0.374 OA
BRANCH   2   3
ATOM      3  C   UNL A   1      42.235  20.154  27.141  1.00  0.00     0.202 C 
BRANCH   3   4
ATOM      4  C   UNL A   1      42.647  19.586  25.784  1.00  0.00     0.261 C 
BRANCH   4   5
ATOM      5  O   UNL A   1      44.023  19.839  25.452  1.00  0.00    -0.460 OA
BRANCH   5   6
ATOM      6  C   UNL A   1      44.473  20.820  24.640  1.00  0.00     0.338 C 
ATOM      7  O   UNL A   1      44.579  20.618  23.432  1.00  0.00    -0.246 OA
BRANCH   6   8
ATOM      8  C   UNL A   1      44.570  22.211  25.147  1.00  0.00     0.060 A 
ATOM      9  C   UNL A   1      45.456  22.651  26.127  1.00  0.00     0.016 A 
ATOM     10  C   UNL A   1      43.578  23.087  24.677  1.00  0.00     0.016 A 
ATOM     11  C   UNL A   1      45.164  23.790  26.848  1.00  0.00     0.010 A 
ATOM     12  C   UNL A   1      43.325  24.269  25.341  1.00  0.00     0.010 A 
ATOM     13  C   UNL A   1      44.054  24.551  26.489  1.00  0.00    -0.014 A 
BRANCH  13  14
ATOM     14  C   UNL A   1      43.812  25.773  27.232  1.00  0.00     0.031 A 
ATOM     15  C   UNL A   1      44.818  26.816  26.919  1.00  0.00     0.074 A 
ATOM     16  C   UNL A   1      42.732  25.923  28.025  1.00  0.00     0.049 A 
ATOM     17  N   UNL A   1      45.674  27.352  27.725  1.00  0.00    -0.248 NA
ATOM     18  C   UNL A   1      45.044  27.153  25.499  1.00  0.00     0.031 C 
ATOM     19  C   UNL A   1      41.609  24.998  28.189  1.00  0.00     0.029 A 
ATOM     20  N   UNL A   1      42.355  26.991  28.782  1.00  0.00    -0.354 N 
ATOM     21  C   UNL A   1      46.384  28.267  26.955  1.00  0.00     0.074 A 
ATOM     22  C   UNL A   1      46.106  27.954  25.580  1.00  0.00     0.031 C 
ATOM     23  C   UNL A   1      40.581  25.640  28.788  1.00  0.00     0.029 A 
ATOM     24  C   UNL A   1      41.014  26.971  29.166  1.00  0.00     0.049 A 
ATOM     25  H   UNL A   1      42.975  27.711  29.037  1.00  0.00     0.167 HD
ATOM     26  C   UNL A   1      46.860  29.404  27.527  1.00  0.00     0.037 A 
ATOM     27  C   UNL A   1      40.316  28.022  29.673  1.00  0.00     0.037 A 
ATOM     28  C   UNL A   1      47.026  29.227  28.949  1.00  0.00     0.049 A 
ATOM     29  C   UNL A   1      41.313  28.993  30.190  1.00  0.00     0.074 A 
ATOM     30  C   UNL A   1      47.764  28.370  29.742  1.00  0.00     0.029 A 
ATOM     31  N   UNL A   1      46.057  29.753  29.763  1.00  0.00    -0.354 N 
ATOM     32  N   UNL A   1      42.077  28.767  31.222  1.00  0.00    -0.248 NA
ATOM     33  C   UNL A   1      41.783  30.021  29.274  1.00  0.00     0.031 C 
ATOM     34  C   UNL A   1      46.926  28.082  30.860  1.00  0.00     0.029 A 
ATOM     35  C   UNL A   1      45.760  28.837  30.735  1.00  0.00     0.049 A 
ATOM     36  H   UNL A   1      45.644  30.641  29.665  1.00  0.00     0.167 HD
ATOM     37  C   UNL A   1      43.312  29.280  30.857  1.00  0.00     0.074 A 
ATOM     38  C   UNL A   1      43.049  30.113  29.686  1.00  0.00     0.031 C 
ATOM     39  C   UNL A   1      44.461  28.737  31.357  1.00  0.00     0.037 A 
BRANCH  26  40
ATOM     40  C   UNL A   1      46.696  30.768  26.890  1.00  0.00     0.064 A 
ATOM     41  C   UNL A   1      45.448  31.359  26.581  1.00  0.00     0.173 A 
ATOM     42  C   UNL A   1      47.795  31.651  26.886  1.00  0.00     0.173 A 
ATOM     43  F   UNL A   1      44.294  30.686  26.638  1.00  0.00    -0.203 F 
ATOM     44  C   UNL A   1      45.307  32.718  26.312  1.00  0.00     0.198 A 
ATOM     45  C   UNL A   1      47.640  33.023  26.668  1.00  0.00     0.198 A 
ATOM     46  F   UNL A   1      49.023  31.211  27.198  1.00  0.00    -0.203 F 
ATOM     47  F   UNL A   1      44.086  33.216  26.069  1.00  0.00    -0.200 F 
ATOM     48  C   UNL A   1      46.396  33.556  26.387  1.00  0.00     0.200 A 
ATOM     49  F   UNL A   1      48.692  33.839  26.811  1.00  0.00    -0.200 F 
ATOM     50  F   UNL A   1      46.235  34.877  26.240  1.00  0.00    -0.200 F 
ENDBRANCH  26  40
BRANCH  27  51
ATOM     51  C   UNL A   1      38.911  28.425  29.394  1.00  0.00     0.064 A 
ATOM     52  C   UNL A   1      38.514  28.912  28.133  1.00  0.00     0.173 A 
ATOM     53  C   UNL A   1      38.005  28.633  30.449  1.00  0.00     0.173 A 
ATOM     54  F   UNL A   1      39.327  28.826  27.071  1.00  0.00    -0.203 F 
ATOM     55  C   UNL A   1      37.311  29.597  27.949  1.00  0.00     0.198 A 
ATOM     56  C   UNL A   1      36.803  29.327  30.266  1.00  0.00     0.198 A 
ATOM     57  F   UNL A   1      38.315  28.236  31.694  1.00  0.00    -0.203 F 
ATOM     58  F   UNL A   1      37.011  30.100  26.744  1.00  0.00    -0.200 F 
ATOM     59  C   UNL A   1      36.465  29.821  29.019  1.00  0.00     0.200 A 
ATOM     60  F   UNL A   1      36.005  29.573  31.315  1.00  0.00    -0.200 F 
ATOM     61  F   UNL A   1      35.351  30.548  28.856  1.00  0.00    -0.200 F 
ENDBRANCH  27  51
BRANCH  39  62
ATOM     62  C   UNL A   1      44.345  27.799  32.526  1.00  0.00     0.064 A 
ATOM     63  C   UNL A   1      44.579  28.322  33.805  1.00  0.00     0.173 A 
ATOM     64  C   UNL A   1      44.160  26.408  32.421  1.00  0.00     0.173 A 
ATOM     65  F   UNL A   1      44.809  29.635  33.960  1.00  0.00    -0.203 F 
ATOM     66  C   UNL A   1      44.636  27.499  34.925  1.00  0.00     0.198 A 
ATOM     67  C   UNL A   1      44.178  25.590  33.551  1.00  0.00     0.198 A 
ATOM     68  F   UNL A   1      44.022  25.818  31.226  1.00  0.00    -0.203 F 
ATOM     69  F   UNL A   1      44.927  28.026  36.123  1.00  0.00    -0.200 F 
ATOM     70  C   UNL A   1      44.427  26.136  34.800  1.00  0.00     0.200 A 
ATOM     71  F   UNL A   1      43.993  24.268  33.428  1.00  0.00    -0.200 F 
ATOM     72  F   UNL A   1      44.493  25.345  35.880  1.00  0.00    -0.200 F 
ENDBRANCH  39  62
ENDBRANCH  13  14
ENDBRANCH   6   8
ENDBRANCH   5   6
ENDBRANCH   4   5
ENDBRANCH   3   4
ENDBRANCH   2   3
ENDBRANCH   1   2
BRANCH   1  73
ATOM     73  C   UNL A   1      39.526  22.311  26.116  1.00  0.00     0.261 C 
BRANCH  73  74
ATOM     74  O   UNL A   1      38.125  21.984  26.098  1.00  0.00    -0.460 OA
BRANCH  74  75
ATOM     75  C   UNL A   1      37.746  21.092  25.150  1.00  0.00     0.341 C 
ATOM     76  O   UNL A   1      38.210  19.983  24.951  1.00  0.00    -0.246 OA
BRANCH  75  77
ATOM     77  C   UNL A   1      36.470  21.532  24.570  1.00  0.00     0.097 A 
ATOM     78  C   UNL A   1      35.333  20.750  24.803  1.00  0.00     0.040 A 
ATOM     79  C   UNL A   1      36.371  22.701  23.825  1.00  0.00     0.137 A 
ATOM     80  C   UNL A   1      34.094  21.180  24.321  1.00  0.00     0.085 A 
ATOM     81  C   UNL A   1      35.137  23.103  23.310  1.00  0.00     0.041 A 
ATOM     82  F   UNL A   1      37.454  23.445  23.570  1.00  0.00    -0.206 F 
ATOM     83  C   UNL A   1      33.988  22.349  23.566  1.00  0.00     0.025 A 
BRANCH  80  84
ATOM     84  S   UNL A   1      32.688  20.175  24.684  1.00  0.00     0.257 S 
ATOM     85  O   UNL A   1      32.410  19.367  23.524  1.00  0.00    -0.205 OA
ATOM     86  O   UNL A   1      32.927  19.585  25.987  1.00  0.00    -0.205 OA
BRANCH  84  87
ATOM     87  N   UNL A   1      31.405  21.274  24.848  1.00  0.00    -0.123 NA
ATOM     88  H   UNL A   1      30.552  20.783  24.577  1.00  0.00     0.167 HD
BRANCH  87  89
ATOM     89  N   UNL A   1      31.170  21.857  26.140  1.00  0.00    -0.275 N 
ATOM     90  C   UNL A   1      31.242  23.185  26.468  1.00  0.00     0.265 C 
ATOM     91  H   UNL A   1      30.933  21.237  26.867  1.00  0.00     0.186 HD
ATOM     92  O   UNL A   1      30.804  23.519  27.576  1.00  0.00    -0.271 OA
BRANCH  90  93
ATOM     93  C   UNL A   1      31.880  24.227  25.534  1.00  0.00     0.244 C 
ATOM     94  C   UNL A   1      31.275  25.578  25.420  1.00  0.00     0.042 C 
ATOM     95  N   UNL A   1      33.249  24.526  26.033  1.00  0.00    -0.171 NA
ATOM     96  C   UNL A   1      32.245  26.424  25.773  1.00  0.00     0.091 C 
ATOM     97  N   UNL A   1      33.407  25.777  26.113  1.00  0.00    -0.155 NA
BRANCH  96  98
ATOM     98  C   UNL A   1      32.110  27.873  25.912  1.00  0.00     0.002 A 
ATOM     99  C   UNL A   1      32.561  28.532  27.060  1.00  0.00     0.010 A 
ATOM    100  C   UNL A   1      31.468  28.621  24.916  1.00  0.00     0.010 A 
ATOM    101  C   UNL A   1      32.374  29.910  27.202  1.00  0.00     0.001 A 
ATOM    102  C   UNL A   1      31.275  29.994  25.059  1.00  0.00     0.001 A 
ATOM    103  C   UNL A   1      31.729  30.640  26.203  1.00  0.00     0.000 A 
ENDBRANCH  96  98
ENDBRANCH  90  93
ENDBRANCH  87  89
ENDBRANCH  84  87
ENDBRANCH  80  84
ENDBRANCH  75  77
ENDBRANCH  74  75
ENDBRANCH  73  74
ENDBRANCH   1  73
TORSDOF 19
ENDMDL
MODEL 2
REMARK VINA RESULT:     -12.5      3.046      8.550
REMARK SMILES O=C(OCCOCCOC(=O)c1cc(S(=O)(=O)NNC(=O)[C@H]2C=C(c3ccccc3)N=N2)ccc1F)c1ccc(-c2c3nc(c(-c4c(F)c(F)c(F)c(F)c4F)c4ccc([nH]4)c(-c4c(F)c(F)c(F)c(F)c4F)c4nc(c(-c5c(F)c(F)c(F)c(F)c5F)c5ccc2[nH]5)C=C4)C=C3)cc1
REMARK SMILES IDX 7 1 6 2 5 3 4 4 3 5 2 6 1 7 37 8 38 9 99 10 39 11 98 12
REMARK SMILES IDX 40 13 41 14 42 15 92 16 43 17 97 18 91 19 93 20 44 21 96 22
REMARK SMILES IDX 90 23 89 24 45 26 77 27 57 28 76 29 58 30 61 31 75 32 94 33
REMARK SMILES IDX 59 34 60 35 74 37 95 38 62 39 46 40 47 41 55 42 48 43 49 44
REMARK SMILES IDX 53 45 56 46 50 47 51 48 54 49 52 50 78 51 79 52 87 53 80 54
REMARK SMILES IDX 81 55 85 56 88 57 82 58 83 59 86 60 84 61 63 62 64 63 72 64
REMARK SMILES IDX 65 65 66 66 70 67 73 68 67 69 68 70 71 71 69 72 8 73 9 74
REMARK SMILES IDX 10 75 11 76 12 77 13 78 35 79 14 80 34 81 36 82 33 83 15 84
REMARK SMILES IDX 16 85 17 86 18 87 19 89 20 90 21 92 22 93 23 94 32 95 24 96
REMARK SMILES IDX 31 97 25 98 26 99 30 100 27 101 29 102 28 103
REMARK H PARENT 93 25 61 36 18 88 19 91
REMARK Flexibility Score: inf
ROOT
ATOM      1  C   UNL A   1      34.875  30.196  27.420  1.00  0.00     0.202 C 
ENDROOT
BRANCH   1   2
ATOM      2  O   UNL A   1      34.036  31.155  28.080  1.00  0.00    -0.374 OA
BRANCH   2   3
ATOM      3  C   UNL A   1      34.431  32.520  28.030  1.00  0.00     0.202 C 
BRANCH   3   4
ATOM      4  C   UNL A   1      34.397  33.328  29.326  1.00  0.00     0.261 C 
BRANCH   4   5
ATOM      5  O   UNL A   1      34.291  32.513  30.505  1.00  0.00    -0.460 OA
BRANCH   5   6
ATOM      6  C   UNL A   1      35.309  32.165  31.321  1.00  0.00     0.338 C 
ATOM      7  O   UNL A   1      35.188  32.280  32.539  1.00  0.00    -0.246 OA
BRANCH   6   8
ATOM      8  C   UNL A   1      36.453  31.389  30.783  1.00  0.00     0.060 A 
ATOM      9  C   UNL A   1      36.512  30.000  30.690  1.00  0.00     0.016 A 
ATOM     10  C   UNL A   1      37.600  32.144  30.487  1.00  0.00     0.016 A 
ATOM     11  C   UNL A   1      37.738  29.372  30.634  1.00  0.00     0.010 A 
ATOM     12  C   UNL A   1      38.823  31.522  30.349  1.00  0.00     0.010 A 
ATOM     13  C   UNL A   1      38.891  30.148  30.535  1.00  0.00    -0.014 A 
BRANCH  13  14
ATOM     14  C   UNL A   1      40.158  29.452  30.419  1.00  0.00     0.031 A 
ATOM     15  C   UNL A   1      40.840  29.326  31.730  1.00  0.00     0.074 A 
ATOM     16  C   UNL A   1      40.573  28.918  29.253  1.00  0.00     0.049 A 
ATOM     17  N   UNL A   1      41.975  29.832  32.079  1.00  0.00    -0.248 NA
ATOM     18  C   UNL A   1      40.074  28.749  32.853  1.00  0.00     0.031 C 
ATOM     19  C   UNL A   1      39.832  28.834  27.993  1.00  0.00     0.029 A 
ATOM     20  N   UNL A   1      41.720  28.237  28.972  1.00  0.00    -0.354 N 
ATOM     21  C   UNL A   1      42.170  29.430  33.396  1.00  0.00     0.074 A 
ATOM     22  C   UNL A   1      40.901  28.960  33.877  1.00  0.00     0.031 C 
ATOM     23  C   UNL A   1      40.434  27.943  27.174  1.00  0.00     0.029 A 
ATOM     24  C   UNL A   1      41.666  27.495  27.792  1.00  0.00     0.049 A 
ATOM     25  H   UNL A   1      42.516  28.269  29.549  1.00  0.00     0.167 HD
ATOM     26  C   UNL A   1      43.431  29.207  33.853  1.00  0.00     0.037 A 
ATOM     27  C   UNL A   1      42.542  26.523  27.423  1.00  0.00     0.037 A 
ATOM     28  C   UNL A   1      44.394  29.942  33.070  1.00  0.00     0.049 A 
ATOM     29  C   UNL A   1      43.781  26.735  28.215  1.00  0.00     0.074 A 
ATOM     30  C   UNL A   1      44.600  31.278  32.786  1.00  0.00     0.029 A 
ATOM     31  N   UNL A   1      45.092  29.242  32.120  1.00  0.00    -0.354 N 
ATOM     32  N   UNL A   1      44.571  27.759  28.062  1.00  0.00    -0.248 NA
ATOM     33  C   UNL A   1      43.884  26.047  29.492  1.00  0.00     0.031 C 
ATOM     34  C   UNL A   1      45.030  31.308  31.426  1.00  0.00     0.029 A 
ATOM     35  C   UNL A   1      45.143  29.991  30.977  1.00  0.00     0.049 A 
ATOM     36  H   UNL A   1      45.491  28.350  32.241  1.00  0.00     0.167 HD
ATOM     37  C   UNL A   1      44.930  28.116  29.353  1.00  0.00     0.074 A 
ATOM     38  C   UNL A   1      44.546  26.977  30.184  1.00  0.00     0.031 C 
ATOM     39  C   UNL A   1      45.221  29.415  29.656  1.00  0.00     0.037 A 
BRANCH  26  40
ATOM     40  C   UNL A   1      43.801  27.977  34.655  1.00  0.00     0.064 A 
ATOM     41  C   UNL A   1      44.108  27.987  36.036  1.00  0.00     0.173 A 
ATOM     42  C   UNL A   1      43.525  26.706  34.112  1.00  0.00     0.173 A 
ATOM     43  F   UNL A   1      44.297  29.116  36.727  1.00  0.00    -0.203 F 
ATOM     44  C   UNL A   1      44.117  26.831  36.812  1.00  0.00     0.198 A 
ATOM     45  C   UNL A   1      43.483  25.556  34.905  1.00  0.00     0.198 A 
ATOM     46  F   UNL A   1      43.187  26.576  32.820  1.00  0.00    -0.203 F 
ATOM     47  F   UNL A   1      44.376  26.923  38.124  1.00  0.00    -0.200 F 
ATOM     48  C   UNL A   1      43.774  25.620  36.255  1.00  0.00     0.200 A 
ATOM     49  F   UNL A   1      43.081  24.396  34.370  1.00  0.00    -0.200 F 
ATOM     50  F   UNL A   1      43.673  24.532  37.029  1.00  0.00    -0.200 F 
ENDBRANCH  26  40
BRANCH  27  51
ATOM     51  C   UNL A   1      42.261  25.224  26.755  1.00  0.00     0.064 A 
ATOM     52  C   UNL A   1      41.504  24.214  27.381  1.00  0.00     0.173 A 
ATOM     53  C   UNL A   1      42.992  24.832  25.618  1.00  0.00     0.173 A 
ATOM     54  F   UNL A   1      40.821  24.459  28.507  1.00  0.00    -0.203 F 
ATOM     55  C   UNL A   1      41.511  22.893  26.926  1.00  0.00     0.198 A 
ATOM     56  C   UNL A   1      43.004  23.507  25.167  1.00  0.00     0.198 A 
ATOM     57  F   UNL A   1      43.771  25.718  24.979  1.00  0.00    -0.203 F 
ATOM     58  F   UNL A   1      40.827  21.957  27.597  1.00  0.00    -0.200 F 
ATOM     59  C   UNL A   1      42.275  22.536  25.831  1.00  0.00     0.200 A 
ATOM     60  F   UNL A   1      43.778  23.160  24.128  1.00  0.00    -0.200 F 
ATOM     61  F   UNL A   1      42.343  21.254  25.447  1.00  0.00    -0.200 F 
ENDBRANCH  27  51
BRANCH  39  62
ATOM     62  C   UNL A   1      45.445  30.370  28.516  1.00  0.00     0.064 A 
ATOM     63  C   UNL A   1      46.769  30.660  28.162  1.00  0.00     0.173 A 
ATOM     64  C   UNL A   1      44.429  31.102  27.875  1.00  0.00     0.173 A 
ATOM     65  F   UNL A   1      47.782  30.027  28.776  1.00  0.00    -0.203 F 
ATOM     66  C   UNL A   1      47.070  31.639  27.220  1.00  0.00     0.198 A 
ATOM     67  C   UNL A   1      44.732  32.054  26.902  1.00  0.00     0.198 A 
ATOM     68  F   UNL A   1      43.144  30.950  28.221  1.00  0.00    -0.203 F 
ATOM     69  F   UNL A   1      48.350  31.935  26.955  1.00  0.00    -0.200 F 
ATOM     70  C   UNL A   1      46.052  32.329  26.585  1.00  0.00     0.200 A 
ATOM     71  F   UNL A   1      43.747  32.736  26.298  1.00  0.00    -0.200 F 
ATOM     72  F   UNL A   1      46.345  33.279  25.685  1.00  0.00    -0.200 F 
ENDBRANCH  39  62
ENDBRANCH  13  14
ENDBRANCH   6   8
ENDBRANCH   5   6
ENDBRANCH   4   5
ENDBRANCH   3   4
ENDBRANCH   2   3
ENDBRANCH   1   2
BRANCH   1  73
ATOM     73  C   UNL A   1      34.259  29.114  26.516  1.00  0.00     0.261 C 
BRANCH  73  74
ATOM     74  O   UNL A   1      33.395  28.203  27.219  1.00  0.00    -0.460 OA
BRANCH  74  75
ATOM     75  C   UNL A   1      32.066  28.437  27.084  1.00  0.00     0.341 C 
ATOM     76  O   UNL A   1      31.465  29.462  27.351  1.00  0.00    -0.246 OA
BRANCH  75  77
ATOM     77  C   UNL A   1      31.477  27.361  26.274  1.00  0.00     0.097 A 
ATOM     78  C   UNL A   1      31.525  26.055  26.774  1.00  0.00     0.040 A 
ATOM     79  C   UNL A   1      30.867  27.618  25.052  1.00  0.00     0.137 A 
ATOM     80  C   UNL A   1      30.913  25.023  26.058  1.00  0.00     0.085 A 
ATOM     81  C   UNL A   1      30.294  26.575  24.321  1.00  0.00     0.041 A 
ATOM     82  F   UNL A   1      30.838  28.857  24.547  1.00  0.00    -0.206 F 
ATOM     83  C   UNL A   1      30.304  25.272  24.827  1.00  0.00     0.025 A 
BRANCH  80  84
ATOM     84  S   UNL A   1      30.967  23.404  26.760  1.00  0.00     0.257 S 
ATOM     85  O   UNL A   1      32.189  23.289  27.514  1.00  0.00    -0.205 OA
ATOM     86  O   UNL A   1      29.669  23.174  27.367  1.00  0.00    -0.205 OA
BRANCH  84  87
ATOM     87  N   UNL A   1      31.100  22.362  25.428  1.00  0.00    -0.123 NA
ATOM     88  H   UNL A   1      31.714  22.815  24.750  1.00  0.00     0.167 HD
BRANCH  87  89
ATOM     89  N   UNL A   1      31.614  21.038  25.649  1.00  0.00    -0.275 N 
ATOM     90  C   UNL A   1      32.901  20.612  25.455  1.00  0.00     0.265 C 
ATOM     91  H   UNL A   1      30.973  20.365  25.974  1.00  0.00     0.186 HD
ATOM     92  O   UNL A   1      33.201  19.496  25.896  1.00  0.00    -0.271 OA
BRANCH  90  93
ATOM     93  C   UNL A   1      33.933  21.449  24.681  1.00  0.00     0.244 C 
ATOM     94  C   UNL A   1      33.472  22.403  23.640  1.00  0.00     0.042 C 
ATOM     95  N   UNL A   1      34.635  22.335  25.646  1.00  0.00    -0.171 NA
ATOM     96  C   UNL A   1      33.935  23.592  24.031  1.00  0.00     0.091 C 
ATOM     97  N   UNL A   1      34.635  23.522  25.210  1.00  0.00    -0.155 NA
BRANCH  96  98
ATOM     98  C   UNL A   1      33.662  24.874  23.382  1.00  0.00     0.002 A 
ATOM     99  C   UNL A   1      33.053  24.929  22.124  1.00  0.00     0.010 A 
ATOM    100  C   UNL A   1      34.062  26.071  23.988  1.00  0.00     0.010 A 
ATOM    101  C   UNL A   1      32.849  26.160  21.493  1.00  0.00     0.001 A 
ATOM    102  C   UNL A   1      33.865  27.299  23.357  1.00  0.00     0.001 A 
ATOM    103  C   UNL A   1      33.258  27.343  22.108  1.00  0.00     0.000 A 
ENDBRANCH  96  98
ENDBRANCH  90  93
ENDBRANCH  87  89
ENDBRANCH  84  87
ENDBRANCH  80  84
ENDBRANCH  75  77
ENDBRANCH  74  75
ENDBRANCH  73  74
ENDBRANCH   1  73
TORSDOF 19
ENDMDL
MODEL 3
REMARK VINA RESULT:     -12.1      3.942      9.485
REMARK SMILES O=C(OCCOCCOC(=O)c1cc(S(=O)(=O)NNC(=O)[C@H]2C=C(c3ccccc3)N=N2)ccc1F)c1ccc(-c2c3nc(c(-c4c(F)c(F)c(F)c(F)c4F)c4ccc([nH]4)c(-c4c(F)c(F)c(F)c(F)c4F)c4nc(c(-c5c(F)c(F)c(F)c(F)c5F)c5ccc2[nH]5)C=C4)C=C3)cc1
REMARK SMILES IDX 7 1 6 2 5 3 4 4 3 5 2 6 1 7 37 8 38 9 99 10 39 11 98 12
REMARK SMILES IDX 40 13 41 14 42 15 92 16 43 17 97 18 91 19 93 20 44 21 96 22
REMARK SMILES IDX 90 23 89 24 45 26 77 27 57 28 76 29 58 30 61 31 75 32 94 33
REMARK SMILES IDX 59 34 60 35 74 37 95 38 62 39 46 40 47 41 55 42 48 43 49 44
REMARK SMILES IDX 53 45 56 46 50 47 51 48 54 49 52 50 78 51 79 52 87 53 80 54
REMARK SMILES IDX 81 55 85 56 88 57 82 58 83 59 86 60 84 61 63 62 64 63 72 64
REMARK SMILES IDX 65 65 66 66 70 67 73 68 67 69 68 70 71 71 69 72 8 73 9 74
REMARK SMILES IDX 10 75 11 76 12 77 13 78 35 79 14 80 34 81 36 82 33 83 15 84
REMARK SMILES IDX 16 85 17 86 18 87 19 89 20 90 21 92 22 93 23 94 32 95 24 96
REMARK SMILES IDX 31 97 25 98 26 99 30 100 27 101 29 102 28 103
REMARK H PARENT 93 25 61 36 18 88 19 91
REMARK Flexibility Score: inf
ROOT
ATOM      1  C   UNL A   1      32.939  36.090  30.370  1.00  0.00     0.202 C 
ENDROOT
BRANCH   1   2
ATOM      2  O   UNL A   1      33.134  35.227  31.500  1.00  0.00    -0.374 OA
BRANCH   2   3
ATOM      3  C   UNL A   1      34.293  35.438  32.296  1.00  0.00     0.202 C 
BRANCH   3   4
ATOM      4  C   UNL A   1      34.638  34.395  33.358  1.00  0.00     0.261 C 
BRANCH   4   5
ATOM      5  O   UNL A   1      35.568  33.399  32.900  1.00  0.00    -0.460 OA
BRANCH   5   6
ATOM      6  C   UNL A   1      35.303  32.418  32.010  1.00  0.00     0.338 C 
ATOM      7  O   UNL A   1      34.174  32.304  31.538  1.00  0.00    -0.246 OA
BRANCH   6   8
ATOM      8  C   UNL A   1      36.420  31.663  31.391  1.00  0.00     0.060 A 
ATOM      9  C   UNL A   1      36.451  30.284  31.198  1.00  0.00     0.016 A 
ATOM     10  C   UNL A   1      37.573  32.419  31.122  1.00  0.00     0.016 A 
ATOM     11  C   UNL A   1      37.664  29.642  31.067  1.00  0.00     0.010 A 
ATOM     12  C   UNL A   1      38.781  31.788  30.911  1.00  0.00     0.010 A 
ATOM     13  C   UNL A   1      38.829  30.403  30.997  1.00  0.00    -0.014 A 
BRANCH  13  14
ATOM     14  C   UNL A   1      40.079  29.696  30.801  1.00  0.00     0.031 A 
ATOM     15  C   UNL A   1      40.825  29.533  32.073  1.00  0.00     0.074 A 
ATOM     16  C   UNL A   1      40.429  29.185  29.604  1.00  0.00     0.049 A 
ATOM     17  N   UNL A   1      41.982  30.018  32.375  1.00  0.00    -0.248 NA
ATOM     18  C   UNL A   1      40.110  28.938  33.220  1.00  0.00     0.031 C 
ATOM     19  C   UNL A   1      39.624  29.139  28.382  1.00  0.00     0.029 A 
ATOM     20  N   UNL A   1      41.552  28.499  29.250  1.00  0.00    -0.354 N 
ATOM     21  C   UNL A   1      42.238  29.584  33.672  1.00  0.00     0.074 A 
ATOM     22  C   UNL A   1      40.989  29.116  34.205  1.00  0.00     0.031 C 
ATOM     23  C   UNL A   1      40.174  28.260  27.513  1.00  0.00     0.029 A 
ATOM     24  C   UNL A   1      41.430  27.784  28.058  1.00  0.00     0.049 A 
ATOM     25  H   UNL A   1      42.376  28.508  29.787  1.00  0.00     0.167 HD
ATOM     26  C   UNL A   1      43.517  29.336  34.059  1.00  0.00     0.037 A 
ATOM     27  C   UNL A   1      42.275  26.811  27.624  1.00  0.00     0.037 A 
ATOM     28  C   UNL A   1      44.448  30.078  33.246  1.00  0.00     0.049 A 
ATOM     29  C   UNL A   1      43.554  26.992  28.356  1.00  0.00     0.074 A 
ATOM     30  C   UNL A   1      44.656  31.418  32.982  1.00  0.00     0.029 A 
ATOM     31  N   UNL A   1      45.090  29.393  32.246  1.00  0.00    -0.354 N 
ATOM     32  N   UNL A   1      44.348  28.011  28.187  1.00  0.00    -0.248 NA
ATOM     33  C   UNL A   1      43.713  26.273  29.611  1.00  0.00     0.031 C 
ATOM     34  C   UNL A   1      45.018  31.475  31.603  1.00  0.00     0.029 A 
ATOM     35  C   UNL A   1      45.093  30.168  31.119  1.00  0.00     0.049 A 
ATOM     36  H   UNL A   1      45.484  28.495  32.327  1.00  0.00     0.167 HD
ATOM     37  C   UNL A   1      44.775  28.333  29.466  1.00  0.00     0.074 A 
ATOM     38  C   UNL A   1      44.421  27.180  30.289  1.00  0.00     0.031 C 
ATOM     39  C   UNL A   1      45.097  29.622  29.783  1.00  0.00     0.037 A 
BRANCH  26  40
ATOM     40  C   UNL A   1      43.912  28.084  34.813  1.00  0.00     0.064 A 
ATOM     41  C   UNL A   1      44.328  28.064  36.165  1.00  0.00     0.173 A 
ATOM     42  C   UNL A   1      43.556  26.830  34.278  1.00  0.00     0.173 A 
ATOM     43  F   UNL A   1      44.606  29.177  36.854  1.00  0.00    -0.203 F 
ATOM     44  C   UNL A   1      44.364  26.897  36.924  1.00  0.00     0.198 A 
ATOM     45  C   UNL A   1      43.542  25.670  35.058  1.00  0.00     0.198 A 
ATOM     46  F   UNL A   1      43.113  26.729  33.016  1.00  0.00    -0.203 F 
ATOM     47  F   UNL A   1      44.729  26.962  38.212  1.00  0.00    -0.200 F 
ATOM     48  C   UNL A   1      43.941  25.705  36.381  1.00  0.00     0.200 A 
ATOM     49  F   UNL A   1      43.064  24.530  34.542  1.00  0.00    -0.200 F 
ATOM     50  F   UNL A   1      43.870  24.609  37.147  1.00  0.00    -0.200 F 
ENDBRANCH  26  40
BRANCH  27  51
ATOM     51  C   UNL A   1      41.944  25.531  26.941  1.00  0.00     0.064 A 
ATOM     52  C   UNL A   1      41.102  24.569  27.533  1.00  0.00     0.173 A 
ATOM     53  C   UNL A   1      42.698  25.096  25.836  1.00  0.00     0.173 A 
ATOM     54  F   UNL A   1      40.388  24.856  28.629  1.00  0.00    -0.203 F 
ATOM     55  C   UNL A   1      41.049  23.250  27.075  1.00  0.00     0.198 A 
ATOM     56  C   UNL A   1      42.651  23.772  25.383  1.00  0.00     0.198 A 
ATOM     57  F   UNL A   1      43.556  25.933  25.232  1.00  0.00    -0.203 F 
ATOM     58  F   UNL A   1      40.283  22.357  27.715  1.00  0.00    -0.200 F 
ATOM     59  C   UNL A   1      41.837  22.848  26.013  1.00  0.00     0.200 A 
ATOM     60  F   UNL A   1      43.445  23.379  24.377  1.00  0.00    -0.200 F 
ATOM     61  F   UNL A   1      41.844  21.563  25.629  1.00  0.00    -0.200 F 
ENDBRANCH  27  51
BRANCH  39  62
ATOM     62  C   UNL A   1      45.275  30.600  28.655  1.00  0.00     0.064 A 
ATOM     63  C   UNL A   1      46.565  30.762  28.132  1.00  0.00     0.173 A 
ATOM     64  C   UNL A   1      44.273  31.468  28.184  1.00  0.00     0.173 A 
ATOM     65  F   UNL A   1      47.571  29.994  28.581  1.00  0.00    -0.203 F 
ATOM     66  C   UNL A   1      46.847  31.747  27.191  1.00  0.00     0.198 A 
ATOM     67  C   UNL A   1      44.550  32.428  27.210  1.00  0.00     0.198 A 
ATOM     68  F   UNL A   1      43.036  31.439  28.698  1.00  0.00    -0.203 F 
ATOM     69  F   UNL A   1      48.106  31.916  26.763  1.00  0.00    -0.200 F 
ATOM     70  C   UNL A   1      45.840  32.573  26.724  1.00  0.00     0.200 A 
ATOM     71  F   UNL A   1      43.578  33.240  26.769  1.00  0.00    -0.200 F 
ATOM     72  F   UNL A   1      46.117  33.528  25.825  1.00  0.00    -0.200 F 
ENDBRANCH  39  62
ENDBRANCH  13  14
ENDBRANCH   6   8
ENDBRANCH   5   6
ENDBRANCH   4   5
ENDBRANCH   3   4
ENDBRANCH   2   3
ENDBRANCH   1   2
BRANCH   1  73
ATOM     73  C   UNL A   1      33.705  35.841  29.059  1.00  0.00     0.261 C 
BRANCH  73  74
ATOM     74  O   UNL A   1      34.129  34.476  28.892  1.00  0.00    -0.460 OA
BRANCH  74  75
ATOM     75  C   UNL A   1      33.300  33.693  28.159  1.00  0.00     0.341 C 
ATOM     76  O   UNL A   1      32.286  34.032  27.575  1.00  0.00    -0.246 OA
BRANCH  75  77
ATOM     77  C   UNL A   1      33.964  32.406  27.909  1.00  0.00     0.097 A 
ATOM     78  C   UNL A   1      33.172  31.316  27.529  1.00  0.00     0.040 A 
ATOM     79  C   UNL A   1      35.341  32.261  28.022  1.00  0.00     0.137 A 
ATOM     80  C   UNL A   1      33.783  30.099  27.220  1.00  0.00     0.085 A 
ATOM     81  C   UNL A   1      35.942  31.029  27.751  1.00  0.00     0.041 A 
ATOM     82  F   UNL A   1      36.109  33.286  28.411  1.00  0.00    -0.206 F 
ATOM     83  C   UNL A   1      35.165  29.943  27.337  1.00  0.00     0.025 A 
BRANCH  80  84
ATOM     84  S   UNL A   1      32.738  28.772  26.703  1.00  0.00     0.257 S 
ATOM     85  O   UNL A   1      32.704  27.798  27.764  1.00  0.00    -0.205 OA
ATOM     86  O   UNL A   1      31.527  29.379  26.183  1.00  0.00    -0.205 OA
BRANCH  84  87
ATOM     87  N   UNL A   1      33.556  28.063  25.397  1.00  0.00    -0.123 NA
ATOM     88  H   UNL A   1      34.544  28.302  25.494  1.00  0.00     0.167 HD
BRANCH  87  89
ATOM     89  N   UNL A   1      33.477  26.637  25.239  1.00  0.00    -0.275 N 
ATOM     90  C   UNL A   1      33.040  25.955  24.134  1.00  0.00     0.265 C 
ATOM     91  H   UNL A   1      33.767  26.092  26.006  1.00  0.00     0.186 HD
ATOM     92  O   UNL A   1      33.241  24.734  24.106  1.00  0.00    -0.271 OA
BRANCH  90  93
ATOM     93  C   UNL A   1      32.287  26.649  22.988  1.00  0.00     0.244 C 
ATOM     94  C   UNL A   1      30.887  27.101  23.198  1.00  0.00     0.042 C 
ATOM     95  N   UNL A   1      32.992  27.917  22.664  1.00  0.00    -0.171 NA
ATOM     96  C   UNL A   1      30.908  28.414  22.958  1.00  0.00     0.091 C 
ATOM     97  N   UNL A   1      32.160  28.868  22.627  1.00  0.00    -0.155 NA
BRANCH  96  98
ATOM     98  C   UNL A   1      29.783  29.333  23.126  1.00  0.00     0.002 A 
ATOM     99  C   UNL A   1      29.957  30.583  23.728  1.00  0.00     0.010 A 
ATOM    100  C   UNL A   1      28.493  28.948  22.738  1.00  0.00     0.010 A 
ATOM    101  C   UNL A   1      28.861  31.427  23.932  1.00  0.00     0.001 A 
ATOM    102  C   UNL A   1      27.398  29.785  22.946  1.00  0.00     0.001 A 
ATOM    103  C   UNL A   1      27.582  31.026  23.543  1.00  0.00     0.000 A 
ENDBRANCH  96  98
ENDBRANCH  90  93
ENDBRANCH  87  89
ENDBRANCH  84  87
ENDBRANCH  80  84
ENDBRANCH  75  77
ENDBRANCH  74  75
ENDBRANCH  73  74
ENDBRANCH   1  73
TORSDOF 19
ENDMDL
