MODEL 1
REMARK VINA RESULT:     -13.3      0.000      0.000
REMARK SMILES O=C(OCCOCCOC(=O)c1ccc(-c2c3nc(c(-c4c(F)c(F)c(F)c(F)c4F)c4ccc([nH]4)c(-c4c(F)c(F)c(F)c(F)c4F)c4nc(c(-c5c(F)c(F)c(F)c(F)c5F)c5ccc2[nH]5)C=C4)C=C3)cc1)C1=Cc2cc(C(F)(F)F)ccc2O[C@@H]1C(F)(F)F
REMARK SMILES IDX 7 1 6 2 5 3 4 4 3 5 2 6 1 7 75 8 76 9 88 10 77 11 87 12
REMARK SMILES IDX 78 13 86 14 79 15 85 16 84 17 89 18 90 19 91 20 92 21 80 22
REMARK SMILES IDX 81 23 82 24 83 25 8 26 9 27 10 28 11 29 12 30 13 31 74 32
REMARK SMILES IDX 14 33 73 34 15 35 16 36 17 37 67 38 18 39 72 40 66 41 68 42
REMARK SMILES IDX 19 43 71 44 65 45 64 46 20 48 52 49 32 50 51 51 33 52 36 53
REMARK SMILES IDX 50 54 69 55 34 56 35 57 49 59 70 60 37 61 21 62 22 63 30 64
REMARK SMILES IDX 23 65 24 66 28 67 31 68 25 69 26 70 29 71 27 72 53 73 54 74
REMARK SMILES IDX 62 75 55 76 56 77 60 78 63 79 57 80 58 81 61 82 59 83 38 84
REMARK SMILES IDX 39 85 47 86 40 87 41 88 45 89 48 90 42 91 43 92 46 93 44 94
REMARK H PARENT 68 47 36 58
REMARK Flexibility Score: inf
ROOT
ATOM      1  C   UNL A   1      42.386  20.934  26.643  1.00  0.00     0.202 C 
ENDROOT
BRANCH   1   2
ATOM      2  O   UNL A   1      41.084  20.588  26.144  1.00  0.00    -0.374 OA
BRANCH   2   3
ATOM      3  C   UNL A   1      39.666  21.359  26.141  1.00  0.00     0.202 C 
BRANCH   3   4
ATOM      4  C   UNL A   1      37.781  20.907  25.164  1.00  0.00     0.261 C 
BRANCH   4   5
ATOM      5  O   UNL A   1      36.421  21.568  25.443  1.00  0.00    -0.460 OA
BRANCH   5   6
ATOM      6  C   UNL A   1      35.934  22.206  24.374  1.00  0.00     0.338 C 
ATOM      7  O   UNL A   1      36.499  22.581  23.380  1.00  0.00    -0.246 OA
BRANCH   6   8
ATOM      8  C   UNL A   1      34.679  22.588  24.985  1.00  0.00     0.087 C 
ATOM      9  C   UNL A   1      34.627  24.046  25.249  1.00  0.00     0.027 C 
ATOM     10  C   UNL A   1      33.544  21.656  23.722  1.00  0.00     0.316 C 
ATOM     11  C   UNL A   1      33.654  25.210  24.260  1.00  0.00     0.018 A 
ATOM     12  O   UNL A   1      32.547  22.884  22.615  1.00  0.00    -0.475 OA
ATOM     13  C   UNL A   1      33.774  26.552  24.486  1.00  0.00     0.025 A 
ATOM     14  C   UNL A   1      32.698  24.678  22.915  1.00  0.00     0.128 A 
ATOM     15  C   UNL A   1      33.124  27.395  23.552  1.00  0.00     0.056 A 
ATOM     16  C   UNL A   1      32.226  25.545  21.978  1.00  0.00     0.048 A 
ATOM     17  C   UNL A   1      32.443  26.904  22.343  1.00  0.00     0.017 A 
BRANCH  10  18
ATOM     18  C   UNL A   1      33.060  20.486  24.685  1.00  0.00     0.430 C 
ATOM     19  F   UNL A   1      32.453  20.877  25.819  1.00  0.00    -0.167 F 
ATOM     20  F   UNL A   1      32.107  19.777  24.007  1.00  0.00    -0.167 F 
ATOM     21  F   UNL A   1      34.008  19.572  24.994  1.00  0.00    -0.167 F 
ENDBRANCH  10  18
BRANCH  15  22
ATOM     22  C   UNL A   1      33.168  28.889  23.855  1.00  0.00     0.416 C 
ATOM     23  F   UNL A   1      33.844  29.156  25.010  1.00  0.00    -0.166 F 
ATOM     24  F   UNL A   1      33.808  29.595  22.882  1.00  0.00    -0.166 F 
ATOM     25  F   UNL A   1      31.943  29.461  23.998  1.00  0.00    -0.166 F 
ENDBRANCH  15  22
ENDBRANCH   6   8
ENDBRANCH   5   6
ENDBRANCH   4   5
ENDBRANCH   3   4
ENDBRANCH   2   3
ENDBRANCH   1   2
BRANCH   1  26
ATOM     26  C   UNL A   1      43.264  21.746  25.701  1.00  0.00     0.261 C 
BRANCH  26  27
ATOM     27  O   UNL A   1      42.597  22.896  25.205  1.00  0.00    -0.460 OA
BRANCH  27  28
ATOM     28  C   UNL A   1      43.371  24.001  25.140  1.00  0.00     0.338 C 
ATOM     29  O   UNL A   1      44.363  24.193  24.461  1.00  0.00    -0.246 OA
BRANCH  28  30
ATOM     30  C   UNL A   1      42.808  24.982  26.079  1.00  0.00     0.060 A 
ATOM     31  C   UNL A   1      43.326  26.280  26.070  1.00  0.00     0.016 A 
ATOM     32  C   UNL A   1      41.751  24.629  26.930  1.00  0.00     0.016 A 
ATOM     33  C   UNL A   1      42.752  27.250  26.884  1.00  0.00     0.010 A 
ATOM     34  C   UNL A   1      41.199  25.586  27.766  1.00  0.00     0.010 A 
ATOM     35  C   UNL A   1      41.711  26.893  27.748  1.00  0.00    -0.014 A 
BRANCH  35  36
ATOM     36  C   UNL A   1      41.335  27.795  28.844  1.00  0.00     0.031 A 
ATOM     37  C   UNL A   1      42.126  27.680  30.108  1.00  0.00     0.074 A 
ATOM     38  C   UNL A   1      40.300  28.639  28.724  1.00  0.00     0.049 A 
ATOM     39  N   UNL A   1      41.944  28.266  31.259  1.00  0.00    -0.248 NA
ATOM     40  C   UNL A   1      43.276  26.760  30.068  1.00  0.00     0.031 C 
ATOM     41  C   UNL A   1      39.502  28.832  27.517  1.00  0.00     0.029 A 
ATOM     42  N   UNL A   1      39.733  29.473  29.648  1.00  0.00    -0.354 N 
ATOM     43  C   UNL A   1      42.954  27.785  32.078  1.00  0.00     0.074 A 
ATOM     44  C   UNL A   1      43.722  26.833  31.310  1.00  0.00     0.031 C 
ATOM     45  C   UNL A   1      38.529  29.721  27.781  1.00  0.00     0.029 A 
ATOM     46  C   UNL A   1      38.614  30.117  29.186  1.00  0.00     0.049 A 
ATOM     47  H   UNL A   1      40.093  29.599  30.557  1.00  0.00     0.167 HD
ATOM     48  C   UNL A   1      43.210  28.112  33.364  1.00  0.00     0.037 A 
ATOM     49  C   UNL A   1      37.745  30.905  29.849  1.00  0.00     0.037 A 
ATOM     50  C   UNL A   1      42.395  29.022  34.119  1.00  0.00     0.049 A 
ATOM     51  C   UNL A   1      37.994  31.185  31.311  1.00  0.00     0.074 A 
ATOM     52  C   UNL A   1      42.544  29.428  35.430  1.00  0.00     0.029 A 
ATOM     53  N   UNL A   1      41.254  29.645  33.628  1.00  0.00    -0.354 N 
ATOM     54  N   UNL A   1      38.963  30.753  32.084  1.00  0.00    -0.248 NA
ATOM     55  C   UNL A   1      37.032  32.060  31.992  1.00  0.00     0.031 C 
ATOM     56  C   UNL A   1      41.448  30.232  35.758  1.00  0.00     0.029 A 
ATOM     57  C   UNL A   1      40.669  30.407  34.622  1.00  0.00     0.049 A 
ATOM     58  H   UNL A   1      40.914  29.558  32.708  1.00  0.00     0.167 HD
ATOM     59  C   UNL A   1      38.752  31.334  33.328  1.00  0.00     0.074 A 
ATOM     60  C   UNL A   1      37.559  32.146  33.206  1.00  0.00     0.031 C 
ATOM     61  C   UNL A   1      39.485  31.218  34.464  1.00  0.00     0.037 A 
BRANCH  48  62
ATOM     62  C   UNL A   1      44.363  27.416  34.027  1.00  0.00     0.064 A 
ATOM     63  C   UNL A   1      44.214  26.179  34.673  1.00  0.00     0.173 A 
ATOM     64  C   UNL A   1      45.627  28.022  34.057  1.00  0.00     0.173 A 
ATOM     65  F   UNL A   1      43.019  25.567  34.696  1.00  0.00    -0.203 F 
ATOM     66  C   UNL A   1      45.274  25.601  35.368  1.00  0.00     0.198 A 
ATOM     67  C   UNL A   1      46.696  27.421  34.715  1.00  0.00     0.198 A 
ATOM     68  F   UNL A   1      45.826  29.208  33.461  1.00  0.00    -0.203 F 
ATOM     69  F   UNL A   1      45.084  24.463  36.051  1.00  0.00    -0.200 F 
ATOM     70  C   UNL A   1      46.514  26.219  35.383  1.00  0.00     0.200 A 
ATOM     71  F   UNL A   1      47.896  28.015  34.719  1.00  0.00    -0.200 F 
ATOM     72  F   UNL A   1      47.532  25.667  36.058  1.00  0.00    -0.200 F 
ENDBRANCH  48  62
BRANCH  49  73
ATOM     73  C   UNL A   1      36.568  31.467  29.138  1.00  0.00     0.064 A 
ATOM     74  C   UNL A   1      36.511  32.822  28.785  1.00  0.00     0.173 A 
ATOM     75  C   UNL A   1      35.478  30.657  28.784  1.00  0.00     0.173 A 
ATOM     76  F   UNL A   1      37.518  33.643  29.117  1.00  0.00    -0.203 F 
ATOM     77  C   UNL A   1      35.406  33.347  28.116  1.00  0.00     0.198 A 
ATOM     78  C   UNL A   1      34.388  31.176  28.089  1.00  0.00     0.198 A 
ATOM     79  F   UNL A   1      35.480  29.353  29.096  1.00  0.00    -0.203 F 
ATOM     80  F   UNL A   1      35.362  34.654  27.824  1.00  0.00    -0.200 F 
ATOM     81  C   UNL A   1      34.350  32.523  27.760  1.00  0.00     0.200 A 
ATOM     82  F   UNL A   1      33.378  30.371  27.733  1.00  0.00    -0.200 F 
ATOM     83  F   UNL A   1      33.294  33.025  27.106  1.00  0.00    -0.200 F 
ENDBRANCH  49  73
BRANCH  61  84
ATOM     84  C   UNL A   1      39.067  32.038  35.653  1.00  0.00     0.064 A 
ATOM     85  C   UNL A   1      38.285  31.511  36.688  1.00  0.00     0.173 A 
ATOM     86  C   UNL A   1      39.544  33.353  35.791  1.00  0.00     0.173 A 
ATOM     87  F   UNL A   1      37.797  30.265  36.600  1.00  0.00    -0.203 F 
ATOM     88  C   UNL A   1      37.980  32.275  37.812  1.00  0.00     0.198 A 
ATOM     89  C   UNL A   1      39.271  34.099  36.934  1.00  0.00     0.198 A 
ATOM     90  F   UNL A   1      40.307  33.902  34.834  1.00  0.00    -0.203 F 
ATOM     91  F   UNL A   1      37.196  31.766  38.772  1.00  0.00    -0.200 F 
ATOM     92  C   UNL A   1      38.484  33.562  37.939  1.00  0.00     0.200 A 
ATOM     93  F   UNL A   1      39.780  35.331  37.064  1.00  0.00    -0.200 F 
ATOM     94  F   UNL A   1      38.209  34.286  39.034  1.00  0.00    -0.200 F 
ENDBRANCH  61  84
ENDBRANCH  35  36
ENDBRANCH  28  30
ENDBRANCH  27  28
ENDBRANCH  26  27
ENDBRANCH   1  26
TORSDOF 16
ENDMDL
MODEL 2
REMARK VINA RESULT:     -13.3      5.054     10.400
REMARK SMILES O=C(OCCOCCOC(=O)c1ccc(-c2c3nc(c(-c4c(F)c(F)c(F)c(F)c4F)c4ccc([nH]4)c(-c4c(F)c(F)c(F)c(F)c4F)c4nc(c(-c5c(F)c(F)c(F)c(F)c5F)c5ccc2[nH]5)C=C4)C=C3)cc1)C1=Cc2cc(C(F)(F)F)ccc2O[C@@H]1C(F)(F)F
REMARK SMILES IDX 7 1 6 2 5 3 4 4 3 5 2 6 1 7 75 8 76 9 88 10 77 11 87 12
REMARK SMILES IDX 78 13 86 14 79 15 85 16 84 17 89 18 90 19 91 20 92 21 80 22
REMARK SMILES IDX 81 23 82 24 83 25 8 26 9 27 10 28 11 29 12 30 13 31 74 32
REMARK SMILES IDX 14 33 73 34 15 35 16 36 17 37 67 38 18 39 72 40 66 41 68 42
REMARK SMILES IDX 19 43 71 44 65 45 64 46 20 48 52 49 32 50 51 51 33 52 36 53
REMARK SMILES IDX 50 54 69 55 34 56 35 57 49 59 70 60 37 61 21 62 22 63 30 64
REMARK SMILES IDX 23 65 24 66 28 67 31 68 25 69 26 70 29 71 27 72 53 73 54 74
REMARK SMILES IDX 62 75 55 76 56 77 60 78 63 79 57 80 58 81 61 82 59 83 38 84
REMARK SMILES IDX 39 85 47 86 40 87 41 88 45 89 48 90 42 91 43 92 46 93 44 94
REMARK H PARENT 68 47 36 58
REMARK Flexibility Score: inf
ROOT
ATOM      1  C   UNL A   1      34.345  34.213  29.394  1.00  0.00     0.202 C 
ENDROOT
BRANCH   1   2
ATOM      2  O   UNL A   1      33.713  33.274  28.507  1.00  0.00    -0.374 OA
BRANCH   2   3
ATOM      3  C   UNL A   1      34.266  32.012  27.666  1.00  0.00     0.202 C 
BRANCH   3   4
ATOM      4  C   UNL A   1      33.267  30.244  26.897  1.00  0.00     0.261 C 
BRANCH   4   5
ATOM      5  O   UNL A   1      33.329  28.826  27.486  1.00  0.00    -0.460 OA
BRANCH   5   6
ATOM      6  C   UNL A   1      32.264  28.089  27.160  1.00  0.00     0.338 C 
ATOM      7  O   UNL A   1      31.408  27.620  27.866  1.00  0.00    -0.246 OA
BRANCH   6   8
ATOM      8  C   UNL A   1      32.706  27.767  25.821  1.00  0.00     0.087 C 
ATOM      9  C   UNL A   1      33.686  26.654  25.827  1.00  0.00     0.027 C 
ATOM     10  C   UNL A   1      30.937  27.672  25.038  1.00  0.00     0.316 C 
ATOM     11  C   UNL A   1      33.288  24.965  25.309  1.00  0.00     0.018 A 
ATOM     12  O   UNL A   1      30.472  25.866  24.538  1.00  0.00    -0.475 OA
ATOM     13  C   UNL A   1      34.212  23.972  25.479  1.00  0.00     0.025 A 
ATOM     14  C   UNL A   1      31.702  24.536  24.757  1.00  0.00     0.128 A 
ATOM     15  C   UNL A   1      33.756  22.657  25.221  1.00  0.00     0.056 A 
ATOM     16  C   UNL A   1      31.295  23.241  24.672  1.00  0.00     0.048 A 
ATOM     17  C   UNL A   1      32.360  22.323  24.894  1.00  0.00     0.017 A 
BRANCH  10  18
ATOM     18  C   UNL A   1      31.006  29.011  24.180  1.00  0.00     0.430 C 
ATOM     19  F   UNL A   1      32.133  29.191  23.469  1.00  0.00    -0.167 F 
ATOM     20  F   UNL A   1      30.012  28.938  23.243  1.00  0.00    -0.167 F 
ATOM     21  F   UNL A   1      30.743  30.144  24.869  1.00  0.00    -0.167 F 
ENDBRANCH  10  18
BRANCH  15  22
ATOM     22  C   UNL A   1      34.808  21.554  25.311  1.00  0.00     0.416 C 
ATOM     23  F   UNL A   1      34.249  20.311  25.257  1.00  0.00    -0.166 F 
ATOM     24  F   UNL A   1      35.697  21.604  24.282  1.00  0.00    -0.166 F 
ATOM     25  F   UNL A   1      35.544  21.584  26.453  1.00  0.00    -0.166 F 
ENDBRANCH  15  22
ENDBRANCH   6   8
ENDBRANCH   5   6
ENDBRANCH   4   5
ENDBRANCH   3   4
ENDBRANCH   2   3
ENDBRANCH   1   2
BRANCH   1  26
ATOM     26  C   UNL A   1      34.412  33.800  30.858  1.00  0.00     0.261 C 
BRANCH  26  27
ATOM     27  O   UNL A   1      34.638  32.408  31.014  1.00  0.00    -0.460 OA
BRANCH  27  28
ATOM     28  C   UNL A   1      35.484  32.092  32.017  1.00  0.00     0.338 C 
ATOM     29  O   UNL A   1      35.383  32.348  33.203  1.00  0.00    -0.246 OA
BRANCH  28  30
ATOM     30  C   UNL A   1      36.616  31.368  31.420  1.00  0.00     0.060 A 
ATOM     31  C   UNL A   1      37.535  30.754  32.277  1.00  0.00     0.016 A 
ATOM     32  C   UNL A   1      36.741  31.264  30.028  1.00  0.00     0.016 A 
ATOM     33  C   UNL A   1      38.562  29.988  31.739  1.00  0.00     0.010 A 
ATOM     34  C   UNL A   1      37.784  30.528  29.490  1.00  0.00     0.010 A 
ATOM     35  C   UNL A   1      38.700  29.901  30.349  1.00  0.00    -0.014 A 
BRANCH  35  36
ATOM     36  C   UNL A   1      39.954  29.401  29.773  1.00  0.00     0.031 A 
ATOM     37  C   UNL A   1      41.067  30.388  29.630  1.00  0.00     0.074 A 
ATOM     38  C   UNL A   1      40.066  28.133  29.351  1.00  0.00     0.049 A 
ATOM     39  N   UNL A   1      42.233  30.252  29.060  1.00  0.00    -0.248 NA
ATOM     40  C   UNL A   1      40.822  31.724  30.200  1.00  0.00     0.031 C 
ATOM     41  C   UNL A   1      39.040  27.103  29.484  1.00  0.00     0.029 A 
ATOM     42  N   UNL A   1      41.097  27.509  28.702  1.00  0.00    -0.354 N 
ATOM     43  C   UNL A   1      42.856  31.482  29.201  1.00  0.00     0.074 A 
ATOM     44  C   UNL A   1      41.931  32.364  29.875  1.00  0.00     0.031 C 
ATOM     45  C   UNL A   1      39.488  25.971  28.912  1.00  0.00     0.029 A 
ATOM     46  C   UNL A   1      40.809  26.219  28.336  1.00  0.00     0.049 A 
ATOM     47  H   UNL A   1      41.961  27.944  28.515  1.00  0.00     0.167 HD
ATOM     48  C   UNL A   1      44.094  31.840  28.797  1.00  0.00     0.037 A 
ATOM     49  C   UNL A   1      41.528  25.361  27.588  1.00  0.00     0.037 A 
ATOM     50  C   UNL A   1      44.971  30.956  28.081  1.00  0.00     0.049 A 
ATOM     51  C   UNL A   1      42.871  25.809  27.064  1.00  0.00     0.074 A 
ATOM     52  C   UNL A   1      46.244  31.201  27.609  1.00  0.00     0.029 A 
ATOM     53  N   UNL A   1      44.643  29.659  27.708  1.00  0.00    -0.354 N 
ATOM     54  N   UNL A   1      43.476  26.964  27.217  1.00  0.00    -0.248 NA
ATOM     55  C   UNL A   1      43.629  24.839  26.265  1.00  0.00     0.031 C 
ATOM     56  C   UNL A   1      46.656  30.082  26.879  1.00  0.00     0.029 A 
ATOM     57  C   UNL A   1      45.678  29.102  26.981  1.00  0.00     0.049 A 
ATOM     58  H   UNL A   1      43.798  29.203  27.929  1.00  0.00     0.167 HD
ATOM     59  C   UNL A   1      44.701  26.846  26.572  1.00  0.00     0.074 A 
ATOM     60  C   UNL A   1      44.748  25.507  26.021  1.00  0.00     0.031 C 
ATOM     61  C   UNL A   1      45.701  27.757  26.456  1.00  0.00     0.037 A 
BRANCH  48  62
ATOM     62  C   UNL A   1      44.514  33.257  29.059  1.00  0.00     0.064 A 
ATOM     63  C   UNL A   1      44.249  34.292  28.148  1.00  0.00     0.173 A 
ATOM     64  C   UNL A   1      45.234  33.575  30.218  1.00  0.00     0.173 A 
ATOM     65  F   UNL A   1      43.584  34.038  27.009  1.00  0.00    -0.203 F 
ATOM     66  C   UNL A   1      44.736  35.579  28.364  1.00  0.00     0.198 A 
ATOM     67  C   UNL A   1      45.682  34.872  30.453  1.00  0.00     0.198 A 
ATOM     68  F   UNL A   1      45.522  32.624  31.121  1.00  0.00    -0.203 F 
ATOM     69  F   UNL A   1      44.546  36.530  27.438  1.00  0.00    -0.200 F 
ATOM     70  C   UNL A   1      45.446  35.868  29.518  1.00  0.00     0.200 A 
ATOM     71  F   UNL A   1      46.359  35.151  31.574  1.00  0.00    -0.200 F 
ATOM     72  F   UNL A   1      45.920  37.105  29.722  1.00  0.00    -0.200 F 
ENDBRANCH  48  62
BRANCH  49  73
ATOM     73  C   UNL A   1      40.987  24.010  27.288  1.00  0.00     0.064 A 
ATOM     74  C   UNL A   1      41.536  22.862  27.873  1.00  0.00     0.173 A 
ATOM     75  C   UNL A   1      39.899  23.840  26.418  1.00  0.00     0.173 A 
ATOM     76  F   UNL A   1      42.590  22.968  28.696  1.00  0.00    -0.203 F 
ATOM     77  C   UNL A   1      41.026  21.595  27.592  1.00  0.00     0.198 A 
ATOM     78  C   UNL A   1      39.370  22.577  26.162  1.00  0.00     0.198 A 
ATOM     79  F   UNL A   1      39.334  24.906  25.832  1.00  0.00    -0.203 F 
ATOM     80  F   UNL A   1      41.595  20.510  28.135  1.00  0.00    -0.200 F 
ATOM     81  C   UNL A   1      39.938  21.454  26.744  1.00  0.00     0.200 A 
ATOM     82  F   UNL A   1      38.308  22.449  25.355  1.00  0.00    -0.200 F 
ATOM     83  F   UNL A   1      39.440  20.238  26.484  1.00  0.00    -0.200 F 
ENDBRANCH  49  73
BRANCH  61  84
ATOM     84  C   UNL A   1      46.965  27.323  25.768  1.00  0.00     0.064 A 
ATOM     85  C   UNL A   1      47.214  27.597  24.417  1.00  0.00     0.173 A 
ATOM     86  C   UNL A   1      47.982  26.701  26.512  1.00  0.00     0.173 A 
ATOM     87  F   UNL A   1      46.272  28.180  23.661  1.00  0.00    -0.203 F 
ATOM     88  C   UNL A   1      48.428  27.248  23.831  1.00  0.00     0.198 A 
ATOM     89  C   UNL A   1      49.209  26.392  25.933  1.00  0.00     0.198 A 
ATOM     90  F   UNL A   1      47.799  26.427  27.812  1.00  0.00    -0.203 F 
ATOM     91  F   UNL A   1      48.630  27.482  22.526  1.00  0.00    -0.200 F 
ATOM     92  C   UNL A   1      49.428  26.659  24.591  1.00  0.00     0.200 A 
ATOM     93  F   UNL A   1      50.179  25.846  26.677  1.00  0.00    -0.200 F 
ATOM     94  F   UNL A   1      50.605  26.349  24.030  1.00  0.00    -0.200 F 
ENDBRANCH  61  84
ENDBRANCH  35  36
ENDBRANCH  28  30
ENDBRANCH  27  28
ENDBRANCH  26  27
ENDBRANCH   1  26
TORSDOF 16
ENDMDL
MODEL 3
REMARK VINA RESULT:     -13.0      5.070     10.372
REMARK SMILES O=C(OCCOCCOC(=O)c1ccc(-c2c3nc(c(-c4c(F)c(F)c(F)c(F)c4F)c4ccc([nH]4)c(-c4c(F)c(F)c(F)c(F)c4F)c4nc(c(-c5c(F)c(F)c(F)c(F)c5F)c5ccc2[nH]5)C=C4)C=C3)cc1)C1=Cc2cc(C(F)(F)F)ccc2O[C@@H]1C(F)(F)F
REMARK SMILES IDX 7 1 6 2 5 3 4 4 3 5 2 6 1 7 75 8 76 9 88 10 77 11 87 12
REMARK SMILES IDX 78 13 86 14 79 15 85 16 84 17 89 18 90 19 91 20 92 21 80 22
REMARK SMILES IDX 81 23 82 24 83 25 8 26 9 27 10 28 11 29 12 30 13 31 74 32
REMARK SMILES IDX 14 33 73 34 15 35 16 36 17 37 67 38 18 39 72 40 66 41 68 42
REMARK SMILES IDX 19 43 71 44 65 45 64 46 20 48 52 49 32 50 51 51 33 52 36 53
REMARK SMILES IDX 50 54 69 55 34 56 35 57 49 59 70 60 37 61 21 62 22 63 30 64
REMARK SMILES IDX 23 65 24 66 28 67 31 68 25 69 26 70 29 71 27 72 53 73 54 74
REMARK SMILES IDX 62 75 55 76 56 77 60 78 63 79 57 80 58 81 61 82 59 83 38 84
REMARK SMILES IDX 39 85 47 86 40 87 41 88 45 89 48 90 42 91 43 92 46 93 44 94
REMARK H PARENT 68 47 36 58
REMARK Flexibility Score: inf
ROOT
ATOM      1  C   UNL A   1      34.371  34.316  29.260  1.00  0.00     0.202 C 
ENDROOT
BRANCH   1   2
ATOM      2  O   UNL A   1      33.710  33.385  28.387  1.00  0.00    -0.374 OA
BRANCH   2   3
ATOM      3  C   UNL A   1      34.203  32.050  27.626  1.00  0.00     0.202 C 
BRANCH   3   4
ATOM      4  C   UNL A   1      33.117  30.305  26.926  1.00  0.00     0.261 C 
BRANCH   4   5
ATOM      5  O   UNL A   1      33.026  28.939  27.626  1.00  0.00    -0.460 OA
BRANCH   5   6
ATOM      6  C   UNL A   1      31.961  28.235  27.236  1.00  0.00     0.338 C 
ATOM      7  O   UNL A   1      31.029  27.830  27.882  1.00  0.00    -0.246 OA
BRANCH   6   8
ATOM      8  C   UNL A   1      32.501  27.842  25.952  1.00  0.00     0.087 C 
ATOM      9  C   UNL A   1      33.437  26.699  26.085  1.00  0.00     0.027 C 
ATOM     10  C   UNL A   1      30.800  27.770  25.028  1.00  0.00     0.316 C 
ATOM     11  C   UNL A   1      33.024  25.004  25.604  1.00  0.00     0.018 A 
ATOM     12  O   UNL A   1      30.315  25.960  24.563  1.00  0.00    -0.475 OA
ATOM     13  C   UNL A   1      33.895  23.989  25.890  1.00  0.00     0.025 A 
ATOM     14  C   UNL A   1      31.475  24.602  24.938  1.00  0.00     0.128 A 
ATOM     15  C   UNL A   1      33.416  22.680  25.647  1.00  0.00     0.056 A 
ATOM     16  C   UNL A   1      31.030  23.318  24.870  1.00  0.00     0.048 A 
ATOM     17  C   UNL A   1      32.041  22.377  25.217  1.00  0.00     0.017 A 
BRANCH  10  18
ATOM     18  C   UNL A   1      30.987  29.068  24.126  1.00  0.00     0.430 C 
ATOM     19  F   UNL A   1      32.187  29.199  23.534  1.00  0.00    -0.167 F 
ATOM     20  F   UNL A   1      30.098  28.968  23.092  1.00  0.00    -0.167 F 
ATOM     21  F   UNL A   1      30.674  30.234  24.733  1.00  0.00    -0.167 F 
ENDBRANCH  10  18
BRANCH  15  22
ATOM     22  C   UNL A   1      34.417  21.549  25.868  1.00  0.00     0.416 C 
ATOM     23  F   UNL A   1      35.639  22.018  26.252  1.00  0.00    -0.166 F 
ATOM     24  F   UNL A   1      34.023  20.696  26.853  1.00  0.00    -0.166 F 
ATOM     25  F   UNL A   1      34.639  20.784  24.767  1.00  0.00    -0.166 F 
ENDBRANCH  15  22
ENDBRANCH   6   8
ENDBRANCH   5   6
ENDBRANCH   4   5
ENDBRANCH   3   4
ENDBRANCH   2   3
ENDBRANCH   1   2
BRANCH   1  26
ATOM     26  C   UNL A   1      34.404  33.934  30.734  1.00  0.00     0.261 C 
BRANCH  26  27
ATOM     27  O   UNL A   1      34.594  32.541  30.924  1.00  0.00    -0.460 OA
BRANCH  27  28
ATOM     28  C   UNL A   1      35.410  32.227  31.952  1.00  0.00     0.338 C 
ATOM     29  O   UNL A   1      35.273  32.484  33.134  1.00  0.00    -0.246 OA
BRANCH  28  30
ATOM     30  C   UNL A   1      36.560  31.503  31.390  1.00  0.00     0.060 A 
ATOM     31  C   UNL A   1      37.490  30.949  32.275  1.00  0.00     0.016 A 
ATOM     32  C   UNL A   1      36.691  31.341  30.004  1.00  0.00     0.016 A 
ATOM     33  C   UNL A   1      38.536  30.184  31.774  1.00  0.00     0.010 A 
ATOM     34  C   UNL A   1      37.752  30.606  29.501  1.00  0.00     0.010 A 
ATOM     35  C   UNL A   1      38.680  30.040  30.389  1.00  0.00    -0.014 A 
BRANCH  35  36
ATOM     36  C   UNL A   1      39.947  29.543  29.838  1.00  0.00     0.031 A 
ATOM     37  C   UNL A   1      41.057  30.536  29.711  1.00  0.00     0.074 A 
ATOM     38  C   UNL A   1      40.074  28.274  29.424  1.00  0.00     0.049 A 
ATOM     39  N   UNL A   1      42.234  30.403  29.163  1.00  0.00    -0.248 NA
ATOM     40  C   UNL A   1      40.794  31.873  30.270  1.00  0.00     0.031 C 
ATOM     41  C   UNL A   1      39.050  27.239  29.544  1.00  0.00     0.029 A 
ATOM     42  N   UNL A   1      41.119  27.653  28.797  1.00  0.00    -0.354 N 
ATOM     43  C   UNL A   1      42.847  31.638  29.310  1.00  0.00     0.074 A 
ATOM     44  C   UNL A   1      41.906  32.518  29.963  1.00  0.00     0.031 C 
ATOM     45  C   UNL A   1      39.514  26.107  28.985  1.00  0.00     0.029 A 
ATOM     46  C   UNL A   1      40.845  26.360  28.432  1.00  0.00     0.049 A 
ATOM     47  H   UNL A   1      41.984  28.092  28.624  1.00  0.00     0.167 HD
ATOM     48  C   UNL A   1      44.091  32.000  28.926  1.00  0.00     0.037 A 
ATOM     49  C   UNL A   1      41.582  25.502  27.701  1.00  0.00     0.037 A 
ATOM     50  C   UNL A   1      44.986  31.118  28.230  1.00  0.00     0.049 A 
ATOM     51  C   UNL A   1      42.931  25.955  27.199  1.00  0.00     0.074 A 
ATOM     52  C   UNL A   1      46.266  31.368  27.780  1.00  0.00     0.029 A 
ATOM     53  N   UNL A   1      44.671  29.817  27.857  1.00  0.00    -0.354 N 
ATOM     54  N   UNL A   1      43.528  27.114  27.358  1.00  0.00    -0.248 NA
ATOM     55  C   UNL A   1      43.709  24.986  26.419  1.00  0.00     0.031 C 
ATOM     56  C   UNL A   1      46.696  30.247  27.064  1.00  0.00     0.029 A 
ATOM     57  C   UNL A   1      45.722  29.262  27.152  1.00  0.00     0.049 A 
ATOM     58  H   UNL A   1      43.825  29.358  28.065  1.00  0.00     0.167 HD
ATOM     59  C   UNL A   1      44.765  27.000  26.736  1.00  0.00     0.074 A 
ATOM     60  C   UNL A   1      44.829  25.659  26.192  1.00  0.00     0.031 C 
ATOM     61  C   UNL A   1      45.761  27.915  26.634  1.00  0.00     0.037 A 
BRANCH  48  62
ATOM     62  C   UNL A   1      44.498  33.421  29.189  1.00  0.00     0.064 A 
ATOM     63  C   UNL A   1      45.132  33.805  30.382  1.00  0.00     0.173 A 
ATOM     64  C   UNL A   1      44.204  34.422  28.253  1.00  0.00     0.173 A 
ATOM     65  F   UNL A   1      45.414  32.891  31.323  1.00  0.00    -0.203 F 
ATOM     66  C   UNL A   1      45.409  35.144  30.646  1.00  0.00     0.198 A 
ATOM     67  C   UNL A   1      44.522  35.754  28.502  1.00  0.00     0.198 A 
ATOM     68  F   UNL A   1      43.593  34.113  27.099  1.00  0.00    -0.203 F 
ATOM     69  F   UNL A   1      45.934  35.496  31.829  1.00  0.00    -0.200 F 
ATOM     70  C   UNL A   1      45.109  36.115  29.705  1.00  0.00     0.200 A 
ATOM     71  F   UNL A   1      44.241  36.689  27.586  1.00  0.00    -0.200 F 
ATOM     72  F   UNL A   1      45.369  37.404  29.963  1.00  0.00    -0.200 F 
ENDBRANCH  48  62
BRANCH  49  73
ATOM     73  C   UNL A   1      41.054  24.147  27.397  1.00  0.00     0.064 A 
ATOM     74  C   UNL A   1      41.591  23.005  28.005  1.00  0.00     0.173 A 
ATOM     75  C   UNL A   1      39.989  23.966  26.501  1.00  0.00     0.173 A 
ATOM     76  F   UNL A   1      42.623  23.121  28.855  1.00  0.00    -0.203 F 
ATOM     77  C   UNL A   1      41.093  21.734  27.721  1.00  0.00     0.198 A 
ATOM     78  C   UNL A   1      39.472  22.700  26.240  1.00  0.00     0.198 A 
ATOM     79  F   UNL A   1      39.437  25.025  25.892  1.00  0.00    -0.203 F 
ATOM     80  F   UNL A   1      41.651  20.656  28.287  1.00  0.00    -0.200 F 
ATOM     81  C   UNL A   1      40.028  21.583  26.846  1.00  0.00     0.200 A 
ATOM     82  F   UNL A   1      38.432  22.561  25.407  1.00  0.00    -0.200 F 
ATOM     83  F   UNL A   1      39.541  20.363  26.582  1.00  0.00    -0.200 F 
ENDBRANCH  49  73
BRANCH  61  84
ATOM     84  C   UNL A   1      47.041  27.485  25.971  1.00  0.00     0.064 A 
ATOM     85  C   UNL A   1      48.076  26.860  26.678  1.00  0.00     0.173 A 
ATOM     86  C   UNL A   1      47.183  27.623  24.581  1.00  0.00     0.173 A 
ATOM     87  F   UNL A   1      47.994  26.713  28.009  1.00  0.00    -0.203 F 
ATOM     88  C   UNL A   1      49.216  26.405  26.020  1.00  0.00     0.198 A 
ATOM     89  C   UNL A   1      48.304  27.130  23.921  1.00  0.00     0.198 A 
ATOM     90  F   UNL A   1      46.215  28.204  23.855  1.00  0.00    -0.203 F 
ATOM     91  F   UNL A   1      50.213  25.847  26.720  1.00  0.00    -0.200 F 
ATOM     92  C   UNL A   1      49.322  26.528  24.642  1.00  0.00     0.200 A 
ATOM     93  F   UNL A   1      48.392  27.229  22.588  1.00  0.00    -0.200 F 
ATOM     94  F   UNL A   1      50.409  26.066  24.008  1.00  0.00    -0.200 F 
ENDBRANCH  61  84
ENDBRANCH  35  36
ENDBRANCH  28  30
ENDBRANCH  27  28
ENDBRANCH  26  27
ENDBRANCH   1  26
TORSDOF 16
ENDMDL
