MODEL 1
REMARK VINA RESULT:     -11.9      0.000      0.000
REMARK SMILES Cc1ccc(C(=O)OCCOCCOC(=O)c2ccc(-c3c4nc(c(-c5c(F)c(F)c(F)c(F)c5F)c5ccc([nH]5)c(-c5c(F)c(F)c(F)c(F)c5F)c5nc(c(-c6c(F)c(F)c(F)c(F)c6F)c6ccc3[nH]6)C=C5)C=C4)cc2)cc1/[NH+]=C1\NCCS1
REMARK SMILES IDX 12 1 11 2 10 3 9 4 8 5 6 6 7 7 5 8 1 9 2 10 3 11 81 12 4 13
REMARK SMILES IDX 80 14 82 15 83 16 84 18 87 19 85 20 86 22 13 23 14 24 15 25
REMARK SMILES IDX 16 26 17 27 18 28 79 29 19 30 78 31 20 32 21 33 22 34 72 35
REMARK SMILES IDX 23 36 77 37 71 38 73 39 24 40 76 41 70 42 69 43 25 45 57 46
REMARK SMILES IDX 37 47 56 48 38 49 41 50 55 51 74 52 39 53 40 54 54 56 75 57
REMARK SMILES IDX 42 58 26 59 27 60 35 61 28 62 29 63 33 64 36 65 30 66 31 67
REMARK SMILES IDX 34 68 32 69 58 70 59 71 67 72 60 73 61 74 65 75 68 76 62 77
REMARK SMILES IDX 63 78 66 79 64 80 43 81 44 82 52 83 45 84 46 85 50 86 53 87
REMARK SMILES IDX 47 88 48 89 51 90 49 91
REMARK H PARENT 82 17 84 21 73 44 41 55
REMARK Flexibility Score: inf
ROOT
ATOM      1  C   UNL A   1      43.051  18.720  25.777  1.00  0.00     0.202 C 
ENDROOT
BRANCH   1   2
ATOM      2  O   UNL A   1      41.919  19.477  25.413  1.00  0.00    -0.374 OA
BRANCH   2   3
ATOM      3  C   UNL A   1      41.118  19.938  26.489  1.00  0.00     0.202 C 
BRANCH   3   4
ATOM      4  C   UNL A   1      40.682  21.306  26.085  1.00  0.00     0.261 C 
BRANCH   4   5
ATOM      5  O   UNL A   1      39.270  21.350  25.833  1.00  0.00    -0.460 OA
BRANCH   5   6
ATOM      6  C   UNL A   1      38.562  22.495  26.055  1.00  0.00     0.338 C 
ATOM      7  O   UNL A   1      38.956  23.562  26.463  1.00  0.00    -0.246 OA
BRANCH   6   8
ATOM      8  C   UNL A   1      37.204  22.244  25.525  1.00  0.00     0.064 A 
ATOM      9  C   UNL A   1      33.090  21.262  24.794  1.00  0.00     0.049 C 
ATOM     10  C   UNL A   1      34.526  21.646  25.010  1.00  0.00    -0.004 A 
ATOM     11  C   UNL A   1      35.519  20.659  24.864  1.00  0.00     0.008 A 
ATOM     12  C   UNL A   1      34.895  22.945  25.405  1.00  0.00     0.129 A 
ATOM     13  C   UNL A   1      36.857  20.953  25.129  1.00  0.00     0.016 A 
ATOM     14  C   UNL A   1      36.235  23.246  25.596  1.00  0.00     0.067 A 
BRANCH  12  15
ATOM     15  N   UNL A   1      33.979  23.967  25.683  1.00  0.00    -0.235 N 
ATOM     16  C   UNL A   1      33.620  24.729  24.712  1.00  0.00     0.309 C 
ATOM     17  H   UNL A   1      33.624  24.098  26.591  1.00  0.00     0.313 HD
ATOM     18  N   UNL A   1      34.012  24.771  23.406  1.00  0.00    -0.268 N 
ATOM     19  S   UNL A   1      32.472  26.022  25.029  1.00  0.00    -0.035 SA
ATOM     20  C   UNL A   1      33.589  25.906  22.623  1.00  0.00     0.246 C 
ATOM     21  H   UNL A   1      34.562  24.055  23.014  1.00  0.00     0.305 HD
ATOM     22  C   UNL A   1      33.112  26.967  23.614  1.00  0.00     0.128 C 
ENDBRANCH  12  15
ENDBRANCH   6   8
ENDBRANCH   5   6
ENDBRANCH   4   5
ENDBRANCH   3   4
ENDBRANCH   2   3
ENDBRANCH   1   2
BRANCH   1  23
ATOM     23  C   UNL A   1      44.216  18.885  24.792  1.00  0.00     0.261 C 
BRANCH  23  24
ATOM     24  O   UNL A   1      44.276  20.257  24.338  1.00  0.00    -0.460 OA
BRANCH  24  25
ATOM     25  C   UNL A   1      45.034  21.111  25.084  1.00  0.00     0.338 C 
ATOM     26  O   UNL A   1      46.117  20.845  25.578  1.00  0.00    -0.246 OA
BRANCH  25  27
ATOM     27  C   UNL A   1      44.223  22.310  25.457  1.00  0.00     0.060 A 
ATOM     28  C   UNL A   1      44.012  23.348  24.526  1.00  0.00     0.016 A 
ATOM     29  C   UNL A   1      43.984  22.539  26.807  1.00  0.00     0.016 A 
ATOM     30  C   UNL A   1      43.726  24.650  24.969  1.00  0.00     0.010 A 
ATOM     31  C   UNL A   1      43.839  23.838  27.239  1.00  0.00     0.010 A 
ATOM     32  C   UNL A   1      43.738  24.912  26.336  1.00  0.00    -0.014 A 
BRANCH  32  33
ATOM     33  C   UNL A   1      43.771  26.233  26.981  1.00  0.00     0.031 A 
ATOM     34  C   UNL A   1      42.482  26.952  27.132  1.00  0.00     0.074 A 
ATOM     35  C   UNL A   1      44.839  26.610  27.733  1.00  0.00     0.049 A 
ATOM     36  N   UNL A   1      42.367  28.139  27.615  1.00  0.00    -0.248 NA
ATOM     37  C   UNL A   1      41.190  26.406  26.714  1.00  0.00     0.031 C 
ATOM     38  C   UNL A   1      44.844  27.483  28.911  1.00  0.00     0.029 A 
ATOM     39  N   UNL A   1      46.190  26.239  27.640  1.00  0.00    -0.354 N 
ATOM     40  C   UNL A   1      41.044  28.326  27.948  1.00  0.00     0.074 A 
ATOM     41  C   UNL A   1      40.343  27.305  27.218  1.00  0.00     0.031 C 
ATOM     42  C   UNL A   1      46.109  27.821  29.225  1.00  0.00     0.029 A 
ATOM     43  C   UNL A   1      46.962  27.283  28.180  1.00  0.00     0.049 A 
ATOM     44  H   UNL A   1      46.536  25.398  27.264  1.00  0.00     0.167 HD
ATOM     45  C   UNL A   1      40.760  29.227  28.934  1.00  0.00     0.037 A 
ATOM     46  C   UNL A   1      47.884  27.935  27.423  1.00  0.00     0.037 A 
ATOM     47  C   UNL A   1      41.985  29.959  29.312  1.00  0.00     0.049 A 
ATOM     48  C   UNL A   1      47.433  29.358  27.306  1.00  0.00     0.074 A 
ATOM     49  C   UNL A   1      42.794  29.945  30.436  1.00  0.00     0.029 A 
ATOM     50  N   UNL A   1      42.716  30.622  28.321  1.00  0.00    -0.354 N 
ATOM     51  N   UNL A   1      46.176  29.692  27.429  1.00  0.00    -0.248 NA
ATOM     52  C   UNL A   1      48.318  30.509  27.190  1.00  0.00     0.031 C 
ATOM     53  C   UNL A   1      44.044  30.534  30.084  1.00  0.00     0.029 A 
ATOM     54  C   UNL A   1      43.992  30.928  28.754  1.00  0.00     0.049 A 
ATOM     55  H   UNL A   1      42.366  30.842  27.427  1.00  0.00     0.167 HD
ATOM     56  C   UNL A   1      46.087  31.039  27.565  1.00  0.00     0.074 A 
ATOM     57  C   UNL A   1      47.439  31.519  27.331  1.00  0.00     0.031 C 
ATOM     58  C   UNL A   1      44.923  31.660  27.901  1.00  0.00     0.037 A 
BRANCH  45  59
ATOM     59  C   UNL A   1      39.463  29.311  29.738  1.00  0.00     0.064 A 
ATOM     60  C   UNL A   1      38.300  29.864  29.149  1.00  0.00     0.173 A 
ATOM     61  C   UNL A   1      39.289  28.947  31.092  1.00  0.00     0.173 A 
ATOM     62  F   UNL A   1      38.273  30.222  27.859  1.00  0.00    -0.203 F 
ATOM     63  C   UNL A   1      37.109  30.075  29.858  1.00  0.00     0.198 A 
ATOM     64  C   UNL A   1      38.095  29.143  31.797  1.00  0.00     0.198 A 
ATOM     65  F   UNL A   1      40.255  28.385  31.818  1.00  0.00    -0.203 F 
ATOM     66  F   UNL A   1      36.060  30.638  29.243  1.00  0.00    -0.200 F 
ATOM     67  C   UNL A   1      37.007  29.718  31.184  1.00  0.00     0.200 A 
ATOM     68  F   UNL A   1      38.018  28.771  33.084  1.00  0.00    -0.200 F 
ATOM     69  F   UNL A   1      35.872  29.918  31.866  1.00  0.00    -0.200 F 
ENDBRANCH  45  59
BRANCH  46  70
ATOM     70  C   UNL A   1      48.482  27.021  26.404  1.00  0.00     0.064 A 
ATOM     71  C   UNL A   1      48.047  27.208  25.069  1.00  0.00     0.173 A 
ATOM     72  C   UNL A   1      49.750  26.452  26.587  1.00  0.00     0.173 A 
ATOM     73  F   UNL A   1      46.850  27.767  24.829  1.00  0.00    -0.203 F 
ATOM     74  C   UNL A   1      48.905  27.007  23.988  1.00  0.00     0.198 A 
ATOM     75  C   UNL A   1      50.602  26.244  25.494  1.00  0.00     0.198 A 
ATOM     76  F   UNL A   1      50.228  26.248  27.822  1.00  0.00    -0.203 F 
ATOM     77  F   UNL A   1      48.526  27.374  22.754  1.00  0.00    -0.200 F 
ATOM     78  C   UNL A   1      50.199  26.570  24.206  1.00  0.00     0.200 A 
ATOM     79  F   UNL A   1      51.864  25.835  25.698  1.00  0.00    -0.200 F 
ATOM     80  F   UNL A   1      51.076  26.535  23.191  1.00  0.00    -0.200 F 
ENDBRANCH  46  70
BRANCH  58  81
ATOM     81  C   UNL A   1      44.616  33.070  27.502  1.00  0.00     0.064 A 
ATOM     82  C   UNL A   1      44.031  33.396  26.266  1.00  0.00     0.173 A 
ATOM     83  C   UNL A   1      44.711  34.121  28.440  1.00  0.00     0.173 A 
ATOM     84  F   UNL A   1      43.762  32.460  25.346  1.00  0.00    -0.203 F 
ATOM     85  C   UNL A   1      43.640  34.697  25.963  1.00  0.00     0.198 A 
ATOM     86  C   UNL A   1      44.251  35.401  28.158  1.00  0.00     0.198 A 
ATOM     87  F   UNL A   1      45.211  33.928  29.670  1.00  0.00    -0.203 F 
ATOM     88  F   UNL A   1      43.137  34.968  24.751  1.00  0.00    -0.200 F 
ATOM     89  C   UNL A   1      43.737  35.695  26.912  1.00  0.00     0.200 A 
ATOM     90  F   UNL A   1      44.282  36.341  29.113  1.00  0.00    -0.200 F 
ATOM     91  F   UNL A   1      43.314  36.933  26.634  1.00  0.00    -0.200 F 
ENDBRANCH  58  81
ENDBRANCH  32  33
ENDBRANCH  25  27
ENDBRANCH  24  25
ENDBRANCH  23  24
ENDBRANCH   1  23
TORSDOF 15
ENDMDL
MODEL 2
REMARK VINA RESULT:     -11.8      5.830     11.837
REMARK SMILES Cc1ccc(C(=O)OCCOCCOC(=O)c2ccc(-c3c4nc(c(-c5c(F)c(F)c(F)c(F)c5F)c5ccc([nH]5)c(-c5c(F)c(F)c(F)c(F)c5F)c5nc(c(-c6c(F)c(F)c(F)c(F)c6F)c6ccc3[nH]6)C=C5)C=C4)cc2)cc1/[NH+]=C1\NCCS1
REMARK SMILES IDX 12 1 11 2 10 3 9 4 8 5 6 6 7 7 5 8 1 9 2 10 3 11 81 12 4 13
REMARK SMILES IDX 80 14 82 15 83 16 84 18 87 19 85 20 86 22 13 23 14 24 15 25
REMARK SMILES IDX 16 26 17 27 18 28 79 29 19 30 78 31 20 32 21 33 22 34 72 35
REMARK SMILES IDX 23 36 77 37 71 38 73 39 24 40 76 41 70 42 69 43 25 45 57 46
REMARK SMILES IDX 37 47 56 48 38 49 41 50 55 51 74 52 39 53 40 54 54 56 75 57
REMARK SMILES IDX 42 58 26 59 27 60 35 61 28 62 29 63 33 64 36 65 30 66 31 67
REMARK SMILES IDX 34 68 32 69 58 70 59 71 67 72 60 73 61 74 65 75 68 76 62 77
REMARK SMILES IDX 63 78 66 79 64 80 43 81 44 82 52 83 45 84 46 85 50 86 53 87
REMARK SMILES IDX 47 88 48 89 51 90 49 91
REMARK H PARENT 82 17 84 21 73 44 41 55
REMARK Flexibility Score: inf
ROOT
ATOM      1  C   UNL A   1      32.978  35.675  29.197  1.00  0.00     0.202 C 
ENDROOT
BRANCH   1   2
ATOM      2  O   UNL A   1      33.864  34.670  28.759  1.00  0.00    -0.374 OA
BRANCH   2   3
ATOM      3  C   UNL A   1      33.337  33.759  27.810  1.00  0.00     0.202 C 
BRANCH   3   4
ATOM      4  C   UNL A   1      33.880  32.428  28.210  1.00  0.00     0.261 C 
BRANCH   4   5
ATOM      5  O   UNL A   1      33.070  31.359  27.701  1.00  0.00    -0.460 OA
BRANCH   5   6
ATOM      6  C   UNL A   1      33.642  30.183  27.310  1.00  0.00     0.338 C 
ATOM      7  O   UNL A   1      34.737  29.748  27.576  1.00  0.00    -0.246 OA
BRANCH   6   8
ATOM      8  C   UNL A   1      32.579  29.425  26.614  1.00  0.00     0.064 A 
ATOM      9  C   UNL A   1      30.147  26.915  24.125  1.00  0.00     0.049 C 
ATOM     10  C   UNL A   1      30.961  27.785  25.038  1.00  0.00    -0.004 A 
ATOM     11  C   UNL A   1      31.242  29.106  24.640  1.00  0.00     0.008 A 
ATOM     12  C   UNL A   1      31.490  27.300  26.247  1.00  0.00     0.129 A 
ATOM     13  C   UNL A   1      32.058  29.925  25.421  1.00  0.00     0.016 A 
ATOM     14  C   UNL A   1      32.239  28.145  27.053  1.00  0.00     0.067 A 
BRANCH  12  15
ATOM     15  N   UNL A   1      31.360  25.976  26.682  1.00  0.00    -0.235 N 
ATOM     16  C   UNL A   1      32.261  25.134  26.316  1.00  0.00     0.309 C 
ATOM     17  H   UNL A   1      30.604  25.698  27.248  1.00  0.00     0.313 HD
ATOM     18  N   UNL A   1      33.349  25.274  25.505  1.00  0.00    -0.268 N 
ATOM     19  S   UNL A   1      32.125  23.463  26.846  1.00  0.00    -0.035 SA
ATOM     20  C   UNL A   1      34.035  24.070  25.103  1.00  0.00     0.246 C 
ATOM     21  H   UNL A   1      33.654  26.161  25.207  1.00  0.00     0.305 HD
ATOM     22  C   UNL A   1      33.092  22.907  25.411  1.00  0.00     0.128 C 
ENDBRANCH  12  15
ENDBRANCH   6   8
ENDBRANCH   5   6
ENDBRANCH   4   5
ENDBRANCH   3   4
ENDBRANCH   2   3
ENDBRANCH   1   2
BRANCH   1  23
ATOM     23  C   UNL A   1      32.789  35.676  30.720  1.00  0.00     0.261 C 
BRANCH  23  24
ATOM     24  O   UNL A   1      33.956  36.250  31.352  1.00  0.00    -0.460 OA
BRANCH  24  25
ATOM     25  C   UNL A   1      34.337  35.699  32.541  1.00  0.00     0.338 C 
ATOM     26  O   UNL A   1      34.387  36.288  33.607  1.00  0.00    -0.246 OA
BRANCH  25  27
ATOM     27  C   UNL A   1      34.962  34.363  32.299  1.00  0.00     0.060 A 
ATOM     28  C   UNL A   1      34.914  33.362  33.291  1.00  0.00     0.016 A 
ATOM     29  C   UNL A   1      35.868  34.250  31.251  1.00  0.00     0.016 A 
ATOM     30  C   UNL A   1      35.883  32.344  33.318  1.00  0.00     0.010 A 
ATOM     31  C   UNL A   1      36.889  33.334  31.360  1.00  0.00     0.010 A 
ATOM     32  C   UNL A   1      36.932  32.391  32.404  1.00  0.00    -0.014 A 
BRANCH  32  33
ATOM     33  C   UNL A   1      38.183  31.622  32.458  1.00  0.00     0.031 A 
ATOM     34  C   UNL A   1      38.253  30.372  31.662  1.00  0.00     0.074 A 
ATOM     35  C   UNL A   1      39.333  32.201  32.894  1.00  0.00     0.049 A 
ATOM     36  N   UNL A   1      39.255  29.566  31.664  1.00  0.00    -0.248 NA
ATOM     37  C   UNL A   1      37.168  29.891  30.805  1.00  0.00     0.031 C 
ATOM     38  C   UNL A   1      40.704  31.915  32.459  1.00  0.00     0.029 A 
ATOM     39  N   UNL A   1      39.532  33.246  33.811  1.00  0.00    -0.354 N 
ATOM     40  C   UNL A   1      39.136  28.750  30.561  1.00  0.00     0.074 A 
ATOM     41  C   UNL A   1      37.758  28.875  30.172  1.00  0.00     0.031 C 
ATOM     42  C   UNL A   1      41.582  32.504  33.293  1.00  0.00     0.029 A 
ATOM     43  C   UNL A   1      40.810  33.087  34.376  1.00  0.00     0.049 A 
ATOM     44  H   UNL A   1      38.891  33.962  34.022  1.00  0.00     0.167 HD
ATOM     45  C   UNL A   1      40.279  28.213  30.043  1.00  0.00     0.037 A 
ATOM     46  C   UNL A   1      40.966  32.910  35.714  1.00  0.00     0.037 A 
ATOM     47  C   UNL A   1      41.418  28.504  30.935  1.00  0.00     0.049 A 
ATOM     48  C   UNL A   1      41.548  31.545  35.915  1.00  0.00     0.074 A 
ATOM     49  C   UNL A   1      42.520  29.337  30.832  1.00  0.00     0.029 A 
ATOM     50  N   UNL A   1      41.342  28.134  32.282  1.00  0.00    -0.354 N 
ATOM     51  N   UNL A   1      41.384  30.594  35.036  1.00  0.00    -0.248 NA
ATOM     52  C   UNL A   1      42.451  31.171  36.996  1.00  0.00     0.031 C 
ATOM     53  C   UNL A   1      43.052  29.526  32.141  1.00  0.00     0.029 A 
ATOM     54  C   UNL A   1      42.292  28.791  33.040  1.00  0.00     0.049 A 
ATOM     55  H   UNL A   1      40.693  27.489  32.643  1.00  0.00     0.167 HD
ATOM     56  C   UNL A   1      42.236  29.576  35.320  1.00  0.00     0.074 A 
ATOM     57  C   UNL A   1      42.828  29.942  36.597  1.00  0.00     0.031 C 
ATOM     58  C   UNL A   1      42.428  28.530  34.470  1.00  0.00     0.037 A 
BRANCH  45  59
ATOM     59  C   UNL A   1      40.453  27.633  28.640  1.00  0.00     0.064 A 
ATOM     60  C   UNL A   1      39.963  26.338  28.344  1.00  0.00     0.173 A 
ATOM     61  C   UNL A   1      41.136  28.237  27.560  1.00  0.00     0.173 A 
ATOM     62  F   UNL A   1      39.252  25.639  29.238  1.00  0.00    -0.203 F 
ATOM     63  C   UNL A   1      40.183  25.698  27.115  1.00  0.00     0.198 A 
ATOM     64  C   UNL A   1      41.342  27.605  26.328  1.00  0.00     0.198 A 
ATOM     65  F   UNL A   1      41.648  29.465  27.626  1.00  0.00    -0.203 F 
ATOM     66  F   UNL A   1      39.722  24.456  26.921  1.00  0.00    -0.200 F 
ATOM     67  C   UNL A   1      40.876  26.331  26.108  1.00  0.00     0.200 A 
ATOM     68  F   UNL A   1      42.007  28.251  25.357  1.00  0.00    -0.200 F 
ATOM     69  F   UNL A   1      41.089  25.724  24.932  1.00  0.00    -0.200 F 
ENDBRANCH  45  59
BRANCH  46  70
ATOM     70  C   UNL A   1      39.903  33.632  36.477  1.00  0.00     0.064 A 
ATOM     71  C   UNL A   1      38.982  32.818  37.182  1.00  0.00     0.173 A 
ATOM     72  C   UNL A   1      40.105  34.931  36.961  1.00  0.00     0.173 A 
ATOM     73  F   UNL A   1      38.761  31.557  36.778  1.00  0.00    -0.203 F 
ATOM     74  C   UNL A   1      38.438  33.221  38.401  1.00  0.00     0.198 A 
ATOM     75  C   UNL A   1      39.546  35.332  38.182  1.00  0.00     0.198 A 
ATOM     76  F   UNL A   1      40.964  35.757  36.347  1.00  0.00    -0.203 F 
ATOM     77  F   UNL A   1      37.723  32.355  39.135  1.00  0.00    -0.200 F 
ATOM     78  C   UNL A   1      38.760  34.461  38.924  1.00  0.00     0.200 A 
ATOM     79  F   UNL A   1      39.866  36.526  38.704  1.00  0.00    -0.200 F 
ATOM     80  F   UNL A   1      38.375  34.785  40.167  1.00  0.00    -0.200 F 
ENDBRANCH  46  70
BRANCH  58  81
ATOM     81  C   UNL A   1      42.848  27.173  34.943  1.00  0.00     0.064 A 
ATOM     82  C   UNL A   1      41.943  26.107  35.085  1.00  0.00     0.173 A 
ATOM     83  C   UNL A   1      44.216  26.846  35.068  1.00  0.00     0.173 A 
ATOM     84  F   UNL A   1      40.631  26.263  34.856  1.00  0.00    -0.203 F 
ATOM     85  C   UNL A   1      42.369  24.823  35.407  1.00  0.00     0.198 A 
ATOM     86  C   UNL A   1      44.641  25.546  35.315  1.00  0.00     0.198 A 
ATOM     87  F   UNL A   1      45.180  27.765  34.911  1.00  0.00    -0.203 F 
ATOM     88  F   UNL A   1      41.463  23.852  35.585  1.00  0.00    -0.200 F 
ATOM     89  C   UNL A   1      43.717  24.539  35.508  1.00  0.00     0.200 A 
ATOM     90  F   UNL A   1      45.952  25.271  35.337  1.00  0.00    -0.200 F 
ATOM     91  F   UNL A   1      44.126  23.292  35.768  1.00  0.00    -0.200 F 
ENDBRANCH  58  81
ENDBRANCH  32  33
ENDBRANCH  25  27
ENDBRANCH  24  25
ENDBRANCH  23  24
ENDBRANCH   1  23
TORSDOF 15
ENDMDL
MODEL 3
REMARK VINA RESULT:     -11.5      4.654     10.094
REMARK SMILES Cc1ccc(C(=O)OCCOCCOC(=O)c2ccc(-c3c4nc(c(-c5c(F)c(F)c(F)c(F)c5F)c5ccc([nH]5)c(-c5c(F)c(F)c(F)c(F)c5F)c5nc(c(-c6c(F)c(F)c(F)c(F)c6F)c6ccc3[nH]6)C=C5)C=C4)cc2)cc1/[NH+]=C1\NCCS1
REMARK SMILES IDX 12 1 11 2 10 3 9 4 8 5 6 6 7 7 5 8 1 9 2 10 3 11 81 12 4 13
REMARK SMILES IDX 80 14 82 15 83 16 84 18 87 19 85 20 86 22 13 23 14 24 15 25
REMARK SMILES IDX 16 26 17 27 18 28 79 29 19 30 78 31 20 32 21 33 22 34 72 35
REMARK SMILES IDX 23 36 77 37 71 38 73 39 24 40 76 41 70 42 69 43 25 45 57 46
REMARK SMILES IDX 37 47 56 48 38 49 41 50 55 51 74 52 39 53 40 54 54 56 75 57
REMARK SMILES IDX 42 58 26 59 27 60 35 61 28 62 29 63 33 64 36 65 30 66 31 67
REMARK SMILES IDX 34 68 32 69 58 70 59 71 67 72 60 73 61 74 65 75 68 76 62 77
REMARK SMILES IDX 63 78 66 79 64 80 43 81 44 82 52 83 45 84 46 85 50 86 53 87
REMARK SMILES IDX 47 88 48 89 51 90 49 91
REMARK H PARENT 82 17 84 21 73 44 41 55
REMARK Flexibility Score: inf
ROOT
ATOM      1  C   UNL A   1      32.030  30.553  26.517  1.00  0.00     0.202 C 
ENDROOT
BRANCH   1   2
ATOM      2  O   UNL A   1      31.465  29.514  25.749  1.00  0.00    -0.374 OA
BRANCH   2   3
ATOM      3  C   UNL A   1      32.218  28.314  25.694  1.00  0.00     0.202 C 
BRANCH   3   4
ATOM      4  C   UNL A   1      31.384  27.304  26.408  1.00  0.00     0.261 C 
BRANCH   4   5
ATOM      5  O   UNL A   1      32.130  26.108  26.679  1.00  0.00    -0.460 OA
BRANCH   5   6
ATOM      6  C   UNL A   1      31.561  24.881  26.497  1.00  0.00     0.338 C 
ATOM      7  O   UNL A   1      30.391  24.579  26.511  1.00  0.00    -0.246 OA
BRANCH   6   8
ATOM      8  C   UNL A   1      32.661  23.979  26.093  1.00  0.00     0.064 A 
ATOM      9  C   UNL A   1      36.079  21.406  25.751  1.00  0.00     0.049 C 
ATOM     10  C   UNL A   1      34.858  22.276  25.829  1.00  0.00    -0.004 A 
ATOM     11  C   UNL A   1      35.007  23.666  25.661  1.00  0.00     0.008 A 
ATOM     12  C   UNL A   1      33.587  21.747  26.117  1.00  0.00     0.129 A 
ATOM     13  C   UNL A   1      33.913  24.520  25.801  1.00  0.00     0.016 A 
ATOM     14  C   UNL A   1      32.492  22.596  26.183  1.00  0.00     0.067 A 
BRANCH  12  15
ATOM     15  N   UNL A   1      33.350  20.398  26.407  1.00  0.00    -0.235 N 
ATOM     16  C   UNL A   1      33.204  19.590  25.419  1.00  0.00     0.309 C 
ATOM     17  H   UNL A   1      33.295  20.080  27.337  1.00  0.00     0.313 HD
ATOM     18  N   UNL A   1      33.187  19.806  24.072  1.00  0.00    -0.268 N 
ATOM     19  S   UNL A   1      32.905  17.889  25.751  1.00  0.00    -0.035 SA
ATOM     20  C   UNL A   1      32.766  18.712  23.230  1.00  0.00     0.246 C 
ATOM     21  H   UNL A   1      33.451  20.674  23.690  1.00  0.00     0.305 HD
ATOM     22  C   UNL A   1      32.078  17.699  24.144  1.00  0.00     0.128 C 
ENDBRANCH  12  15
ENDBRANCH   6   8
ENDBRANCH   5   6
ENDBRANCH   4   5
ENDBRANCH   3   4
ENDBRANCH   2   3
ENDBRANCH   1   2
BRANCH   1  23
ATOM     23  C   UNL A   1      33.521  30.334  26.804  1.00  0.00     0.261 C 
BRANCH  23  24
ATOM     24  O   UNL A   1      33.921  31.143  27.933  1.00  0.00    -0.460 OA
BRANCH  24  25
ATOM     25  C   UNL A   1      35.229  31.532  27.970  1.00  0.00     0.338 C 
ATOM     26  O   UNL A   1      35.649  32.624  27.626  1.00  0.00    -0.246 OA
BRANCH  25  27
ATOM     27  C   UNL A   1      36.102  30.343  28.208  1.00  0.00     0.060 A 
ATOM     28  C   UNL A   1      36.113  29.705  29.466  1.00  0.00     0.016 A 
ATOM     29  C   UNL A   1      37.131  30.101  27.306  1.00  0.00     0.016 A 
ATOM     30  C   UNL A   1      37.235  28.964  29.875  1.00  0.00     0.010 A 
ATOM     31  C   UNL A   1      38.277  29.490  27.763  1.00  0.00     0.010 A 
ATOM     32  C   UNL A   1      38.360  28.941  29.055  1.00  0.00    -0.014 A 
BRANCH  32  33
ATOM     33  C   UNL A   1      39.711  28.497  29.425  1.00  0.00     0.031 A 
ATOM     34  C   UNL A   1      40.105  27.117  29.047  1.00  0.00     0.074 A 
ATOM     35  C   UNL A   1      40.673  29.401  29.748  1.00  0.00     0.049 A 
ATOM     36  N   UNL A   1      41.227  26.572  29.360  1.00  0.00    -0.248 NA
ATOM     37  C   UNL A   1      39.243  26.200  28.299  1.00  0.00     0.031 C 
ATOM     38  C   UNL A   1      42.118  29.298  29.516  1.00  0.00     0.029 A 
ATOM     39  N   UNL A   1      40.562  30.678  30.322  1.00  0.00    -0.354 N 
ATOM     40  C   UNL A   1      41.398  25.474  28.547  1.00  0.00     0.074 A 
ATOM     41  C   UNL A   1      40.082  25.194  28.042  1.00  0.00     0.031 C 
ATOM     42  C   UNL A   1      42.761  30.266  30.196  1.00  0.00     0.029 A 
ATOM     43  C   UNL A   1      41.764  30.954  30.997  1.00  0.00     0.049 A 
ATOM     44  H   UNL A   1      39.781  31.274  30.263  1.00  0.00     0.167 HD
ATOM     45  C   UNL A   1      42.676  25.064  28.295  1.00  0.00     0.037 A 
ATOM     46  C   UNL A   1      41.776  31.194  32.335  1.00  0.00     0.037 A 
ATOM     47  C   UNL A   1      43.621  25.824  29.138  1.00  0.00     0.049 A 
ATOM     48  C   UNL A   1      42.562  30.093  32.975  1.00  0.00     0.074 A 
ATOM     49  C   UNL A   1      44.560  26.806  28.868  1.00  0.00     0.029 A 
ATOM     50  N   UNL A   1      43.439  25.838  30.524  1.00  0.00    -0.354 N 
ATOM     51  N   UNL A   1      42.686  28.921  32.412  1.00  0.00    -0.248 NA
ATOM     52  C   UNL A   1      43.370  30.232  34.179  1.00  0.00     0.031 C 
ATOM     53  C   UNL A   1      44.876  27.460  30.095  1.00  0.00     0.029 A 
ATOM     54  C   UNL A   1      44.151  26.863  31.117  1.00  0.00     0.049 A 
ATOM     55  H   UNL A   1      42.875  25.198  31.015  1.00  0.00     0.167 HD
ATOM     56  C   UNL A   1      43.662  28.225  33.047  1.00  0.00     0.074 A 
ATOM     57  C   UNL A   1      44.010  29.048  34.194  1.00  0.00     0.031 C 
ATOM     58  C   UNL A   1      44.146  27.047  32.565  1.00  0.00     0.037 A 
BRANCH  45  59
ATOM     59  C   UNL A   1      43.130  24.165  27.146  1.00  0.00     0.064 A 
ATOM     60  C   UNL A   1      42.783  22.793  27.142  1.00  0.00     0.173 A 
ATOM     61  C   UNL A   1      43.952  24.541  26.060  1.00  0.00     0.173 A 
ATOM     62  F   UNL A   1      41.971  22.275  28.073  1.00  0.00    -0.203 F 
ATOM     63  C   UNL A   1      43.255  21.886  26.182  1.00  0.00     0.198 A 
ATOM     64  C   UNL A   1      44.411  23.639  25.092  1.00  0.00     0.198 A 
ATOM     65  F   UNL A   1      44.366  25.793  25.867  1.00  0.00    -0.203 F 
ATOM     66  F   UNL A   1      42.914  20.593  26.264  1.00  0.00    -0.200 F 
ATOM     67  C   UNL A   1      44.073  22.309  25.158  1.00  0.00     0.200 A 
ATOM     68  F   UNL A   1      45.195  24.082  24.096  1.00  0.00    -0.200 F 
ATOM     69  F   UNL A   1      44.527  21.447  24.239  1.00  0.00    -0.200 F 
ENDBRANCH  45  59
BRANCH  46  70
ATOM     70  C   UNL A   1      40.512  31.862  32.769  1.00  0.00     0.064 A 
ATOM     71  C   UNL A   1      40.352  33.211  32.370  1.00  0.00     0.173 A 
ATOM     72  C   UNL A   1      39.344  31.127  33.013  1.00  0.00     0.173 A 
ATOM     73  F   UNL A   1      41.433  33.961  32.103  1.00  0.00    -0.203 F 
ATOM     74  C   UNL A   1      39.098  33.735  32.057  1.00  0.00     0.198 A 
ATOM     75  C   UNL A   1      38.086  31.665  32.705  1.00  0.00     0.198 A 
ATOM     76  F   UNL A   1      39.417  29.844  33.391  1.00  0.00    -0.203 F 
ATOM     77  F   UNL A   1      39.000  34.953  31.500  1.00  0.00    -0.200 F 
ATOM     78  C   UNL A   1      37.970  32.944  32.179  1.00  0.00     0.200 A 
ATOM     79  F   UNL A   1      36.989  30.899  32.806  1.00  0.00    -0.200 F 
ATOM     80  F   UNL A   1      36.788  33.386  31.724  1.00  0.00    -0.200 F 
ENDBRANCH  46  70
BRANCH  58  81
ATOM     81  C   UNL A   1      44.738  25.994  33.450  1.00  0.00     0.064 A 
ATOM     82  C   UNL A   1      43.954  25.179  34.285  1.00  0.00     0.173 A 
ATOM     83  C   UNL A   1      46.098  25.634  33.330  1.00  0.00     0.173 A 
ATOM     84  F   UNL A   1      42.626  25.336  34.376  1.00  0.00    -0.203 F 
ATOM     85  C   UNL A   1      44.507  24.126  35.007  1.00  0.00     0.198 A 
ATOM     86  C   UNL A   1      46.628  24.536  33.996  1.00  0.00     0.198 A 
ATOM     87  F   UNL A   1      46.940  26.306  32.531  1.00  0.00    -0.203 F 
ATOM     88  F   UNL A   1      43.729  23.412  35.832  1.00  0.00    -0.200 F 
ATOM     89  C   UNL A   1      45.839  23.796  34.852  1.00  0.00     0.200 A 
ATOM     90  F   UNL A   1      47.902  24.182  33.779  1.00  0.00    -0.200 F 
ATOM     91  F   UNL A   1      46.356  22.752  35.510  1.00  0.00    -0.200 F 
ENDBRANCH  58  81
ENDBRANCH  32  33
ENDBRANCH  25  27
ENDBRANCH  24  25
ENDBRANCH  23  24
ENDBRANCH   1  23
TORSDOF 15
ENDMDL
