MODEL 1
REMARK VINA RESULT:     -10.2      0.000      0.000
REMARK SMILES Nc1ccc(O)c(C(=O)OCCOCCOC(=O)c2ccc(-c3c4nc(c(-c5c(F)c(F)c(F)c(F)c5F)c5ccc([nH]5)c(-c5c(F)c(F)c(F)c(F)c5F)c5nc(c(-c6c(F)c(F)c(F)c(F)c6F)c6ccc3[nH]6)C=C5)C=C4)cc2)c1
REMARK SMILES IDX 14 1 13 2 12 3 11 4 10 5 8 6 9 7 7 8 2 9 3 10 82 11 4 12
REMARK SMILES IDX 5 13 1 14 6 17 15 19 16 20 17 21 18 22 19 23 20 24 81 25
REMARK SMILES IDX 21 26 80 27 22 28 23 29 24 30 74 31 25 32 79 33 73 34 75 35
REMARK SMILES IDX 26 36 78 37 72 38 71 39 27 41 59 42 39 43 58 44 40 45 43 46
REMARK SMILES IDX 57 47 76 48 41 49 42 50 56 52 77 53 44 54 28 55 29 56 37 57
REMARK SMILES IDX 30 58 31 59 35 60 38 61 32 62 33 63 36 64 34 65 60 66 61 67
REMARK SMILES IDX 69 68 62 69 63 70 67 71 70 72 64 73 65 74 68 75 66 76 45 77
REMARK SMILES IDX 46 78 54 79 47 80 48 81 52 82 55 83 49 84 50 85 53 86 51 87
REMARK H PARENT 1 15 1 16 6 18 75 40 43 51
REMARK Flexibility Score: inf
ROOT
ATOM      1  C   UNL A   1      33.500  34.908  29.244  1.00  0.00     0.202 C 
ENDROOT
BRANCH   1   2
ATOM      2  O   UNL A   1      32.559  35.905  29.654  1.00  0.00    -0.374 OA
BRANCH   2   3
ATOM      3  C   UNL A   1      32.383  36.081  31.059  1.00  0.00     0.202 C 
BRANCH   3   4
ATOM      4  C   UNL A   1      33.611  35.777  31.923  1.00  0.00     0.261 C 
BRANCH   4   5
ATOM      5  O   UNL A   1      33.424  34.578  32.696  1.00  0.00    -0.460 OA
BRANCH   5   6
ATOM      6  C   UNL A   1      34.289  33.576  32.409  1.00  0.00     0.342 C 
ATOM      7  O   UNL A   1      34.037  32.543  31.804  1.00  0.00    -0.246 OA
BRANCH   6   8
ATOM      8  C   UNL A   1      35.680  33.950  32.746  1.00  0.00     0.103 A 
ATOM      9  C   UNL A   1      37.944  34.574  32.119  1.00  0.00     0.032 A 
ATOM     10  C   UNL A   1      38.300  34.568  33.472  1.00  0.00     0.029 A 
ATOM     11  C   UNL A   1      36.637  34.228  31.759  1.00  0.00     0.045 A 
ATOM     12  C   UNL A   1      37.357  34.277  34.460  1.00  0.00     0.049 A 
ATOM     13  C   UNL A   1      36.050  33.979  34.098  1.00  0.00     0.130 A 
BRANCH   9  14
ATOM     14  N   UNL A   1      38.911  34.795  31.151  1.00  0.00    -0.399 N 
ATOM     15  H   UNL A   1      39.854  34.585  31.341  1.00  0.00     0.156 HD
ATOM     16  H   UNL A   1      38.655  35.163  30.275  1.00  0.00     0.156 HD
ENDBRANCH   9  14
BRANCH  13  17
ATOM     17  O   UNL A   1      35.189  33.691  35.122  1.00  0.00    -0.507 OA
ATOM     18  H   UNL A   1      35.412  33.033  35.750  1.00  0.00     0.293 HD
ENDBRANCH  13  17
ENDBRANCH   6   8
ENDBRANCH   5   6
ENDBRANCH   4   5
ENDBRANCH   3   4
ENDBRANCH   2   3
ENDBRANCH   1   2
BRANCH   1  19
ATOM     19  C   UNL A   1      33.054  34.011  28.084  1.00  0.00     0.261 C 
BRANCH  19  20
ATOM     20  O   UNL A   1      34.160  33.263  27.545  1.00  0.00    -0.460 OA
BRANCH  20  21
ATOM     21  C   UNL A   1      34.038  31.919  27.627  1.00  0.00     0.338 C 
ATOM     22  O   UNL A   1      33.072  31.240  27.306  1.00  0.00    -0.246 OA
BRANCH  21  23
ATOM     23  C   UNL A   1      35.331  31.318  28.007  1.00  0.00     0.060 A 
ATOM     24  C   UNL A   1      35.338  29.954  28.326  1.00  0.00     0.016 A 
ATOM     25  C   UNL A   1      36.500  32.076  28.111  1.00  0.00     0.016 A 
ATOM     26  C   UNL A   1      36.501  29.354  28.801  1.00  0.00     0.010 A 
ATOM     27  C   UNL A   1      37.666  31.473  28.595  1.00  0.00     0.010 A 
ATOM     28  C   UNL A   1      37.662  30.118  28.976  1.00  0.00    -0.014 A 
BRANCH  28  29
ATOM     29  C   UNL A   1      38.822  29.533  29.690  1.00  0.00     0.031 A 
ATOM     30  C   UNL A   1      39.144  30.019  31.077  1.00  0.00     0.074 A 
ATOM     31  C   UNL A   1      39.559  28.559  29.127  1.00  0.00     0.049 A 
ATOM     32  N   UNL A   1      40.126  29.673  31.872  1.00  0.00    -0.248 NA
ATOM     33  C   UNL A   1      38.238  31.030  31.643  1.00  0.00     0.031 C 
ATOM     34  C   UNL A   1      39.322  27.978  27.808  1.00  0.00     0.029 A 
ATOM     35  N   UNL A   1      40.662  27.892  29.597  1.00  0.00    -0.354 N 
ATOM     36  C   UNL A   1      39.955  30.424  33.028  1.00  0.00     0.074 A 
ATOM     37  C   UNL A   1      38.797  31.267  32.821  1.00  0.00     0.031 C 
ATOM     38  C   UNL A   1      40.262  27.047  27.567  1.00  0.00     0.029 A 
ATOM     39  C   UNL A   1      41.181  26.989  28.703  1.00  0.00     0.049 A 
ATOM     40  H   UNL A   1      41.045  28.046  30.491  1.00  0.00     0.167 HD
ATOM     41  C   UNL A   1      40.693  30.404  34.164  1.00  0.00     0.037 A 
ATOM     42  C   UNL A   1      42.286  26.221  28.786  1.00  0.00     0.037 A 
ATOM     43  C   UNL A   1      41.843  29.565  34.370  1.00  0.00     0.049 A 
ATOM     44  C   UNL A   1      43.129  26.270  30.034  1.00  0.00     0.074 A 
ATOM     45  C   UNL A   1      42.648  29.464  35.491  1.00  0.00     0.029 A 
ATOM     46  N   UNL A   1      42.354  28.683  33.430  1.00  0.00    -0.354 N 
ATOM     47  N   UNL A   1      42.948  26.965  31.130  1.00  0.00    -0.248 NA
ATOM     48  C   UNL A   1      44.330  25.422  30.055  1.00  0.00     0.031 C 
ATOM     49  C   UNL A   1      43.674  28.554  35.214  1.00  0.00     0.029 A 
ATOM     50  C   UNL A   1      43.478  28.051  33.937  1.00  0.00     0.049 A 
ATOM     51  H   UNL A   1      41.974  28.529  32.535  1.00  0.00     0.167 HD
ATOM     52  C   UNL A   1      43.990  26.619  31.980  1.00  0.00     0.074 A 
ATOM     53  C   UNL A   1      44.794  25.641  31.278  1.00  0.00     0.031 C 
ATOM     54  C   UNL A   1      44.259  27.070  33.229  1.00  0.00     0.037 A 
BRANCH  41  55
ATOM     55  C   UNL A   1      40.289  31.333  35.271  1.00  0.00     0.064 A 
ATOM     56  C   UNL A   1      40.992  32.518  35.529  1.00  0.00     0.173 A 
ATOM     57  C   UNL A   1      39.156  31.057  36.050  1.00  0.00     0.173 A 
ATOM     58  F   UNL A   1      42.091  32.819  34.820  1.00  0.00    -0.203 F 
ATOM     59  C   UNL A   1      40.586  33.386  36.539  1.00  0.00     0.198 A 
ATOM     60  C   UNL A   1      38.738  31.940  37.042  1.00  0.00     0.198 A 
ATOM     61  F   UNL A   1      38.446  29.939  35.842  1.00  0.00    -0.203 F 
ATOM     62  F   UNL A   1      41.294  34.495  36.793  1.00  0.00    -0.200 F 
ATOM     63  C   UNL A   1      39.455  33.100  37.289  1.00  0.00     0.200 A 
ATOM     64  F   UNL A   1      37.637  31.668  37.759  1.00  0.00    -0.200 F 
ATOM     65  F   UNL A   1      39.059  33.942  38.253  1.00  0.00    -0.200 F 
ENDBRANCH  41  55
BRANCH  42  66
ATOM     66  C   UNL A   1      42.673  25.348  27.646  1.00  0.00     0.064 A 
ATOM     67  C   UNL A   1      43.578  25.788  26.671  1.00  0.00     0.173 A 
ATOM     68  C   UNL A   1      42.119  24.069  27.492  1.00  0.00     0.173 A 
ATOM     69  F   UNL A   1      44.113  27.014  26.760  1.00  0.00    -0.203 F 
ATOM     70  C   UNL A   1      43.896  24.992  25.572  1.00  0.00     0.198 A 
ATOM     71  C   UNL A   1      42.460  23.261  26.409  1.00  0.00     0.198 A 
ATOM     72  F   UNL A   1      41.246  23.600  28.397  1.00  0.00    -0.203 F 
ATOM     73  F   UNL A   1      44.722  25.458  24.626  1.00  0.00    -0.200 F 
ATOM     74  C   UNL A   1      43.340  23.727  25.446  1.00  0.00     0.200 A 
ATOM     75  F   UNL A   1      41.929  22.036  26.296  1.00  0.00    -0.200 F 
ATOM     76  F   UNL A   1      43.645  22.962  24.388  1.00  0.00    -0.200 F 
ENDBRANCH  42  66
BRANCH  54  77
ATOM     77  C   UNL A   1      45.448  26.484  33.935  1.00  0.00     0.064 A 
ATOM     78  C   UNL A   1      45.346  25.315  34.703  1.00  0.00     0.173 A 
ATOM     79  C   UNL A   1      46.713  27.078  33.807  1.00  0.00     0.173 A 
ATOM     80  F   UNL A   1      44.157  24.718  34.868  1.00  0.00    -0.203 F 
ATOM     81  C   UNL A   1      46.464  24.775  35.335  1.00  0.00     0.198 A 
ATOM     82  C   UNL A   1      47.833  26.520  34.417  1.00  0.00     0.198 A 
ATOM     83  F   UNL A   1      46.865  28.194  33.077  1.00  0.00    -0.203 F 
ATOM     84  F   UNL A   1      46.334  23.683  36.100  1.00  0.00    -0.200 F 
ATOM     85  C   UNL A   1      47.706  25.374  35.186  1.00  0.00     0.200 A 
ATOM     86  F   UNL A   1      49.034  27.092  34.260  1.00  0.00    -0.200 F 
ATOM     87  F   UNL A   1      48.781  24.848  35.790  1.00  0.00    -0.200 F 
ENDBRANCH  54  77
ENDBRANCH  28  29
ENDBRANCH  21  23
ENDBRANCH  20  21
ENDBRANCH  19  20
ENDBRANCH   1  19
TORSDOF 16
ENDMDL
MODEL 2
REMARK VINA RESULT:     -10.1      3.380      5.733
REMARK SMILES Nc1ccc(O)c(C(=O)OCCOCCOC(=O)c2ccc(-c3c4nc(c(-c5c(F)c(F)c(F)c(F)c5F)c5ccc([nH]5)c(-c5c(F)c(F)c(F)c(F)c5F)c5nc(c(-c6c(F)c(F)c(F)c(F)c6F)c6ccc3[nH]6)C=C5)C=C4)cc2)c1
REMARK SMILES IDX 14 1 13 2 12 3 11 4 10 5 8 6 9 7 7 8 2 9 3 10 82 11 4 12
REMARK SMILES IDX 5 13 1 14 6 17 15 19 16 20 17 21 18 22 19 23 20 24 81 25
REMARK SMILES IDX 21 26 80 27 22 28 23 29 24 30 74 31 25 32 79 33 73 34 75 35
REMARK SMILES IDX 26 36 78 37 72 38 71 39 27 41 59 42 39 43 58 44 40 45 43 46
REMARK SMILES IDX 57 47 76 48 41 49 42 50 56 52 77 53 44 54 28 55 29 56 37 57
REMARK SMILES IDX 30 58 31 59 35 60 38 61 32 62 33 63 36 64 34 65 60 66 61 67
REMARK SMILES IDX 69 68 62 69 63 70 67 71 70 72 64 73 65 74 68 75 66 76 45 77
REMARK SMILES IDX 46 78 54 79 47 80 48 81 52 82 55 83 49 84 50 85 53 86 51 87
REMARK H PARENT 1 15 1 16 6 18 75 40 43 51
REMARK Flexibility Score: inf
ROOT
ATOM      1  C   UNL A   1      31.854  30.068  25.393  1.00  0.00     0.202 C 
ENDROOT
BRANCH   1   2
ATOM      2  O   UNL A   1      33.146  29.465  25.275  1.00  0.00    -0.374 OA
BRANCH   2   3
ATOM      3  C   UNL A   1      33.348  28.595  24.162  1.00  0.00     0.202 C 
BRANCH   3   4
ATOM      4  C   UNL A   1      32.877  27.151  24.357  1.00  0.00     0.261 C 
BRANCH   4   5
ATOM      5  O   UNL A   1      31.476  27.012  24.058  1.00  0.00    -0.460 OA
BRANCH   5   6
ATOM      6  C   UNL A   1      31.140  27.275  22.773  1.00  0.00     0.342 C 
ATOM      7  O   UNL A   1      31.602  26.745  21.772  1.00  0.00    -0.246 OA
BRANCH   6   8
ATOM      8  C   UNL A   1      29.966  28.172  22.695  1.00  0.00     0.103 A 
ATOM      9  C   UNL A   1      27.607  28.650  23.037  1.00  0.00     0.032 A 
ATOM     10  C   UNL A   1      27.793  29.899  22.435  1.00  0.00     0.029 A 
ATOM     11  C   UNL A   1      28.693  27.774  23.132  1.00  0.00     0.045 A 
ATOM     12  C   UNL A   1      29.053  30.297  21.983  1.00  0.00     0.049 A 
ATOM     13  C   UNL A   1      30.136  29.439  22.123  1.00  0.00     0.130 A 
BRANCH   9  14
ATOM     14  N   UNL A   1      26.335  28.247  23.413  1.00  0.00    -0.399 N 
ATOM     15  H   UNL A   1      26.130  28.089  24.362  1.00  0.00     0.156 HD
ATOM     16  H   UNL A   1      25.639  28.116  22.729  1.00  0.00     0.156 HD
ENDBRANCH   9  14
BRANCH  13  17
ATOM     17  O   UNL A   1      31.335  29.896  21.643  1.00  0.00    -0.507 OA
ATOM     18  H   UNL A   1      31.851  29.353  21.080  1.00  0.00     0.293 HD
ENDBRANCH  13  17
ENDBRANCH   6   8
ENDBRANCH   5   6
ENDBRANCH   4   5
ENDBRANCH   3   4
ENDBRANCH   2   3
ENDBRANCH   1   2
BRANCH   1  19
ATOM     19  C   UNL A   1      31.745  31.211  26.408  1.00  0.00     0.261 C 
BRANCH  19  20
ATOM     20  O   UNL A   1      32.706  31.062  27.470  1.00  0.00    -0.460 OA
BRANCH  20  21
ATOM     21  C   UNL A   1      33.556  32.103  27.625  1.00  0.00     0.338 C 
ATOM     22  O   UNL A   1      33.287  33.295  27.577  1.00  0.00    -0.246 OA
BRANCH  21  23
ATOM     23  C   UNL A   1      34.881  31.611  28.048  1.00  0.00     0.060 A 
ATOM     24  C   UNL A   1      34.997  30.248  28.346  1.00  0.00     0.016 A 
ATOM     25  C   UNL A   1      35.973  32.468  28.211  1.00  0.00     0.016 A 
ATOM     26  C   UNL A   1      36.190  29.743  28.859  1.00  0.00     0.010 A 
ATOM     27  C   UNL A   1      37.169  31.961  28.733  1.00  0.00     0.010 A 
ATOM     28  C   UNL A   1      37.270  30.604  29.093  1.00  0.00    -0.014 A 
BRANCH  28  29
ATOM     29  C   UNL A   1      38.449  30.111  29.845  1.00  0.00     0.031 A 
ATOM     30  C   UNL A   1      38.671  30.595  31.251  1.00  0.00     0.074 A 
ATOM     31  C   UNL A   1      39.292  29.217  29.296  1.00  0.00     0.049 A 
ATOM     32  N   UNL A   1      39.647  30.322  32.080  1.00  0.00    -0.248 NA
ATOM     33  C   UNL A   1      37.655  31.510  31.796  1.00  0.00     0.031 C 
ATOM     34  C   UNL A   1      39.161  28.644  27.960  1.00  0.00     0.029 A 
ATOM     35  N   UNL A   1      40.432  28.642  29.801  1.00  0.00    -0.354 N 
ATOM     36  C   UNL A   1      39.364  31.032  33.241  1.00  0.00     0.074 A 
ATOM     37  C   UNL A   1      38.144  31.772  33.000  1.00  0.00     0.031 C 
ATOM     38  C   UNL A   1      40.190  27.806  27.742  1.00  0.00     0.029 A 
ATOM     39  C   UNL A   1      41.065  27.807  28.914  1.00  0.00     0.049 A 
ATOM     40  H   UNL A   1      40.763  28.812  30.712  1.00  0.00     0.167 HD
ATOM     41  C   UNL A   1      40.055  31.055  34.405  1.00  0.00     0.037 A 
ATOM     42  C   UNL A   1      42.229  27.139  29.029  1.00  0.00     0.037 A 
ATOM     43  C   UNL A   1      41.267  30.318  34.645  1.00  0.00     0.049 A 
ATOM     44  C   UNL A   1      43.014  27.238  30.312  1.00  0.00     0.074 A 
ATOM     45  C   UNL A   1      42.032  30.266  35.797  1.00  0.00     0.029 A 
ATOM     46  N   UNL A   1      41.892  29.503  33.713  1.00  0.00    -0.354 N 
ATOM     47  N   UNL A   1      42.728  27.892  31.411  1.00  0.00    -0.248 NA
ATOM     48  C   UNL A   1      44.285  26.500  30.369  1.00  0.00     0.031 C 
ATOM     49  C   UNL A   1      43.146  29.457  35.547  1.00  0.00     0.029 A 
ATOM     50  C   UNL A   1      43.047  28.964  34.255  1.00  0.00     0.049 A 
ATOM     51  H   UNL A   1      41.564  29.335  32.800  1.00  0.00     0.167 HD
ATOM     52  C   UNL A   1      43.763  27.623  32.298  1.00  0.00     0.074 A 
ATOM     53  C   UNL A   1      44.679  26.735  31.613  1.00  0.00     0.031 C 
ATOM     54  C   UNL A   1      43.941  28.071  33.564  1.00  0.00     0.037 A 
BRANCH  41  55
ATOM     55  C   UNL A   1      39.525  31.921  35.510  1.00  0.00     0.064 A 
ATOM     56  C   UNL A   1      38.585  31.441  36.433  1.00  0.00     0.173 A 
ATOM     57  C   UNL A   1      40.001  33.230  35.675  1.00  0.00     0.173 A 
ATOM     58  F   UNL A   1      38.089  30.200  36.309  1.00  0.00    -0.203 F 
ATOM     59  C   UNL A   1      38.127  32.247  37.472  1.00  0.00     0.198 A 
ATOM     60  C   UNL A   1      39.559  34.024  36.731  1.00  0.00     0.198 A 
ATOM     61  F   UNL A   1      40.903  33.735  34.822  1.00  0.00    -0.203 F 
ATOM     62  F   UNL A   1      37.201  31.781  38.322  1.00  0.00    -0.200 F 
ATOM     63  C   UNL A   1      38.620  33.534  37.625  1.00  0.00     0.200 A 
ATOM     64  F   UNL A   1      40.046  35.264  36.883  1.00  0.00    -0.200 F 
ATOM     65  F   UNL A   1      38.187  34.304  38.632  1.00  0.00    -0.200 F 
ENDBRANCH  41  55
BRANCH  42  66
ATOM     66  C   UNL A   1      42.739  26.327  27.893  1.00  0.00     0.064 A 
ATOM     67  C   UNL A   1      43.574  26.888  26.918  1.00  0.00     0.173 A 
ATOM     68  C   UNL A   1      42.371  24.982  27.741  1.00  0.00     0.173 A 
ATOM     69  F   UNL A   1      43.931  28.178  27.005  1.00  0.00    -0.203 F 
ATOM     70  C   UNL A   1      44.003  26.143  25.822  1.00  0.00     0.198 A 
ATOM     71  C   UNL A   1      42.825  24.229  26.660  1.00  0.00     0.198 A 
ATOM     72  F   UNL A   1      41.572  24.397  28.645  1.00  0.00    -0.203 F 
ATOM     73  F   UNL A   1      44.758  26.719  24.876  1.00  0.00    -0.200 F 
ATOM     74  C   UNL A   1      43.633  24.812  25.697  1.00  0.00     0.200 A 
ATOM     75  F   UNL A   1      42.472  22.941  26.550  1.00  0.00    -0.200 F 
ATOM     76  F   UNL A   1      44.044  24.095  24.642  1.00  0.00    -0.200 F 
ENDBRANCH  42  66
BRANCH  54  77
ATOM     77  C   UNL A   1      45.148  27.580  34.309  1.00  0.00     0.064 A 
ATOM     78  C   UNL A   1      45.121  26.392  35.054  1.00  0.00     0.173 A 
ATOM     79  C   UNL A   1      46.360  28.285  34.241  1.00  0.00     0.173 A 
ATOM     80  F   UNL A   1      43.984  25.689  35.161  1.00  0.00    -0.203 F 
ATOM     81  C   UNL A   1      46.256  25.941  35.723  1.00  0.00     0.198 A 
ATOM     82  C   UNL A   1      47.500  27.817  34.887  1.00  0.00     0.198 A 
ATOM     83  F   UNL A   1      46.440  29.424  33.535  1.00  0.00    -0.203 F 
ATOM     84  F   UNL A   1      46.195  24.828  36.466  1.00  0.00    -0.200 F 
ATOM     85  C   UNL A   1      47.446  26.650  35.633  1.00  0.00     0.200 A 
ATOM     86  F   UNL A   1      48.651  28.496  34.788  1.00  0.00    -0.200 F 
ATOM     87  F   UNL A   1      48.539  26.210  36.272  1.00  0.00    -0.200 F 
ENDBRANCH  54  77
ENDBRANCH  28  29
ENDBRANCH  21  23
ENDBRANCH  20  21
ENDBRANCH  19  20
ENDBRANCH   1  19
TORSDOF 16
ENDMDL
MODEL 3
REMARK VINA RESULT:     -10.0      5.906     12.293
REMARK SMILES Nc1ccc(O)c(C(=O)OCCOCCOC(=O)c2ccc(-c3c4nc(c(-c5c(F)c(F)c(F)c(F)c5F)c5ccc([nH]5)c(-c5c(F)c(F)c(F)c(F)c5F)c5nc(c(-c6c(F)c(F)c(F)c(F)c6F)c6ccc3[nH]6)C=C5)C=C4)cc2)c1
REMARK SMILES IDX 14 1 13 2 12 3 11 4 10 5 8 6 9 7 7 8 2 9 3 10 82 11 4 12
REMARK SMILES IDX 5 13 1 14 6 17 15 19 16 20 17 21 18 22 19 23 20 24 81 25
REMARK SMILES IDX 21 26 80 27 22 28 23 29 24 30 74 31 25 32 79 33 73 34 75 35
REMARK SMILES IDX 26 36 78 37 72 38 71 39 27 41 59 42 39 43 58 44 40 45 43 46
REMARK SMILES IDX 57 47 76 48 41 49 42 50 56 52 77 53 44 54 28 55 29 56 37 57
REMARK SMILES IDX 30 58 31 59 35 60 38 61 32 62 33 63 36 64 34 65 60 66 61 67
REMARK SMILES IDX 69 68 62 69 63 70 67 71 70 72 64 73 65 74 68 75 66 76 45 77
REMARK SMILES IDX 46 78 54 79 47 80 48 81 52 82 55 83 49 84 50 85 53 86 51 87
REMARK H PARENT 1 15 1 16 6 18 75 40 43 51
REMARK Flexibility Score: inf
ROOT
ATOM      1  C   UNL A   1      42.525  18.506  26.787  1.00  0.00     0.202 C 
ENDROOT
BRANCH   1   2
ATOM      2  O   UNL A   1      43.756  18.223  26.116  1.00  0.00    -0.374 OA
BRANCH   2   3
ATOM      3  C   UNL A   1      43.971  18.877  24.866  1.00  0.00     0.202 C 
BRANCH   3   4
ATOM      4  C   UNL A   1      45.144  19.861  24.828  1.00  0.00     0.261 C 
BRANCH   4   5
ATOM      5  O   UNL A   1      44.853  20.989  23.983  1.00  0.00    -0.460 OA
BRANCH   5   6
ATOM      6  C   UNL A   1      44.232  22.020  24.605  1.00  0.00     0.342 C 
ATOM      7  O   UNL A   1      43.029  22.244  24.627  1.00  0.00    -0.246 OA
BRANCH   6   8
ATOM      8  C   UNL A   1      45.171  22.782  25.457  1.00  0.00     0.103 A 
ATOM      9  C   UNL A   1      45.878  23.668  27.607  1.00  0.00     0.032 A 
ATOM     10  C   UNL A   1      46.950  24.302  26.972  1.00  0.00     0.029 A 
ATOM     11  C   UNL A   1      44.968  22.936  26.836  1.00  0.00     0.045 A 
ATOM     12  C   UNL A   1      47.150  24.167  25.596  1.00  0.00     0.049 A 
ATOM     13  C   UNL A   1      46.269  23.401  24.845  1.00  0.00     0.130 A 
BRANCH   9  14
ATOM     14  N   UNL A   1      45.656  23.874  28.961  1.00  0.00    -0.399 N 
ATOM     15  H   UNL A   1      45.632  23.107  29.577  1.00  0.00     0.156 HD
ATOM     16  H   UNL A   1      45.521  24.786  29.303  1.00  0.00     0.156 HD
ENDBRANCH   9  14
BRANCH  13  17
ATOM     17  O   UNL A   1      46.524  23.328  23.502  1.00  0.00    -0.507 OA
ATOM     18  H   UNL A   1      46.597  24.113  22.996  1.00  0.00     0.293 HD
ENDBRANCH  13  17
ENDBRANCH   6   8
ENDBRANCH   5   6
ENDBRANCH   4   5
ENDBRANCH   3   4
ENDBRANCH   2   3
ENDBRANCH   1   2
BRANCH   1  19
ATOM     19  C   UNL A   1      41.601  19.508  26.085  1.00  0.00     0.261 C 
BRANCH  19  20
ATOM     20  O   UNL A   1      40.861  20.295  27.037  1.00  0.00    -0.460 OA
BRANCH  20  21
ATOM     21  C   UNL A   1      40.009  21.196  26.498  1.00  0.00     0.338 C 
ATOM     22  O   UNL A   1      39.038  20.969  25.789  1.00  0.00    -0.246 OA
BRANCH  21  23
ATOM     23  C   UNL A   1      40.298  22.542  27.028  1.00  0.00     0.060 A 
ATOM     24  C   UNL A   1      39.609  23.620  26.458  1.00  0.00     0.016 A 
ATOM     25  C   UNL A   1      41.262  22.759  28.016  1.00  0.00     0.016 A 
ATOM     26  C   UNL A   1      39.919  24.925  26.835  1.00  0.00     0.010 A 
ATOM     27  C   UNL A   1      41.577  24.071  28.388  1.00  0.00     0.010 A 
ATOM     28  C   UNL A   1      40.933  25.160  27.773  1.00  0.00    -0.014 A 
BRANCH  28  29
ATOM     29  C   UNL A   1      41.412  26.545  28.000  1.00  0.00     0.031 A 
ATOM     30  C   UNL A   1      42.769  26.940  27.486  1.00  0.00     0.074 A 
ATOM     31  C   UNL A   1      40.636  27.449  28.626  1.00  0.00     0.049 A 
ATOM     32  N   UNL A   1      43.400  28.081  27.597  1.00  0.00    -0.248 NA
ATOM     33  C   UNL A   1      43.513  25.909  26.746  1.00  0.00     0.031 C 
ATOM     34  C   UNL A   1      39.290  27.198  29.133  1.00  0.00     0.029 A 
ATOM     35  N   UNL A   1      40.879  28.762  28.944  1.00  0.00    -0.354 N 
ATOM     36  C   UNL A   1      44.614  27.905  26.944  1.00  0.00     0.074 A 
ATOM     37  C   UNL A   1      44.645  26.539  26.466  1.00  0.00     0.031 C 
ATOM     38  C   UNL A   1      38.827  28.320  29.713  1.00  0.00     0.029 A 
ATOM     39  C   UNL A   1      39.857  29.356  29.641  1.00  0.00     0.049 A 
ATOM     40  H   UNL A   1      41.707  29.233  28.696  1.00  0.00     0.167 HD
ATOM     41  C   UNL A   1      45.607  28.805  26.752  1.00  0.00     0.037 A 
ATOM     42  C   UNL A   1      39.773  30.589  30.179  1.00  0.00     0.037 A 
ATOM     43  C   UNL A   1      45.575  30.164  27.225  1.00  0.00     0.049 A 
ATOM     44  C   UNL A   1      40.923  31.548  30.010  1.00  0.00     0.074 A 
ATOM     45  C   UNL A   1      46.527  31.155  27.068  1.00  0.00     0.029 A 
ATOM     46  N   UNL A   1      44.533  30.721  27.951  1.00  0.00    -0.354 N 
ATOM     47  N   UNL A   1      42.056  31.381  29.373  1.00  0.00    -0.248 NA
ATOM     48  C   UNL A   1      40.779  32.871  30.635  1.00  0.00     0.031 C 
ATOM     49  C   UNL A   1      46.083  32.299  27.739  1.00  0.00     0.029 A 
ATOM     50  C   UNL A   1      44.830  32.036  28.271  1.00  0.00     0.049 A 
ATOM     51  H   UNL A   1      43.705  30.251  28.203  1.00  0.00     0.167 HD
ATOM     52  C   UNL A   1      42.745  32.581  29.493  1.00  0.00     0.074 A 
ATOM     53  C   UNL A   1      41.896  33.475  30.255  1.00  0.00     0.031 C 
ATOM     54  C   UNL A   1      43.969  32.915  29.018  1.00  0.00     0.037 A 
BRANCH  41  55
ATOM     55  C   UNL A   1      46.827  28.345  26.010  1.00  0.00     0.064 A 
ATOM     56  C   UNL A   1      48.028  28.059  26.676  1.00  0.00     0.173 A 
ATOM     57  C   UNL A   1      46.779  28.142  24.623  1.00  0.00     0.173 A 
ATOM     58  F   UNL A   1      48.128  28.251  28.000  1.00  0.00    -0.203 F 
ATOM     59  C   UNL A   1      49.142  27.602  25.977  1.00  0.00     0.198 A 
ATOM     60  C   UNL A   1      47.888  27.660  23.932  1.00  0.00     0.198 A 
ATOM     61  F   UNL A   1      45.654  28.397  23.940  1.00  0.00    -0.203 F 
ATOM     62  F   UNL A   1      50.291  27.370  26.628  1.00  0.00    -0.200 F 
ATOM     63  C   UNL A   1      49.069  27.395  24.608  1.00  0.00     0.200 A 
ATOM     64  F   UNL A   1      47.811  27.449  22.610  1.00  0.00    -0.200 F 
ATOM     65  F   UNL A   1      50.139  26.945  23.939  1.00  0.00    -0.200 F 
ENDBRANCH  41  55
BRANCH  42  66
ATOM     66  C   UNL A   1      38.563  30.988  30.945  1.00  0.00     0.064 A 
ATOM     67  C   UNL A   1      37.427  31.491  30.296  1.00  0.00     0.173 A 
ATOM     68  C   UNL A   1      38.532  30.908  32.344  1.00  0.00     0.173 A 
ATOM     69  F   UNL A   1      37.419  31.613  28.960  1.00  0.00    -0.203 F 
ATOM     70  C   UNL A   1      36.315  31.919  31.018  1.00  0.00     0.198 A 
ATOM     71  C   UNL A   1      37.408  31.309  33.064  1.00  0.00     0.198 A 
ATOM     72  F   UNL A   1      39.593  30.436  33.014  1.00  0.00    -0.203 F 
ATOM     73  F   UNL A   1      35.263  32.445  30.376  1.00  0.00    -0.200 F 
ATOM     74  C   UNL A   1      36.305  31.822  32.402  1.00  0.00     0.200 A 
ATOM     75  F   UNL A   1      37.399  31.204  34.400  1.00  0.00    -0.200 F 
ATOM     76  F   UNL A   1      35.237  32.236  33.097  1.00  0.00    -0.200 F 
ENDBRANCH  42  66
BRANCH  54  77
ATOM     77  C   UNL A   1      44.451  34.314  29.271  1.00  0.00     0.064 A 
ATOM     78  C   UNL A   1      44.143  35.368  28.399  1.00  0.00     0.173 A 
ATOM     79  C   UNL A   1      45.196  34.611  30.423  1.00  0.00     0.173 A 
ATOM     80  F   UNL A   1      43.446  35.134  27.277  1.00  0.00    -0.203 F 
ATOM     81  C   UNL A   1      44.583  36.664  28.659  1.00  0.00     0.198 A 
ATOM     82  C   UNL A   1      45.610  35.912  30.694  1.00  0.00     0.198 A 
ATOM     83  F   UNL A   1      45.511  33.638  31.293  1.00  0.00    -0.203 F 
ATOM     84  F   UNL A   1      44.316  37.647  27.789  1.00  0.00    -0.200 F 
ATOM     85  C   UNL A   1      45.310  36.935  29.809  1.00  0.00     0.200 A 
ATOM     86  F   UNL A   1      46.300  36.174  31.813  1.00  0.00    -0.200 F 
ATOM     87  F   UNL A   1      45.726  38.184  30.061  1.00  0.00    -0.200 F 
ENDBRANCH  54  77
ENDBRANCH  28  29
ENDBRANCH  21  23
ENDBRANCH  20  21
ENDBRANCH  19  20
ENDBRANCH   1  19
TORSDOF 16
ENDMDL
