MODEL 1
REMARK VINA RESULT:     -12.1      0.000      0.000
REMARK SMILES CNC(=O)c1cc(S(=O)(=O)N2CCC(C(=O)OCCOCCOC(=O)c3ccc(-c4c5nc(c(-c6c(F)c(F)c(F)c(F)c6F)c6ccc([nH]6)c(-c6c(F)c(F)c(F)c(F)c6F)c6nc(c(-c7c(F)c(F)c(F)c(F)c7F)c7ccc4[nH]7)C=C6)C=C5)cc3)CC2)ccc1OC
REMARK SMILES IDX 19 1 18 2 17 3 15 4 16 5 14 6 11 7 12 8 90 9 13 10 89 11
REMARK SMILES IDX 8 12 9 13 10 14 7 15 5 16 6 17 93 18 92 19 91 20 3 21 1 22
REMARK SMILES IDX 2 23 4 25 94 26 95 27 20 28 21 29 22 30 23 31 24 32 25 33
REMARK SMILES IDX 26 34 27 35 88 36 28 37 87 38 29 39 30 40 31 41 81 42 32 43
REMARK SMILES IDX 86 44 80 45 82 46 33 47 85 48 79 49 78 50 34 52 66 53 46 54
REMARK SMILES IDX 65 55 47 56 50 57 64 58 83 59 48 60 49 61 63 63 84 64 51 65
REMARK SMILES IDX 35 66 36 67 44 68 37 69 38 70 42 71 45 72 39 73 40 74 43 75
REMARK SMILES IDX 41 76 67 77 68 78 76 79 69 80 70 81 74 82 77 83 71 84 72 85
REMARK SMILES IDX 75 86 73 87 52 88 53 89 61 90 54 91 55 92 59 93 62 94 56 95
REMARK SMILES IDX 57 96 60 97 58 98
REMARK H PARENT 2 24 82 51 50 62
REMARK Flexibility Score: inf
ROOT
ATOM      1  C   UNL A   1      40.881  21.061  26.321  1.00  0.00     0.202 C 
ENDROOT
BRANCH   1   2
ATOM      2  C   UNL A   1      40.103  22.353  26.578  1.00  0.00     0.261 C 
BRANCH   2   3
ATOM      3  O   UNL A   1      38.847  22.347  25.872  1.00  0.00    -0.463 OA
BRANCH   3   4
ATOM      4  C   UNL A   1      38.032  23.399  26.124  1.00  0.00     0.309 C 
ATOM      5  O   UNL A   1      38.198  24.225  27.014  1.00  0.00    -0.252 OA
BRANCH   4   6
ATOM      6  C   UNL A   1      36.849  23.477  25.185  1.00  0.00     0.102 C 
ATOM      7  N   UNL A   1      34.459  22.917  23.701  1.00  0.00    -0.198 NA
ATOM      8  C   UNL A   1      35.754  23.017  22.988  1.00  0.00     0.103 C 
ATOM      9  C   UNL A   1      34.362  23.410  25.096  1.00  0.00     0.103 C 
ATOM     10  C   UNL A   1      36.937  22.678  23.889  1.00  0.00     0.032 C 
ATOM     11  C   UNL A   1      35.588  23.048  25.919  1.00  0.00     0.032 C 
BRANCH   7  12
ATOM     12  S   UNL A   1      33.052  23.090  22.745  1.00  0.00     0.243 S 
ATOM     13  O   UNL A   1      32.072  22.161  23.280  1.00  0.00    -0.207 OA
ATOM     14  O   UNL A   1      33.445  23.060  21.358  1.00  0.00    -0.207 OA
BRANCH  12  15
ATOM     15  C   UNL A   1      32.386  24.723  23.040  1.00  0.00     0.083 A 
ATOM     16  C   UNL A   1      32.819  27.118  23.066  1.00  0.00     0.083 A 
ATOM     17  C   UNL A   1      33.268  25.801  22.881  1.00  0.00     0.039 A 
ATOM     18  C   UNL A   1      31.468  27.360  23.343  1.00  0.00     0.131 A 
ATOM     19  C   UNL A   1      30.604  26.280  23.539  1.00  0.00     0.048 A 
ATOM     20  C   UNL A   1      31.057  24.966  23.388  1.00  0.00     0.025 A 
BRANCH  16  21
ATOM     21  C   UNL A   1      33.830  28.185  22.917  1.00  0.00     0.254 C 
ATOM     22  C   UNL A   1      33.671  28.958  25.334  1.00  0.00     0.143 C 
ATOM     23  N   UNL A   1      34.161  28.992  23.975  1.00  0.00    -0.355 N 
ATOM     24  H   UNL A   1      34.825  29.692  23.781  1.00  0.00     0.163 HD
ATOM     25  O   UNL A   1      34.393  28.323  21.835  1.00  0.00    -0.269 OA
ENDBRANCH  16  21
BRANCH  18  26
ATOM     26  O   UNL A   1      30.897  28.595  23.486  1.00  0.00    -0.496 OA
ATOM     27  C   UNL A   1      29.547  28.645  23.018  1.00  0.00     0.278 C 
ENDBRANCH  18  26
ENDBRANCH  12  15
ENDBRANCH   7  12
ENDBRANCH   4   6
ENDBRANCH   3   4
ENDBRANCH   2   3
ENDBRANCH   1   2
BRANCH   1  28
ATOM     28  O   UNL A   1      42.068  21.192  25.538  1.00  0.00    -0.374 OA
BRANCH  28  29
ATOM     29  C   UNL A   1      43.143  21.948  26.090  1.00  0.00     0.202 C 
BRANCH  29  30
ATOM     30  C   UNL A   1      44.032  22.693  25.086  1.00  0.00     0.261 C 
BRANCH  30  31
ATOM     31  O   UNL A   1      43.421  23.905  24.607  1.00  0.00    -0.460 OA
BRANCH  31  32
ATOM     32  C   UNL A   1      44.055  25.038  24.998  1.00  0.00     0.338 C 
ATOM     33  O   UNL A   1      45.150  25.434  24.633  1.00  0.00    -0.246 OA
BRANCH  32  34
ATOM     34  C   UNL A   1      43.174  25.874  25.835  1.00  0.00     0.060 A 
ATOM     35  C   UNL A   1      43.696  27.096  26.277  1.00  0.00     0.016 A 
ATOM     36  C   UNL A   1      41.932  25.427  26.291  1.00  0.00     0.016 A 
ATOM     37  C   UNL A   1      43.017  27.838  27.237  1.00  0.00     0.010 A 
ATOM     38  C   UNL A   1      41.250  26.174  27.262  1.00  0.00     0.010 A 
ATOM     39  C   UNL A   1      41.817  27.354  27.778  1.00  0.00    -0.014 A 
BRANCH  39  40
ATOM     40  C   UNL A   1      41.289  27.999  29.006  1.00  0.00     0.031 A 
ATOM     41  C   UNL A   1      42.041  27.827  30.298  1.00  0.00     0.074 A 
ATOM     42  C   UNL A   1      40.218  28.809  28.955  1.00  0.00     0.049 A 
ATOM     43  N   UNL A   1      41.832  28.385  31.465  1.00  0.00    -0.248 NA
ATOM     44  C   UNL A   1      43.188  26.906  30.272  1.00  0.00     0.031 C 
ATOM     45  C   UNL A   1      39.420  29.079  27.762  1.00  0.00     0.029 A 
ATOM     46  N   UNL A   1      39.627  29.567  29.936  1.00  0.00    -0.354 N 
ATOM     47  C   UNL A   1      42.820  27.887  32.305  1.00  0.00     0.074 A 
ATOM     48  C   UNL A   1      43.606  26.955  31.529  1.00  0.00     0.031 C 
ATOM     49  C   UNL A   1      38.444  29.949  28.079  1.00  0.00     0.029 A 
ATOM     50  C   UNL A   1      38.545  30.286  29.497  1.00  0.00     0.049 A 
ATOM     51  H   UNL A   1      39.951  29.592  30.865  1.00  0.00     0.167 HD
ATOM     52  C   UNL A   1      43.062  28.192  33.603  1.00  0.00     0.037 A 
ATOM     53  C   UNL A   1      37.730  31.126  30.166  1.00  0.00     0.037 A 
ATOM     54  C   UNL A   1      42.285  29.121  34.379  1.00  0.00     0.049 A 
ATOM     55  C   UNL A   1      37.999  31.422  31.618  1.00  0.00     0.074 A 
ATOM     56  C   UNL A   1      42.462  29.507  35.696  1.00  0.00     0.029 A 
ATOM     57  N   UNL A   1      41.177  29.808  33.907  1.00  0.00    -0.354 N 
ATOM     58  N   UNL A   1      38.961  30.979  32.391  1.00  0.00    -0.248 NA
ATOM     59  C   UNL A   1      37.076  32.352  32.286  1.00  0.00     0.031 C 
ATOM     60  C   UNL A   1      41.435  30.398  36.034  1.00  0.00     0.029 A 
ATOM     61  C   UNL A   1      40.647  30.601  34.912  1.00  0.00     0.049 A 
ATOM     62  H   UNL A   1      40.818  29.741  32.992  1.00  0.00     0.167 HD
ATOM     63  C   UNL A   1      38.774  31.592  33.625  1.00  0.00     0.074 A 
ATOM     64  C   UNL A   1      37.618  32.452  33.491  1.00  0.00     0.031 C 
ATOM     65  C   UNL A   1      39.497  31.455  34.764  1.00  0.00     0.037 A 
BRANCH  52  66
ATOM     66  C   UNL A   1      44.210  27.495  34.270  1.00  0.00     0.064 A 
ATOM     67  C   UNL A   1      44.054  26.242  34.881  1.00  0.00     0.173 A 
ATOM     68  C   UNL A   1      45.486  28.077  34.279  1.00  0.00     0.173 A 
ATOM     69  F   UNL A   1      42.851  25.650  34.912  1.00  0.00    -0.203 F 
ATOM     70  C   UNL A   1      45.130  25.609  35.499  1.00  0.00     0.198 A 
ATOM     71  C   UNL A   1      46.565  27.429  34.875  1.00  0.00     0.198 A 
ATOM     72  F   UNL A   1      45.688  29.273  33.706  1.00  0.00    -0.203 F 
ATOM     73  F   UNL A   1      44.949  24.433  36.116  1.00  0.00    -0.200 F 
ATOM     74  C   UNL A   1      46.384  26.200  35.491  1.00  0.00     0.200 A 
ATOM     75  F   UNL A   1      47.778  27.998  34.859  1.00  0.00    -0.200 F 
ATOM     76  F   UNL A   1      47.419  25.588  36.084  1.00  0.00    -0.200 F 
ENDBRANCH  52  66
BRANCH  53  77
ATOM     77  C   UNL A   1      36.587  31.762  29.464  1.00  0.00     0.064 A 
ATOM     78  C   UNL A   1      35.483  31.009  29.044  1.00  0.00     0.173 A 
ATOM     79  C   UNL A   1      36.586  33.136  29.183  1.00  0.00     0.173 A 
ATOM     80  F   UNL A   1      35.450  29.687  29.267  1.00  0.00    -0.203 F 
ATOM     81  C   UNL A   1      34.428  31.603  28.355  1.00  0.00     0.198 A 
ATOM     82  C   UNL A   1      35.519  33.734  28.517  1.00  0.00     0.198 A 
ATOM     83  F   UNL A   1      37.622  33.900  29.563  1.00  0.00    -0.203 F 
ATOM     84  F   UNL A   1      33.403  30.852  27.926  1.00  0.00    -0.200 F 
ATOM     85  C   UNL A   1      34.444  32.965  28.096  1.00  0.00     0.200 A 
ATOM     86  F   UNL A   1      35.534  35.052  28.278  1.00  0.00    -0.200 F 
ATOM     87  F   UNL A   1      33.427  33.537  27.436  1.00  0.00    -0.200 F 
ENDBRANCH  53  77
BRANCH  65  88
ATOM     88  C   UNL A   1      39.074  32.277  35.947  1.00  0.00     0.064 A 
ATOM     89  C   UNL A   1      38.268  31.743  36.963  1.00  0.00     0.173 A 
ATOM     90  C   UNL A   1      39.500  33.607  36.076  1.00  0.00     0.173 A 
ATOM     91  F   UNL A   1      37.824  30.480  36.880  1.00  0.00    -0.203 F 
ATOM     92  C   UNL A   1      37.876  32.523  38.050  1.00  0.00     0.198 A 
ATOM     93  C   UNL A   1      39.130  34.376  37.177  1.00  0.00     0.198 A 
ATOM     94  F   UNL A   1      40.279  34.163  35.136  1.00  0.00    -0.203 F 
ATOM     95  F   UNL A   1      37.063  32.008  38.982  1.00  0.00    -0.200 F 
ATOM     96  C   UNL A   1      38.312  33.835  38.159  1.00  0.00     0.200 A 
ATOM     97  F   UNL A   1      39.560  35.640  37.287  1.00  0.00    -0.200 F 
ATOM     98  F   UNL A   1      37.933  34.584  39.203  1.00  0.00    -0.200 F 
ENDBRANCH  65  88
ENDBRANCH  39  40
ENDBRANCH  32  34
ENDBRANCH  31  32
ENDBRANCH  30  31
ENDBRANCH  29  30
ENDBRANCH  28  29
ENDBRANCH   1  28
TORSDOF 18
ENDMDL
MODEL 2
REMARK VINA RESULT:     -11.8      3.539      8.883
REMARK SMILES CNC(=O)c1cc(S(=O)(=O)N2CCC(C(=O)OCCOCCOC(=O)c3ccc(-c4c5nc(c(-c6c(F)c(F)c(F)c(F)c6F)c6ccc([nH]6)c(-c6c(F)c(F)c(F)c(F)c6F)c6nc(c(-c7c(F)c(F)c(F)c(F)c7F)c7ccc4[nH]7)C=C6)C=C5)cc3)CC2)ccc1OC
REMARK SMILES IDX 19 1 18 2 17 3 15 4 16 5 14 6 11 7 12 8 90 9 13 10 89 11
REMARK SMILES IDX 8 12 9 13 10 14 7 15 5 16 6 17 93 18 92 19 91 20 3 21 1 22
REMARK SMILES IDX 2 23 4 25 94 26 95 27 20 28 21 29 22 30 23 31 24 32 25 33
REMARK SMILES IDX 26 34 27 35 88 36 28 37 87 38 29 39 30 40 31 41 81 42 32 43
REMARK SMILES IDX 86 44 80 45 82 46 33 47 85 48 79 49 78 50 34 52 66 53 46 54
REMARK SMILES IDX 65 55 47 56 50 57 64 58 83 59 48 60 49 61 63 63 84 64 51 65
REMARK SMILES IDX 35 66 36 67 44 68 37 69 38 70 42 71 45 72 39 73 40 74 43 75
REMARK SMILES IDX 41 76 67 77 68 78 76 79 69 80 70 81 74 82 77 83 71 84 72 85
REMARK SMILES IDX 75 86 73 87 52 88 53 89 61 90 54 91 55 92 59 93 62 94 56 95
REMARK SMILES IDX 57 96 60 97 58 98
REMARK H PARENT 2 24 82 51 50 62
REMARK Flexibility Score: inf
ROOT
ATOM      1  C   UNL A   1      35.031  32.540  27.927  1.00  0.00     0.202 C 
ENDROOT
BRANCH   1   2
ATOM      2  C   UNL A   1      33.817  31.615  28.032  1.00  0.00     0.261 C 
BRANCH   2   3
ATOM      3  O   UNL A   1      33.852  30.601  27.010  1.00  0.00    -0.463 OA
BRANCH   3   4
ATOM      4  C   UNL A   1      32.695  30.421  26.327  1.00  0.00     0.309 C 
ATOM      5  O   UNL A   1      31.658  31.046  26.515  1.00  0.00    -0.252 OA
BRANCH   4   6
ATOM      6  C   UNL A   1      32.786  29.341  25.272  1.00  0.00     0.102 C 
ATOM      7  N   UNL A   1      32.723  26.843  23.863  1.00  0.00    -0.198 NA
ATOM      8  C   UNL A   1      34.022  27.517  24.096  1.00  0.00     0.103 C 
ATOM      9  C   UNL A   1      31.467  27.602  24.075  1.00  0.00     0.103 C 
ATOM     10  C   UNL A   1      33.995  28.413  25.330  1.00  0.00     0.032 C 
ATOM     11  C   UNL A   1      31.530  28.484  25.312  1.00  0.00     0.032 C 
BRANCH   7  12
ATOM     12  S   UNL A   1      32.689  25.669  22.621  1.00  0.00     0.243 S 
ATOM     13  O   UNL A   1      34.007  25.673  22.011  1.00  0.00    -0.207 OA
ATOM     14  O   UNL A   1      31.494  25.876  21.840  1.00  0.00    -0.207 OA
BRANCH  12  15
ATOM     15  C   UNL A   1      32.512  24.064  23.388  1.00  0.00     0.083 A 
ATOM     16  C   UNL A   1      32.015  22.832  25.428  1.00  0.00     0.083 A 
ATOM     17  C   UNL A   1      32.199  24.051  24.755  1.00  0.00     0.039 A 
ATOM     18  C   UNL A   1      32.076  21.628  24.716  1.00  0.00     0.131 A 
ATOM     19  C   UNL A   1      32.426  21.648  23.364  1.00  0.00     0.048 A 
ATOM     20  C   UNL A   1      32.644  22.858  22.700  1.00  0.00     0.025 A 
BRANCH  16  21
ATOM     21  C   UNL A   1      31.729  22.916  26.875  1.00  0.00     0.254 C 
ATOM     22  C   UNL A   1      33.932  21.862  27.581  1.00  0.00     0.143 C 
ATOM     23  N   UNL A   1      32.629  22.448  27.797  1.00  0.00    -0.355 N 
ATOM     24  H   UNL A   1      32.348  22.521  28.737  1.00  0.00     0.163 HD
ATOM     25  O   UNL A   1      30.681  23.439  27.244  1.00  0.00    -0.269 OA
ENDBRANCH  16  21
BRANCH  18  26
ATOM     26  O   UNL A   1      31.857  20.384  25.243  1.00  0.00    -0.496 OA
ATOM     27  C   UNL A   1      32.877  19.443  24.896  1.00  0.00     0.278 C 
ENDBRANCH  18  26
ENDBRANCH  12  15
ENDBRANCH   7  12
ENDBRANCH   4   6
ENDBRANCH   3   4
ENDBRANCH   2   3
ENDBRANCH   1   2
BRANCH   1  28
ATOM     28  O   UNL A   1      34.749  33.910  27.640  1.00  0.00    -0.374 OA
BRANCH  28  29
ATOM     29  C   UNL A   1      34.674  34.814  28.740  1.00  0.00     0.202 C 
BRANCH  29  30
ATOM     30  C   UNL A   1      33.293  35.415  29.030  1.00  0.00     0.261 C 
BRANCH  30  31
ATOM     31  O   UNL A   1      32.669  34.822  30.184  1.00  0.00    -0.460 OA
BRANCH  31  32
ATOM     32  C   UNL A   1      32.894  35.491  31.342  1.00  0.00     0.338 C 
ATOM     33  O   UNL A   1      32.236  36.408  31.805  1.00  0.00    -0.246 OA
BRANCH  32  34
ATOM     34  C   UNL A   1      33.985  34.862  32.111  1.00  0.00     0.060 A 
ATOM     35  C   UNL A   1      35.181  35.582  32.216  1.00  0.00     0.016 A 
ATOM     36  C   UNL A   1      33.898  33.556  32.600  1.00  0.00     0.016 A 
ATOM     37  C   UNL A   1      36.318  34.974  32.736  1.00  0.00     0.010 A 
ATOM     38  C   UNL A   1      35.046  32.943  33.121  1.00  0.00     0.010 A 
ATOM     39  C   UNL A   1      36.273  33.632  33.140  1.00  0.00    -0.014 A 
BRANCH  39  40
ATOM     40  C   UNL A   1      37.556  32.930  33.389  1.00  0.00     0.031 A 
ATOM     41  C   UNL A   1      38.291  33.192  34.676  1.00  0.00     0.074 A 
ATOM     42  C   UNL A   1      38.011  31.997  32.534  1.00  0.00     0.049 A 
ATOM     43  N   UNL A   1      39.365  32.615  35.155  1.00  0.00    -0.248 NA
ATOM     44  C   UNL A   1      37.739  34.244  35.544  1.00  0.00     0.031 C 
ATOM     45  C   UNL A   1      37.379  31.632  31.269  1.00  0.00     0.029 A 
ATOM     46  N   UNL A   1      39.108  31.175  32.614  1.00  0.00    -0.354 N 
ATOM     47  C   UNL A   1      39.611  33.228  36.377  1.00  0.00     0.074 A 
ATOM     48  C   UNL A   1      38.600  34.247  36.551  1.00  0.00     0.031 C 
ATOM     49  C   UNL A   1      38.096  30.653  30.691  1.00  0.00     0.029 A 
ATOM     50  C   UNL A   1      39.241  30.331  31.541  1.00  0.00     0.049 A 
ATOM     51  H   UNL A   1      39.739  31.191  33.370  1.00  0.00     0.167 HD
ATOM     52  C   UNL A   1      40.582  32.956  37.282  1.00  0.00     0.037 A 
ATOM     53  C   UNL A   1      40.181  29.401  31.278  1.00  0.00     0.037 A 
ATOM     54  C   UNL A   1      41.588  31.942  37.115  1.00  0.00     0.049 A 
ATOM     55  C   UNL A   1      41.270  29.141  32.285  1.00  0.00     0.074 A 
ATOM     56  C   UNL A   1      42.604  31.581  37.983  1.00  0.00     0.029 A 
ATOM     57  N   UNL A   1      41.708  31.126  36.000  1.00  0.00    -0.354 N 
ATOM     58  N   UNL A   1      41.469  29.697  33.455  1.00  0.00    -0.248 NA
ATOM     59  C   UNL A   1      42.258  28.109  31.938  1.00  0.00     0.031 C 
ATOM     60  C   UNL A   1      43.364  30.575  37.375  1.00  0.00     0.029 A 
ATOM     61  C   UNL A   1      42.793  30.278  36.148  1.00  0.00     0.049 A 
ATOM     62  H   UNL A   1      41.110  31.149  35.218  1.00  0.00     0.167 HD
ATOM     63  C   UNL A   1      42.585  29.068  33.994  1.00  0.00     0.074 A 
ATOM     64  C   UNL A   1      43.009  28.076  33.029  1.00  0.00     0.031 C 
ATOM     65  C   UNL A   1      43.202  29.292  35.181  1.00  0.00     0.037 A 
BRANCH  52  66
ATOM     66  C   UNL A   1      40.609  33.786  38.531  1.00  0.00     0.064 A 
ATOM     67  C   UNL A   1      41.424  34.923  38.639  1.00  0.00     0.173 A 
ATOM     68  C   UNL A   1      39.796  33.454  39.623  1.00  0.00     0.173 A 
ATOM     69  F   UNL A   1      42.233  35.275  37.628  1.00  0.00    -0.203 F 
ATOM     70  C   UNL A   1      41.441  35.682  39.807  1.00  0.00     0.198 A 
ATOM     71  C   UNL A   1      39.796  34.229  40.779  1.00  0.00     0.198 A 
ATOM     72  F   UNL A   1      38.997  32.377  39.568  1.00  0.00    -0.203 F 
ATOM     73  F   UNL A   1      42.260  36.738  39.906  1.00  0.00    -0.200 F 
ATOM     74  C   UNL A   1      40.623  35.338  40.873  1.00  0.00     0.200 A 
ATOM     75  F   UNL A   1      38.999  33.901  41.806  1.00  0.00    -0.200 F 
ATOM     76  F   UNL A   1      40.640  36.071  41.995  1.00  0.00    -0.200 F 
ENDBRANCH  52  66
BRANCH  53  77
ATOM     77  C   UNL A   1      40.123  28.632  30.010  1.00  0.00     0.064 A 
ATOM     78  C   UNL A   1      39.457  27.401  29.936  1.00  0.00     0.173 A 
ATOM     79  C   UNL A   1      40.750  29.107  28.848  1.00  0.00     0.173 A 
ATOM     80  F   UNL A   1      38.865  26.894  31.027  1.00  0.00    -0.203 F 
ATOM     81  C   UNL A   1      39.434  26.666  28.752  1.00  0.00     0.198 A 
ATOM     82  C   UNL A   1      40.705  28.383  27.659  1.00  0.00     0.198 A 
ATOM     83  F   UNL A   1      41.402  30.279  28.868  1.00  0.00    -0.203 F 
ATOM     84  F   UNL A   1      38.827  25.472  28.720  1.00  0.00    -0.200 F 
ATOM     85  C   UNL A   1      40.053  27.160  27.614  1.00  0.00     0.200 A 
ATOM     86  F   UNL A   1      41.295  28.868  26.559  1.00  0.00    -0.200 F 
ATOM     87  F   UNL A   1      40.028  26.454  26.475  1.00  0.00    -0.200 F 
ENDBRANCH  53  77
BRANCH  65  88
ATOM     88  C   UNL A   1      44.382  28.427  35.515  1.00  0.00     0.064 A 
ATOM     89  C   UNL A   1      44.231  27.203  36.183  1.00  0.00     0.173 A 
ATOM     90  C   UNL A   1      45.677  28.817  35.143  1.00  0.00     0.173 A 
ATOM     91  F   UNL A   1      43.015  26.791  36.572  1.00  0.00    -0.203 F 
ATOM     92  C   UNL A   1      45.338  26.416  36.495  1.00  0.00     0.198 A 
ATOM     93  C   UNL A   1      46.779  28.016  35.431  1.00  0.00     0.198 A 
ATOM     94  F   UNL A   1      45.875  29.975  34.495  1.00  0.00    -0.203 F 
ATOM     95  F   UNL A   1      45.176  25.276  37.179  1.00  0.00    -0.200 F 
ATOM     96  C   UNL A   1      46.609  26.820  36.114  1.00  0.00     0.200 A 
ATOM     97  F   UNL A   1      48.005  28.402  35.053  1.00  0.00    -0.200 F 
ATOM     98  F   UNL A   1      47.673  26.064  36.416  1.00  0.00    -0.200 F 
ENDBRANCH  65  88
ENDBRANCH  39  40
ENDBRANCH  32  34
ENDBRANCH  31  32
ENDBRANCH  30  31
ENDBRANCH  29  30
ENDBRANCH  28  29
ENDBRANCH   1  28
TORSDOF 18
ENDMDL
MODEL 3
REMARK VINA RESULT:     -11.7      3.704      9.509
REMARK SMILES CNC(=O)c1cc(S(=O)(=O)N2CCC(C(=O)OCCOCCOC(=O)c3ccc(-c4c5nc(c(-c6c(F)c(F)c(F)c(F)c6F)c6ccc([nH]6)c(-c6c(F)c(F)c(F)c(F)c6F)c6nc(c(-c7c(F)c(F)c(F)c(F)c7F)c7ccc4[nH]7)C=C6)C=C5)cc3)CC2)ccc1OC
REMARK SMILES IDX 19 1 18 2 17 3 15 4 16 5 14 6 11 7 12 8 90 9 13 10 89 11
REMARK SMILES IDX 8 12 9 13 10 14 7 15 5 16 6 17 93 18 92 19 91 20 3 21 1 22
REMARK SMILES IDX 2 23 4 25 94 26 95 27 20 28 21 29 22 30 23 31 24 32 25 33
REMARK SMILES IDX 26 34 27 35 88 36 28 37 87 38 29 39 30 40 31 41 81 42 32 43
REMARK SMILES IDX 86 44 80 45 82 46 33 47 85 48 79 49 78 50 34 52 66 53 46 54
REMARK SMILES IDX 65 55 47 56 50 57 64 58 83 59 48 60 49 61 63 63 84 64 51 65
REMARK SMILES IDX 35 66 36 67 44 68 37 69 38 70 42 71 45 72 39 73 40 74 43 75
REMARK SMILES IDX 41 76 67 77 68 78 76 79 69 80 70 81 74 82 77 83 71 84 72 85
REMARK SMILES IDX 75 86 73 87 52 88 53 89 61 90 54 91 55 92 59 93 62 94 56 95
REMARK SMILES IDX 57 96 60 97 58 98
REMARK H PARENT 2 24 82 51 50 62
REMARK Flexibility Score: inf
ROOT
ATOM      1  C   UNL A   1      35.211  32.338  27.860  1.00  0.00     0.202 C 
ENDROOT
BRANCH   1   2
ATOM      2  C   UNL A   1      33.876  31.606  28.013  1.00  0.00     0.261 C 
BRANCH   2   3
ATOM      3  O   UNL A   1      33.826  30.444  27.163  1.00  0.00    -0.463 OA
BRANCH   3   4
ATOM      4  C   UNL A   1      32.749  30.366  26.345  1.00  0.00     0.309 C 
ATOM      5  O   UNL A   1      31.761  31.089  26.405  1.00  0.00    -0.252 OA
BRANCH   4   6
ATOM      6  C   UNL A   1      32.862  29.268  25.311  1.00  0.00     0.102 C 
ATOM      7  N   UNL A   1      32.668  26.789  23.881  1.00  0.00    -0.198 NA
ATOM      8  C   UNL A   1      33.991  27.253  24.360  1.00  0.00     0.103 C 
ATOM      9  C   UNL A   1      31.530  27.740  23.866  1.00  0.00     0.103 C 
ATOM     10  C   UNL A   1      33.878  28.163  25.580  1.00  0.00     0.032 C 
ATOM     11  C   UNL A   1      31.501  28.620  25.105  1.00  0.00     0.032 C 
BRANCH   7  12
ATOM     12  S   UNL A   1      32.681  25.616  22.638  1.00  0.00     0.243 S 
ATOM     13  O   UNL A   1      34.012  25.639  22.059  1.00  0.00    -0.207 OA
ATOM     14  O   UNL A   1      31.501  25.805  21.830  1.00  0.00    -0.207 OA
BRANCH  12  15
ATOM     15  C   UNL A   1      32.510  24.008  23.401  1.00  0.00     0.083 A 
ATOM     16  C   UNL A   1      32.013  22.767  25.436  1.00  0.00     0.083 A 
ATOM     17  C   UNL A   1      32.192  23.989  24.766  1.00  0.00     0.039 A 
ATOM     18  C   UNL A   1      32.084  21.566  24.721  1.00  0.00     0.131 A 
ATOM     19  C   UNL A   1      32.439  21.591  23.370  1.00  0.00     0.048 A 
ATOM     20  C   UNL A   1      32.652  22.804  22.710  1.00  0.00     0.025 A 
BRANCH  16  21
ATOM     21  C   UNL A   1      31.721  22.846  26.882  1.00  0.00     0.254 C 
ATOM     22  C   UNL A   1      33.947  21.846  27.595  1.00  0.00     0.143 C 
ATOM     23  N   UNL A   1      32.629  22.401  27.807  1.00  0.00    -0.355 N 
ATOM     24  H   UNL A   1      32.344  22.468  28.746  1.00  0.00     0.163 HD
ATOM     25  O   UNL A   1      30.660  23.345  27.247  1.00  0.00    -0.269 OA
ENDBRANCH  16  21
BRANCH  18  26
ATOM     26  O   UNL A   1      31.871  20.319  25.244  1.00  0.00    -0.496 OA
ATOM     27  C   UNL A   1      32.924  19.399  24.944  1.00  0.00     0.278 C 
ENDBRANCH  18  26
ENDBRANCH  12  15
ENDBRANCH   7  12
ENDBRANCH   4   6
ENDBRANCH   3   4
ENDBRANCH   2   3
ENDBRANCH   1   2
BRANCH   1  28
ATOM     28  O   UNL A   1      35.128  33.745  27.628  1.00  0.00    -0.374 OA
BRANCH  28  29
ATOM     29  C   UNL A   1      34.950  34.591  28.761  1.00  0.00     0.202 C 
BRANCH  29  30
ATOM     30  C   UNL A   1      33.537  35.151  28.972  1.00  0.00     0.261 C 
BRANCH  30  31
ATOM     31  O   UNL A   1      32.909  34.622  30.154  1.00  0.00    -0.460 OA
BRANCH  31  32
ATOM     32  C   UNL A   1      33.027  35.415  31.248  1.00  0.00     0.338 C 
ATOM     33  O   UNL A   1      32.353  36.393  31.527  1.00  0.00    -0.246 OA
BRANCH  32  34
ATOM     34  C   UNL A   1      34.004  34.857  32.202  1.00  0.00     0.060 A 
ATOM     35  C   UNL A   1      35.243  35.504  32.288  1.00  0.00     0.016 A 
ATOM     36  C   UNL A   1      33.777  33.664  32.892  1.00  0.00     0.016 A 
ATOM     37  C   UNL A   1      36.287  34.920  32.999  1.00  0.00     0.010 A 
ATOM     38  C   UNL A   1      34.831  33.075  33.605  1.00  0.00     0.010 A 
ATOM     39  C   UNL A   1      36.104  33.674  33.615  1.00  0.00    -0.014 A 
BRANCH  39  40
ATOM     40  C   UNL A   1      37.306  32.941  34.087  1.00  0.00     0.031 A 
ATOM     41  C   UNL A   1      37.941  31.924  33.178  1.00  0.00     0.074 A 
ATOM     42  C   UNL A   1      37.884  33.247  35.261  1.00  0.00     0.049 A 
ATOM     43  N   UNL A   1      39.053  31.248  33.332  1.00  0.00    -0.248 NA
ATOM     44  C   UNL A   1      37.231  31.632  31.923  1.00  0.00     0.031 C 
ATOM     45  C   UNL A   1      37.383  34.230  36.218  1.00  0.00     0.029 A 
ATOM     46  N   UNL A   1      39.034  32.768  35.839  1.00  0.00    -0.354 N 
ATOM     47  C   UNL A   1      39.175  30.459  32.195  1.00  0.00     0.074 A 
ATOM     48  C   UNL A   1      38.010  30.709  31.377  1.00  0.00     0.031 C 
ATOM     49  C   UNL A   1      38.226  34.286  37.265  1.00  0.00     0.029 A 
ATOM     50  C   UNL A   1      39.316  33.337  37.054  1.00  0.00     0.049 A 
ATOM     51  H   UNL A   1      39.601  32.080  35.420  1.00  0.00     0.167 HD
ATOM     52  C   UNL A   1      40.178  29.614  31.854  1.00  0.00     0.037 A 
ATOM     53  C   UNL A   1      40.343  33.117  37.899  1.00  0.00     0.037 A 
ATOM     54  C   UNL A   1      41.341  29.363  32.663  1.00  0.00     0.049 A 
ATOM     55  C   UNL A   1      41.428  32.146  37.513  1.00  0.00     0.074 A 
ATOM     56  C   UNL A   1      42.418  28.535  32.395  1.00  0.00     0.029 A 
ATOM     57  N   UNL A   1      41.577  29.937  33.903  1.00  0.00    -0.354 N 
ATOM     58  N   UNL A   1      41.556  31.437  36.418  1.00  0.00    -0.248 NA
ATOM     59  C   UNL A   1      42.522  31.959  38.477  1.00  0.00     0.031 C 
ATOM     60  C   UNL A   1      43.286  28.578  33.493  1.00  0.00     0.029 A 
ATOM     61  C   UNL A   1      42.772  29.467  34.423  1.00  0.00     0.049 A 
ATOM     62  H   UNL A   1      40.982  30.583  34.348  1.00  0.00     0.167 HD
ATOM     63  C   UNL A   1      42.752  30.741  36.549  1.00  0.00     0.074 A 
ATOM     64  C   UNL A   1      43.320  31.127  37.823  1.00  0.00     0.031 C 
ATOM     65  C   UNL A   1      43.327  29.863  35.691  1.00  0.00     0.037 A 
BRANCH  52  66
ATOM     66  C   UNL A   1      40.047  28.882  30.551  1.00  0.00     0.064 A 
ATOM     67  C   UNL A   1      39.390  27.646  30.465  1.00  0.00     0.173 A 
ATOM     68  C   UNL A   1      40.566  29.434  29.371  1.00  0.00     0.173 A 
ATOM     69  F   UNL A   1      38.890  27.068  31.568  1.00  0.00    -0.203 F 
ATOM     70  C   UNL A   1      39.279  26.977  29.248  1.00  0.00     0.198 A 
ATOM     71  C   UNL A   1      40.431  28.776  28.152  1.00  0.00     0.198 A 
ATOM     72  F   UNL A   1      41.202  30.615  29.400  1.00  0.00    -0.203 F 
ATOM     73  F   UNL A   1      38.687  25.776  29.196  1.00  0.00    -0.200 F 
ATOM     74  C   UNL A   1      39.795  27.546  28.093  1.00  0.00     0.200 A 
ATOM     75  F   UNL A   1      40.922  29.330  27.035  1.00  0.00    -0.200 F 
ATOM     76  F   UNL A   1      39.686  26.902  26.922  1.00  0.00    -0.200 F 
ENDBRANCH  52  66
BRANCH  53  77
ATOM     77  C   UNL A   1      40.404  33.844  39.192  1.00  0.00     0.064 A 
ATOM     78  C   UNL A   1      41.141  35.029  39.325  1.00  0.00     0.173 A 
ATOM     79  C   UNL A   1      39.738  33.358  40.327  1.00  0.00     0.173 A 
ATOM     80  F   UNL A   1      41.816  35.519  38.275  1.00  0.00    -0.203 F 
ATOM     81  C   UNL A   1      41.223  35.691  40.548  1.00  0.00     0.198 A 
ATOM     82  C   UNL A   1      39.800  34.034  41.543  1.00  0.00     0.198 A 
ATOM     83  F   UNL A   1      39.021  32.227  40.250  1.00  0.00    -0.203 F 
ATOM     84  F   UNL A   1      41.970  36.798  40.659  1.00  0.00    -0.200 F 
ATOM     85  C   UNL A   1      40.549  35.196  41.655  1.00  0.00     0.200 A 
ATOM     86  F   UNL A   1      39.139  33.558  42.606  1.00  0.00    -0.200 F 
ATOM     87  F   UNL A   1      40.626  35.834  42.830  1.00  0.00    -0.200 F 
ENDBRANCH  53  77
BRANCH  65  88
ATOM     88  C   UNL A   1      44.654  29.283  36.090  1.00  0.00     0.064 A 
ATOM     89  C   UNL A   1      44.747  28.061  36.771  1.00  0.00     0.173 A 
ATOM     90  C   UNL A   1      45.846  29.948  35.766  1.00  0.00     0.173 A 
ATOM     91  F   UNL A   1      43.635  27.393  37.116  1.00  0.00    -0.203 F 
ATOM     92  C   UNL A   1      45.985  27.541  37.143  1.00  0.00     0.198 A 
ATOM     93  C   UNL A   1      47.083  29.413  36.115  1.00  0.00     0.198 A 
ATOM     94  F   UNL A   1      45.812  31.116  35.108  1.00  0.00    -0.203 F 
ATOM     95  F   UNL A   1      46.048  26.398  37.840  1.00  0.00    -0.200 F 
ATOM     96  C   UNL A   1      47.151  28.214  36.810  1.00  0.00     0.200 A 
ATOM     97  F   UNL A   1      48.210  30.058  35.782  1.00  0.00    -0.200 F 
ATOM     98  F   UNL A   1      48.341  27.714  37.169  1.00  0.00    -0.200 F 
ENDBRANCH  65  88
ENDBRANCH  39  40
ENDBRANCH  32  34
ENDBRANCH  31  32
ENDBRANCH  30  31
ENDBRANCH  29  30
ENDBRANCH  28  29
ENDBRANCH   1  28
TORSDOF 18
ENDMDL
