MODEL 1
REMARK VINA RESULT:     -11.4      0.000      0.000
REMARK SMILES CCN(CC)S(=O)(=O)c1ccc(F)c(C(=O)N2CCC[C@H]2C(=O)OCCOCCOC(=O)c2ccc(-c3c4nc(c(-c5c(F)c(F)c(F)c(F)c5F)c5ccc([nH]5)c(-c5c(F)c(F)c(F)c(F)c5F)c5nc(c(-c6c(F)c(F)c(F)c(F)c6F)c6ccc3[nH]6)C=C5)C=C4)cc2)c1
REMARK SMILES IDX 25 1 24 2 22 3 23 4 21 5 17 6 18 7 19 8 20 9 15 10 16 11
REMARK SMILES IDX 14 12 9 13 10 14 96 15 11 16 12 17 13 18 6 19 7 20 8 21 3 22
REMARK SMILES IDX 2 23 1 24 4 25 5 26 26 27 27 28 28 29 29 30 30 31 31 32
REMARK SMILES IDX 32 33 33 34 34 35 95 36 35 37 94 38 36 39 37 40 38 41 88 42
REMARK SMILES IDX 39 43 93 44 87 45 89 46 40 47 92 48 86 49 85 50 41 52 73 53
REMARK SMILES IDX 53 54 72 55 54 56 57 57 71 58 90 59 55 60 56 61 70 63 91 64
REMARK SMILES IDX 58 65 42 66 43 67 51 68 44 69 45 70 49 71 52 72 46 73 47 74
REMARK SMILES IDX 50 75 48 76 74 77 75 78 83 79 76 80 77 81 81 82 84 83 78 84
REMARK SMILES IDX 79 85 82 86 80 87 59 88 60 89 68 90 61 91 62 92 66 93 69 94
REMARK SMILES IDX 63 95 64 96 67 97 65 98
REMARK H PARENT 89 51 57 62
REMARK Flexibility Score: inf
ROOT
ATOM      1  C   UNL A   1      34.126  28.398  26.297  1.00  0.00     0.261 C 
ENDROOT
BRANCH   1   2
ATOM      2  O   UNL A   1      33.420  27.231  26.757  1.00  0.00    -0.462 OA
BRANCH   2   3
ATOM      3  C   UNL A   1      32.059  27.299  26.726  1.00  0.00     0.328 C 
ATOM      4  O   UNL A   1      31.372  27.710  27.653  1.00  0.00    -0.250 OA
BRANCH   3   5
ATOM      5  C   UNL A   1      31.490  26.847  25.365  1.00  0.00     0.195 C 
ATOM      6  N   UNL A   1      30.369  25.888  25.364  1.00  0.00    -0.325 N 
ATOM      7  C   UNL A   1      29.264  26.384  24.555  1.00  0.00     0.121 C 
ATOM      8  C   UNL A   1      29.927  27.363  23.601  1.00  0.00     0.024 C 
ATOM      9  C   UNL A   1      30.997  28.004  24.480  1.00  0.00     0.039 C 
BRANCH   6  10
ATOM     10  C   UNL A   1      30.568  24.610  25.855  1.00  0.00     0.257 C 
ATOM     11  O   UNL A   1      30.199  24.310  26.987  1.00  0.00    -0.269 OA
BRANCH  10  12
ATOM     12  C   UNL A   1      31.269  23.560  25.067  1.00  0.00     0.077 A 
ATOM     13  C   UNL A   1      33.098  21.945  24.962  1.00  0.00     0.083 A 
ATOM     14  C   UNL A   1      32.845  21.737  23.602  1.00  0.00     0.025 A 
ATOM     15  C   UNL A   1      32.320  22.858  25.689  1.00  0.00     0.038 A 
ATOM     16  C   UNL A   1      31.839  22.466  22.970  1.00  0.00     0.041 A 
ATOM     17  C   UNL A   1      31.082  23.386  23.694  1.00  0.00     0.136 A 
ATOM     18  F   UNL A   1      30.225  24.149  23.002  1.00  0.00    -0.206 F 
BRANCH  13  19
ATOM     19  S   UNL A   1      34.580  21.247  25.683  1.00  0.00     0.243 S 
ATOM     20  O   UNL A   1      34.735  19.911  25.156  1.00  0.00    -0.207 OA
ATOM     21  O   UNL A   1      34.465  21.451  27.113  1.00  0.00    -0.207 OA
BRANCH  19  22
ATOM     22  N   UNL A   1      35.868  22.222  25.111  1.00  0.00    -0.198 NA
BRANCH  22  23
ATOM     23  C   UNL A   1      36.077  23.492  25.885  1.00  0.00     0.099 C 
ATOM     24  C   UNL A   1      35.399  24.691  25.247  1.00  0.00     0.022 C 
ENDBRANCH  22  23
BRANCH  22  25
ATOM     25  C   UNL A   1      37.174  21.553  24.817  1.00  0.00     0.099 C 
ATOM     26  C   UNL A   1      38.325  21.995  25.708  1.00  0.00     0.022 C 
ENDBRANCH  22  25
ENDBRANCH  19  22
ENDBRANCH  13  19
ENDBRANCH  10  12
ENDBRANCH   6  10
ENDBRANCH   3   5
ENDBRANCH   2   3
ENDBRANCH   1   2
BRANCH   1  27
ATOM     27  C   UNL A   1      34.480  29.284  27.493  1.00  0.00     0.202 C 
BRANCH  27  28
ATOM     28  O   UNL A   1      34.475  30.690  27.237  1.00  0.00    -0.374 OA
BRANCH  28  29
ATOM     29  C   UNL A   1      33.440  31.459  27.848  1.00  0.00     0.202 C 
BRANCH  29  30
ATOM     30  C   UNL A   1      33.405  32.936  27.443  1.00  0.00     0.261 C 
BRANCH  30  31
ATOM     31  O   UNL A   1      32.475  33.697  28.237  1.00  0.00    -0.460 OA
BRANCH  31  32
ATOM     32  C   UNL A   1      32.988  34.847  28.736  1.00  0.00     0.338 C 
ATOM     33  O   UNL A   1      32.522  35.970  28.636  1.00  0.00    -0.246 OA
BRANCH  32  34
ATOM     34  C   UNL A   1      34.176  34.578  29.568  1.00  0.00     0.060 A 
ATOM     35  C   UNL A   1      35.425  34.703  28.947  1.00  0.00     0.016 A 
ATOM     36  C   UNL A   1      34.079  34.088  30.873  1.00  0.00     0.016 A 
ATOM     37  C   UNL A   1      36.573  34.254  29.593  1.00  0.00     0.010 A 
ATOM     38  C   UNL A   1      35.235  33.635  31.521  1.00  0.00     0.010 A 
ATOM     39  C   UNL A   1      36.477  33.664  30.860  1.00  0.00    -0.014 A 
BRANCH  39  40
ATOM     40  C   UNL A   1      37.639  32.896  31.375  1.00  0.00     0.031 A 
ATOM     41  C   UNL A   1      38.189  33.243  32.733  1.00  0.00     0.074 A 
ATOM     42  C   UNL A   1      38.132  31.844  30.698  1.00  0.00     0.049 A 
ATOM     43  N   UNL A   1      39.161  32.681  33.406  1.00  0.00    -0.248 NA
ATOM     44  C   UNL A   1      37.551  34.372  33.431  1.00  0.00     0.031 C 
ATOM     45  C   UNL A   1      37.644  31.371  29.407  1.00  0.00     0.029 A 
ATOM     46  N   UNL A   1      39.143  30.973  31.020  1.00  0.00    -0.354 N 
ATOM     47  C   UNL A   1      39.246  33.381  34.603  1.00  0.00     0.074 A 
ATOM     48  C   UNL A   1      38.258  34.436  34.550  1.00  0.00     0.031 C 
ATOM     49  C   UNL A   1      38.346  30.282  29.050  1.00  0.00     0.029 A 
ATOM     50  C   UNL A   1      39.349  29.998  30.076  1.00  0.00     0.049 A 
ATOM     51  H   UNL A   1      39.669  31.040  31.848  1.00  0.00     0.167 HD
ATOM     52  C   UNL A   1      40.060  33.154  35.660  1.00  0.00     0.037 A 
ATOM     53  C   UNL A   1      40.246  28.992  30.044  1.00  0.00     0.037 A 
ATOM     54  C   UNL A   1      41.042  32.105  35.718  1.00  0.00     0.049 A 
ATOM     55  C   UNL A   1      41.196  28.807  31.200  1.00  0.00     0.074 A 
ATOM     56  C   UNL A   1      41.931  31.809  36.736  1.00  0.00     0.029 A 
ATOM     57  N   UNL A   1      41.260  31.174  34.713  1.00  0.00    -0.354 N 
ATOM     58  N   UNL A   1      41.277  29.483  32.320  1.00  0.00    -0.248 NA
ATOM     59  C   UNL A   1      42.173  27.715  31.087  1.00  0.00     0.031 C 
ATOM     60  C   UNL A   1      42.714  30.725  36.332  1.00  0.00     0.029 A 
ATOM     61  C   UNL A   1      42.277  30.311  35.083  1.00  0.00     0.049 A 
ATOM     62  H   UNL A   1      40.765  31.132  33.864  1.00  0.00     0.167 HD
ATOM     63  C   UNL A   1      42.288  28.881  33.057  1.00  0.00     0.074 A 
ATOM     64  C   UNL A   1      42.790  27.781  32.260  1.00  0.00     0.031 C 
ATOM     65  C   UNL A   1      42.754  29.208  34.288  1.00  0.00     0.037 A 
BRANCH  52  66
ATOM     66  C   UNL A   1      39.933  34.068  36.843  1.00  0.00     0.064 A 
ATOM     67  C   UNL A   1      40.719  35.226  36.937  1.00  0.00     0.173 A 
ATOM     68  C   UNL A   1      39.069  33.773  37.908  1.00  0.00     0.173 A 
ATOM     69  F   UNL A   1      41.564  35.552  35.947  1.00  0.00    -0.203 F 
ATOM     70  C   UNL A   1      40.652  36.049  38.057  1.00  0.00     0.198 A 
ATOM     71  C   UNL A   1      38.983  34.613  39.015  1.00  0.00     0.198 A 
ATOM     72  F   UNL A   1      38.284  32.685  37.859  1.00  0.00    -0.203 F 
ATOM     73  F   UNL A   1      41.431  37.136  38.136  1.00  0.00    -0.200 F 
ATOM     74  C   UNL A   1      39.781  35.745  39.093  1.00  0.00     0.200 A 
ATOM     75  F   UNL A   1      38.123  34.332  40.003  1.00  0.00    -0.200 F 
ATOM     76  F   UNL A   1      39.706  36.546  40.164  1.00  0.00    -0.200 F 
ENDBRANCH  52  66
BRANCH  53  77
ATOM     77  C   UNL A   1      40.268  28.064  28.884  1.00  0.00     0.064 A 
ATOM     78  C   UNL A   1      39.561  26.853  28.908  1.00  0.00     0.173 A 
ATOM     79  C   UNL A   1      41.012  28.364  27.736  1.00  0.00     0.173 A 
ATOM     80  F   UNL A   1      38.831  26.522  29.983  1.00  0.00    -0.203 F 
ATOM     81  C   UNL A   1      39.614  25.969  27.833  1.00  0.00     0.198 A 
ATOM     82  C   UNL A   1      41.045  27.489  26.651  1.00  0.00     0.198 A 
ATOM     83  F   UNL A   1      41.685  29.522  27.657  1.00  0.00    -0.203 F 
ATOM     84  F   UNL A   1      38.951  24.804  27.894  1.00  0.00    -0.200 F 
ATOM     85  C   UNL A   1      40.353  26.289  26.705  1.00  0.00     0.200 A 
ATOM     86  F   UNL A   1      41.740  27.813  25.552  1.00  0.00    -0.200 F 
ATOM     87  F   UNL A   1      40.394  25.442  25.667  1.00  0.00    -0.200 F 
ENDBRANCH  53  77
BRANCH  65  88
ATOM     88  C   UNL A   1      43.834  28.351  34.881  1.00  0.00     0.064 A 
ATOM     89  C   UNL A   1      43.500  27.239  35.670  1.00  0.00     0.173 A 
ATOM     90  C   UNL A   1      45.191  28.673  34.741  1.00  0.00     0.173 A 
ATOM     91  F   UNL A   1      42.215  26.895  35.844  1.00  0.00    -0.203 F 
ATOM     92  C   UNL A   1      44.484  26.492  36.310  1.00  0.00     0.198 A 
ATOM     93  C   UNL A   1      46.175  27.907  35.361  1.00  0.00     0.198 A 
ATOM     94  F   UNL A   1      45.562  29.720  33.990  1.00  0.00    -0.203 F 
ATOM     95  F   UNL A   1      44.139  25.456  37.087  1.00  0.00    -0.200 F 
ATOM     96  C   UNL A   1      45.820  26.824  36.152  1.00  0.00     0.200 A 
ATOM     97  F   UNL A   1      47.468  28.216  35.191  1.00  0.00    -0.200 F 
ATOM     98  F   UNL A   1      46.769  26.099  36.762  1.00  0.00    -0.200 F 
ENDBRANCH  65  88
ENDBRANCH  39  40
ENDBRANCH  32  34
ENDBRANCH  31  32
ENDBRANCH  30  31
ENDBRANCH  29  30
ENDBRANCH  28  29
ENDBRANCH  27  28
ENDBRANCH   1  27
TORSDOF 20
ENDMDL
MODEL 2
REMARK VINA RESULT:     -11.2      1.936      2.621
REMARK SMILES CCN(CC)S(=O)(=O)c1ccc(F)c(C(=O)N2CCC[C@H]2C(=O)OCCOCCOC(=O)c2ccc(-c3c4nc(c(-c5c(F)c(F)c(F)c(F)c5F)c5ccc([nH]5)c(-c5c(F)c(F)c(F)c(F)c5F)c5nc(c(-c6c(F)c(F)c(F)c(F)c6F)c6ccc3[nH]6)C=C5)C=C4)cc2)c1
REMARK SMILES IDX 25 1 24 2 22 3 23 4 21 5 17 6 18 7 19 8 20 9 15 10 16 11
REMARK SMILES IDX 14 12 9 13 10 14 96 15 11 16 12 17 13 18 6 19 7 20 8 21 3 22
REMARK SMILES IDX 2 23 1 24 4 25 5 26 26 27 27 28 28 29 29 30 30 31 31 32
REMARK SMILES IDX 32 33 33 34 34 35 95 36 35 37 94 38 36 39 37 40 38 41 88 42
REMARK SMILES IDX 39 43 93 44 87 45 89 46 40 47 92 48 86 49 85 50 41 52 73 53
REMARK SMILES IDX 53 54 72 55 54 56 57 57 71 58 90 59 55 60 56 61 70 63 91 64
REMARK SMILES IDX 58 65 42 66 43 67 51 68 44 69 45 70 49 71 52 72 46 73 47 74
REMARK SMILES IDX 50 75 48 76 74 77 75 78 83 79 76 80 77 81 81 82 84 83 78 84
REMARK SMILES IDX 79 85 82 86 80 87 59 88 60 89 68 90 61 91 62 92 66 93 69 94
REMARK SMILES IDX 63 95 64 96 67 97 65 98
REMARK H PARENT 89 51 57 62
REMARK Flexibility Score: inf
ROOT
ATOM      1  C   UNL A   1      33.290  28.990  25.559  1.00  0.00     0.261 C 
ENDROOT
BRANCH   1   2
ATOM      2  O   UNL A   1      32.585  29.542  24.432  1.00  0.00    -0.462 OA
BRANCH   2   3
ATOM      3  C   UNL A   1      32.795  28.931  23.231  1.00  0.00     0.328 C 
ATOM      4  O   UNL A   1      33.898  28.791  22.717  1.00  0.00    -0.250 OA
BRANCH   3   5
ATOM      5  C   UNL A   1      31.485  28.389  22.623  1.00  0.00     0.195 C 
ATOM      6  N   UNL A   1      30.924  27.142  23.178  1.00  0.00    -0.325 N 
ATOM      7  C   UNL A   1      29.527  27.324  23.550  1.00  0.00     0.121 C 
ATOM      8  C   UNL A   1      29.075  28.495  22.693  1.00  0.00     0.024 C 
ATOM      9  C   UNL A   1      30.314  29.386  22.674  1.00  0.00     0.039 C 
BRANCH   6  10
ATOM     10  C   UNL A   1      31.629  25.961  23.045  1.00  0.00     0.257 C 
ATOM     11  O   UNL A   1      31.477  25.249  22.055  1.00  0.00    -0.269 OA
BRANCH  10  12
ATOM     12  C   UNL A   1      32.561  25.472  24.097  1.00  0.00     0.077 A 
ATOM     13  C   UNL A   1      34.606  24.245  24.627  1.00  0.00     0.083 A 
ATOM     14  C   UNL A   1      34.276  24.270  25.987  1.00  0.00     0.025 A 
ATOM     15  C   UNL A   1      33.749  24.835  23.686  1.00  0.00     0.038 A 
ATOM     16  C   UNL A   1      33.078  24.855  26.393  1.00  0.00     0.041 A 
ATOM     17  C   UNL A   1      32.221  25.423  25.451  1.00  0.00     0.136 A 
ATOM     18  F   UNL A   1      31.028  25.846  25.889  1.00  0.00    -0.206 F 
BRANCH  13  19
ATOM     19  S   UNL A   1      35.974  23.227  24.087  1.00  0.00     0.243 S 
ATOM     20  O   UNL A   1      37.093  23.499  24.959  1.00  0.00    -0.207 OA
ATOM     21  O   UNL A   1      36.100  23.446  22.660  1.00  0.00    -0.207 OA
BRANCH  19  22
ATOM     22  N   UNL A   1      35.462  21.609  24.330  1.00  0.00    -0.198 NA
BRANCH  22  23
ATOM     23  C   UNL A   1      36.232  20.864  25.382  1.00  0.00     0.099 C 
ATOM     24  C   UNL A   1      37.486  20.203  24.839  1.00  0.00     0.022 C 
ENDBRANCH  22  23
BRANCH  22  25
ATOM     25  C   UNL A   1      33.993  21.354  24.461  1.00  0.00     0.099 C 
ATOM     26  C   UNL A   1      33.622  20.334  25.526  1.00  0.00     0.022 C 
ENDBRANCH  22  25
ENDBRANCH  19  22
ENDBRANCH  13  19
ENDBRANCH  10  12
ENDBRANCH   6  10
ENDBRANCH   3   5
ENDBRANCH   2   3
ENDBRANCH   1   2
BRANCH   1  27
ATOM     27  C   UNL A   1      33.459  30.067  26.631  1.00  0.00     0.202 C 
BRANCH  27  28
ATOM     28  O   UNL A   1      32.244  30.616  27.147  1.00  0.00    -0.374 OA
BRANCH  28  29
ATOM     29  C   UNL A   1      31.737  31.788  26.511  1.00  0.00     0.202 C 
BRANCH  29  30
ATOM     30  C   UNL A   1      31.803  33.064  27.356  1.00  0.00     0.261 C 
BRANCH  30  31
ATOM     31  O   UNL A   1      33.108  33.673  27.322  1.00  0.00    -0.460 OA
BRANCH  31  32
ATOM     32  C   UNL A   1      33.665  33.850  28.544  1.00  0.00     0.338 C 
ATOM     33  O   UNL A   1      33.194  34.458  29.491  1.00  0.00    -0.246 OA
BRANCH  32  34
ATOM     34  C   UNL A   1      34.920  33.085  28.668  1.00  0.00     0.060 A 
ATOM     35  C   UNL A   1      34.816  31.769  29.138  1.00  0.00     0.016 A 
ATOM     36  C   UNL A   1      36.174  33.667  28.464  1.00  0.00     0.016 A 
ATOM     37  C   UNL A   1      35.960  31.063  29.492  1.00  0.00     0.010 A 
ATOM     38  C   UNL A   1      37.325  32.954  28.822  1.00  0.00     0.010 A 
ATOM     39  C   UNL A   1      37.218  31.672  29.391  1.00  0.00    -0.014 A 
BRANCH  39  40
ATOM     40  C   UNL A   1      38.371  31.040  30.081  1.00  0.00     0.031 A 
ATOM     41  C   UNL A   1      38.620  31.376  31.528  1.00  0.00     0.074 A 
ATOM     42  C   UNL A   1      39.122  30.108  29.468  1.00  0.00     0.049 A 
ATOM     43  N   UNL A   1      39.531  30.913  32.345  1.00  0.00    -0.248 NA
ATOM     44  C   UNL A   1      37.714  32.363  32.137  1.00  0.00     0.031 C 
ATOM     45  C   UNL A   1      38.940  29.651  28.094  1.00  0.00     0.029 A 
ATOM     46  N   UNL A   1      40.177  29.365  29.937  1.00  0.00    -0.354 N 
ATOM     47  C   UNL A   1      39.304  31.544  33.561  1.00  0.00     0.074 A 
ATOM     48  C   UNL A   1      38.197  32.455  33.367  1.00  0.00     0.031 C 
ATOM     49  C   UNL A   1      39.844  28.692  27.832  1.00  0.00     0.029 A 
ATOM     50  C   UNL A   1      40.683  28.486  29.012  1.00  0.00     0.049 A 
ATOM     51  H   UNL A   1      40.535  29.454  30.849  1.00  0.00     0.167 HD
ATOM     52  C   UNL A   1      39.945  31.367  34.740  1.00  0.00     0.037 A 
ATOM     53  C   UNL A   1      41.708  27.615  29.108  1.00  0.00     0.037 A 
ATOM     54  C   UNL A   1      41.044  30.459  34.938  1.00  0.00     0.049 A 
ATOM     55  C   UNL A   1      42.459  27.492  30.409  1.00  0.00     0.074 A 
ATOM     56  C   UNL A   1      41.775  30.227  36.089  1.00  0.00     0.029 A 
ATOM     57  N   UNL A   1      41.566  29.629  33.957  1.00  0.00    -0.354 N 
ATOM     58  N   UNL A   1      42.245  28.105  31.549  1.00  0.00    -0.248 NA
ATOM     59  C   UNL A   1      43.589  26.553  30.438  1.00  0.00     0.031 C 
ATOM     60  C   UNL A   1      42.766  29.286  35.795  1.00  0.00     0.029 A 
ATOM     61  C   UNL A   1      42.618  28.892  34.475  1.00  0.00     0.049 A 
ATOM     62  H   UNL A   1      41.238  29.572  33.031  1.00  0.00     0.167 HD
ATOM     63  C   UNL A   1      43.189  27.602  32.435  1.00  0.00     0.074 A 
ATOM     64  C   UNL A   1      43.976  26.631  31.704  1.00  0.00     0.031 C 
ATOM     65  C   UNL A   1      43.381  27.915  33.740  1.00  0.00     0.037 A 
BRANCH  52  66
ATOM     66  C   UNL A   1      39.483  32.182  35.911  1.00  0.00     0.064 A 
ATOM     67  C   UNL A   1      40.047  33.439  36.172  1.00  0.00     0.173 A 
ATOM     68  C   UNL A   1      38.517  31.697  36.806  1.00  0.00     0.173 A 
ATOM     69  F   UNL A   1      40.977  33.947  35.349  1.00  0.00    -0.203 F 
ATOM     70  C   UNL A   1      39.667  34.177  37.289  1.00  0.00     0.198 A 
ATOM     71  C   UNL A   1      38.119  32.450  37.908  1.00  0.00     0.198 A 
ATOM     72  F   UNL A   1      37.936  30.507  36.592  1.00  0.00    -0.203 F 
ATOM     73  F   UNL A   1      40.238  35.365  37.531  1.00  0.00    -0.200 F 
ATOM     74  C   UNL A   1      38.701  33.685  38.153  1.00  0.00     0.200 A 
ATOM     75  F   UNL A   1      37.167  31.985  38.727  1.00  0.00    -0.200 F 
ATOM     76  F   UNL A   1      38.326  34.403  39.220  1.00  0.00    -0.200 F 
ENDBRANCH  52  66
BRANCH  53  77
ATOM     77  C   UNL A   1      42.066  26.771  27.939  1.00  0.00     0.064 A 
ATOM     78  C   UNL A   1      41.478  25.513  27.744  1.00  0.00     0.173 A 
ATOM     79  C   UNL A   1      43.017  27.201  27.005  1.00  0.00     0.173 A 
ATOM     80  F   UNL A   1      40.560  25.059  28.609  1.00  0.00    -0.203 F 
ATOM     81  C   UNL A   1      41.844  24.708  26.668  1.00  0.00     0.198 A 
ATOM     82  C   UNL A   1      43.364  26.404  25.914  1.00  0.00     0.198 A 
ATOM     83  F   UNL A   1      43.589  28.407  27.136  1.00  0.00    -0.203 F 
ATOM     84  F   UNL A   1      41.288  23.497  26.520  1.00  0.00    -0.200 F 
ATOM     85  C   UNL A   1      42.784  25.156  25.752  1.00  0.00     0.200 A 
ATOM     86  F   UNL A   1      44.255  26.851  25.018  1.00  0.00    -0.200 F 
ATOM     87  F   UNL A   1      43.127  24.385  24.710  1.00  0.00    -0.200 F 
ENDBRANCH  53  77
BRANCH  65  88
ATOM     88  C   UNL A   1      44.454  27.179  34.489  1.00  0.00     0.064 A 
ATOM     89  C   UNL A   1      44.157  25.974  35.146  1.00  0.00     0.173 A 
ATOM     90  C   UNL A   1      45.746  27.703  34.628  1.00  0.00     0.173 A 
ATOM     91  F   UNL A   1      42.931  25.438  35.052  1.00  0.00    -0.203 F 
ATOM     92  C   UNL A   1      45.111  25.330  35.927  1.00  0.00     0.198 A 
ATOM     93  C   UNL A   1      46.707  27.040  35.389  1.00  0.00     0.198 A 
ATOM     94  F   UNL A   1      46.082  28.846  34.013  1.00  0.00    -0.203 F 
ATOM     95  F   UNL A   1      44.794  24.199  36.573  1.00  0.00    -0.200 F 
ATOM     96  C   UNL A   1      46.386  25.861  36.044  1.00  0.00     0.200 A 
ATOM     97  F   UNL A   1      47.945  27.544  35.485  1.00  0.00    -0.200 F 
ATOM     98  F   UNL A   1      47.308  25.235  36.790  1.00  0.00    -0.200 F 
ENDBRANCH  65  88
ENDBRANCH  39  40
ENDBRANCH  32  34
ENDBRANCH  31  32
ENDBRANCH  30  31
ENDBRANCH  29  30
ENDBRANCH  28  29
ENDBRANCH  27  28
ENDBRANCH   1  27
TORSDOF 20
ENDMDL
MODEL 3
REMARK VINA RESULT:     -11.1      5.188     10.805
REMARK SMILES CCN(CC)S(=O)(=O)c1ccc(F)c(C(=O)N2CCC[C@H]2C(=O)OCCOCCOC(=O)c2ccc(-c3c4nc(c(-c5c(F)c(F)c(F)c(F)c5F)c5ccc([nH]5)c(-c5c(F)c(F)c(F)c(F)c5F)c5nc(c(-c6c(F)c(F)c(F)c(F)c6F)c6ccc3[nH]6)C=C5)C=C4)cc2)c1
REMARK SMILES IDX 25 1 24 2 22 3 23 4 21 5 17 6 18 7 19 8 20 9 15 10 16 11
REMARK SMILES IDX 14 12 9 13 10 14 96 15 11 16 12 17 13 18 6 19 7 20 8 21 3 22
REMARK SMILES IDX 2 23 1 24 4 25 5 26 26 27 27 28 28 29 29 30 30 31 31 32
REMARK SMILES IDX 32 33 33 34 34 35 95 36 35 37 94 38 36 39 37 40 38 41 88 42
REMARK SMILES IDX 39 43 93 44 87 45 89 46 40 47 92 48 86 49 85 50 41 52 73 53
REMARK SMILES IDX 53 54 72 55 54 56 57 57 71 58 90 59 55 60 56 61 70 63 91 64
REMARK SMILES IDX 58 65 42 66 43 67 51 68 44 69 45 70 49 71 52 72 46 73 47 74
REMARK SMILES IDX 50 75 48 76 74 77 75 78 83 79 76 80 77 81 81 82 84 83 78 84
REMARK SMILES IDX 79 85 82 86 80 87 59 88 60 89 68 90 61 91 62 92 66 93 69 94
REMARK SMILES IDX 63 95 64 96 67 97 65 98
REMARK H PARENT 89 51 57 62
REMARK Flexibility Score: inf
ROOT
ATOM      1  C   UNL A   1      36.746  23.673  24.947  1.00  0.00     0.261 C 
ENDROOT
BRANCH   1   2
ATOM      2  O   UNL A   1      35.726  23.592  25.959  1.00  0.00    -0.462 OA
BRANCH   2   3
ATOM      3  C   UNL A   1      34.578  24.286  25.714  1.00  0.00     0.328 C 
ATOM      4  O   UNL A   1      34.494  25.507  25.749  1.00  0.00    -0.250 OA
BRANCH   3   5
ATOM      5  C   UNL A   1      33.410  23.352  25.336  1.00  0.00     0.195 C 
ATOM      6  N   UNL A   1      33.308  22.897  23.936  1.00  0.00    -0.325 N 
ATOM      7  C   UNL A   1      33.201  21.446  23.869  1.00  0.00     0.121 C 
ATOM      8  C   UNL A   1      32.657  21.061  25.234  1.00  0.00     0.024 C 
ATOM      9  C   UNL A   1      33.358  22.052  26.158  1.00  0.00     0.039 C 
BRANCH   6  10
ATOM     10  C   UNL A   1      33.065  23.823  22.937  1.00  0.00     0.257 C 
ATOM     11  O   UNL A   1      33.786  23.876  21.944  1.00  0.00    -0.269 OA
BRANCH  10  12
ATOM     12  C   UNL A   1      31.964  24.820  23.033  1.00  0.00     0.077 A 
ATOM     13  C   UNL A   1      31.326  27.165  23.269  1.00  0.00     0.083 A 
ATOM     14  C   UNL A   1      29.995  26.789  23.476  1.00  0.00     0.025 A 
ATOM     15  C   UNL A   1      32.308  26.186  23.058  1.00  0.00     0.038 A 
ATOM     16  C   UNL A   1      29.658  25.437  23.501  1.00  0.00     0.041 A 
ATOM     17  C   UNL A   1      30.641  24.467  23.309  1.00  0.00     0.136 A 
ATOM     18  F   UNL A   1      30.278  23.189  23.480  1.00  0.00    -0.206 F 
BRANCH  13  19
ATOM     19  S   UNL A   1      31.798  28.869  23.549  1.00  0.00     0.243 S 
ATOM     20  O   UNL A   1      30.860  29.705  22.838  1.00  0.00    -0.207 OA
ATOM     21  O   UNL A   1      33.213  28.949  23.246  1.00  0.00    -0.207 OA
BRANCH  19  22
ATOM     22  N   UNL A   1      31.604  29.124  25.233  1.00  0.00    -0.198 NA
BRANCH  22  23
ATOM     23  C   UNL A   1      32.336  28.141  26.100  1.00  0.00     0.099 C 
ATOM     24  C   UNL A   1      31.403  27.245  26.895  1.00  0.00     0.022 C 
ENDBRANCH  22  23
BRANCH  22  25
ATOM     25  C   UNL A   1      31.765  30.519  25.752  1.00  0.00     0.099 C 
ATOM     26  C   UNL A   1      32.780  30.661  26.876  1.00  0.00     0.022 C 
ENDBRANCH  22  25
ENDBRANCH  19  22
ENDBRANCH  13  19
ENDBRANCH  10  12
ENDBRANCH   6  10
ENDBRANCH   3   5
ENDBRANCH   2   3
ENDBRANCH   1   2
BRANCH   1  27
ATOM     27  C   UNL A   1      36.990  22.283  24.356  1.00  0.00     0.202 C 
BRANCH  27  28
ATOM     28  O   UNL A   1      37.865  21.441  25.110  1.00  0.00    -0.374 OA
BRANCH  28  29
ATOM     29  C   UNL A   1      37.698  20.031  24.964  1.00  0.00     0.202 C 
BRANCH  29  30
ATOM     30  C   UNL A   1      38.910  19.189  25.376  1.00  0.00     0.261 C 
BRANCH  30  31
ATOM     31  O   UNL A   1      39.787  19.899  26.271  1.00  0.00    -0.460 OA
BRANCH  31  32
ATOM     32  C   UNL A   1      41.096  19.580  26.126  1.00  0.00     0.338 C 
ATOM     33  O   UNL A   1      41.561  18.517  25.751  1.00  0.00    -0.246 OA
BRANCH  32  34
ATOM     34  C   UNL A   1      41.955  20.756  26.364  1.00  0.00     0.060 A 
ATOM     35  C   UNL A   1      42.194  21.105  27.699  1.00  0.00     0.016 A 
ATOM     36  C   UNL A   1      42.405  21.575  25.325  1.00  0.00     0.016 A 
ATOM     37  C   UNL A   1      42.803  22.318  28.004  1.00  0.00     0.010 A 
ATOM     38  C   UNL A   1      43.016  22.797  25.635  1.00  0.00     0.010 A 
ATOM     39  C   UNL A   1      43.165  23.197  26.976  1.00  0.00    -0.014 A 
BRANCH  39  40
ATOM     40  C   UNL A   1      43.491  24.603  27.325  1.00  0.00     0.031 A 
ATOM     41  C   UNL A   1      44.874  25.120  27.027  1.00  0.00     0.074 A 
ATOM     42  C   UNL A   1      42.550  25.437  27.802  1.00  0.00     0.049 A 
ATOM     43  N   UNL A   1      45.370  26.319  27.198  1.00  0.00    -0.248 NA
ATOM     44  C   UNL A   1      45.824  24.155  26.451  1.00  0.00     0.031 C 
ATOM     45  C   UNL A   1      41.162  25.074  28.071  1.00  0.00     0.029 A 
ATOM     46  N   UNL A   1      42.621  26.769  28.124  1.00  0.00    -0.354 N 
ATOM     47  C   UNL A   1      46.681  26.253  26.747  1.00  0.00     0.074 A 
ATOM     48  C   UNL A   1      46.921  24.888  26.333  1.00  0.00     0.031 C 
ATOM     49  C   UNL A   1      40.504  26.163  28.504  1.00  0.00     0.029 A 
ATOM     50  C   UNL A   1      41.432  27.292  28.567  1.00  0.00     0.049 A 
ATOM     51  H   UNL A   1      43.447  27.299  28.045  1.00  0.00     0.167 HD
ATOM     52  C   UNL A   1      47.599  27.245  26.664  1.00  0.00     0.037 A 
ATOM     53  C   UNL A   1      41.127  28.540  28.975  1.00  0.00     0.037 A 
ATOM     54  C   UNL A   1      47.363  28.604  27.071  1.00  0.00     0.049 A 
ATOM     55  C   UNL A   1      42.188  29.610  28.949  1.00  0.00     0.074 A 
ATOM     56  C   UNL A   1      48.238  29.676  27.049  1.00  0.00     0.029 A 
ATOM     57  N   UNL A   1      46.159  29.080  27.571  1.00  0.00    -0.354 N 
ATOM     58  N   UNL A   1      43.429  29.534  28.534  1.00  0.00    -0.248 NA
ATOM     59  C   UNL A   1      41.803  30.940  29.442  1.00  0.00     0.031 C 
ATOM     60  C   UNL A   1      47.577  30.791  27.573  1.00  0.00     0.029 A 
ATOM     61  C   UNL A   1      46.274  30.427  27.872  1.00  0.00     0.049 A 
ATOM     62  H   UNL A   1      45.346  28.540  27.694  1.00  0.00     0.167 HD
ATOM     63  C   UNL A   1      43.961  30.808  28.684  1.00  0.00     0.074 A 
ATOM     64  C   UNL A   1      42.908  31.641  29.226  1.00  0.00     0.031 C 
ATOM     65  C   UNL A   1      45.211  31.248  28.393  1.00  0.00     0.037 A 
BRANCH  52  66
ATOM     66  C   UNL A   1      48.953  26.895  26.122  1.00  0.00     0.064 A 
ATOM     67  C   UNL A   1      49.973  26.456  26.979  1.00  0.00     0.173 A 
ATOM     68  C   UNL A   1      49.257  27.042  24.761  1.00  0.00     0.173 A 
ATOM     69  F   UNL A   1      49.734  26.302  28.291  1.00  0.00    -0.203 F 
ATOM     70  C   UNL A   1      51.249  26.186  26.495  1.00  0.00     0.198 A 
ATOM     71  C   UNL A   1      50.528  26.744  24.274  1.00  0.00     0.198 A 
ATOM     72  F   UNL A   1      48.312  27.444  23.897  1.00  0.00    -0.203 F 
ATOM     73  F   UNL A   1      52.214  25.792  27.337  1.00  0.00    -0.200 F 
ATOM     74  C   UNL A   1      51.525  26.324  25.143  1.00  0.00     0.200 A 
ATOM     75  F   UNL A   1      50.785  26.853  22.964  1.00  0.00    -0.200 F 
ATOM     76  F   UNL A   1      52.750  26.050  24.676  1.00  0.00    -0.200 F 
ENDBRANCH  52  66
BRANCH  53  77
ATOM     77  C   UNL A   1      39.744  28.850  29.421  1.00  0.00     0.064 A 
ATOM     78  C   UNL A   1      38.792  29.367  28.531  1.00  0.00     0.173 A 
ATOM     79  C   UNL A   1      39.355  28.649  30.752  1.00  0.00     0.173 A 
ATOM     80  F   UNL A   1      39.116  29.574  27.246  1.00  0.00    -0.203 F 
ATOM     81  C   UNL A   1      37.508  29.691  28.962  1.00  0.00     0.198 A 
ATOM     82  C   UNL A   1      38.061  28.952  31.176  1.00  0.00     0.198 A 
ATOM     83  F   UNL A   1      40.223  28.134  31.634  1.00  0.00    -0.203 F 
ATOM     84  F   UNL A   1      36.625  30.212  28.097  1.00  0.00    -0.200 F 
ATOM     85  C   UNL A   1      37.142  29.480  30.282  1.00  0.00     0.200 A 
ATOM     86  F   UNL A   1      37.704  28.723  32.447  1.00  0.00    -0.200 F 
ATOM     87  F   UNL A   1      35.902  29.782  30.693  1.00  0.00    -0.200 F 
ENDBRANCH  53  77
BRANCH  65  88
ATOM     88  C   UNL A   1      45.511  32.703  28.610  1.00  0.00     0.064 A 
ATOM     89  C   UNL A   1      46.008  33.145  29.847  1.00  0.00     0.173 A 
ATOM     90  C   UNL A   1      45.230  33.666  27.632  1.00  0.00     0.173 A 
ATOM     91  F   UNL A   1      46.283  32.262  30.819  1.00  0.00    -0.203 F 
ATOM     92  C   UNL A   1      46.198  34.500  30.099  1.00  0.00     0.198 A 
ATOM     93  C   UNL A   1      45.447  35.020  27.880  1.00  0.00     0.198 A 
ATOM     94  F   UNL A   1      44.763  33.294  26.432  1.00  0.00    -0.203 F 
ATOM     95  F   UNL A   1      46.641  34.900  31.300  1.00  0.00    -0.200 F 
ATOM     96  C   UNL A   1      45.921  35.435  29.115  1.00  0.00     0.200 A 
ATOM     97  F   UNL A   1      45.199  35.922  26.921  1.00  0.00    -0.200 F 
ATOM     98  F   UNL A   1      46.112  36.740  29.357  1.00  0.00    -0.200 F 
ENDBRANCH  65  88
ENDBRANCH  39  40
ENDBRANCH  32  34
ENDBRANCH  31  32
ENDBRANCH  30  31
ENDBRANCH  29  30
ENDBRANCH  28  29
ENDBRANCH  27  28
ENDBRANCH   1  27
TORSDOF 20
ENDMDL
