MODEL 1
REMARK VINA RESULT:     -12.3      0.000      0.000
REMARK SMILES C/C(=N\Nc1ccccc1C(=O)OCCOCCOC(=O)c1ccc(-c2c3nc(c(-c4c(F)c(F)c(F)c(F)c4F)c4ccc([nH]4)c(-c4c(F)c(F)c(F)c(F)c4F)c4nc(c(-c5c(F)c(F)c(F)c(F)c5F)c5ccc2[nH]5)C=C4)C=C3)cc1)c1ccc(S(C)(=O)=O)cc1
REMARK SMILES IDX 15 1 14 2 13 3 11 4 12 5 10 6 5 7 6 8 7 9 9 10 8 11 4 12
REMARK SMILES IDX 3 14 1 15 2 16 85 17 86 18 94 19 87 20 93 21 88 22 89 23
REMARK SMILES IDX 90 24 91 25 92 26 16 27 17 28 18 29 19 30 20 31 21 32 22 33
REMARK SMILES IDX 23 34 84 35 24 36 83 37 25 38 26 39 27 40 77 41 28 42 82 43
REMARK SMILES IDX 76 44 78 45 29 46 81 47 75 48 74 49 30 51 62 52 42 53 61 54
REMARK SMILES IDX 43 55 46 56 60 57 79 58 44 59 45 60 59 62 80 63 47 64 31 65
REMARK SMILES IDX 32 66 40 67 33 68 34 69 38 70 41 71 35 72 36 73 39 74 37 75
REMARK SMILES IDX 63 76 64 77 72 78 65 79 66 80 70 81 73 82 67 83 68 84 71 85
REMARK SMILES IDX 69 86 48 87 49 88 57 89 50 90 51 91 55 92 58 93 52 94 53 95
REMARK SMILES IDX 56 96 54 97
REMARK H PARENT 4 13 78 50 46 61
REMARK Flexibility Score: inf
ROOT
ATOM      1  C   UNL A   1      39.685  21.735  26.244  1.00  0.00     0.202 C 
ENDROOT
BRANCH   1   2
ATOM      2  C   UNL A   1      38.291  21.751  25.608  1.00  0.00     0.261 C 
BRANCH   2   3
ATOM      3  O   UNL A   1      37.411  22.771  26.095  1.00  0.00    -0.460 OA
BRANCH   3   4
ATOM      4  C   UNL A   1      36.468  23.181  25.210  1.00  0.00     0.340 C 
ATOM      5  O   UNL A   1      36.623  23.348  24.008  1.00  0.00    -0.246 OA
BRANCH   4   6
ATOM      6  C   UNL A   1      35.134  23.274  25.839  1.00  0.00     0.085 A 
ATOM      7  C   UNL A   1      34.244  24.350  25.668  1.00  0.00     0.071 A 
ATOM      8  C   UNL A   1      32.985  24.254  26.302  1.00  0.00     0.028 A 
ATOM      9  C   UNL A   1      32.607  23.127  27.037  1.00  0.00     0.002 A 
ATOM     10  C   UNL A   1      34.749  22.142  26.585  1.00  0.00     0.018 A 
ATOM     11  C   UNL A   1      33.490  22.065  27.173  1.00  0.00     0.001 A 
BRANCH   7  12
ATOM     12  N   UNL A   1      34.388  25.431  24.766  1.00  0.00    -0.277 N 
ATOM     13  H   UNL A   1      35.296  25.636  24.447  1.00  0.00     0.190 HD
BRANCH  12  14
ATOM     14  N   UNL A   1      33.382  26.202  24.310  1.00  0.00    -0.180 NA
ATOM     15  C   UNL A   1      33.937  27.961  26.009  1.00  0.00     0.069 C 
ATOM     16  C   UNL A   1      33.148  27.365  24.856  1.00  0.00     0.065 C 
BRANCH  16  17
ATOM     17  C   UNL A   1      31.974  28.154  24.341  1.00  0.00    -0.002 A 
ATOM     18  C   UNL A   1      31.106  27.565  23.406  1.00  0.00     0.011 A 
ATOM     19  C   UNL A   1      31.687  29.438  24.819  1.00  0.00     0.011 A 
ATOM     20  C   UNL A   1      29.945  28.225  22.993  1.00  0.00     0.021 A 
ATOM     21  C   UNL A   1      30.543  30.115  24.391  1.00  0.00     0.021 A 
ATOM     22  C   UNL A   1      29.670  29.499  23.491  1.00  0.00     0.067 A 
BRANCH  22  23
ATOM     23  S   UNL A   1      28.177  30.336  23.017  1.00  0.00     0.175 S 
ATOM     24  C   UNL A   1      28.215  30.360  21.246  1.00  0.00     0.163 C 
ATOM     25  O   UNL A   1      27.077  29.485  23.439  1.00  0.00    -0.224 OA
ATOM     26  O   UNL A   1      28.283  31.707  23.467  1.00  0.00    -0.224 OA
ENDBRANCH  22  23
ENDBRANCH  16  17
ENDBRANCH  12  14
ENDBRANCH   7  12
ENDBRANCH   4   6
ENDBRANCH   3   4
ENDBRANCH   2   3
ENDBRANCH   1   2
BRANCH   1  27
ATOM     27  O   UNL A   1      40.739  21.020  25.619  1.00  0.00    -0.374 OA
BRANCH  27  28
ATOM     28  C   UNL A   1      42.032  21.045  26.209  1.00  0.00     0.202 C 
BRANCH  28  29
ATOM     29  C   UNL A   1      42.875  22.332  26.171  1.00  0.00     0.261 C 
BRANCH  29  30
ATOM     30  O   UNL A   1      42.809  23.093  24.951  1.00  0.00    -0.460 OA
BRANCH  30  31
ATOM     31  C   UNL A   1      43.489  24.263  24.987  1.00  0.00     0.338 C 
ATOM     32  O   UNL A   1      44.577  24.503  24.488  1.00  0.00    -0.246 OA
BRANCH  31  33
ATOM     33  C   UNL A   1      42.712  25.326  25.645  1.00  0.00     0.060 A 
ATOM     34  C   UNL A   1      43.384  26.497  26.012  1.00  0.00     0.016 A 
ATOM     35  C   UNL A   1      41.429  25.062  26.129  1.00  0.00     0.016 A 
ATOM     36  C   UNL A   1      42.814  27.365  26.940  1.00  0.00     0.010 A 
ATOM     37  C   UNL A   1      40.854  25.940  27.057  1.00  0.00     0.010 A 
ATOM     38  C   UNL A   1      41.573  27.059  27.516  1.00  0.00    -0.014 A 
BRANCH  38  39
ATOM     39  C   UNL A   1      41.141  27.802  28.730  1.00  0.00     0.031 A 
ATOM     40  C   UNL A   1      41.934  27.654  30.003  1.00  0.00     0.074 A 
ATOM     41  C   UNL A   1      40.105  28.657  28.682  1.00  0.00     0.049 A 
ATOM     42  N   UNL A   1      41.754  28.225  31.169  1.00  0.00    -0.248 NA
ATOM     43  C   UNL A   1      43.084  26.737  29.959  1.00  0.00     0.031 C 
ATOM     44  C   UNL A   1      39.282  28.917  27.503  1.00  0.00     0.029 A 
ATOM     45  N   UNL A   1      39.571  29.468  29.653  1.00  0.00    -0.354 N 
ATOM     46  C   UNL A   1      42.760  27.732  31.993  1.00  0.00     0.074 A 
ATOM     47  C   UNL A   1      43.521  26.784  31.208  1.00  0.00     0.031 C 
ATOM     48  C   UNL A   1      38.347  29.830  27.818  1.00  0.00     0.029 A 
ATOM     49  C   UNL A   1      38.487  30.193  29.227  1.00  0.00     0.049 A 
ATOM     50  H   UNL A   1      39.933  29.524  30.566  1.00  0.00     0.167 HD
ATOM     51  C   UNL A   1      43.035  28.050  33.282  1.00  0.00     0.037 A 
ATOM     52  C   UNL A   1      37.690  31.043  29.904  1.00  0.00     0.037 A 
ATOM     53  C   UNL A   1      42.282  29.000  34.061  1.00  0.00     0.049 A 
ATOM     54  C   UNL A   1      37.983  31.339  31.353  1.00  0.00     0.074 A 
ATOM     55  C   UNL A   1      42.490  29.402  35.369  1.00  0.00     0.029 A 
ATOM     56  N   UNL A   1      41.173  29.694  33.602  1.00  0.00    -0.354 N 
ATOM     57  N   UNL A   1      38.950  30.887  32.115  1.00  0.00    -0.248 NA
ATOM     58  C   UNL A   1      37.079  32.278  32.031  1.00  0.00     0.031 C 
ATOM     59  C   UNL A   1      41.470  30.293  35.721  1.00  0.00     0.029 A 
ATOM     60  C   UNL A   1      40.671  30.505  34.609  1.00  0.00     0.049 A 
ATOM     61  H   UNL A   1      40.797  29.623  32.695  1.00  0.00     0.167 HD
ATOM     62  C   UNL A   1      38.795  31.515  33.345  1.00  0.00     0.074 A 
ATOM     63  C   UNL A   1      37.647  32.389  33.222  1.00  0.00     0.031 C 
ATOM     64  C   UNL A   1      39.538  31.384  34.472  1.00  0.00     0.037 A 
BRANCH  51  65
ATOM     65  C   UNL A   1      44.185  27.343  33.944  1.00  0.00     0.064 A 
ATOM     66  C   UNL A   1      45.487  27.868  33.928  1.00  0.00     0.173 A 
ATOM     67  C   UNL A   1      43.975  26.139  34.634  1.00  0.00     0.173 A 
ATOM     68  F   UNL A   1      45.746  29.010  33.276  1.00  0.00    -0.203 F 
ATOM     69  C   UNL A   1      46.538  27.199  34.551  1.00  0.00     0.198 A 
ATOM     70  C   UNL A   1      45.022  25.491  35.284  1.00  0.00     0.198 A 
ATOM     71  F   UNL A   1      42.750  25.595  34.688  1.00  0.00    -0.203 F 
ATOM     72  F   UNL A   1      47.782  27.693  34.478  1.00  0.00    -0.200 F 
ATOM     73  C   UNL A   1      46.304  26.015  35.234  1.00  0.00     0.200 A 
ATOM     74  F   UNL A   1      44.790  24.355  35.958  1.00  0.00    -0.200 F 
ATOM     75  F   UNL A   1      47.315  25.376  35.839  1.00  0.00    -0.200 F 
ENDBRANCH  51  65
BRANCH  52  76
ATOM     76  C   UNL A   1      36.536  31.684  29.219  1.00  0.00     0.064 A 
ATOM     77  C   UNL A   1      36.524  33.060  28.949  1.00  0.00     0.173 A 
ATOM     78  C   UNL A   1      35.410  30.937  28.843  1.00  0.00     0.173 A 
ATOM     79  F   UNL A   1      37.568  33.821  29.306  1.00  0.00    -0.203 F 
ATOM     80  C   UNL A   1      35.421  33.667  28.353  1.00  0.00     0.198 A 
ATOM     81  C   UNL A   1      34.322  31.539  28.217  1.00  0.00     0.198 A 
ATOM     82  F   UNL A   1      35.371  29.616  29.075  1.00  0.00    -0.203 F 
ATOM     83  F   UNL A   1      35.414  34.992  28.155  1.00  0.00    -0.200 F 
ATOM     84  C   UNL A   1      34.323  32.905  27.983  1.00  0.00     0.200 A 
ATOM     85  F   UNL A   1      33.271  30.797  27.844  1.00  0.00    -0.200 F 
ATOM     86  F   UNL A   1      33.263  33.489  27.405  1.00  0.00    -0.200 F 
ENDBRANCH  52  76
BRANCH  64  87
ATOM     87  C   UNL A   1      39.178  32.256  35.645  1.00  0.00     0.064 A 
ATOM     88  C   UNL A   1      39.649  33.571  35.770  1.00  0.00     0.173 A 
ATOM     89  C   UNL A   1      38.329  31.768  36.651  1.00  0.00     0.173 A 
ATOM     90  F   UNL A   1      40.473  34.084  34.844  1.00  0.00    -0.203 F 
ATOM     91  C   UNL A   1      39.320  34.349  36.878  1.00  0.00     0.198 A 
ATOM     92  C   UNL A   1      37.970  32.561  37.737  1.00  0.00     0.198 A 
ATOM     93  F   UNL A   1      37.840  30.520  36.578  1.00  0.00    -0.203 F 
ATOM     94  F   UNL A   1      39.836  35.579  37.009  1.00  0.00    -0.200 F 
ATOM     95  C   UNL A   1      38.475  33.845  37.857  1.00  0.00     0.200 A 
ATOM     96  F   UNL A   1      37.140  32.078  38.673  1.00  0.00    -0.200 F 
ATOM     97  F   UNL A   1      38.158  34.596  38.920  1.00  0.00    -0.200 F 
ENDBRANCH  64  87
ENDBRANCH  38  39
ENDBRANCH  31  33
ENDBRANCH  30  31
ENDBRANCH  29  30
ENDBRANCH  28  29
ENDBRANCH  27  28
ENDBRANCH   1  27
TORSDOF 18
ENDMDL
MODEL 2
REMARK VINA RESULT:     -12.2      6.362     12.095
REMARK SMILES C/C(=N\Nc1ccccc1C(=O)OCCOCCOC(=O)c1ccc(-c2c3nc(c(-c4c(F)c(F)c(F)c(F)c4F)c4ccc([nH]4)c(-c4c(F)c(F)c(F)c(F)c4F)c4nc(c(-c5c(F)c(F)c(F)c(F)c5F)c5ccc2[nH]5)C=C4)C=C3)cc1)c1ccc(S(C)(=O)=O)cc1
REMARK SMILES IDX 15 1 14 2 13 3 11 4 12 5 10 6 5 7 6 8 7 9 9 10 8 11 4 12
REMARK SMILES IDX 3 14 1 15 2 16 85 17 86 18 94 19 87 20 93 21 88 22 89 23
REMARK SMILES IDX 90 24 91 25 92 26 16 27 17 28 18 29 19 30 20 31 21 32 22 33
REMARK SMILES IDX 23 34 84 35 24 36 83 37 25 38 26 39 27 40 77 41 28 42 82 43
REMARK SMILES IDX 76 44 78 45 29 46 81 47 75 48 74 49 30 51 62 52 42 53 61 54
REMARK SMILES IDX 43 55 46 56 60 57 79 58 44 59 45 60 59 62 80 63 47 64 31 65
REMARK SMILES IDX 32 66 40 67 33 68 34 69 38 70 41 71 35 72 36 73 39 74 37 75
REMARK SMILES IDX 63 76 64 77 72 78 65 79 66 80 70 81 73 82 67 83 68 84 71 85
REMARK SMILES IDX 69 86 48 87 49 88 57 89 50 90 51 91 55 92 58 93 52 94 53 95
REMARK SMILES IDX 56 96 54 97
REMARK H PARENT 4 13 78 50 46 61
REMARK Flexibility Score: inf
ROOT
ATOM      1  C   UNL A   1      33.337  35.576  32.516  1.00  0.00     0.202 C 
ENDROOT
BRANCH   1   2
ATOM      2  C   UNL A   1      33.152  36.037  31.066  1.00  0.00     0.261 C 
BRANCH   2   3
ATOM      3  O   UNL A   1      33.009  34.983  30.106  1.00  0.00    -0.460 OA
BRANCH   3   4
ATOM      4  C   UNL A   1      33.718  35.154  28.962  1.00  0.00     0.340 C 
ATOM      5  O   UNL A   1      33.959  36.217  28.408  1.00  0.00    -0.246 OA
BRANCH   4   6
ATOM      6  C   UNL A   1      34.323  33.887  28.501  1.00  0.00     0.085 A 
ATOM      7  C   UNL A   1      35.700  33.601  28.536  1.00  0.00     0.071 A 
ATOM      8  C   UNL A   1      36.105  32.318  28.104  1.00  0.00     0.028 A 
ATOM      9  C   UNL A   1      35.187  31.348  27.694  1.00  0.00     0.002 A 
ATOM     10  C   UNL A   1      33.402  32.906  28.082  1.00  0.00     0.018 A 
ATOM     11  C   UNL A   1      33.830  31.641  27.690  1.00  0.00     0.001 A 
BRANCH   7  12
ATOM     12  N   UNL A   1      36.710  34.382  29.147  1.00  0.00    -0.277 N 
ATOM     13  H   UNL A   1      37.062  35.146  28.637  1.00  0.00     0.190 HD
BRANCH  12  14
ATOM     14  N   UNL A   1      37.230  34.162  30.370  1.00  0.00    -0.180 NA
ATOM     15  C   UNL A   1      39.520  34.729  29.518  1.00  0.00     0.069 C 
ATOM     16  C   UNL A   1      38.512  34.311  30.575  1.00  0.00     0.065 C 
BRANCH  16  17
ATOM     17  C   UNL A   1      39.041  33.994  31.948  1.00  0.00    -0.002 A 
ATOM     18  C   UNL A   1      38.555  34.712  33.055  1.00  0.00     0.011 A 
ATOM     19  C   UNL A   1      39.956  32.957  32.160  1.00  0.00     0.011 A 
ATOM     20  C   UNL A   1      38.938  34.367  34.354  1.00  0.00     0.021 A 
ATOM     21  C   UNL A   1      40.364  32.625  33.454  1.00  0.00     0.021 A 
ATOM     22  C   UNL A   1      39.843  33.323  34.545  1.00  0.00     0.067 A 
BRANCH  22  23
ATOM     23  S   UNL A   1      40.306  32.837  36.190  1.00  0.00     0.175 S 
ATOM     24  C   UNL A   1      41.264  34.193  36.807  1.00  0.00     0.163 C 
ATOM     25  O   UNL A   1      39.075  32.760  36.959  1.00  0.00    -0.224 OA
ATOM     26  O   UNL A   1      41.194  31.701  36.075  1.00  0.00    -0.224 OA
ENDBRANCH  22  23
ENDBRANCH  16  17
ENDBRANCH  12  14
ENDBRANCH   7  12
ENDBRANCH   4   6
ENDBRANCH   3   4
ENDBRANCH   2   3
ENDBRANCH   1   2
BRANCH   1  27
ATOM     27  O   UNL A   1      32.980  34.255  32.888  1.00  0.00    -0.374 OA
BRANCH  27  28
ATOM     28  C   UNL A   1      34.007  33.339  33.244  1.00  0.00     0.202 C 
BRANCH  28  29
ATOM     29  C   UNL A   1      35.012  32.852  32.185  1.00  0.00     0.261 C 
BRANCH  29  30
ATOM     30  O   UNL A   1      35.369  31.459  32.246  1.00  0.00    -0.460 OA
BRANCH  30  31
ATOM     31  C   UNL A   1      36.575  31.217  32.810  1.00  0.00     0.338 C 
ATOM     32  O   UNL A   1      36.963  31.573  33.912  1.00  0.00    -0.246 OA
BRANCH  31  33
ATOM     33  C   UNL A   1      37.408  30.347  31.963  1.00  0.00     0.060 A 
ATOM     34  C   UNL A   1      38.429  29.617  32.581  1.00  0.00     0.016 A 
ATOM     35  C   UNL A   1      37.358  30.462  30.573  1.00  0.00     0.016 A 
ATOM     36  C   UNL A   1      39.459  29.076  31.815  1.00  0.00     0.010 A 
ATOM     37  C   UNL A   1      38.391  29.912  29.803  1.00  0.00     0.010 A 
ATOM     38  C   UNL A   1      39.479  29.275  30.427  1.00  0.00    -0.014 A 
BRANCH  38  39
ATOM     39  C   UNL A   1      40.733  28.992  29.679  1.00  0.00     0.031 A 
ATOM     40  C   UNL A   1      40.926  27.632  29.056  1.00  0.00     0.074 A 
ATOM     41  C   UNL A   1      41.653  29.953  29.487  1.00  0.00     0.049 A 
ATOM     42  N   UNL A   1      41.925  27.176  28.341  1.00  0.00    -0.248 NA
ATOM     43  C   UNL A   1      39.849  26.652  29.271  1.00  0.00     0.031 C 
ATOM     44  C   UNL A   1      41.567  31.317  30.003  1.00  0.00     0.029 A 
ATOM     45  N   UNL A   1      42.842  29.925  28.800  1.00  0.00    -0.354 N 
ATOM     46  C   UNL A   1      41.600  25.861  28.029  1.00  0.00     0.074 A 
ATOM     47  C   UNL A   1      40.332  25.577  28.667  1.00  0.00     0.031 C 
ATOM     48  C   UNL A   1      42.656  32.000  29.612  1.00  0.00     0.029 A 
ATOM     49  C   UNL A   1      43.529  31.113  28.845  1.00  0.00     0.049 A 
ATOM     50  H   UNL A   1      43.168  29.131  28.320  1.00  0.00     0.167 HD
ATOM     51  C   UNL A   1      42.286  24.974  27.269  1.00  0.00     0.037 A 
ATOM     52  C   UNL A   1      44.732  31.440  28.337  1.00  0.00     0.037 A 
ATOM     53  C   UNL A   1      43.545  25.258  26.627  1.00  0.00     0.049 A 
ATOM     54  C   UNL A   1      45.504  30.417  27.540  1.00  0.00     0.074 A 
ATOM     55  C   UNL A   1      44.312  24.432  25.824  1.00  0.00     0.029 A 
ATOM     56  N   UNL A   1      44.223  26.464  26.720  1.00  0.00    -0.354 N 
ATOM     57  N   UNL A   1      45.176  29.186  27.231  1.00  0.00    -0.248 NA
ATOM     58  C   UNL A   1      46.807  30.839  27.009  1.00  0.00     0.031 C 
ATOM     59  C   UNL A   1      45.482  25.117  25.481  1.00  0.00     0.029 A 
ATOM     60  C   UNL A   1      45.411  26.397  26.008  1.00  0.00     0.049 A 
ATOM     61  H   UNL A   1      43.907  27.253  27.217  1.00  0.00     0.167 HD
ATOM     62  C   UNL A   1      46.211  28.702  26.438  1.00  0.00     0.074 A 
ATOM     63  C   UNL A   1      47.170  29.778  26.305  1.00  0.00     0.031 C 
ATOM     64  C   UNL A   1      46.351  27.479  25.867  1.00  0.00     0.037 A 
BRANCH  51  65
ATOM     65  C   UNL A   1      41.705  23.596  27.109  1.00  0.00     0.064 A 
ATOM     66  C   UNL A   1      42.299  22.466  27.690  1.00  0.00     0.173 A 
ATOM     67  C   UNL A   1      40.514  23.410  26.389  1.00  0.00     0.173 A 
ATOM     68  F   UNL A   1      43.444  22.585  28.380  1.00  0.00    -0.203 F 
ATOM     69  C   UNL A   1      41.742  21.199  27.531  1.00  0.00     0.198 A 
ATOM     70  C   UNL A   1      39.941  22.147  26.261  1.00  0.00     0.198 A 
ATOM     71  F   UNL A   1      39.897  24.455  25.818  1.00  0.00    -0.203 F 
ATOM     72  F   UNL A   1      42.357  20.128  28.052  1.00  0.00    -0.200 F 
ATOM     73  C   UNL A   1      40.559  21.041  26.824  1.00  0.00     0.200 A 
ATOM     74  F   UNL A   1      38.789  22.000  25.591  1.00  0.00    -0.200 F 
ATOM     75  F   UNL A   1      40.020  19.823  26.679  1.00  0.00    -0.200 F 
ENDBRANCH  51  65
BRANCH  52  76
ATOM     76  C   UNL A   1      45.288  32.801  28.560  1.00  0.00     0.064 A 
ATOM     77  C   UNL A   1      46.159  33.065  29.626  1.00  0.00     0.173 A 
ATOM     78  C   UNL A   1      44.939  33.872  27.724  1.00  0.00     0.173 A 
ATOM     79  F   UNL A   1      46.507  32.079  30.466  1.00  0.00    -0.203 F 
ATOM     80  C   UNL A   1      46.639  34.351  29.863  1.00  0.00     0.198 A 
ATOM     81  C   UNL A   1      45.446  35.151  27.942  1.00  0.00     0.198 A 
ATOM     82  F   UNL A   1      44.113  33.674  26.686  1.00  0.00    -0.203 F 
ATOM     83  F   UNL A   1      47.427  34.585  30.921  1.00  0.00    -0.200 F 
ATOM     84  C   UNL A   1      46.286  35.392  29.017  1.00  0.00     0.200 A 
ATOM     85  F   UNL A   1      45.118  36.150  27.111  1.00  0.00    -0.200 F 
ATOM     86  F   UNL A   1      46.752  36.629  29.242  1.00  0.00    -0.200 F 
ENDBRANCH  52  76
BRANCH  64  87
ATOM     87  C   UNL A   1      47.552  27.258  24.989  1.00  0.00     0.064 A 
ATOM     88  C   UNL A   1      47.580  27.661  23.646  1.00  0.00     0.173 A 
ATOM     89  C   UNL A   1      48.704  26.648  25.511  1.00  0.00     0.173 A 
ATOM     90  F   UNL A   1      46.503  28.239  23.092  1.00  0.00    -0.203 F 
ATOM     91  C   UNL A   1      48.697  27.423  22.848  1.00  0.00     0.198 A 
ATOM     92  C   UNL A   1      49.833  26.446  24.722  1.00  0.00     0.198 A 
ATOM     93  F   UNL A   1      48.738  26.251  26.793  1.00  0.00    -0.203 F 
ATOM     94  F   UNL A   1      48.675  27.757  21.550  1.00  0.00    -0.200 F 
ATOM     95  C   UNL A   1      49.824  26.822  23.388  1.00  0.00     0.200 A 
ATOM     96  F   UNL A   1      50.928  25.881  25.252  1.00  0.00    -0.200 F 
ATOM     97  F   UNL A   1      50.898  26.597  22.619  1.00  0.00    -0.200 F 
ENDBRANCH  64  87
ENDBRANCH  38  39
ENDBRANCH  31  33
ENDBRANCH  30  31
ENDBRANCH  29  30
ENDBRANCH  28  29
ENDBRANCH  27  28
ENDBRANCH   1  27
TORSDOF 18
ENDMDL
MODEL 3
REMARK VINA RESULT:     -12.1      3.006      8.129
REMARK SMILES C/C(=N\Nc1ccccc1C(=O)OCCOCCOC(=O)c1ccc(-c2c3nc(c(-c4c(F)c(F)c(F)c(F)c4F)c4ccc([nH]4)c(-c4c(F)c(F)c(F)c(F)c4F)c4nc(c(-c5c(F)c(F)c(F)c(F)c5F)c5ccc2[nH]5)C=C4)C=C3)cc1)c1ccc(S(C)(=O)=O)cc1
REMARK SMILES IDX 15 1 14 2 13 3 11 4 12 5 10 6 5 7 6 8 7 9 9 10 8 11 4 12
REMARK SMILES IDX 3 14 1 15 2 16 85 17 86 18 94 19 87 20 93 21 88 22 89 23
REMARK SMILES IDX 90 24 91 25 92 26 16 27 17 28 18 29 19 30 20 31 21 32 22 33
REMARK SMILES IDX 23 34 84 35 24 36 83 37 25 38 26 39 27 40 77 41 28 42 82 43
REMARK SMILES IDX 76 44 78 45 29 46 81 47 75 48 74 49 30 51 62 52 42 53 61 54
REMARK SMILES IDX 43 55 46 56 60 57 79 58 44 59 45 60 59 62 80 63 47 64 31 65
REMARK SMILES IDX 32 66 40 67 33 68 34 69 38 70 41 71 35 72 36 73 39 74 37 75
REMARK SMILES IDX 63 76 64 77 72 78 65 79 66 80 70 81 73 82 67 83 68 84 71 85
REMARK SMILES IDX 69 86 48 87 49 88 57 89 50 90 51 91 55 92 58 93 52 94 53 95
REMARK SMILES IDX 56 96 54 97
REMARK H PARENT 4 13 78 50 46 61
REMARK Flexibility Score: inf
ROOT
ATOM      1  C   UNL A   1      32.754  28.657  27.340  1.00  0.00     0.202 C 
ENDROOT
BRANCH   1   2
ATOM      2  C   UNL A   1      33.606  28.158  26.168  1.00  0.00     0.261 C 
BRANCH   2   3
ATOM      3  O   UNL A   1      33.673  26.734  26.027  1.00  0.00    -0.460 OA
BRANCH   3   4
ATOM      4  C   UNL A   1      33.810  26.293  24.751  1.00  0.00     0.340 C 
ATOM      5  O   UNL A   1      33.915  26.987  23.750  1.00  0.00    -0.246 OA
BRANCH   4   6
ATOM      6  C   UNL A   1      33.974  24.825  24.697  1.00  0.00     0.085 A 
ATOM      7  C   UNL A   1      32.940  23.917  24.405  1.00  0.00     0.071 A 
ATOM      8  C   UNL A   1      33.281  22.547  24.343  1.00  0.00     0.028 A 
ATOM      9  C   UNL A   1      34.593  22.099  24.520  1.00  0.00     0.002 A 
ATOM     10  C   UNL A   1      35.295  24.367  24.878  1.00  0.00     0.018 A 
ATOM     11  C   UNL A   1      35.604  23.014  24.781  1.00  0.00     0.001 A 
BRANCH   7  12
ATOM     12  N   UNL A   1      31.633  24.236  23.967  1.00  0.00    -0.277 N 
ATOM     13  H   UNL A   1      30.976  23.504  23.931  1.00  0.00     0.190 HD
BRANCH  12  14
ATOM     14  N   UNL A   1      31.215  25.462  23.594  1.00  0.00    -0.180 NA
ATOM     15  C   UNL A   1      29.786  25.619  25.649  1.00  0.00     0.069 C 
ATOM     16  C   UNL A   1      30.369  26.122  24.340  1.00  0.00     0.065 C 
BRANCH  16  17
ATOM     17  C   UNL A   1      29.896  27.460  23.841  1.00  0.00    -0.002 A 
ATOM     18  C   UNL A   1      28.553  27.616  23.456  1.00  0.00     0.011 A 
ATOM     19  C   UNL A   1      30.744  28.573  23.811  1.00  0.00     0.011 A 
ATOM     20  C   UNL A   1      28.053  28.871  23.097  1.00  0.00     0.021 A 
ATOM     21  C   UNL A   1      30.258  29.825  23.428  1.00  0.00     0.021 A 
ATOM     22  C   UNL A   1      28.911  29.970  23.086  1.00  0.00     0.067 A 
BRANCH  22  23
ATOM     23  S   UNL A   1      28.286  31.583  22.680  1.00  0.00     0.175 S 
ATOM     24  C   UNL A   1      28.038  31.541  20.926  1.00  0.00     0.163 C 
ATOM     25  O   UNL A   1      26.988  31.695  23.323  1.00  0.00    -0.224 OA
ATOM     26  O   UNL A   1      29.341  32.538  22.941  1.00  0.00    -0.224 OA
ENDBRANCH  22  23
ENDBRANCH  16  17
ENDBRANCH  12  14
ENDBRANCH   7  12
ENDBRANCH   4   6
ENDBRANCH   3   4
ENDBRANCH   2   3
ENDBRANCH   1   2
BRANCH   1  27
ATOM     27  O   UNL A   1      31.781  29.666  27.125  1.00  0.00    -0.374 OA
BRANCH  27  28
ATOM     28  C   UNL A   1      32.149  30.834  26.404  1.00  0.00     0.202 C 
BRANCH  28  29
ATOM     29  C   UNL A   1      31.842  32.228  26.978  1.00  0.00     0.261 C 
BRANCH  29  30
ATOM     30  O   UNL A   1      32.921  33.179  26.935  1.00  0.00    -0.460 OA
BRANCH  30  31
ATOM     31  C   UNL A   1      33.544  33.371  28.122  1.00  0.00     0.338 C 
ATOM     32  O   UNL A   1      33.104  33.946  29.105  1.00  0.00    -0.246 OA
BRANCH  31  33
ATOM     33  C   UNL A   1      34.854  32.701  28.164  1.00  0.00     0.060 A 
ATOM     34  C   UNL A   1      34.873  31.312  28.341  1.00  0.00     0.016 A 
ATOM     35  C   UNL A   1      36.023  33.450  28.300  1.00  0.00     0.016 A 
ATOM     36  C   UNL A   1      36.045  30.680  28.748  1.00  0.00     0.010 A 
ATOM     37  C   UNL A   1      37.203  32.811  28.703  1.00  0.00     0.010 A 
ATOM     38  C   UNL A   1      37.201  31.434  28.993  1.00  0.00    -0.014 A 
BRANCH  38  39
ATOM     39  C   UNL A   1      38.325  30.807  29.738  1.00  0.00     0.031 A 
ATOM     40  C   UNL A   1      38.523  31.146  31.194  1.00  0.00     0.074 A 
ATOM     41  C   UNL A   1      39.112  29.888  29.151  1.00  0.00     0.049 A 
ATOM     42  N   UNL A   1      39.419  30.700  32.040  1.00  0.00    -0.248 NA
ATOM     43  C   UNL A   1      37.588  32.124  31.774  1.00  0.00     0.031 C 
ATOM     44  C   UNL A   1      39.000  29.446  27.764  1.00  0.00     0.029 A 
ATOM     45  N   UNL A   1      40.161  29.160  29.656  1.00  0.00    -0.354 N 
ATOM     46  C   UNL A   1      39.158  31.345  33.244  1.00  0.00     0.074 A 
ATOM     47  C   UNL A   1      38.050  32.244  33.009  1.00  0.00     0.031 C 
ATOM     48  C   UNL A   1      39.942  28.517  27.526  1.00  0.00     0.029 A 
ATOM     49  C   UNL A   1      40.741  28.324  28.735  1.00  0.00     0.049 A 
ATOM     50  H   UNL A   1      40.467  29.230  30.588  1.00  0.00     0.167 HD
ATOM     51  C   UNL A   1      39.776  31.192  34.440  1.00  0.00     0.037 A 
ATOM     52  C   UNL A   1      41.806  27.507  28.852  1.00  0.00     0.037 A 
ATOM     53  C   UNL A   1      40.874  30.290  34.677  1.00  0.00     0.049 A 
ATOM     54  C   UNL A   1      42.512  27.395  30.180  1.00  0.00     0.074 A 
ATOM     55  C   UNL A   1      41.558  30.051  35.857  1.00  0.00     0.029 A 
ATOM     56  N   UNL A   1      41.452  29.480  33.711  1.00  0.00    -0.354 N 
ATOM     57  N   UNL A   1      42.243  27.990  31.317  1.00  0.00    -0.248 NA
ATOM     58  C   UNL A   1      43.662  26.483  30.242  1.00  0.00     0.031 C 
ATOM     59  C   UNL A   1      42.588  29.143  35.590  1.00  0.00     0.029 A 
ATOM     60  C   UNL A   1      42.500  28.758  34.262  1.00  0.00     0.049 A 
ATOM     61  H   UNL A   1      41.162  29.425  32.772  1.00  0.00     0.167 HD
ATOM     62  C   UNL A   1      43.161  27.495  32.235  1.00  0.00     0.074 A 
ATOM     63  C   UNL A   1      43.987  26.542  31.524  1.00  0.00     0.031 C 
ATOM     64  C   UNL A   1      43.305  27.799  33.550  1.00  0.00     0.037 A 
BRANCH  51  65
ATOM     65  C   UNL A   1      39.295  32.039  35.586  1.00  0.00     0.064 A 
ATOM     66  C   UNL A   1      38.396  31.550  36.546  1.00  0.00     0.173 A 
ATOM     67  C   UNL A   1      39.769  33.351  35.745  1.00  0.00     0.173 A 
ATOM     68  F   UNL A   1      37.904  30.307  36.438  1.00  0.00    -0.203 F 
ATOM     69  C   UNL A   1      37.966  32.351  37.602  1.00  0.00     0.198 A 
ATOM     70  C   UNL A   1      39.363  34.137  36.820  1.00  0.00     0.198 A 
ATOM     71  F   UNL A   1      40.636  33.869  34.861  1.00  0.00    -0.203 F 
ATOM     72  F   UNL A   1      37.067  31.879  38.477  1.00  0.00    -0.200 F 
ATOM     73  C   UNL A   1      38.456  33.641  37.742  1.00  0.00     0.200 A 
ATOM     74  F   UNL A   1      39.851  35.378  36.963  1.00  0.00    -0.200 F 
ATOM     75  F   UNL A   1      38.047  34.408  38.763  1.00  0.00    -0.200 F 
ENDBRANCH  51  65
BRANCH  52  76
ATOM     76  C   UNL A   1      42.273  26.722  27.678  1.00  0.00     0.064 A 
ATOM     77  C   UNL A   1      41.816  25.416  27.449  1.00  0.00     0.173 A 
ATOM     78  C   UNL A   1      43.206  27.253  26.775  1.00  0.00     0.173 A 
ATOM     79  F   UNL A   1      40.939  24.856  28.295  1.00  0.00    -0.203 F 
ATOM     80  C   UNL A   1      42.293  24.664  26.378  1.00  0.00     0.198 A 
ATOM     81  C   UNL A   1      43.657  26.512  25.686  1.00  0.00     0.198 A 
ATOM     82  F   UNL A   1      43.673  28.499  26.946  1.00  0.00    -0.203 F 
ATOM     83  F   UNL A   1      41.879  23.400  26.213  1.00  0.00    -0.200 F 
ATOM     84  C   UNL A   1      43.209  25.215  25.494  1.00  0.00     0.200 A 
ATOM     85  F   UNL A   1      44.527  27.055  24.823  1.00  0.00    -0.200 F 
ATOM     86  F   UNL A   1      43.663  24.492  24.460  1.00  0.00    -0.200 F 
ENDBRANCH  52  76
BRANCH  64  87
ATOM     87  C   UNL A   1      44.350  27.044  34.325  1.00  0.00     0.064 A 
ATOM     88  C   UNL A   1      45.658  27.525  34.480  1.00  0.00     0.173 A 
ATOM     89  C   UNL A   1      44.027  25.824  34.941  1.00  0.00     0.173 A 
ATOM     90  F   UNL A   1      46.026  28.679  33.904  1.00  0.00    -0.203 F 
ATOM     91  C   UNL A   1      46.613  26.795  35.184  1.00  0.00     0.198 A 
ATOM     92  C   UNL A   1      44.972  25.115  35.676  1.00  0.00     0.198 A 
ATOM     93  F   UNL A   1      42.787  25.320  34.835  1.00  0.00    -0.203 F 
ATOM     94  F   UNL A   1      47.874  27.242  35.261  1.00  0.00    -0.200 F 
ATOM     95  C   UNL A   1      46.268  25.594  35.786  1.00  0.00     0.200 A 
ATOM     96  F   UNL A   1      44.630  23.964  36.273  1.00  0.00    -0.200 F 
ATOM     97  F   UNL A   1      47.188  24.894  36.465  1.00  0.00    -0.200 F 
ENDBRANCH  64  87
ENDBRANCH  38  39
ENDBRANCH  31  33
ENDBRANCH  30  31
ENDBRANCH  29  30
ENDBRANCH  28  29
ENDBRANCH  27  28
ENDBRANCH   1  27
TORSDOF 18
ENDMDL
