MODEL 1
REMARK VINA RESULT:     -10.6      0.000      0.000
REMARK SMILES O=C(C[C@@H](NC(=O)C1CC=CC1)C1CC1)OCCOCCOC(=O)c1ccc(-c2c3nc(c(-c4c(F)c(F)c(F)c(F)c4F)c4ccc([nH]4)c(-c4c(F)c(F)c(F)c(F)c4F)c4nc(c(-c5c(F)c(F)c(F)c(F)c5F)c5ccc2[nH]5)C=C4)C=C3)cc1
REMARK SMILES IDX 18 1 17 2 16 3 2 4 1 5 3 6 4 7 5 8 6 9 7 11 8 12 9 13 12 14
REMARK SMILES IDX 10 15 11 16 13 17 14 18 15 19 19 20 20 21 21 22 22 23 23 24
REMARK SMILES IDX 24 25 25 26 26 27 87 28 27 29 86 30 28 31 29 32 30 33 80 34
REMARK SMILES IDX 31 35 85 36 79 37 81 38 32 39 84 40 78 41 77 42 33 44 65 45
REMARK SMILES IDX 45 46 64 47 46 48 49 49 63 50 82 51 47 52 48 53 62 55 83 56
REMARK SMILES IDX 50 57 34 58 35 59 43 60 36 61 37 62 41 63 44 64 38 65 39 66
REMARK SMILES IDX 42 67 40 68 66 69 67 70 75 71 68 72 69 73 73 74 76 75 70 76
REMARK SMILES IDX 71 77 74 78 72 79 51 80 52 81 60 82 53 83 54 84 58 85 61 86
REMARK SMILES IDX 55 87 56 88 59 89 57 90
REMARK H PARENT 5 10 81 43 49 54
REMARK Flexibility Score: inf
ROOT
ATOM      1  C   UNL A   1      32.998  35.609  31.161  1.00  0.00     0.202 C 
ENDROOT
BRANCH   1   2
ATOM      2  C   UNL A   1      33.272  35.444  29.660  1.00  0.00     0.261 C 
BRANCH   2   3
ATOM      3  O   UNL A   1      34.044  34.310  29.248  1.00  0.00    -0.463 OA
BRANCH   3   4
ATOM      4  C   UNL A   1      33.634  33.532  28.216  1.00  0.00     0.307 C 
ATOM      5  O   UNL A   1      32.538  33.703  27.691  1.00  0.00    -0.252 OA
BRANCH   4   6
ATOM      6  C   UNL A   1      34.464  32.311  27.939  1.00  0.00     0.147 C 
BRANCH   6   7
ATOM      7  C   UNL A   1      33.770  30.951  27.736  1.00  0.00     0.096 C 
BRANCH   7   8
ATOM      8  N   UNL A   1      32.664  30.998  26.762  1.00  0.00    -0.352 N 
ATOM      9  C   UNL A   1      31.880  30.263  25.958  1.00  0.00     0.223 C 
ATOM     10  H   UNL A   1      32.397  31.941  26.660  1.00  0.00     0.163 HD
ATOM     11  O   UNL A   1      31.015  30.969  25.402  1.00  0.00    -0.275 OA
BRANCH   9  12
ATOM     12  C   UNL A   1      31.921  28.798  25.528  1.00  0.00     0.086 C 
ATOM     13  C   UNL A   1      33.075  28.494  24.563  1.00  0.00     0.040 C 
ATOM     14  C   UNL A   1      31.813  27.624  26.492  1.00  0.00     0.040 C 
ATOM     15  C   UNL A   1      33.657  27.226  25.086  1.00  0.00    -0.030 C 
ATOM     16  C   UNL A   1      32.982  26.761  26.141  1.00  0.00    -0.030 C 
ENDBRANCH   9  12
ENDBRANCH   7   8
BRANCH   7  17
ATOM     17  C   UNL A   1      34.766  29.856  27.485  1.00  0.00     0.012 C 
ATOM     18  C   UNL A   1      36.245  30.134  27.358  1.00  0.00     0.006 C 
ATOM     19  C   UNL A   1      35.745  29.328  28.518  1.00  0.00     0.006 C 
ENDBRANCH   7  17
ENDBRANCH   6   7
ENDBRANCH   4   6
ENDBRANCH   3   4
ENDBRANCH   2   3
ENDBRANCH   1   2
BRANCH   1  20
ATOM     20  O   UNL A   1      33.925  36.293  31.985  1.00  0.00    -0.374 OA
BRANCH  20  21
ATOM     21  C   UNL A   1      34.567  35.588  33.042  1.00  0.00     0.202 C 
BRANCH  21  22
ATOM     22  C   UNL A   1      35.845  34.859  32.642  1.00  0.00     0.261 C 
BRANCH  22  23
ATOM     23  O   UNL A   1      35.830  33.525  33.164  1.00  0.00    -0.460 OA
BRANCH  23  24
ATOM     24  C   UNL A   1      35.346  32.573  32.333  1.00  0.00     0.338 C 
ATOM     25  O   UNL A   1      34.189  32.391  31.996  1.00  0.00    -0.246 OA
BRANCH  24  26
ATOM     26  C   UNL A   1      36.501  31.919  31.693  1.00  0.00     0.060 A 
ATOM     27  C   UNL A   1      37.141  30.881  32.385  1.00  0.00     0.016 A 
ATOM     28  C   UNL A   1      36.916  32.287  30.411  1.00  0.00     0.016 A 
ATOM     29  C   UNL A   1      38.210  30.211  31.798  1.00  0.00     0.010 A 
ATOM     30  C   UNL A   1      37.997  31.630  29.832  1.00  0.00     0.010 A 
ATOM     31  C   UNL A   1      38.659  30.606  30.533  1.00  0.00    -0.014 A 
BRANCH  31  32
ATOM     32  C   UNL A   1      39.922  30.064  29.994  1.00  0.00     0.031 A 
ATOM     33  C   UNL A   1      41.095  30.992  29.879  1.00  0.00     0.074 A 
ATOM     34  C   UNL A   1      40.003  28.785  29.594  1.00  0.00     0.049 A 
ATOM     35  N   UNL A   1      42.263  30.787  29.332  1.00  0.00    -0.248 NA
ATOM     36  C   UNL A   1      40.923  32.339  30.450  1.00  0.00     0.031 C 
ATOM     37  C   UNL A   1      38.928  27.798  29.696  1.00  0.00     0.029 A 
ATOM     38  N   UNL A   1      41.032  28.104  28.998  1.00  0.00    -0.354 N 
ATOM     39  C   UNL A   1      42.959  31.979  29.481  1.00  0.00     0.074 A 
ATOM     40  C   UNL A   1      42.077  32.912  30.147  1.00  0.00     0.031 C 
ATOM     41  C   UNL A   1      39.348  26.641  29.155  1.00  0.00     0.029 A 
ATOM     42  C   UNL A   1      40.702  26.822  28.635  1.00  0.00     0.049 A 
ATOM     43  H   UNL A   1      41.922  28.497  28.845  1.00  0.00     0.167 HD
ATOM     44  C   UNL A   1      44.224  32.262  29.096  1.00  0.00     0.037 A 
ATOM     45  C   UNL A   1      41.408  25.918  27.929  1.00  0.00     0.037 A 
ATOM     46  C   UNL A   1      45.089  31.321  28.436  1.00  0.00     0.049 A 
ATOM     47  C   UNL A   1      42.790  26.287  27.451  1.00  0.00     0.074 A 
ATOM     48  C   UNL A   1      46.401  31.490  28.036  1.00  0.00     0.029 A 
ATOM     49  N   UNL A   1      44.719  30.034  28.072  1.00  0.00    -0.354 N 
ATOM     50  N   UNL A   1      43.461  27.400  27.631  1.00  0.00    -0.248 NA
ATOM     51  C   UNL A   1      43.513  25.273  26.670  1.00  0.00     0.031 C 
ATOM     52  C   UNL A   1      46.806  30.328  27.372  1.00  0.00     0.029 A 
ATOM     53  C   UNL A   1      45.768  29.411  27.417  1.00  0.00     0.049 A 
ATOM     54  H   UNL A   1      43.842  29.625  28.252  1.00  0.00     0.167 HD
ATOM     55  C   UNL A   1      44.691  27.210  27.012  1.00  0.00     0.074 A 
ATOM     56  C   UNL A   1      44.681  25.867  26.471  1.00  0.00     0.031 C 
ATOM     57  C   UNL A   1      45.734  28.069  26.894  1.00  0.00     0.037 A 
BRANCH  44  58
ATOM     58  C   UNL A   1      44.743  33.646  29.348  1.00  0.00     0.064 A 
ATOM     59  C   UNL A   1      44.607  34.671  28.402  1.00  0.00     0.173 A 
ATOM     60  C   UNL A   1      45.330  33.964  30.582  1.00  0.00     0.173 A 
ATOM     61  F   UNL A   1      44.069  34.415  27.199  1.00  0.00    -0.203 F 
ATOM     62  C   UNL A   1      45.048  35.962  28.677  1.00  0.00     0.198 A 
ATOM     63  C   UNL A   1      45.743  35.263  30.865  1.00  0.00     0.198 A 
ATOM     64  F   UNL A   1      45.487  33.019  31.521  1.00  0.00    -0.203 F 
ATOM     65  F   UNL A   1      44.938  36.920  27.745  1.00  0.00    -0.200 F 
ATOM     66  C   UNL A   1      45.605  36.260  29.912  1.00  0.00     0.200 A 
ATOM     67  F   UNL A   1      46.270  35.550  32.063  1.00  0.00    -0.200 F 
ATOM     68  F   UNL A   1      46.011  37.508  30.183  1.00  0.00    -0.200 F 
ENDBRANCH  44  58
BRANCH  45  69
ATOM     69  C   UNL A   1      40.816  24.593  27.597  1.00  0.00     0.064 A 
ATOM     70  C   UNL A   1      41.322  23.413  28.159  1.00  0.00     0.173 A 
ATOM     71  C   UNL A   1      39.765  24.475  26.674  1.00  0.00     0.173 A 
ATOM     72  F   UNL A   1      42.342  23.469  29.028  1.00  0.00    -0.203 F 
ATOM     73  C   UNL A   1      40.824  22.165  27.786  1.00  0.00     0.198 A 
ATOM     74  C   UNL A   1      39.245  23.230  26.328  1.00  0.00     0.198 A 
ATOM     75  F   UNL A   1      39.245  25.572  26.103  1.00  0.00    -0.203 F 
ATOM     76  F   UNL A   1      41.372  21.051  28.288  1.00  0.00    -0.200 F 
ATOM     77  C   UNL A   1      39.783  22.076  26.874  1.00  0.00     0.200 A 
ATOM     78  F   UNL A   1      38.231  23.149  25.455  1.00  0.00    -0.200 F 
ATOM     79  F   UNL A   1      39.310  20.876  26.510  1.00  0.00    -0.200 F 
ENDBRANCH  45  69
BRANCH  57  80
ATOM     80  C   UNL A   1      46.959  27.570  26.183  1.00  0.00     0.064 A 
ATOM     81  C   UNL A   1      47.101  27.685  24.792  1.00  0.00     0.173 A 
ATOM     82  C   UNL A   1      48.021  27.008  26.908  1.00  0.00     0.173 A 
ATOM     83  F   UNL A   1      46.109  28.203  24.052  1.00  0.00    -0.203 F 
ATOM     84  C   UNL A   1      48.249  27.230  24.151  1.00  0.00     0.198 A 
ATOM     85  C   UNL A   1      49.183  26.587  26.266  1.00  0.00     0.198 A 
ATOM     86  F   UNL A   1      47.941  26.885  28.241  1.00  0.00    -0.203 F 
ATOM     87  F   UNL A   1      48.340  27.299  22.815  1.00  0.00    -0.200 F 
ATOM     88  C   UNL A   1      49.292  26.689  24.888  1.00  0.00     0.200 A 
ATOM     89  F   UNL A   1      50.197  26.084  26.984  1.00  0.00    -0.200 F 
ATOM     90  F   UNL A   1      50.400  26.260  24.270  1.00  0.00    -0.200 F 
ENDBRANCH  57  80
ENDBRANCH  31  32
ENDBRANCH  24  26
ENDBRANCH  23  24
ENDBRANCH  22  23
ENDBRANCH  21  22
ENDBRANCH  20  21
ENDBRANCH   1  20
TORSDOF 18
ENDMDL
MODEL 2
REMARK VINA RESULT:     -10.1      4.817      7.399
REMARK SMILES O=C(C[C@@H](NC(=O)C1CC=CC1)C1CC1)OCCOCCOC(=O)c1ccc(-c2c3nc(c(-c4c(F)c(F)c(F)c(F)c4F)c4ccc([nH]4)c(-c4c(F)c(F)c(F)c(F)c4F)c4nc(c(-c5c(F)c(F)c(F)c(F)c5F)c5ccc2[nH]5)C=C4)C=C3)cc1
REMARK SMILES IDX 18 1 17 2 16 3 2 4 1 5 3 6 4 7 5 8 6 9 7 11 8 12 9 13 12 14
REMARK SMILES IDX 10 15 11 16 13 17 14 18 15 19 19 20 20 21 21 22 22 23 23 24
REMARK SMILES IDX 24 25 25 26 26 27 87 28 27 29 86 30 28 31 29 32 30 33 80 34
REMARK SMILES IDX 31 35 85 36 79 37 81 38 32 39 84 40 78 41 77 42 33 44 65 45
REMARK SMILES IDX 45 46 64 47 46 48 49 49 63 50 82 51 47 52 48 53 62 55 83 56
REMARK SMILES IDX 50 57 34 58 35 59 43 60 36 61 37 62 41 63 44 64 38 65 39 66
REMARK SMILES IDX 42 67 40 68 66 69 67 70 75 71 68 72 69 73 73 74 76 75 70 76
REMARK SMILES IDX 71 77 74 78 72 79 51 80 52 81 60 82 53 83 54 84 58 85 61 86
REMARK SMILES IDX 55 87 56 88 59 89 57 90
REMARK H PARENT 5 10 81 43 49 54
REMARK Flexibility Score: inf
ROOT
ATOM      1  C   UNL A   1      32.444  30.153  26.078  1.00  0.00     0.202 C 
ENDROOT
BRANCH   1   2
ATOM      2  C   UNL A   1      31.466  29.332  25.228  1.00  0.00     0.261 C 
BRANCH   2   3
ATOM      3  O   UNL A   1      31.539  27.904  25.326  1.00  0.00    -0.463 OA
BRANCH   3   4
ATOM      4  C   UNL A   1      32.296  27.189  24.458  1.00  0.00     0.307 C 
ATOM      5  O   UNL A   1      31.852  26.844  23.367  1.00  0.00    -0.252 OA
BRANCH   4   6
ATOM      6  C   UNL A   1      33.578  26.629  25.006  1.00  0.00     0.147 C 
BRANCH   6   7
ATOM      7  C   UNL A   1      33.535  25.396  25.929  1.00  0.00     0.096 C 
BRANCH   7   8
ATOM      8  N   UNL A   1      32.167  24.987  26.294  1.00  0.00    -0.352 N 
ATOM      9  C   UNL A   1      31.208  24.068  26.098  1.00  0.00     0.223 C 
ATOM     10  H   UNL A   1      31.818  25.650  26.934  1.00  0.00     0.163 HD
ATOM     11  O   UNL A   1      30.221  24.280  26.831  1.00  0.00    -0.275 OA
BRANCH   9  12
ATOM     12  C   UNL A   1      31.061  22.921  25.099  1.00  0.00     0.086 C 
ATOM     13  C   UNL A   1      31.225  23.377  23.643  1.00  0.00     0.040 C 
ATOM     14  C   UNL A   1      31.763  21.577  25.237  1.00  0.00     0.040 C 
ATOM     15  C   UNL A   1      32.114  22.343  23.040  1.00  0.00    -0.030 C 
ATOM     16  C   UNL A   1      32.418  21.375  23.908  1.00  0.00    -0.030 C 
ENDBRANCH   9  12
ENDBRANCH   7   8
BRANCH   7  17
ATOM     17  C   UNL A   1      34.390  24.282  25.400  1.00  0.00     0.012 C 
ATOM     18  C   UNL A   1      35.888  24.261  25.597  1.00  0.00     0.006 C 
ATOM     19  C   UNL A   1      35.045  23.216  26.261  1.00  0.00     0.006 C 
ENDBRANCH   7  17
ENDBRANCH   6   7
ENDBRANCH   4   6
ENDBRANCH   3   4
ENDBRANCH   2   3
ENDBRANCH   1   2
BRANCH   1  20
ATOM     20  O   UNL A   1      31.960  31.002  27.102  1.00  0.00    -0.374 OA
BRANCH  20  21
ATOM     21  C   UNL A   1      31.794  32.390  26.832  1.00  0.00     0.202 C 
BRANCH  21  22
ATOM     22  C   UNL A   1      32.893  33.288  27.390  1.00  0.00     0.261 C 
BRANCH  22  23
ATOM     23  O   UNL A   1      32.327  34.250  28.288  1.00  0.00    -0.460 OA
BRANCH  23  24
ATOM     24  C   UNL A   1      33.178  35.196  28.749  1.00  0.00     0.338 C 
ATOM     25  O   UNL A   1      33.018  36.404  28.764  1.00  0.00    -0.246 OA
BRANCH  24  26
ATOM     26  C   UNL A   1      34.260  34.501  29.468  1.00  0.00     0.060 A 
ATOM     27  C   UNL A   1      35.562  34.591  28.954  1.00  0.00     0.016 A 
ATOM     28  C   UNL A   1      34.007  33.814  30.657  1.00  0.00     0.016 A 
ATOM     29  C   UNL A   1      36.617  33.983  29.626  1.00  0.00     0.010 A 
ATOM     30  C   UNL A   1      35.060  33.189  31.318  1.00  0.00     0.010 A 
ATOM     31  C   UNL A   1      36.362  33.255  30.793  1.00  0.00    -0.014 A 
BRANCH  31  32
ATOM     32  C   UNL A   1      37.423  32.421  31.391  1.00  0.00     0.031 A 
ATOM     33  C   UNL A   1      37.926  32.790  32.754  1.00  0.00     0.074 A 
ATOM     34  C   UNL A   1      37.937  31.380  30.717  1.00  0.00     0.049 A 
ATOM     35  N   UNL A   1      38.923  32.291  33.434  1.00  0.00    -0.248 NA
ATOM     36  C   UNL A   1      37.212  33.881  33.442  1.00  0.00     0.031 C 
ATOM     37  C   UNL A   1      37.492  30.922  29.400  1.00  0.00     0.029 A 
ATOM     38  N   UNL A   1      38.967  30.534  31.040  1.00  0.00    -0.354 N 
ATOM     39  C   UNL A   1      38.965  33.012  34.619  1.00  0.00     0.074 A 
ATOM     40  C   UNL A   1      37.911  33.999  34.560  1.00  0.00     0.031 C 
ATOM     41  C   UNL A   1      38.265  29.890  29.016  1.00  0.00     0.029 A 
ATOM     42  C   UNL A   1      39.278  29.645  30.040  1.00  0.00     0.049 A 
ATOM     43  H   UNL A   1      39.437  30.561  31.904  1.00  0.00     0.167 HD
ATOM     44  C   UNL A   1      39.811  32.855  35.664  1.00  0.00     0.037 A 
ATOM     45  C   UNL A   1      40.293  28.765  29.956  1.00  0.00     0.037 A 
ATOM     46  C   UNL A   1      40.853  31.865  35.707  1.00  0.00     0.049 A 
ATOM     47  C   UNL A   1      41.263  28.662  31.106  1.00  0.00     0.074 A 
ATOM     48  C   UNL A   1      41.743  31.594  36.730  1.00  0.00     0.029 A 
ATOM     49  N   UNL A   1      41.150  30.989  34.672  1.00  0.00    -0.354 N 
ATOM     50  N   UNL A   1      41.274  29.315  32.244  1.00  0.00    -0.248 NA
ATOM     51  C   UNL A   1      42.364  27.698  30.960  1.00  0.00     0.031 C 
ATOM     52  C   UNL A   1      42.619  30.598  36.291  1.00  0.00     0.029 A 
ATOM     53  C   UNL A   1      42.235  30.202  35.020  1.00  0.00     0.049 A 
ATOM     54  H   UNL A   1      40.662  30.935  33.819  1.00  0.00     0.167 HD
ATOM     55  C   UNL A   1      42.361  28.824  32.958  1.00  0.00     0.074 A 
ATOM     56  C   UNL A   1      42.972  27.802  32.133  1.00  0.00     0.031 C 
ATOM     57  C   UNL A   1      42.819  29.186  34.182  1.00  0.00     0.037 A 
BRANCH  44  58
ATOM     58  C   UNL A   1      39.668  33.786  36.830  1.00  0.00     0.064 A 
ATOM     59  C   UNL A   1      40.265  35.055  36.842  1.00  0.00     0.173 A 
ATOM     60  C   UNL A   1      38.869  33.426  37.926  1.00  0.00     0.173 A 
ATOM     61  F   UNL A   1      41.053  35.441  35.826  1.00  0.00    -0.203 F 
ATOM     62  C   UNL A   1      40.076  35.925  37.911  1.00  0.00     0.198 A 
ATOM     63  C   UNL A   1      38.658  34.309  38.980  1.00  0.00     0.198 A 
ATOM     64  F   UNL A   1      38.278  32.223  37.966  1.00  0.00    -0.203 F 
ATOM     65  F   UNL A   1      40.683  37.120  37.917  1.00  0.00    -0.200 F 
ATOM     66  C   UNL A   1      39.264  35.557  38.974  1.00  0.00     0.200 A 
ATOM     67  F   UNL A   1      37.864  33.956  40.000  1.00  0.00    -0.200 F 
ATOM     68  F   UNL A   1      39.066  36.403  39.994  1.00  0.00    -0.200 F 
ENDBRANCH  44  58
BRANCH  45  69
ATOM     69  C   UNL A   1      40.473  27.936  28.733  1.00  0.00     0.064 A 
ATOM     70  C   UNL A   1      41.250  28.389  27.658  1.00  0.00     0.173 A 
ATOM     71  C   UNL A   1      39.830  26.696  28.593  1.00  0.00     0.173 A 
ATOM     72  F   UNL A   1      41.865  29.579  27.731  1.00  0.00    -0.203 F 
ATOM     73  C   UNL A   1      41.351  27.651  26.480  1.00  0.00     0.198 A 
ATOM     74  C   UNL A   1      39.960  25.943  27.428  1.00  0.00     0.198 A 
ATOM     75  F   UNL A   1      39.071  26.215  29.589  1.00  0.00    -0.203 F 
ATOM     76  F   UNL A   1      42.046  28.140  25.444  1.00  0.00    -0.200 F 
ATOM     77  C   UNL A   1      40.709  26.427  26.368  1.00  0.00     0.200 A 
ATOM     78  F   UNL A   1      39.347  24.755  27.329  1.00  0.00    -0.200 F 
ATOM     79  F   UNL A   1      40.800  25.722  25.231  1.00  0.00    -0.200 F 
ENDBRANCH  45  69
BRANCH  57  80
ATOM     80  C   UNL A   1      44.017  28.452  34.713  1.00  0.00     0.064 A 
ATOM     81  C   UNL A   1      43.888  27.248  35.421  1.00  0.00     0.173 A 
ATOM     82  C   UNL A   1      45.311  28.938  34.474  1.00  0.00     0.173 A 
ATOM     83  F   UNL A   1      42.672  26.748  35.688  1.00  0.00    -0.203 F 
ATOM     84  C   UNL A   1      45.010  26.574  35.895  1.00  0.00     0.198 A 
ATOM     85  C   UNL A   1      46.432  28.242  34.918  1.00  0.00     0.198 A 
ATOM     86  F   UNL A   1      45.491  30.080  33.792  1.00  0.00    -0.203 F 
ATOM     87  F   UNL A   1      44.860  25.455  36.616  1.00  0.00    -0.200 F 
ATOM     88  C   UNL A   1      46.280  27.066  35.636  1.00  0.00     0.200 A 
ATOM     89  F   UNL A   1      47.659  28.710  34.649  1.00  0.00    -0.200 F 
ATOM     90  F   UNL A   1      47.359  26.411  36.085  1.00  0.00    -0.200 F 
ENDBRANCH  57  80
ENDBRANCH  31  32
ENDBRANCH  24  26
ENDBRANCH  23  24
ENDBRANCH  22  23
ENDBRANCH  21  22
ENDBRANCH  20  21
ENDBRANCH   1  20
TORSDOF 18
ENDMDL
MODEL 3
REMARK VINA RESULT:     -10.0      4.891      9.577
REMARK SMILES O=C(C[C@@H](NC(=O)C1CC=CC1)C1CC1)OCCOCCOC(=O)c1ccc(-c2c3nc(c(-c4c(F)c(F)c(F)c(F)c4F)c4ccc([nH]4)c(-c4c(F)c(F)c(F)c(F)c4F)c4nc(c(-c5c(F)c(F)c(F)c(F)c5F)c5ccc2[nH]5)C=C4)C=C3)cc1
REMARK SMILES IDX 18 1 17 2 16 3 2 4 1 5 3 6 4 7 5 8 6 9 7 11 8 12 9 13 12 14
REMARK SMILES IDX 10 15 11 16 13 17 14 18 15 19 19 20 20 21 21 22 22 23 23 24
REMARK SMILES IDX 24 25 25 26 26 27 87 28 27 29 86 30 28 31 29 32 30 33 80 34
REMARK SMILES IDX 31 35 85 36 79 37 81 38 32 39 84 40 78 41 77 42 33 44 65 45
REMARK SMILES IDX 45 46 64 47 46 48 49 49 63 50 82 51 47 52 48 53 62 55 83 56
REMARK SMILES IDX 50 57 34 58 35 59 43 60 36 61 37 62 41 63 44 64 38 65 39 66
REMARK SMILES IDX 42 67 40 68 66 69 67 70 75 71 68 72 69 73 73 74 76 75 70 76
REMARK SMILES IDX 71 77 74 78 72 79 51 80 52 81 60 82 53 83 54 84 58 85 61 86
REMARK SMILES IDX 55 87 56 88 59 89 57 90
REMARK H PARENT 5 10 81 43 49 54
REMARK Flexibility Score: inf
ROOT
ATOM      1  C   UNL A   1      31.423  29.966  25.271  1.00  0.00     0.202 C 
ENDROOT
BRANCH   1   2
ATOM      2  C   UNL A   1      32.149  28.751  24.678  1.00  0.00     0.261 C 
BRANCH   2   3
ATOM      3  O   UNL A   1      32.296  27.595  25.512  1.00  0.00    -0.463 OA
BRANCH   3   4
ATOM      4  C   UNL A   1      31.209  26.973  26.030  1.00  0.00     0.307 C 
ATOM      5  O   UNL A   1      30.976  27.004  27.234  1.00  0.00    -0.252 OA
BRANCH   4   6
ATOM      6  C   UNL A   1      30.477  26.043  25.104  1.00  0.00     0.147 C 
BRANCH   6   7
ATOM      7  C   UNL A   1      31.206  24.815  24.529  1.00  0.00     0.096 C 
BRANCH   7   8
ATOM      8  N   UNL A   1      32.292  25.164  23.595  1.00  0.00    -0.352 N 
ATOM      9  C   UNL A   1      33.546  24.871  23.214  1.00  0.00     0.223 C 
ATOM     10  H   UNL A   1      31.973  25.904  23.029  1.00  0.00     0.163 HD
ATOM     11  O   UNL A   1      33.888  25.553  22.226  1.00  0.00    -0.275 OA
BRANCH   9  12
ATOM     12  C   UNL A   1      34.629  23.976  23.813  1.00  0.00     0.086 C 
ATOM     13  C   UNL A   1      35.179  24.516  25.140  1.00  0.00     0.040 C 
ATOM     14  C   UNL A   1      34.503  22.465  23.954  1.00  0.00     0.040 C 
ATOM     15  C   UNL A   1      35.229  23.317  26.023  1.00  0.00    -0.030 C 
ATOM     16  C   UNL A   1      34.848  22.206  25.385  1.00  0.00    -0.030 C 
ENDBRANCH   9  12
ENDBRANCH   7   8
BRANCH   7  17
ATOM     17  C   UNL A   1      31.609  23.855  25.610  1.00  0.00     0.012 C 
ATOM     18  C   UNL A   1      30.635  23.384  26.664  1.00  0.00     0.006 C 
ATOM     19  C   UNL A   1      31.180  22.400  25.675  1.00  0.00     0.006 C 
ENDBRANCH   7  17
ENDBRANCH   6   7
ENDBRANCH   4   6
ENDBRANCH   3   4
ENDBRANCH   2   3
ENDBRANCH   1   2
BRANCH   1  20
ATOM     20  O   UNL A   1      31.555  30.275  26.647  1.00  0.00    -0.374 OA
BRANCH  20  21
ATOM     21  C   UNL A   1      32.551  31.206  27.056  1.00  0.00     0.202 C 
BRANCH  21  22
ATOM     22  C   UNL A   1      32.082  32.655  27.127  1.00  0.00     0.261 C 
BRANCH  22  23
ATOM     23  O   UNL A   1      33.211  33.528  27.253  1.00  0.00    -0.460 OA
BRANCH  23  24
ATOM     24  C   UNL A   1      33.254  34.277  28.378  1.00  0.00     0.338 C 
ATOM     25  O   UNL A   1      32.406  35.046  28.799  1.00  0.00    -0.246 OA
BRANCH  24  26
ATOM     26  C   UNL A   1      34.417  33.827  29.163  1.00  0.00     0.060 A 
ATOM     27  C   UNL A   1      35.680  34.335  28.828  1.00  0.00     0.016 A 
ATOM     28  C   UNL A   1      34.260  32.956  30.245  1.00  0.00     0.016 A 
ATOM     29  C   UNL A   1      36.797  33.966  29.570  1.00  0.00     0.010 A 
ATOM     30  C   UNL A   1      35.380  32.572  30.974  1.00  0.00     0.010 A 
ATOM     31  C   UNL A   1      36.653  33.059  30.625  1.00  0.00    -0.014 A 
BRANCH  31  32
ATOM     32  C   UNL A   1      37.847  32.485  31.275  1.00  0.00     0.031 A 
ATOM     33  C   UNL A   1      38.555  31.359  30.582  1.00  0.00     0.074 A 
ATOM     34  C   UNL A   1      38.265  32.943  32.466  1.00  0.00     0.049 A 
ATOM     35  N   UNL A   1      39.544  30.617  31.002  1.00  0.00    -0.248 NA
ATOM     36  C   UNL A   1      38.073  31.015  29.232  1.00  0.00     0.031 C 
ATOM     37  C   UNL A   1      37.664  34.055  33.203  1.00  0.00     0.029 A 
ATOM     38  N   UNL A   1      39.283  32.511  33.276  1.00  0.00    -0.354 N 
ATOM     39  C   UNL A   1      39.795  29.714  29.979  1.00  0.00     0.074 A 
ATOM     40  C   UNL A   1      38.841  29.981  28.926  1.00  0.00     0.031 C 
ATOM     41  C   UNL A   1      38.311  34.200  34.372  1.00  0.00     0.029 A 
ATOM     42  C   UNL A   1      39.341  33.169  34.480  1.00  0.00     0.049 A 
ATOM     43  H   UNL A   1      39.912  31.798  33.019  1.00  0.00     0.167 HD
ATOM     44  C   UNL A   1      40.743  28.751  29.927  1.00  0.00     0.037 A 
ATOM     45  C   UNL A   1      40.116  32.932  35.555  1.00  0.00     0.037 A 
ATOM     46  C   UNL A   1      41.687  28.501  30.984  1.00  0.00     0.049 A 
ATOM     47  C   UNL A   1      41.117  31.805  35.495  1.00  0.00     0.074 A 
ATOM     48  C   UNL A   1      42.713  27.575  31.021  1.00  0.00     0.029 A 
ATOM     49  N   UNL A   1      41.710  29.177  32.195  1.00  0.00    -0.354 N 
ATOM     50  N   UNL A   1      41.380  30.980  34.509  1.00  0.00    -0.248 NA
ATOM     51  C   UNL A   1      41.927  31.574  36.699  1.00  0.00     0.031 C 
ATOM     52  C   UNL A   1      43.317  27.647  32.280  1.00  0.00     0.029 A 
ATOM     53  C   UNL A   1      42.710  28.662  33.002  1.00  0.00     0.049 A 
ATOM     54  H   UNL A   1      41.105  29.913  32.444  1.00  0.00     0.167 HD
ATOM     55  C   UNL A   1      42.402  30.154  34.963  1.00  0.00     0.074 A 
ATOM     56  C   UNL A   1      42.725  30.593  36.305  1.00  0.00     0.031 C 
ATOM     57  C   UNL A   1      43.016  29.122  34.332  1.00  0.00     0.037 A 
BRANCH  44  58
ATOM     58  C   UNL A   1      40.793  27.878  28.710  1.00  0.00     0.064 A 
ATOM     59  C   UNL A   1      40.022  26.712  28.603  1.00  0.00     0.173 A 
ATOM     60  C   UNL A   1      41.579  28.248  27.608  1.00  0.00     0.173 A 
ATOM     61  F   UNL A   1      39.267  26.303  29.635  1.00  0.00    -0.203 F 
ATOM     62  C   UNL A   1      40.042  25.943  27.443  1.00  0.00     0.198 A 
ATOM     63  C   UNL A   1      41.575  27.494  26.439  1.00  0.00     0.198 A 
ATOM     64  F   UNL A   1      42.338  29.353  27.660  1.00  0.00    -0.203 F 
ATOM     65  F   UNL A   1      39.322  24.815  27.375  1.00  0.00    -0.200 F 
ATOM     66  C   UNL A   1      40.810  26.341  26.357  1.00  0.00     0.200 A 
ATOM     67  F   UNL A   1      42.308  27.886  25.388  1.00  0.00    -0.200 F 
ATOM     68  F   UNL A   1      40.813  25.611  25.233  1.00  0.00    -0.200 F 
ENDBRANCH  44  58
BRANCH  45  69
ATOM     69  C   UNL A   1      39.960  33.746  36.791  1.00  0.00     0.064 A 
ATOM     70  C   UNL A   1      39.038  33.387  37.783  1.00  0.00     0.173 A 
ATOM     71  C   UNL A   1      40.694  34.927  36.982  1.00  0.00     0.173 A 
ATOM     72  F   UNL A   1      38.294  32.281  37.637  1.00  0.00    -0.203 F 
ATOM     73  C   UNL A   1      38.832  34.193  38.902  1.00  0.00     0.198 A 
ATOM     74  C   UNL A   1      40.512  35.714  38.117  1.00  0.00     0.198 A 
ATOM     75  F   UNL A   1      41.588  35.320  36.062  1.00  0.00    -0.203 F 
ATOM     76  F   UNL A   1      37.897  33.860  39.801  1.00  0.00    -0.200 F 
ATOM     77  C   UNL A   1      39.573  35.353  39.070  1.00  0.00     0.200 A 
ATOM     78  F   UNL A   1      41.239  36.828  38.280  1.00  0.00    -0.200 F 
ATOM     79  F   UNL A   1      39.368  36.132  40.141  1.00  0.00    -0.200 F 
ENDBRANCH  45  69
BRANCH  57  80
ATOM     80  C   UNL A   1      44.118  28.421  35.073  1.00  0.00     0.064 A 
ATOM     81  C   UNL A   1      43.875  27.273  35.842  1.00  0.00     0.173 A 
ATOM     82  C   UNL A   1      45.441  28.879  34.977  1.00  0.00     0.173 A 
ATOM     83  F   UNL A   1      42.625  26.803  35.976  1.00  0.00    -0.203 F 
ATOM     84  C   UNL A   1      44.910  26.628  36.511  1.00  0.00     0.198 A 
ATOM     85  C   UNL A   1      46.479  28.210  35.619  1.00  0.00     0.198 A 
ATOM     86  F   UNL A   1      45.731  29.966  34.246  1.00  0.00    -0.203 F 
ATOM     87  F   UNL A   1      44.645  25.566  37.285  1.00  0.00    -0.200 F 
ATOM     88  C   UNL A   1      46.212  27.091  36.393  1.00  0.00     0.200 A 
ATOM     89  F   UNL A   1      47.739  28.647  35.486  1.00  0.00    -0.200 F 
ATOM     90  F   UNL A   1      47.209  26.463  37.030  1.00  0.00    -0.200 F 
ENDBRANCH  57  80
ENDBRANCH  31  32
ENDBRANCH  24  26
ENDBRANCH  23  24
ENDBRANCH  22  23
ENDBRANCH  21  22
ENDBRANCH  20  21
ENDBRANCH   1  20
TORSDOF 18
ENDMDL
