MODEL 1
REMARK VINA RESULT:     -11.1      0.000      0.000
REMARK SMILES COc1cc(C(=O)OCCOCCOC(=O)c2ccc(-c3c4nc(c(-c5c(F)c(F)c(F)c(F)c5F)c5ccc([nH]5)c(-c5c(F)c(F)c(F)c(F)c5F)c5nc(c(-c6c(F)c(F)c(F)c(F)c6F)c6ccc3[nH]6)C=C5)C=C4)cc2)cc(OC)c1OCc1csc(C)n1
REMARK SMILES IDX 10 1 9 2 8 3 6 4 7 5 5 6 3 7 4 8 84 9 81 10 80 11 2 12 1 13
REMARK SMILES IDX 85 14 86 15 87 16 88 17 92 18 89 19 90 20 91 21 82 22 83 23
REMARK SMILES IDX 11 24 12 25 13 26 14 27 15 28 16 29 17 30 18 31 79 32 19 33
REMARK SMILES IDX 78 34 20 35 21 36 22 37 72 38 23 39 77 40 71 41 73 42 24 43
REMARK SMILES IDX 76 44 70 45 69 46 25 48 57 49 37 50 56 51 38 52 41 53 55 54
REMARK SMILES IDX 74 55 39 56 40 57 54 59 75 60 42 61 26 62 27 63 35 64 28 65
REMARK SMILES IDX 29 66 33 67 36 68 30 69 31 70 34 71 32 72 58 73 59 74 67 75
REMARK SMILES IDX 60 76 61 77 65 78 68 79 62 80 63 81 66 82 64 83 43 84 44 85
REMARK SMILES IDX 52 86 45 87 46 88 50 89 53 90 47 91 48 92 51 93 49 94
REMARK H PARENT 73 47 41 58
REMARK Flexibility Score: inf
ROOT
ATOM      1  C   UNL A   1      34.463  20.262  24.932  1.00  0.00     0.202 C 
ENDROOT
BRANCH   1   2
ATOM      2  C   UNL A   1      33.503  20.990  25.882  1.00  0.00     0.261 C 
BRANCH   2   3
ATOM      3  O   UNL A   1      33.200  22.316  25.413  1.00  0.00    -0.460 OA
BRANCH   3   4
ATOM      4  C   UNL A   1      33.613  23.326  26.218  1.00  0.00     0.338 C 
ATOM      5  O   UNL A   1      34.328  23.241  27.204  1.00  0.00    -0.246 OA
BRANCH   4   6
ATOM      6  C   UNL A   1      33.241  24.620  25.604  1.00  0.00     0.067 A 
ATOM      7  C   UNL A   1      33.428  26.129  23.724  1.00  0.00     0.165 A 
ATOM      8  C   UNL A   1      33.772  24.928  24.346  1.00  0.00     0.066 A 
ATOM      9  C   UNL A   1      32.616  27.064  24.393  1.00  0.00     0.203 A 
ATOM     10  C   UNL A   1      32.007  26.707  25.613  1.00  0.00     0.165 A 
ATOM     11  C   UNL A   1      32.327  25.481  26.210  1.00  0.00     0.066 A 
BRANCH   7  12
ATOM     12  O   UNL A   1      33.752  26.374  22.416  1.00  0.00    -0.493 OA
ATOM     13  C   UNL A   1      32.926  25.738  21.443  1.00  0.00     0.278 C 
ENDBRANCH   7  12
BRANCH   9  14
ATOM     14  O   UNL A   1      32.414  28.340  23.939  1.00  0.00    -0.480 OA
BRANCH  14  15
ATOM     15  C   UNL A   1      31.850  28.552  22.629  1.00  0.00     0.287 C 
BRANCH  15  16
ATOM     16  C   UNL A   1      30.379  28.861  22.523  1.00  0.00     0.089 A 
ATOM     17  C   UNL A   1      29.321  28.274  23.192  1.00  0.00     0.094 A 
ATOM     18  N   UNL A   1      30.003  29.889  21.662  1.00  0.00    -0.243 NA
ATOM     19  S   UNL A   1      27.853  29.075  22.806  1.00  0.00    -0.127 S 
ATOM     20  C   UNL A   1      28.710  30.114  21.745  1.00  0.00     0.090 A 
ATOM     21  C   UNL A   1      28.007  31.209  21.025  1.00  0.00     0.079 C 
ENDBRANCH  15  16
ENDBRANCH  14  15
ENDBRANCH   9  14
BRANCH  10  22
ATOM     22  O   UNL A   1      31.120  27.435  26.364  1.00  0.00    -0.493 OA
ATOM     23  C   UNL A   1      31.597  28.134  27.506  1.00  0.00     0.278 C 
ENDBRANCH  10  22
ENDBRANCH   4   6
ENDBRANCH   3   4
ENDBRANCH   2   3
ENDBRANCH   1   2
BRANCH   1  24
ATOM     24  O   UNL A   1      35.831  20.667  24.946  1.00  0.00    -0.374 OA
BRANCH  24  25
ATOM     25  C   UNL A   1      36.822  19.641  24.896  1.00  0.00     0.202 C 
BRANCH  25  26
ATOM     26  C   UNL A   1      38.293  20.070  24.846  1.00  0.00     0.261 C 
BRANCH  26  27
ATOM     27  O   UNL A   1      38.591  21.150  25.746  1.00  0.00    -0.460 OA
BRANCH  27  28
ATOM     28  C   UNL A   1      39.775  21.019  26.391  1.00  0.00     0.338 C 
ATOM     29  O   UNL A   1      40.494  20.035  26.431  1.00  0.00    -0.246 OA
BRANCH  28  30
ATOM     30  C   UNL A   1      40.198  22.320  26.938  1.00  0.00     0.060 A 
ATOM     31  C   UNL A   1      39.616  23.465  26.383  1.00  0.00     0.016 A 
ATOM     32  C   UNL A   1      41.192  22.429  27.913  1.00  0.00     0.016 A 
ATOM     33  C   UNL A   1      40.062  24.726  26.763  1.00  0.00     0.010 A 
ATOM     34  C   UNL A   1      41.640  23.699  28.293  1.00  0.00     0.010 A 
ATOM     35  C   UNL A   1      41.100  24.852  27.695  1.00  0.00    -0.014 A 
BRANCH  35  36
ATOM     36  C   UNL A   1      41.669  26.196  27.964  1.00  0.00     0.031 A 
ATOM     37  C   UNL A   1      43.037  26.547  27.452  1.00  0.00     0.074 A 
ATOM     38  C   UNL A   1      40.944  27.114  28.626  1.00  0.00     0.049 A 
ATOM     39  N   UNL A   1      43.697  27.674  27.546  1.00  0.00    -0.248 NA
ATOM     40  C   UNL A   1      43.762  25.482  26.744  1.00  0.00     0.031 C 
ATOM     41  C   UNL A   1      39.601  26.897  29.159  1.00  0.00     0.029 A 
ATOM     42  N   UNL A   1      41.235  28.413  28.957  1.00  0.00    -0.354 N 
ATOM     43  C   UNL A   1      44.913  27.456  26.912  1.00  0.00     0.074 A 
ATOM     44  C   UNL A   1      44.916  26.075  26.477  1.00  0.00     0.031 C 
ATOM     45  C   UNL A   1      39.182  28.025  29.754  1.00  0.00     0.029 A 
ATOM     46  C   UNL A   1      40.238  29.032  29.667  1.00  0.00     0.049 A 
ATOM     47  H   UNL A   1      42.078  28.857  28.711  1.00  0.00     0.167 HD
ATOM     48  C   UNL A   1      45.927  28.330  26.702  1.00  0.00     0.037 A 
ATOM     49  C   UNL A   1      40.188  30.267  30.201  1.00  0.00     0.037 A 
ATOM     50  C   UNL A   1      45.921  29.701  27.147  1.00  0.00     0.049 A 
ATOM     51  C   UNL A   1      41.346  31.207  29.999  1.00  0.00     0.074 A 
ATOM     52  C   UNL A   1      46.883  30.678  26.952  1.00  0.00     0.029 A 
ATOM     53  N   UNL A   1      44.908  30.287  27.895  1.00  0.00    -0.354 N 
ATOM     54  N   UNL A   1      42.471  31.011  29.355  1.00  0.00    -0.248 NA
ATOM     55  C   UNL A   1      41.220  32.546  30.591  1.00  0.00     0.031 C 
ATOM     56  C   UNL A   1      46.485  31.830  27.639  1.00  0.00     0.029 A 
ATOM     57  C   UNL A   1      45.240  31.598  28.203  1.00  0.00     0.049 A 
ATOM     58  H   UNL A   1      44.076  29.837  28.166  1.00  0.00     0.167 HD
ATOM     59  C   UNL A   1      43.180  32.201  29.448  1.00  0.00     0.074 A 
ATOM     60  C   UNL A   1      42.343  33.123  30.190  1.00  0.00     0.031 C 
ATOM     61  C   UNL A   1      44.411  32.503  28.963  1.00  0.00     0.037 A 
BRANCH  48  62
ATOM     62  C   UNL A   1      47.147  27.811  25.989  1.00  0.00     0.064 A 
ATOM     63  C   UNL A   1      47.232  27.776  24.588  1.00  0.00     0.173 A 
ATOM     64  C   UNL A   1      48.250  27.344  26.721  1.00  0.00     0.173 A 
ATOM     65  F   UNL A   1      46.203  28.200  23.838  1.00  0.00    -0.203 F 
ATOM     66  C   UNL A   1      48.353  27.250  23.949  1.00  0.00     0.198 A 
ATOM     67  C   UNL A   1      49.384  26.855  26.079  1.00  0.00     0.198 A 
ATOM     68  F   UNL A   1      48.229  27.362  28.062  1.00  0.00    -0.203 F 
ATOM     69  F   UNL A   1      48.381  27.163  22.612  1.00  0.00    -0.200 F 
ATOM     70  C   UNL A   1      49.430  26.794  24.694  1.00  0.00     0.200 A 
ATOM     71  F   UNL A   1      50.430  26.430  26.801  1.00  0.00    -0.200 F 
ATOM     72  F   UNL A   1      50.507  26.288  24.079  1.00  0.00    -0.200 F 
ENDBRANCH  48  62
BRANCH  49  73
ATOM     73  C   UNL A   1      38.990  30.677  30.977  1.00  0.00     0.064 A 
ATOM     74  C   UNL A   1      38.898  30.441  32.355  1.00  0.00     0.173 A 
ATOM     75  C   UNL A   1      37.921  31.341  30.356  1.00  0.00     0.173 A 
ATOM     76  F   UNL A   1      39.885  29.789  32.988  1.00  0.00    -0.203 F 
ATOM     77  C   UNL A   1      37.783  30.848  33.082  1.00  0.00     0.198 A 
ATOM     78  C   UNL A   1      36.820  31.776  31.089  1.00  0.00     0.198 A 
ATOM     79  F   UNL A   1      37.960  31.592  29.038  1.00  0.00    -0.203 F 
ATOM     80  F   UNL A   1      37.705  30.582  34.392  1.00  0.00    -0.200 F 
ATOM     81  C   UNL A   1      36.748  31.525  32.450  1.00  0.00     0.200 A 
ATOM     82  F   UNL A   1      35.832  32.443  30.478  1.00  0.00    -0.200 F 
ATOM     83  F   UNL A   1      35.684  31.933  33.154  1.00  0.00    -0.200 F 
ENDBRANCH  49  73
BRANCH  61  84
ATOM     84  C   UNL A   1      44.922  33.897  29.210  1.00  0.00     0.064 A 
ATOM     85  C   UNL A   1      44.701  34.939  28.296  1.00  0.00     0.173 A 
ATOM     86  C   UNL A   1      45.639  34.196  30.380  1.00  0.00     0.173 A 
ATOM     87  F   UNL A   1      44.033  34.706  27.155  1.00  0.00    -0.203 F 
ATOM     88  C   UNL A   1      45.212  36.215  28.523  1.00  0.00     0.198 A 
ATOM     89  C   UNL A   1      46.115  35.482  30.621  1.00  0.00     0.198 A 
ATOM     90  F   UNL A   1      45.873  33.243  31.294  1.00  0.00    -0.203 F 
ATOM     91  F   UNL A   1      45.045  37.174  27.603  1.00  0.00    -0.200 F 
ATOM     92  C   UNL A   1      45.914  36.487  29.688  1.00  0.00     0.200 A 
ATOM     93  F   UNL A   1      46.779  35.748  31.755  1.00  0.00    -0.200 F 
ATOM     94  F   UNL A   1      46.406  37.715  29.904  1.00  0.00    -0.200 F 
ENDBRANCH  61  84
ENDBRANCH  35  36
ENDBRANCH  28  30
ENDBRANCH  27  28
ENDBRANCH  26  27
ENDBRANCH  25  26
ENDBRANCH  24  25
ENDBRANCH   1  24
TORSDOF 19
ENDMDL
MODEL 2
REMARK VINA RESULT:     -10.9      1.837      2.930
REMARK SMILES COc1cc(C(=O)OCCOCCOC(=O)c2ccc(-c3c4nc(c(-c5c(F)c(F)c(F)c(F)c5F)c5ccc([nH]5)c(-c5c(F)c(F)c(F)c(F)c5F)c5nc(c(-c6c(F)c(F)c(F)c(F)c6F)c6ccc3[nH]6)C=C5)C=C4)cc2)cc(OC)c1OCc1csc(C)n1
REMARK SMILES IDX 10 1 9 2 8 3 6 4 7 5 5 6 3 7 4 8 84 9 81 10 80 11 2 12 1 13
REMARK SMILES IDX 85 14 86 15 87 16 88 17 92 18 89 19 90 20 91 21 82 22 83 23
REMARK SMILES IDX 11 24 12 25 13 26 14 27 15 28 16 29 17 30 18 31 79 32 19 33
REMARK SMILES IDX 78 34 20 35 21 36 22 37 72 38 23 39 77 40 71 41 73 42 24 43
REMARK SMILES IDX 76 44 70 45 69 46 25 48 57 49 37 50 56 51 38 52 41 53 55 54
REMARK SMILES IDX 74 55 39 56 40 57 54 59 75 60 42 61 26 62 27 63 35 64 28 65
REMARK SMILES IDX 29 66 33 67 36 68 30 69 31 70 34 71 32 72 58 73 59 74 67 75
REMARK SMILES IDX 60 76 61 77 65 78 68 79 62 80 63 81 66 82 64 83 43 84 44 85
REMARK SMILES IDX 52 86 45 87 46 88 50 89 53 90 47 91 48 92 51 93 49 94
REMARK H PARENT 73 47 41 58
REMARK Flexibility Score: inf
ROOT
ATOM      1  C   UNL A   1      36.903  21.564  24.859  1.00  0.00     0.202 C 
ENDROOT
BRANCH   1   2
ATOM      2  C   UNL A   1      36.299  22.600  23.902  1.00  0.00     0.261 C 
BRANCH   2   3
ATOM      3  O   UNL A   1      34.907  22.831  24.182  1.00  0.00    -0.460 OA
BRANCH   3   4
ATOM      4  C   UNL A   1      34.651  23.783  25.112  1.00  0.00     0.338 C 
ATOM      5  O   UNL A   1      35.008  23.792  26.279  1.00  0.00    -0.246 OA
BRANCH   4   6
ATOM      6  C   UNL A   1      34.035  24.955  24.452  1.00  0.00     0.067 A 
ATOM      7  C   UNL A   1      32.931  27.094  24.679  1.00  0.00     0.165 A 
ATOM      8  C   UNL A   1      33.501  25.963  25.264  1.00  0.00     0.066 A 
ATOM      9  C   UNL A   1      32.818  27.186  23.279  1.00  0.00     0.203 A 
ATOM     10  C   UNL A   1      33.444  26.218  22.468  1.00  0.00     0.165 A 
ATOM     11  C   UNL A   1      34.050  25.105  23.066  1.00  0.00     0.066 A 
BRANCH   7  12
ATOM     12  O   UNL A   1      32.591  28.190  25.427  1.00  0.00    -0.493 OA
ATOM     13  C   UNL A   1      33.435  28.465  26.543  1.00  0.00     0.278 C 
ENDBRANCH   7  12
BRANCH   9  14
ATOM     14  O   UNL A   1      32.087  28.157  22.648  1.00  0.00    -0.480 OA
BRANCH  14  15
ATOM     15  C   UNL A   1      30.648  28.060  22.615  1.00  0.00     0.287 C 
BRANCH  15  16
ATOM     16  C   UNL A   1      29.843  29.334  22.651  1.00  0.00     0.089 A 
ATOM     17  C   UNL A   1      29.621  30.188  23.716  1.00  0.00     0.094 A 
ATOM     18  N   UNL A   1      29.252  29.748  21.460  1.00  0.00    -0.243 NA
ATOM     19  S   UNL A   1      28.738  31.566  23.200  1.00  0.00    -0.127 S 
ATOM     20  C   UNL A   1      28.670  30.918  21.614  1.00  0.00     0.090 A 
ATOM     21  C   UNL A   1      28.028  31.680  20.509  1.00  0.00     0.079 C 
ENDBRANCH  15  16
ENDBRANCH  14  15
ENDBRANCH   9  14
BRANCH  10  22
ATOM     22  O   UNL A   1      33.526  26.182  21.099  1.00  0.00    -0.493 OA
ATOM     23  C   UNL A   1      32.558  25.437  20.372  1.00  0.00     0.278 C 
ENDBRANCH  10  22
ENDBRANCH   4   6
ENDBRANCH   3   4
ENDBRANCH   2   3
ENDBRANCH   1   2
BRANCH   1  24
ATOM     24  O   UNL A   1      37.429  20.369  24.284  1.00  0.00    -0.374 OA
BRANCH  24  25
ATOM     25  C   UNL A   1      38.347  19.609  25.069  1.00  0.00     0.202 C 
BRANCH  25  26
ATOM     26  C   UNL A   1      39.483  20.361  25.770  1.00  0.00     0.261 C 
BRANCH  26  27
ATOM     27  O   UNL A   1      40.327  19.499  26.551  1.00  0.00    -0.460 OA
BRANCH  27  28
ATOM     28  C   UNL A   1      41.627  19.506  26.169  1.00  0.00     0.338 C 
ATOM     29  O   UNL A   1      42.216  18.655  25.524  1.00  0.00    -0.246 OA
BRANCH  28  30
ATOM     30  C   UNL A   1      42.243  20.801  26.502  1.00  0.00     0.060 A 
ATOM     31  C   UNL A   1      42.265  21.169  27.853  1.00  0.00     0.016 A 
ATOM     32  C   UNL A   1      42.719  21.673  25.520  1.00  0.00     0.016 A 
ATOM     33  C   UNL A   1      42.716  22.432  28.222  1.00  0.00     0.010 A 
ATOM     34  C   UNL A   1      43.172  22.942  25.894  1.00  0.00     0.010 A 
ATOM     35  C   UNL A   1      43.141  23.340  27.243  1.00  0.00    -0.014 A 
BRANCH  35  36
ATOM     36  C   UNL A   1      43.463  24.732  27.642  1.00  0.00     0.031 A 
ATOM     37  C   UNL A   1      44.894  25.190  27.676  1.00  0.00     0.074 A 
ATOM     38  C   UNL A   1      42.475  25.597  27.930  1.00  0.00     0.049 A 
ATOM     39  N   UNL A   1      45.383  26.371  27.959  1.00  0.00    -0.248 NA
ATOM     40  C   UNL A   1      45.910  24.178  27.353  1.00  0.00     0.031 C 
ATOM     41  C   UNL A   1      41.050  25.275  27.919  1.00  0.00     0.029 A 
ATOM     42  N   UNL A   1      42.521  26.921  28.283  1.00  0.00    -0.354 N 
ATOM     43  C   UNL A   1      46.762  26.246  27.851  1.00  0.00     0.074 A 
ATOM     44  C   UNL A   1      47.032  24.863  27.519  1.00  0.00     0.031 C 
ATOM     45  C   UNL A   1      40.354  26.374  28.251  1.00  0.00     0.029 A 
ATOM     46  C   UNL A   1      41.286  27.466  28.525  1.00  0.00     0.049 A 
ATOM     47  H   UNL A   1      43.360  27.432  28.355  1.00  0.00     0.167 HD
ATOM     48  C   UNL A   1      47.713  27.200  28.001  1.00  0.00     0.037 A 
ATOM     49  C   UNL A   1      40.945  28.701  28.938  1.00  0.00     0.037 A 
ATOM     50  C   UNL A   1      47.437  28.574  28.341  1.00  0.00     0.049 A 
ATOM     51  C   UNL A   1      42.020  29.732  29.148  1.00  0.00     0.074 A 
ATOM     52  C   UNL A   1      48.326  29.625  28.482  1.00  0.00     0.029 A 
ATOM     53  N   UNL A   1      46.174  29.083  28.615  1.00  0.00    -0.354 N 
ATOM     54  N   UNL A   1      43.317  29.622  28.994  1.00  0.00    -0.248 NA
ATOM     55  C   UNL A   1      41.579  31.067  29.579  1.00  0.00     0.031 C 
ATOM     56  C   UNL A   1      47.612  30.752  28.906  1.00  0.00     0.029 A 
ATOM     57  C   UNL A   1      46.267  30.424  28.962  1.00  0.00     0.049 A 
ATOM     58  H   UNL A   1      45.337  28.569  28.569  1.00  0.00     0.167 HD
ATOM     59  C   UNL A   1      43.847  30.870  29.292  1.00  0.00     0.074 A 
ATOM     60  C   UNL A   1      42.726  31.731  29.610  1.00  0.00     0.031 C 
ATOM     61  C   UNL A   1      45.145  31.268  29.300  1.00  0.00     0.037 A 
BRANCH  48  62
ATOM     62  C   UNL A   1      49.147  26.775  27.836  1.00  0.00     0.064 A 
ATOM     63  C   UNL A   1      49.756  26.685  26.575  1.00  0.00     0.173 A 
ATOM     64  C   UNL A   1      49.925  26.456  28.960  1.00  0.00     0.173 A 
ATOM     65  F   UNL A   1      49.057  26.968  25.465  1.00  0.00    -0.203 F 
ATOM     66  C   UNL A   1      51.072  26.246  26.442  1.00  0.00     0.198 A 
ATOM     67  C   UNL A   1      51.251  26.054  28.826  1.00  0.00     0.198 A 
ATOM     68  F   UNL A   1      49.399  26.533  30.192  1.00  0.00    -0.203 F 
ATOM     69  F   UNL A   1      51.609  26.101  25.222  1.00  0.00    -0.200 F 
ATOM     70  C   UNL A   1      51.820  25.936  27.567  1.00  0.00     0.200 A 
ATOM     71  F   UNL A   1      51.978  25.770  29.916  1.00  0.00    -0.200 F 
ATOM     72  F   UNL A   1      53.085  25.513  27.438  1.00  0.00    -0.200 F 
ENDBRANCH  48  62
BRANCH  49  73
ATOM     73  C   UNL A   1      39.514  29.020  29.174  1.00  0.00     0.064 A 
ATOM     74  C   UNL A   1      38.951  28.935  30.454  1.00  0.00     0.173 A 
ATOM     75  C   UNL A   1      38.687  29.447  28.124  1.00  0.00     0.173 A 
ATOM     76  F   UNL A   1      39.696  28.510  31.486  1.00  0.00    -0.203 F 
ATOM     77  C   UNL A   1      37.614  29.258  30.675  1.00  0.00     0.198 A 
ATOM     78  C   UNL A   1      37.359  29.800  28.351  1.00  0.00     0.198 A 
ATOM     79  F   UNL A   1      39.178  29.547  26.880  1.00  0.00    -0.203 F 
ATOM     80  F   UNL A   1      37.091  29.137  31.902  1.00  0.00    -0.200 F 
ATOM     81  C   UNL A   1      36.822  29.700  29.625  1.00  0.00     0.200 A 
ATOM     82  F   UNL A   1      36.603  30.242  27.337  1.00  0.00    -0.200 F 
ATOM     83  F   UNL A   1      35.542  30.030  29.842  1.00  0.00    -0.200 F 
ENDBRANCH  49  73
BRANCH  61  84
ATOM     84  C   UNL A   1      45.420  32.705  29.655  1.00  0.00     0.064 A 
ATOM     85  C   UNL A   1      45.690  33.102  30.974  1.00  0.00     0.173 A 
ATOM     86  C   UNL A   1      45.418  33.697  28.662  1.00  0.00     0.173 A 
ATOM     87  F   UNL A   1      45.692  32.197  31.965  1.00  0.00    -0.203 F 
ATOM     88  C   UNL A   1      45.907  34.441  31.291  1.00  0.00     0.198 A 
ATOM     89  C   UNL A   1      45.673  35.030  28.977  1.00  0.00     0.198 A 
ATOM     90  F   UNL A   1      45.174  33.376  27.383  1.00  0.00    -0.203 F 
ATOM     91  F   UNL A   1      46.096  34.803  32.567  1.00  0.00    -0.200 F 
ATOM     92  C   UNL A   1      45.904  35.403  30.292  1.00  0.00     0.200 A 
ATOM     93  F   UNL A   1      45.686  35.955  28.008  1.00  0.00    -0.200 F 
ATOM     94  F   UNL A   1      46.112  36.691  30.599  1.00  0.00    -0.200 F 
ENDBRANCH  61  84
ENDBRANCH  35  36
ENDBRANCH  28  30
ENDBRANCH  27  28
ENDBRANCH  26  27
ENDBRANCH  25  26
ENDBRANCH  24  25
ENDBRANCH   1  24
TORSDOF 19
ENDMDL
MODEL 3
REMARK VINA RESULT:     -10.8      1.122      2.139
REMARK SMILES COc1cc(C(=O)OCCOCCOC(=O)c2ccc(-c3c4nc(c(-c5c(F)c(F)c(F)c(F)c5F)c5ccc([nH]5)c(-c5c(F)c(F)c(F)c(F)c5F)c5nc(c(-c6c(F)c(F)c(F)c(F)c6F)c6ccc3[nH]6)C=C5)C=C4)cc2)cc(OC)c1OCc1csc(C)n1
REMARK SMILES IDX 10 1 9 2 8 3 6 4 7 5 5 6 3 7 4 8 84 9 81 10 80 11 2 12 1 13
REMARK SMILES IDX 85 14 86 15 87 16 88 17 92 18 89 19 90 20 91 21 82 22 83 23
REMARK SMILES IDX 11 24 12 25 13 26 14 27 15 28 16 29 17 30 18 31 79 32 19 33
REMARK SMILES IDX 78 34 20 35 21 36 22 37 72 38 23 39 77 40 71 41 73 42 24 43
REMARK SMILES IDX 76 44 70 45 69 46 25 48 57 49 37 50 56 51 38 52 41 53 55 54
REMARK SMILES IDX 74 55 39 56 40 57 54 59 75 60 42 61 26 62 27 63 35 64 28 65
REMARK SMILES IDX 29 66 33 67 36 68 30 69 31 70 34 71 32 72 58 73 59 74 67 75
REMARK SMILES IDX 60 76 61 77 65 78 68 79 62 80 63 81 66 82 64 83 43 84 44 85
REMARK SMILES IDX 52 86 45 87 46 88 50 89 53 90 47 91 48 92 51 93 49 94
REMARK H PARENT 73 47 41 58
REMARK Flexibility Score: inf
ROOT
ATOM      1  C   UNL A   1      37.239  21.951  23.959  1.00  0.00     0.202 C 
ENDROOT
BRANCH   1   2
ATOM      2  C   UNL A   1      36.002  22.792  23.620  1.00  0.00     0.261 C 
BRANCH   2   3
ATOM      3  O   UNL A   1      35.117  22.909  24.748  1.00  0.00    -0.460 OA
BRANCH   3   4
ATOM      4  C   UNL A   1      35.255  24.041  25.481  1.00  0.00     0.338 C 
ATOM      5  O   UNL A   1      36.271  24.460  26.011  1.00  0.00    -0.246 OA
BRANCH   4   6
ATOM      6  C   UNL A   1      34.014  24.840  25.380  1.00  0.00     0.067 A 
ATOM      7  C   UNL A   1      31.596  24.887  25.380  1.00  0.00     0.165 A 
ATOM      8  C   UNL A   1      32.789  24.166  25.450  1.00  0.00     0.066 A 
ATOM      9  C   UNL A   1      31.622  26.276  25.157  1.00  0.00     0.203 A 
ATOM     10  C   UNL A   1      32.854  26.961  25.186  1.00  0.00     0.165 A 
ATOM     11  C   UNL A   1      34.045  26.232  25.298  1.00  0.00     0.066 A 
BRANCH   7  12
ATOM     12  O   UNL A   1      30.390  24.299  25.654  1.00  0.00    -0.493 OA
ATOM     13  C   UNL A   1      30.400  23.316  26.687  1.00  0.00     0.278 C 
ENDBRANCH   7  12
BRANCH   9  14
ATOM     14  O   UNL A   1      30.502  27.009  24.867  1.00  0.00    -0.480 OA
BRANCH  14  15
ATOM     15  C   UNL A   1      30.240  27.407  23.505  1.00  0.00     0.287 C 
BRANCH  15  16
ATOM     16  C   UNL A   1      29.737  28.804  23.250  1.00  0.00     0.089 A 
ATOM     17  C   UNL A   1      29.934  29.946  24.005  1.00  0.00     0.094 A 
ATOM     18  N   UNL A   1      28.993  29.013  22.092  1.00  0.00    -0.243 NA
ATOM     19  S   UNL A   1      29.255  31.308  23.214  1.00  0.00    -0.127 S 
ATOM     20  C   UNL A   1      28.708  30.289  21.949  1.00  0.00     0.090 A 
ATOM     21  C   UNL A   1      28.004  30.857  20.767  1.00  0.00     0.079 C 
ENDBRANCH  15  16
ENDBRANCH  14  15
ENDBRANCH   9  14
BRANCH  10  22
ATOM     22  O   UNL A   1      33.078  28.310  25.083  1.00  0.00    -0.493 OA
ATOM     23  C   UNL A   1      33.548  28.837  23.849  1.00  0.00     0.278 C 
ENDBRANCH  10  22
ENDBRANCH   4   6
ENDBRANCH   3   4
ENDBRANCH   2   3
ENDBRANCH   1   2
BRANCH   1  24
ATOM     24  O   UNL A   1      37.128  21.028  25.041  1.00  0.00    -0.374 OA
BRANCH  24  25
ATOM     25  C   UNL A   1      37.745  19.751  24.884  1.00  0.00     0.202 C 
BRANCH  25  26
ATOM     26  C   UNL A   1      39.064  19.498  25.623  1.00  0.00     0.261 C 
BRANCH  26  27
ATOM     27  O   UNL A   1      39.794  20.706  25.893  1.00  0.00    -0.460 OA
BRANCH  27  28
ATOM     28  C   UNL A   1      40.500  20.677  27.049  1.00  0.00     0.338 C 
ATOM     29  O   UNL A   1      40.945  19.697  27.623  1.00  0.00    -0.246 OA
BRANCH  28  30
ATOM     30  C   UNL A   1      40.827  22.048  27.475  1.00  0.00     0.060 A 
ATOM     31  C   UNL A   1      40.236  23.096  26.760  1.00  0.00     0.016 A 
ATOM     32  C   UNL A   1      41.745  22.311  28.494  1.00  0.00     0.016 A 
ATOM     33  C   UNL A   1      40.600  24.411  27.027  1.00  0.00     0.010 A 
ATOM     34  C   UNL A   1      42.110  23.635  28.761  1.00  0.00     0.010 A 
ATOM     35  C   UNL A   1      41.564  24.689  28.006  1.00  0.00    -0.014 A 
BRANCH  35  36
ATOM     36  C   UNL A   1      42.054  26.081  28.161  1.00  0.00     0.031 A 
ATOM     37  C   UNL A   1      43.378  26.479  27.575  1.00  0.00     0.074 A 
ATOM     38  C   UNL A   1      41.294  26.997  28.787  1.00  0.00     0.049 A 
ATOM     39  N   UNL A   1      43.967  27.649  27.567  1.00  0.00    -0.248 NA
ATOM     40  C   UNL A   1      44.145  25.415  26.913  1.00  0.00     0.031 C 
ATOM     41  C   UNL A   1      39.987  26.735  29.385  1.00  0.00     0.029 A 
ATOM     42  N   UNL A   1      41.512  28.331  29.018  1.00  0.00    -0.354 N 
ATOM     43  C   UNL A   1      45.172  27.463  26.903  1.00  0.00     0.074 A 
ATOM     44  C   UNL A   1      45.250  26.058  26.562  1.00  0.00     0.031 C 
ATOM     45  C   UNL A   1      39.517  27.874  29.918  1.00  0.00     0.029 A 
ATOM     46  C   UNL A   1      40.502  28.935  29.723  1.00  0.00     0.049 A 
ATOM     47  H   UNL A   1      42.316  28.808  28.710  1.00  0.00     0.167 HD
ATOM     48  C   UNL A   1      46.120  28.381  26.594  1.00  0.00     0.037 A 
ATOM     49  C   UNL A   1      40.391  30.199  30.173  1.00  0.00     0.037 A 
ATOM     50  C   UNL A   1      46.041  29.777  26.946  1.00  0.00     0.049 A 
ATOM     51  C   UNL A   1      41.478  31.192  29.864  1.00  0.00     0.074 A 
ATOM     52  C   UNL A   1      46.930  30.795  26.649  1.00  0.00     0.029 A 
ATOM     53  N   UNL A   1      45.019  30.350  27.691  1.00  0.00    -0.354 N 
ATOM     54  N   UNL A   1      42.591  31.022  29.192  1.00  0.00    -0.248 NA
ATOM     55  C   UNL A   1      41.287  32.559  30.369  1.00  0.00     0.031 C 
ATOM     56  C   UNL A   1      46.483  31.966  27.272  1.00  0.00     0.029 A 
ATOM     57  C   UNL A   1      45.276  31.698  27.897  1.00  0.00     0.049 A 
ATOM     58  H   UNL A   1      44.227  29.869  28.024  1.00  0.00     0.167 HD
ATOM     59  C   UNL A   1      43.224  32.257  29.177  1.00  0.00     0.074 A 
ATOM     60  C   UNL A   1      42.356  33.175  29.887  1.00  0.00     0.031 C 
ATOM     61  C   UNL A   1      44.416  32.600  28.626  1.00  0.00     0.037 A 
BRANCH  48  62
ATOM     62  C   UNL A   1      47.346  27.890  25.872  1.00  0.00     0.064 A 
ATOM     63  C   UNL A   1      48.519  27.532  26.556  1.00  0.00     0.173 A 
ATOM     64  C   UNL A   1      47.346  27.774  24.474  1.00  0.00     0.173 A 
ATOM     65  F   UNL A   1      48.579  27.633  27.892  1.00  0.00    -0.203 F 
ATOM     66  C   UNL A   1      49.657  27.123  25.865  1.00  0.00     0.198 A 
ATOM     67  C   UNL A   1      48.472  27.328  23.789  1.00  0.00     0.198 A 
ATOM     68  F   UNL A   1      46.250  28.094  23.768  1.00  0.00    -0.203 F 
ATOM     69  F   UNL A   1      50.785  26.853  26.535  1.00  0.00    -0.200 F 
ATOM     70  C   UNL A   1      49.632  27.016  24.483  1.00  0.00     0.200 A 
ATOM     71  F   UNL A   1      48.441  27.211  22.454  1.00  0.00    -0.200 F 
ATOM     72  F   UNL A   1      50.728  26.623  23.819  1.00  0.00    -0.200 F 
ENDBRANCH  48  62
BRANCH  49  73
ATOM     73  C   UNL A   1      39.196  30.587  30.966  1.00  0.00     0.064 A 
ATOM     74  C   UNL A   1      39.158  30.420  32.356  1.00  0.00     0.173 A 
ATOM     75  C   UNL A   1      38.075  31.161  30.346  1.00  0.00     0.173 A 
ATOM     76  F   UNL A   1      40.197  29.855  32.990  1.00  0.00    -0.203 F 
ATOM     77  C   UNL A   1      38.044  30.808  33.097  1.00  0.00     0.198 A 
ATOM     78  C   UNL A   1      36.974  31.576  31.090  1.00  0.00     0.198 A 
ATOM     79  F   UNL A   1      38.062  31.342  29.016  1.00  0.00    -0.203 F 
ATOM     80  F   UNL A   1      38.020  30.608  34.421  1.00  0.00    -0.200 F 
ATOM     81  C   UNL A   1      36.957  31.395  32.465  1.00  0.00     0.200 A 
ATOM     82  F   UNL A   1      35.935  32.157  30.478  1.00  0.00    -0.200 F 
ATOM     83  F   UNL A   1      35.894  31.784  33.180  1.00  0.00    -0.200 F 
ENDBRANCH  49  73
BRANCH  61  84
ATOM     84  C   UNL A   1      44.845  34.037  28.758  1.00  0.00     0.064 A 
ATOM     85  C   UNL A   1      45.641  34.475  29.828  1.00  0.00     0.173 A 
ATOM     86  C   UNL A   1      44.459  34.987  27.800  1.00  0.00     0.173 A 
ATOM     87  F   UNL A   1      46.028  33.611  30.780  1.00  0.00    -0.203 F 
ATOM     88  C   UNL A   1      46.000  35.815  29.955  1.00  0.00     0.198 A 
ATOM     89  C   UNL A   1      44.851  36.319  27.911  1.00  0.00     0.198 A 
ATOM     90  F   UNL A   1      43.705  34.625  26.752  1.00  0.00    -0.203 F 
ATOM     91  F   UNL A   1      46.704  36.220  31.021  1.00  0.00    -0.200 F 
ATOM     92  C   UNL A   1      45.609  36.735  28.994  1.00  0.00     0.200 A 
ATOM     93  F   UNL A   1      44.487  37.204  26.971  1.00  0.00    -0.200 F 
ATOM     94  F   UNL A   1      45.955  38.024  29.118  1.00  0.00    -0.200 F 
ENDBRANCH  61  84
ENDBRANCH  35  36
ENDBRANCH  28  30
ENDBRANCH  27  28
ENDBRANCH  26  27
ENDBRANCH  25  26
ENDBRANCH  24  25
ENDBRANCH   1  24
TORSDOF 19
ENDMDL
