MODEL 1
REMARK VINA RESULT:      -8.5      0.000      0.000
REMARK SMILES COC[C@H](O)CC1(C(=O)OCCOCCOC(=O)c2ccc(-c3c4nc(c(-c5c(F)c(F)c(F)c(F)c5F)c5ccc([nH]5)c(-c5c(F)c(F)c(F)c(F)c5F)c5nc(c(-c6c(F)c(F)c(F)c(F)c6F)c6ccc3[nH]6)C=C5)C=C4)cc2)CC1
REMARK SMILES IDX 12 1 11 2 10 3 8 4 9 5 7 6 82 7 83 8 6 9 4 10 3 11 2 12 1 13
REMARK SMILES IDX 5 14 13 16 14 17 15 18 16 19 17 20 18 21 19 22 20 23 81 24
REMARK SMILES IDX 21 25 80 26 22 27 23 28 24 29 74 30 25 31 79 32 73 33 75 34
REMARK SMILES IDX 26 35 78 36 72 37 71 38 27 40 59 41 39 42 58 43 40 44 43 45
REMARK SMILES IDX 57 46 76 47 41 48 42 49 56 51 77 52 44 53 28 54 29 55 37 56
REMARK SMILES IDX 30 57 31 58 35 59 38 60 32 61 33 62 36 63 34 64 60 65 61 66
REMARK SMILES IDX 69 67 62 68 63 69 67 70 70 71 64 72 65 73 68 74 66 75 45 76
REMARK SMILES IDX 46 77 54 78 47 79 48 80 52 81 55 82 49 83 50 84 53 85 51 86
REMARK H PARENT 5 15 75 39 43 50
REMARK Flexibility Score: inf
ROOT
ATOM      1  C   UNL A   1      33.897  35.045  31.414  1.00  0.00     0.202 C 
ENDROOT
BRANCH   1   2
ATOM      2  C   UNL A   1      33.620  34.478  32.809  1.00  0.00     0.261 C 
BRANCH   2   3
ATOM      3  O   UNL A   1      34.612  33.507  33.156  1.00  0.00    -0.463 OA
BRANCH   3   4
ATOM      4  C   UNL A   1      35.876  33.990  33.266  1.00  0.00     0.312 C 
ATOM      5  O   UNL A   1      36.245  34.902  33.990  1.00  0.00    -0.252 OA
BRANCH   4   6
ATOM      6  C   UNL A   1      36.864  33.158  32.487  1.00  0.00     0.071 C 
ATOM      7  C   UNL A   1      38.207  33.828  32.211  1.00  0.00     0.020 C 
ATOM      8  C   UNL A   1      37.258  33.603  31.078  1.00  0.00     0.020 C 
BRANCH   6   9
ATOM      9  C   UNL A   1      36.893  31.674  32.897  1.00  0.00     0.053 C 
BRANCH   9  10
ATOM     10  C   UNL A   1      38.006  31.233  33.863  1.00  0.00     0.141 C 
BRANCH  10  11
ATOM     11  C   UNL A   1      38.413  29.766  33.571  1.00  0.00     0.191 C 
BRANCH  11  12
ATOM     12  O   UNL A   1      39.610  29.329  34.215  1.00  0.00    -0.382 OA
ATOM     13  C   UNL A   1      40.564  28.729  33.358  1.00  0.00     0.195 C 
ENDBRANCH  11  12
ENDBRANCH  10  11
BRANCH  10  14
ATOM     14  O   UNL A   1      37.541  31.331  35.212  1.00  0.00    -0.391 OA
ATOM     15  H   UNL A   1      36.987  30.561  35.419  1.00  0.00     0.211 HD
ENDBRANCH  10  14
ENDBRANCH   9  10
ENDBRANCH   6   9
ENDBRANCH   4   6
ENDBRANCH   3   4
ENDBRANCH   2   3
ENDBRANCH   1   2
BRANCH   1  16
ATOM     16  O   UNL A   1      33.387  34.311  30.301  1.00  0.00    -0.374 OA
BRANCH  16  17
ATOM     17  C   UNL A   1      33.990  34.508  29.023  1.00  0.00     0.202 C 
BRANCH  17  18
ATOM     18  C   UNL A   1      34.409  33.274  28.215  1.00  0.00     0.261 C 
BRANCH  18  19
ATOM     19  O   UNL A   1      34.590  32.101  29.021  1.00  0.00    -0.460 OA
BRANCH  19  20
ATOM     20  C   UNL A   1      34.557  30.935  28.328  1.00  0.00     0.338 C 
ATOM     21  O   UNL A   1      33.677  30.533  27.588  1.00  0.00    -0.246 OA
BRANCH  20  22
ATOM     22  C   UNL A   1      35.855  30.252  28.455  1.00  0.00     0.060 A 
ATOM     23  C   UNL A   1      36.167  29.665  29.690  1.00  0.00     0.016 A 
ATOM     24  C   UNL A   1      36.781  30.262  27.412  1.00  0.00     0.016 A 
ATOM     25  C   UNL A   1      37.429  29.114  29.899  1.00  0.00     0.010 A 
ATOM     26  C   UNL A   1      38.050  29.724  27.629  1.00  0.00     0.010 A 
ATOM     27  C   UNL A   1      38.389  29.180  28.883  1.00  0.00    -0.014 A 
BRANCH  27  28
ATOM     28  C   UNL A   1      39.801  28.850  29.175  1.00  0.00     0.031 A 
ATOM     29  C   UNL A   1      40.636  29.867  29.898  1.00  0.00     0.074 A 
ATOM     30  C   UNL A   1      40.329  27.676  28.793  1.00  0.00     0.049 A 
ATOM     31  N   UNL A   1      41.919  29.865  30.149  1.00  0.00    -0.248 NA
ATOM     32  C   UNL A   1      39.926  31.055  30.401  1.00  0.00     0.031 C 
ATOM     33  C   UNL A   1      39.598  26.595  28.137  1.00  0.00     0.029 A 
ATOM     34  N   UNL A   1      41.616  27.207  28.887  1.00  0.00    -0.354 N 
ATOM     35  C   UNL A   1      42.172  31.053  30.820  1.00  0.00     0.074 A 
ATOM     36  C   UNL A   1      40.916  31.763  30.920  1.00  0.00     0.031 C 
ATOM     37  C   UNL A   1      40.454  25.595  27.863  1.00  0.00     0.029 A 
ATOM     38  C   UNL A   1      41.796  25.986  28.288  1.00  0.00     0.049 A 
ATOM     39  H   UNL A   1      42.338  27.700  29.340  1.00  0.00     0.167 HD
ATOM     40  C   UNL A   1      43.349  31.508  31.310  1.00  0.00     0.037 A 
ATOM     41  C   UNL A   1      42.929  25.286  28.077  1.00  0.00     0.037 A 
ATOM     42  C   UNL A   1      44.592  30.792  31.205  1.00  0.00     0.049 A 
ATOM     43  C   UNL A   1      44.241  25.848  28.563  1.00  0.00     0.074 A 
ATOM     44  C   UNL A   1      45.841  31.157  31.673  1.00  0.00     0.029 A 
ATOM     45  N   UNL A   1      44.740  29.562  30.580  1.00  0.00    -0.354 N 
ATOM     46  N   UNL A   1      44.476  26.968  29.203  1.00  0.00    -0.248 NA
ATOM     47  C   UNL A   1      45.446  25.050  28.296  1.00  0.00     0.031 C 
ATOM     48  C   UNL A   1      46.756  30.171  31.287  1.00  0.00     0.029 A 
ATOM     49  C   UNL A   1      46.065  29.163  30.631  1.00  0.00     0.049 A 
ATOM     50  H   UNL A   1      44.011  29.049  30.163  1.00  0.00     0.167 HD
ATOM     51  C   UNL A   1      45.842  26.990  29.451  1.00  0.00     0.074 A 
ATOM     52  C   UNL A   1      46.387  25.771  28.889  1.00  0.00     0.031 C 
ATOM     53  C   UNL A   1      46.580  27.932  30.089  1.00  0.00     0.037 A 
BRANCH  40  54
ATOM     54  C   UNL A   1      43.352  32.855  31.970  1.00  0.00     0.064 A 
ATOM     55  C   UNL A   1      43.190  33.002  33.356  1.00  0.00     0.173 A 
ATOM     56  C   UNL A   1      43.544  34.017  31.206  1.00  0.00     0.173 A 
ATOM     57  F   UNL A   1      42.988  31.924  34.129  1.00  0.00    -0.203 F 
ATOM     58  C   UNL A   1      43.192  34.262  33.949  1.00  0.00     0.198 A 
ATOM     59  C   UNL A   1      43.576  35.273  31.806  1.00  0.00     0.198 A 
ATOM     60  F   UNL A   1      43.705  33.934  29.877  1.00  0.00    -0.203 F 
ATOM     61  F   UNL A   1      42.985  34.381  35.267  1.00  0.00    -0.200 F 
ATOM     62  C   UNL A   1      43.392  35.396  33.174  1.00  0.00     0.200 A 
ATOM     63  F   UNL A   1      43.780  36.366  31.057  1.00  0.00    -0.200 F 
ATOM     64  F   UNL A   1      43.400  36.607  33.747  1.00  0.00    -0.200 F 
ENDBRANCH  40  54
BRANCH  41  65
ATOM     65  C   UNL A   1      42.874  23.986  27.359  1.00  0.00     0.064 A 
ATOM     66  C   UNL A   1      42.485  22.812  28.018  1.00  0.00     0.173 A 
ATOM     67  C   UNL A   1      43.221  23.888  26.003  1.00  0.00     0.173 A 
ATOM     68  F   UNL A   1      42.168  22.850  29.320  1.00  0.00    -0.203 F 
ATOM     69  C   UNL A   1      42.460  21.587  27.353  1.00  0.00     0.198 A 
ATOM     70  C   UNL A   1      43.168  22.668  25.331  1.00  0.00     0.198 A 
ATOM     71  F   UNL A   1      43.602  24.981  25.325  1.00  0.00    -0.203 F 
ATOM     72  F   UNL A   1      42.127  20.474  28.020  1.00  0.00    -0.200 F 
ATOM     73  C   UNL A   1      42.795  21.517  26.010  1.00  0.00     0.200 A 
ATOM     74  F   UNL A   1      43.480  22.608  24.030  1.00  0.00    -0.200 F 
ATOM     75  F   UNL A   1      42.767  20.340  25.370  1.00  0.00    -0.200 F 
ENDBRANCH  41  65
BRANCH  53  76
ATOM     76  C   UNL A   1      48.043  27.660  30.278  1.00  0.00     0.064 A 
ATOM     77  C   UNL A   1      48.532  26.984  31.405  1.00  0.00     0.173 A 
ATOM     78  C   UNL A   1      48.959  28.014  29.274  1.00  0.00     0.173 A 
ATOM     79  F   UNL A   1      47.700  26.637  32.398  1.00  0.00    -0.203 F 
ATOM     80  C   UNL A   1      49.887  26.685  31.526  1.00  0.00     0.198 A 
ATOM     81  C   UNL A   1      50.307  27.687  29.385  1.00  0.00     0.198 A 
ATOM     82  F   UNL A   1      48.540  28.654  28.172  1.00  0.00    -0.203 F 
ATOM     83  F   UNL A   1      50.338  26.068  32.627  1.00  0.00    -0.200 F 
ATOM     84  C   UNL A   1      50.770  27.026  30.512  1.00  0.00     0.200 A 
ATOM     85  F   UNL A   1      51.155  28.003  28.397  1.00  0.00    -0.200 F 
ATOM     86  F   UNL A   1      52.070  26.720  30.623  1.00  0.00    -0.200 F 
ENDBRANCH  53  76
ENDBRANCH  27  28
ENDBRANCH  20  22
ENDBRANCH  19  20
ENDBRANCH  18  19
ENDBRANCH  17  18
ENDBRANCH  16  17
ENDBRANCH   1  16
TORSDOF 19
ENDMDL
MODEL 2
REMARK VINA RESULT:      -8.5      4.516     10.742
REMARK SMILES COC[C@H](O)CC1(C(=O)OCCOCCOC(=O)c2ccc(-c3c4nc(c(-c5c(F)c(F)c(F)c(F)c5F)c5ccc([nH]5)c(-c5c(F)c(F)c(F)c(F)c5F)c5nc(c(-c6c(F)c(F)c(F)c(F)c6F)c6ccc3[nH]6)C=C5)C=C4)cc2)CC1
REMARK SMILES IDX 12 1 11 2 10 3 8 4 9 5 7 6 82 7 83 8 6 9 4 10 3 11 2 12 1 13
REMARK SMILES IDX 5 14 13 16 14 17 15 18 16 19 17 20 18 21 19 22 20 23 81 24
REMARK SMILES IDX 21 25 80 26 22 27 23 28 24 29 74 30 25 31 79 32 73 33 75 34
REMARK SMILES IDX 26 35 78 36 72 37 71 38 27 40 59 41 39 42 58 43 40 44 43 45
REMARK SMILES IDX 57 46 76 47 41 48 42 49 56 51 77 52 44 53 28 54 29 55 37 56
REMARK SMILES IDX 30 57 31 58 35 59 38 60 32 61 33 62 36 63 34 64 60 65 61 66
REMARK SMILES IDX 69 67 62 68 63 69 67 70 70 71 64 72 65 73 68 74 66 75 45 76
REMARK SMILES IDX 46 77 54 78 47 79 48 80 52 81 55 82 49 83 50 84 53 85 51 86
REMARK H PARENT 5 15 75 39 43 50
REMARK Flexibility Score: inf
ROOT
ATOM      1  C   UNL A   1      43.771  18.639  25.841  1.00  0.00     0.202 C 
ENDROOT
BRANCH   1   2
ATOM      2  C   UNL A   1      44.430  19.291  24.621  1.00  0.00     0.261 C 
BRANCH   2   3
ATOM      3  O   UNL A   1      44.159  20.697  24.604  1.00  0.00    -0.463 OA
BRANCH   3   4
ATOM      4  C   UNL A   1      45.079  21.466  25.241  1.00  0.00     0.312 C 
ATOM      5  O   UNL A   1      46.281  21.260  25.304  1.00  0.00    -0.252 OA
BRANCH   4   6
ATOM      6  C   UNL A   1      44.475  22.747  25.760  1.00  0.00     0.071 C 
ATOM      7  C   UNL A   1      43.115  23.113  25.174  1.00  0.00     0.020 C 
ATOM      8  C   UNL A   1      44.311  23.930  24.804  1.00  0.00     0.020 C 
BRANCH   6   9
ATOM      9  C   UNL A   1      44.666  22.960  27.273  1.00  0.00     0.053 C 
BRANCH   9  10
ATOM     10  C   UNL A   1      43.396  23.015  28.142  1.00  0.00     0.141 C 
BRANCH  10  11
ATOM     11  C   UNL A   1      43.666  23.841  29.425  1.00  0.00     0.191 C 
BRANCH  11  12
ATOM     12  O   UNL A   1      43.794  23.075  30.624  1.00  0.00    -0.382 OA
ATOM     13  C   UNL A   1      44.303  23.788  31.736  1.00  0.00     0.195 C 
ENDBRANCH  11  12
ENDBRANCH  10  11
BRANCH  10  14
ATOM     14  O   UNL A   1      43.007  21.689  28.510  1.00  0.00    -0.391 OA
ATOM     15  H   UNL A   1      42.667  21.694  29.420  1.00  0.00     0.211 HD
ENDBRANCH  10  14
ENDBRANCH   9  10
ENDBRANCH   6   9
ENDBRANCH   4   6
ENDBRANCH   3   4
ENDBRANCH   2   3
ENDBRANCH   1   2
BRANCH   1  16
ATOM     16  O   UNL A   1      42.963  19.475  26.669  1.00  0.00    -0.374 OA
BRANCH  16  17
ATOM     17  C   UNL A   1      41.577  19.167  26.798  1.00  0.00     0.202 C 
BRANCH  17  18
ATOM     18  C   UNL A   1      40.556  20.113  26.153  1.00  0.00     0.261 C 
BRANCH  18  19
ATOM     19  O   UNL A   1      40.532  21.417  26.750  1.00  0.00    -0.460 OA
BRANCH  19  20
ATOM     20  C   UNL A   1      39.473  22.181  26.383  1.00  0.00     0.338 C 
ATOM     21  O   UNL A   1      38.426  21.812  25.881  1.00  0.00    -0.246 OA
BRANCH  20  22
ATOM     22  C   UNL A   1      39.685  23.565  26.840  1.00  0.00     0.060 A 
ATOM     23  C   UNL A   1      39.772  24.569  25.866  1.00  0.00     0.016 A 
ATOM     24  C   UNL A   1      39.879  23.857  28.190  1.00  0.00     0.016 A 
ATOM     25  C   UNL A   1      40.094  25.872  26.237  1.00  0.00     0.010 A 
ATOM     26  C   UNL A   1      40.216  25.160  28.558  1.00  0.00     0.010 A 
ATOM     27  C   UNL A   1      40.358  26.163  27.581  1.00  0.00    -0.014 A 
BRANCH  27  28
ATOM     28  C   UNL A   1      40.958  27.462  27.953  1.00  0.00     0.031 A 
ATOM     29  C   UNL A   1      42.442  27.634  27.798  1.00  0.00     0.074 A 
ATOM     30  C   UNL A   1      40.199  28.462  28.432  1.00  0.00     0.049 A 
ATOM     31  N   UNL A   1      43.210  28.621  28.175  1.00  0.00    -0.248 NA
ATOM     32  C   UNL A   1      43.157  26.534  27.129  1.00  0.00     0.031 C 
ATOM     33  C   UNL A   1      38.746  28.425  28.572  1.00  0.00     0.029 A 
ATOM     34  N   UNL A   1      40.555  29.698  28.909  1.00  0.00    -0.354 N 
ATOM     35  C   UNL A   1      44.498  28.255  27.809  1.00  0.00     0.074 A 
ATOM     36  C   UNL A   1      44.413  26.947  27.197  1.00  0.00     0.031 C 
ATOM     37  C   UNL A   1      38.334  29.580  29.124  1.00  0.00     0.029 A 
ATOM     38  C   UNL A   1      39.498  30.415  29.411  1.00  0.00     0.049 A 
ATOM     39  H   UNL A   1      41.479  30.039  28.890  1.00  0.00     0.167 HD
ATOM     40  C   UNL A   1      45.647  28.952  27.968  1.00  0.00     0.037 A 
ATOM     41  C   UNL A   1      39.485  31.594  30.063  1.00  0.00     0.037 A 
ATOM     42  C   UNL A   1      45.719  30.253  28.577  1.00  0.00     0.049 A 
ATOM     43  C   UNL A   1      40.787  32.318  30.298  1.00  0.00     0.074 A 
ATOM     44  C   UNL A   1      46.830  31.052  28.781  1.00  0.00     0.029 A 
ATOM     45  N   UNL A   1      44.628  30.944  29.087  1.00  0.00    -0.354 N 
ATOM     46  N   UNL A   1      42.002  31.972  29.944  1.00  0.00    -0.248 NA
ATOM     47  C   UNL A   1      40.717  33.593  31.025  1.00  0.00     0.031 C 
ATOM     48  C   UNL A   1      46.419  32.203  29.460  1.00  0.00     0.029 A 
ATOM     49  C   UNL A   1      45.043  32.150  29.625  1.00  0.00     0.049 A 
ATOM     50  H   UNL A   1      43.698  30.623  29.068  1.00  0.00     0.167 HD
ATOM     51  C   UNL A   1      42.832  33.002  30.366  1.00  0.00     0.074 A 
ATOM     52  C   UNL A   1      41.983  33.986  31.006  1.00  0.00     0.031 C 
ATOM     53  C   UNL A   1      44.176  33.126  30.233  1.00  0.00     0.037 A 
BRANCH  40  54
ATOM     54  C   UNL A   1      46.921  28.306  27.508  1.00  0.00     0.064 A 
ATOM     55  C   UNL A   1      47.358  28.393  26.178  1.00  0.00     0.173 A 
ATOM     56  C   UNL A   1      47.729  27.606  28.419  1.00  0.00     0.173 A 
ATOM     57  F   UNL A   1      46.615  29.036  25.265  1.00  0.00    -0.203 F 
ATOM     58  C   UNL A   1      48.542  27.782  25.771  1.00  0.00     0.198 A 
ATOM     59  C   UNL A   1      48.926  27.024  28.015  1.00  0.00     0.198 A 
ATOM     60  F   UNL A   1      47.358  27.494  29.704  1.00  0.00    -0.203 F 
ATOM     61  F   UNL A   1      48.914  27.836  24.485  1.00  0.00    -0.200 F 
ATOM     62  C   UNL A   1      49.328  27.104  26.691  1.00  0.00     0.200 A 
ATOM     63  F   UNL A   1      49.690  26.378  28.908  1.00  0.00    -0.200 F 
ATOM     64  F   UNL A   1      50.469  26.522  26.299  1.00  0.00    -0.200 F 
ENDBRANCH  40  54
BRANCH  41  65
ATOM     65  C   UNL A   1      38.200  32.156  30.554  1.00  0.00     0.064 A 
ATOM     66  C   UNL A   1      37.447  33.036  29.764  1.00  0.00     0.173 A 
ATOM     67  C   UNL A   1      37.704  31.836  31.827  1.00  0.00     0.173 A 
ATOM     68  F   UNL A   1      37.892  33.391  28.550  1.00  0.00    -0.203 F 
ATOM     69  C   UNL A   1      36.256  33.586  30.234  1.00  0.00     0.198 A 
ATOM     70  C   UNL A   1      36.498  32.363  32.284  1.00  0.00     0.198 A 
ATOM     71  F   UNL A   1      38.386  31.000  32.624  1.00  0.00    -0.203 F 
ATOM     72  F   UNL A   1      35.580  34.458  29.475  1.00  0.00    -0.200 F 
ATOM     73  C   UNL A   1      35.779  33.244  31.490  1.00  0.00     0.200 A 
ATOM     74  F   UNL A   1      36.035  32.021  33.494  1.00  0.00    -0.200 F 
ATOM     75  F   UNL A   1      34.631  33.770  31.940  1.00  0.00    -0.200 F 
ENDBRANCH  41  65
BRANCH  53  76
ATOM     76  C   UNL A   1      44.811  34.393  30.726  1.00  0.00     0.064 A 
ATOM     77  C   UNL A   1      44.907  35.536  29.920  1.00  0.00     0.173 A 
ATOM     78  C   UNL A   1      45.259  34.484  32.054  1.00  0.00     0.173 A 
ATOM     79  F   UNL A   1      44.506  35.496  28.641  1.00  0.00    -0.203 F 
ATOM     80  C   UNL A   1      45.441  36.721  30.421  1.00  0.00     0.198 A 
ATOM     81  C   UNL A   1      45.764  35.678  32.560  1.00  0.00     0.198 A 
ATOM     82  F   UNL A   1      45.181  33.421  32.868  1.00  0.00    -0.203 F 
ATOM     83  F   UNL A   1      45.554  37.792  29.624  1.00  0.00    -0.200 F 
ATOM     84  C   UNL A   1      45.857  36.793  31.743  1.00  0.00     0.200 A 
ATOM     85  F   UNL A   1      46.151  35.750  33.841  1.00  0.00    -0.200 F 
ATOM     86  F   UNL A   1      46.353  37.940  32.228  1.00  0.00    -0.200 F 
ENDBRANCH  53  76
ENDBRANCH  27  28
ENDBRANCH  20  22
ENDBRANCH  19  20
ENDBRANCH  18  19
ENDBRANCH  17  18
ENDBRANCH  16  17
ENDBRANCH   1  16
TORSDOF 19
ENDMDL
MODEL 3
REMARK VINA RESULT:      -8.4      4.603      8.422
REMARK SMILES COC[C@H](O)CC1(C(=O)OCCOCCOC(=O)c2ccc(-c3c4nc(c(-c5c(F)c(F)c(F)c(F)c5F)c5ccc([nH]5)c(-c5c(F)c(F)c(F)c(F)c5F)c5nc(c(-c6c(F)c(F)c(F)c(F)c6F)c6ccc3[nH]6)C=C5)C=C4)cc2)CC1
REMARK SMILES IDX 12 1 11 2 10 3 8 4 9 5 7 6 82 7 83 8 6 9 4 10 3 11 2 12 1 13
REMARK SMILES IDX 5 14 13 16 14 17 15 18 16 19 17 20 18 21 19 22 20 23 81 24
REMARK SMILES IDX 21 25 80 26 22 27 23 28 24 29 74 30 25 31 79 32 73 33 75 34
REMARK SMILES IDX 26 35 78 36 72 37 71 38 27 40 59 41 39 42 58 43 40 44 43 45
REMARK SMILES IDX 57 46 76 47 41 48 42 49 56 51 77 52 44 53 28 54 29 55 37 56
REMARK SMILES IDX 30 57 31 58 35 59 38 60 32 61 33 62 36 63 34 64 60 65 61 66
REMARK SMILES IDX 69 67 62 68 63 69 67 70 70 71 64 72 65 73 68 74 66 75 45 76
REMARK SMILES IDX 46 77 54 78 47 79 48 80 52 81 55 82 49 83 50 84 53 85 51 86
REMARK H PARENT 5 15 75 39 43 50
REMARK Flexibility Score: inf
ROOT
ATOM      1  C   UNL A   1      35.361  23.967  25.267  1.00  0.00     0.202 C 
ENDROOT
BRANCH   1   2
ATOM      2  C   UNL A   1      35.029  23.784  23.783  1.00  0.00     0.261 C 
BRANCH   2   3
ATOM      3  O   UNL A   1      33.683  24.194  23.521  1.00  0.00    -0.463 OA
BRANCH   3   4
ATOM      4  C   UNL A   1      33.560  25.370  22.855  1.00  0.00     0.312 C 
ATOM      5  O   UNL A   1      33.788  25.561  21.670  1.00  0.00    -0.252 OA
BRANCH   4   6
ATOM      6  C   UNL A   1      32.938  26.440  23.716  1.00  0.00     0.071 C 
ATOM      7  C   UNL A   1      32.704  27.780  23.025  1.00  0.00     0.020 C 
ATOM      8  C   UNL A   1      33.765  27.676  24.073  1.00  0.00     0.020 C 
BRANCH   6   9
ATOM      9  C   UNL A   1      31.822  25.926  24.645  1.00  0.00     0.053 C 
BRANCH   9  10
ATOM     10  C   UNL A   1      32.154  25.807  26.143  1.00  0.00     0.141 C 
BRANCH  10  11
ATOM     11  C   UNL A   1      32.012  24.334  26.603  1.00  0.00     0.191 C 
BRANCH  11  12
ATOM     12  O   UNL A   1      30.781  24.018  27.255  1.00  0.00    -0.382 OA
ATOM     13  C   UNL A   1      30.111  22.880  26.744  1.00  0.00     0.195 C 
ENDBRANCH  11  12
ENDBRANCH  10  11
BRANCH  10  14
ATOM     14  O   UNL A   1      31.258  26.624  26.902  1.00  0.00    -0.391 OA
ATOM     15  H   UNL A   1      31.721  27.425  27.195  1.00  0.00     0.211 HD
ENDBRANCH  10  14
ENDBRANCH   9  10
ENDBRANCH   6   9
ENDBRANCH   4   6
ENDBRANCH   3   4
ENDBRANCH   2   3
ENDBRANCH   1   2
BRANCH   1  16
ATOM     16  O   UNL A   1      35.714  22.798  26.004  1.00  0.00    -0.374 OA
BRANCH  16  17
ATOM     17  C   UNL A   1      35.699  21.540  25.332  1.00  0.00     0.202 C 
BRANCH  17  18
ATOM     18  C   UNL A   1      37.040  20.875  24.997  1.00  0.00     0.261 C 
BRANCH  18  19
ATOM     19  O   UNL A   1      38.155  21.773  25.074  1.00  0.00    -0.460 OA
BRANCH  19  20
ATOM     20  C   UNL A   1      39.090  21.427  25.994  1.00  0.00     0.338 C 
ATOM     21  O   UNL A   1      39.556  20.321  26.203  1.00  0.00    -0.246 OA
BRANCH  20  22
ATOM     22  C   UNL A   1      39.624  22.641  26.632  1.00  0.00     0.060 A 
ATOM     23  C   UNL A   1      39.146  23.881  26.183  1.00  0.00     0.016 A 
ATOM     24  C   UNL A   1      40.635  22.568  27.590  1.00  0.00     0.016 A 
ATOM     25  C   UNL A   1      39.707  25.060  26.667  1.00  0.00     0.010 A 
ATOM     26  C   UNL A   1      41.207  23.750  28.062  1.00  0.00     0.010 A 
ATOM     27  C   UNL A   1      40.769  24.997  27.577  1.00  0.00    -0.014 A 
BRANCH  27  28
ATOM     28  C   UNL A   1      41.548  26.215  27.891  1.00  0.00     0.031 A 
ATOM     29  C   UNL A   1      40.871  27.317  28.654  1.00  0.00     0.074 A 
ATOM     30  C   UNL A   1      42.824  26.340  27.493  1.00  0.00     0.049 A 
ATOM     31  N   UNL A   1      41.297  28.521  28.932  1.00  0.00    -0.248 NA
ATOM     32  C   UNL A   1      39.524  27.020  29.170  1.00  0.00     0.031 C 
ATOM     33  C   UNL A   1      43.596  25.314  26.797  1.00  0.00     0.029 A 
ATOM     34  N   UNL A   1      43.689  27.399  27.603  1.00  0.00    -0.354 N 
ATOM     35  C   UNL A   1      40.267  29.131  29.635  1.00  0.00     0.074 A 
ATOM     36  C   UNL A   1      39.187  28.173  29.725  1.00  0.00     0.031 C 
ATOM     37  C   UNL A   1      44.817  25.803  26.518  1.00  0.00     0.029 A 
ATOM     38  C   UNL A   1      44.894  27.187  26.980  1.00  0.00     0.049 A 
ATOM     39  H   UNL A   1      43.468  28.230  28.083  1.00  0.00     0.167 HD
ATOM     40  C   UNL A   1      40.231  30.378  30.159  1.00  0.00     0.037 A 
ATOM     41  C   UNL A   1      45.923  28.033  26.777  1.00  0.00     0.037 A 
ATOM     42  C   UNL A   1      41.312  31.321  30.064  1.00  0.00     0.049 A 
ATOM     43  C   UNL A   1      45.829  29.443  27.302  1.00  0.00     0.074 A 
ATOM     44  C   UNL A   1      41.384  32.607  30.566  1.00  0.00     0.029 A 
ATOM     45  N   UNL A   1      42.514  31.075  29.414  1.00  0.00    -0.354 N 
ATOM     46  N   UNL A   1      44.857  30.014  27.973  1.00  0.00    -0.248 NA
ATOM     47  C   UNL A   1      46.974  30.328  27.042  1.00  0.00     0.031 C 
ATOM     48  C   UNL A   1      42.609  33.159  30.176  1.00  0.00     0.029 A 
ATOM     49  C   UNL A   1      43.325  32.195  29.483  1.00  0.00     0.049 A 
ATOM     50  H   UNL A   1      42.754  30.230  28.970  1.00  0.00     0.167 HD
ATOM     51  C   UNL A   1      45.287  31.305  28.249  1.00  0.00     0.074 A 
ATOM     52  C   UNL A   1      46.609  31.436  27.672  1.00  0.00     0.031 C 
ATOM     53  C   UNL A   1      44.649  32.293  28.924  1.00  0.00     0.037 A 
BRANCH  40  54
ATOM     54  C   UNL A   1      38.969  30.803  30.850  1.00  0.00     0.064 A 
ATOM     55  C   UNL A   1      37.883  31.343  30.145  1.00  0.00     0.173 A 
ATOM     56  C   UNL A   1      38.835  30.646  32.239  1.00  0.00     0.173 A 
ATOM     57  F   UNL A   1      37.966  31.529  28.819  1.00  0.00    -0.203 F 
ATOM     58  C   UNL A   1      36.722  31.736  30.806  1.00  0.00     0.198 A 
ATOM     59  C   UNL A   1      37.661  31.011  32.893  1.00  0.00     0.198 A 
ATOM     60  F   UNL A   1      39.842  30.133  32.962  1.00  0.00    -0.203 F 
ATOM     61  F   UNL A   1      35.718  32.296  30.118  1.00  0.00    -0.200 F 
ATOM     62  C   UNL A   1      36.609  31.563  32.178  1.00  0.00     0.200 A 
ATOM     63  F   UNL A   1      37.550  30.833  34.217  1.00  0.00    -0.200 F 
ATOM     64  F   UNL A   1      35.489  31.935  32.812  1.00  0.00    -0.200 F 
ENDBRANCH  40  54
BRANCH  41  65
ATOM     65  C   UNL A   1      47.122  27.576  26.028  1.00  0.00     0.064 A 
ATOM     66  C   UNL A   1      48.220  27.015  26.695  1.00  0.00     0.173 A 
ATOM     67  C   UNL A   1      47.201  27.701  24.633  1.00  0.00     0.173 A 
ATOM     68  F   UNL A   1      48.202  26.897  28.030  1.00  0.00    -0.203 F 
ATOM     69  C   UNL A   1      49.357  26.611  25.997  1.00  0.00     0.198 A 
ATOM     70  C   UNL A   1      48.327  27.271  23.933  1.00  0.00     0.198 A 
ATOM     71  F   UNL A   1      46.179  28.233  23.946  1.00  0.00    -0.203 F 
ATOM     72  F   UNL A   1      50.409  26.119  26.665  1.00  0.00    -0.200 F 
ATOM     73  C   UNL A   1      49.407  26.734  24.617  1.00  0.00     0.200 A 
ATOM     74  F   UNL A   1      48.366  27.379  22.598  1.00  0.00    -0.200 F 
ATOM     75  F   UNL A   1      50.499  26.341  23.946  1.00  0.00    -0.200 F 
ENDBRANCH  41  65
BRANCH  53  76
ATOM     76  C   UNL A   1      45.388  33.581  29.137  1.00  0.00     0.064 A 
ATOM     77  C   UNL A   1      46.239  33.774  30.234  1.00  0.00     0.173 A 
ATOM     78  C   UNL A   1      45.300  34.608  28.182  1.00  0.00     0.173 A 
ATOM     79  F   UNL A   1      46.346  32.830  31.180  1.00  0.00    -0.203 F 
ATOM     80  C   UNL A   1      46.966  34.955  30.375  1.00  0.00     0.198 A 
ATOM     81  C   UNL A   1      46.050  35.772  28.311  1.00  0.00     0.198 A 
ATOM     82  F   UNL A   1      44.506  34.468  27.111  1.00  0.00    -0.203 F 
ATOM     83  F   UNL A   1      47.748  35.132  31.449  1.00  0.00    -0.200 F 
ATOM     84  C   UNL A   1      46.879  35.946  29.409  1.00  0.00     0.200 A 
ATOM     85  F   UNL A   1      45.978  36.722  27.368  1.00  0.00    -0.200 F 
ATOM     86  F   UNL A   1      47.594  37.073  29.537  1.00  0.00    -0.200 F 
ENDBRANCH  53  76
ENDBRANCH  27  28
ENDBRANCH  20  22
ENDBRANCH  19  20
ENDBRANCH  18  19
ENDBRANCH  17  18
ENDBRANCH  16  17
ENDBRANCH   1  16
TORSDOF 19
ENDMDL
