MODEL 1
REMARK VINA RESULT:     -11.4      0.000      0.000
REMARK SMILES C[C@@H](C(=O)OCCOCCOC(=O)c1ccc(-c2c3nc(c(-c4c(F)c(F)c(F)c(F)c4F)c4ccc([nH]4)c(-c4c(F)c(F)c(F)c(F)c4F)c4nc(c(-c5c(F)c(F)c(F)c(F)c5F)c5ccc2[nH]5)C=C4)C=C3)cc1)N1C(=O)/C(=C/c2ccc(-c3ccc([N+](=O)[O-])cc3Cl)o2)SC1=S
REMARK SMILES IDX 7 1 6 2 5 3 3 4 4 5 2 6 1 7 77 8 78 9 98 10 79 11 80 12
REMARK SMILES IDX 97 13 99 14 81 15 82 16 83 17 96 18 84 19 85 20 86 21 87 22
REMARK SMILES IDX 94 23 88 24 93 25 95 26 89 27 90 28 91 29 92 30 8 31 9 32
REMARK SMILES IDX 10 33 11 34 12 35 13 36 14 37 15 38 76 39 16 40 75 41 17 42
REMARK SMILES IDX 18 43 19 44 69 45 20 46 74 47 68 48 70 49 21 50 73 51 67 52
REMARK SMILES IDX 66 53 22 55 54 56 34 57 53 58 35 59 38 60 52 61 71 62 36 63
REMARK SMILES IDX 37 64 51 66 72 67 39 68 23 69 24 70 32 71 25 72 26 73 30 74
REMARK SMILES IDX 33 75 27 76 28 77 31 78 29 79 55 80 56 81 64 82 57 83 58 84
REMARK SMILES IDX 62 85 65 86 59 87 60 88 63 89 61 90 40 91 41 92 49 93 42 94
REMARK SMILES IDX 43 95 47 96 50 97 44 98 45 99 48 100 46 101
REMARK H PARENT 70 54 38 65
REMARK Flexibility Score: inf
ROOT
ATOM      1  C   UNL A   1      31.728  27.198  25.661  1.00  0.00     0.202 C 
ENDROOT
BRANCH   1   2
ATOM      2  C   UNL A   1      31.336  25.846  25.058  1.00  0.00     0.261 C 
BRANCH   2   3
ATOM      3  O   UNL A   1      31.743  24.727  25.864  1.00  0.00    -0.462 OA
BRANCH   3   4
ATOM      4  C   UNL A   1      31.557  23.508  25.282  1.00  0.00     0.329 C 
ATOM      5  O   UNL A   1      30.656  22.732  25.587  1.00  0.00    -0.250 OA
BRANCH   4   6
ATOM      6  C   UNL A   1      32.647  23.177  24.247  1.00  0.00     0.199 C 
ATOM      7  C   UNL A   1      32.284  22.003  23.333  1.00  0.00     0.044 C 
BRANCH   6   8
ATOM      8  N   UNL A   1      33.916  23.022  25.005  1.00  0.00    -0.279 N 
ATOM      9  C   UNL A   1      34.877  24.021  25.035  1.00  0.00     0.267 C 
ATOM     10  C   UNL A   1      34.303  21.804  25.545  1.00  0.00     0.149 C 
ATOM     11  O   UNL A   1      34.797  25.131  24.524  1.00  0.00    -0.268 OA
ATOM     12  C   UNL A   1      36.103  23.554  25.740  1.00  0.00     0.084 C 
ATOM     13  S   UNL A   1      35.983  21.873  26.059  1.00  0.00    -0.054 SA
ATOM     14  S   UNL A   1      33.393  20.415  25.739  1.00  0.00    -0.052 S 
ATOM     15  C   UNL A   1      37.118  24.377  26.038  1.00  0.00     0.068 C 
BRANCH  15  16
ATOM     16  C   UNL A   1      38.360  23.895  26.532  1.00  0.00     0.128 A 
ATOM     17  C   UNL A   1      39.148  24.467  27.524  1.00  0.00     0.051 A 
ATOM     18  O   UNL A   1      38.995  22.750  26.098  1.00  0.00    -0.457 OA
ATOM     19  C   UNL A   1      40.299  23.670  27.676  1.00  0.00     0.051 A 
ATOM     20  C   UNL A   1      40.179  22.643  26.768  1.00  0.00     0.136 A 
BRANCH  20  21
ATOM     21  C   UNL A   1      41.051  21.520  26.443  1.00  0.00     0.036 A 
ATOM     22  C   UNL A   1      40.747  20.265  27.006  1.00  0.00     0.020 A 
ATOM     23  C   UNL A   1      42.233  21.648  25.690  1.00  0.00     0.058 A 
ATOM     24  C   UNL A   1      41.603  19.171  26.847  1.00  0.00     0.086 A 
ATOM     25  C   UNL A   1      43.098  20.556  25.525  1.00  0.00     0.106 A 
ATOM     26  Cl  UNL A   1      42.731  23.152  24.994  1.00  0.00    -0.083 Cl
ATOM     27  C   UNL A   1      42.784  19.326  26.116  1.00  0.00     0.270 A 
BRANCH  27  28
ATOM     28  N   UNL A   1      43.717  18.198  25.995  1.00  0.00     0.062 N 
ATOM     29  O   UNL A   1      43.684  17.328  26.877  1.00  0.00    -0.258 OA
ATOM     30  O   UNL A   1      44.486  18.189  25.025  1.00  0.00    -0.258 OA
ENDBRANCH  27  28
ENDBRANCH  20  21
ENDBRANCH  15  16
ENDBRANCH   6   8
ENDBRANCH   4   6
ENDBRANCH   3   4
ENDBRANCH   2   3
ENDBRANCH   1   2
BRANCH   1  31
ATOM     31  O   UNL A   1      31.741  28.318  24.782  1.00  0.00    -0.374 OA
BRANCH  31  32
ATOM     32  C   UNL A   1      31.565  29.612  25.361  1.00  0.00     0.202 C 
BRANCH  32  33
ATOM     33  C   UNL A   1      32.141  29.813  26.766  1.00  0.00     0.261 C 
BRANCH  33  34
ATOM     34  O   UNL A   1      33.567  30.016  26.728  1.00  0.00    -0.460 OA
BRANCH  34  35
ATOM     35  C   UNL A   1      34.002  31.118  27.379  1.00  0.00     0.338 C 
ATOM     36  O   UNL A   1      33.365  32.135  27.626  1.00  0.00    -0.246 OA
BRANCH  35  37
ATOM     37  C   UNL A   1      35.343  30.881  27.947  1.00  0.00     0.060 A 
ATOM     38  C   UNL A   1      35.625  29.588  28.408  1.00  0.00     0.016 A 
ATOM     39  C   UNL A   1      36.277  31.907  28.099  1.00  0.00     0.016 A 
ATOM     40  C   UNL A   1      36.815  29.331  29.082  1.00  0.00     0.010 A 
ATOM     41  C   UNL A   1      37.469  31.650  28.785  1.00  0.00     0.010 A 
ATOM     42  C   UNL A   1      37.724  30.371  29.315  1.00  0.00    -0.014 A 
BRANCH  42  43
ATOM     43  C   UNL A   1      38.850  30.151  30.255  1.00  0.00     0.031 A 
ATOM     44  C   UNL A   1      40.037  29.353  29.791  1.00  0.00     0.074 A 
ATOM     45  C   UNL A   1      38.839  30.691  31.486  1.00  0.00     0.049 A 
ATOM     46  N   UNL A   1      41.123  29.021  30.442  1.00  0.00    -0.248 NA
ATOM     47  C   UNL A   1      39.994  28.865  28.403  1.00  0.00     0.031 C 
ATOM     48  C   UNL A   1      37.767  31.518  32.035  1.00  0.00     0.029 A 
ATOM     49  N   UNL A   1      39.763  30.618  32.498  1.00  0.00    -0.354 N 
ATOM     50  C   UNL A   1      41.889  28.287  29.545  1.00  0.00     0.074 A 
ATOM     51  C   UNL A   1      41.132  28.191  28.317  1.00  0.00     0.031 C 
ATOM     52  C   UNL A   1      38.088  31.867  33.292  1.00  0.00     0.029 A 
ATOM     53  C   UNL A   1      39.373  31.265  33.645  1.00  0.00     0.049 A 
ATOM     54  H   UNL A   1      40.623  30.147  32.411  1.00  0.00     0.167 HD
ATOM     55  C   UNL A   1      43.120  27.750  29.728  1.00  0.00     0.037 A 
ATOM     56  C   UNL A   1      39.978  31.342  34.846  1.00  0.00     0.037 A 
ATOM     57  C   UNL A   1      43.873  27.843  30.950  1.00  0.00     0.049 A 
ATOM     58  C   UNL A   1      41.315  30.676  35.047  1.00  0.00     0.074 A 
ATOM     59  C   UNL A   1      45.131  27.341  31.230  1.00  0.00     0.029 A 
ATOM     60  N   UNL A   1      43.431  28.481  32.100  1.00  0.00    -0.354 N 
ATOM     61  N   UNL A   1      42.040  30.001  34.189  1.00  0.00    -0.248 NA
ATOM     62  C   UNL A   1      41.918  30.789  36.383  1.00  0.00     0.031 C 
ATOM     63  C   UNL A   1      45.432  27.633  32.565  1.00  0.00     0.029 A 
ATOM     64  C   UNL A   1      44.382  28.363  33.101  1.00  0.00     0.049 A 
ATOM     65  H   UNL A   1      42.569  28.948  32.192  1.00  0.00     0.167 HD
ATOM     66  C   UNL A   1      43.194  29.631  34.871  1.00  0.00     0.074 A 
ATOM     67  C   UNL A   1      43.078  30.170  36.210  1.00  0.00     0.031 C 
ATOM     68  C   UNL A   1      44.254  28.911  34.427  1.00  0.00     0.037 A 
BRANCH  55  69
ATOM     69  C   UNL A   1      43.719  26.991  28.581  1.00  0.00     0.064 A 
ATOM     70  C   UNL A   1      44.376  27.645  27.528  1.00  0.00     0.173 A 
ATOM     71  C   UNL A   1      43.663  25.588  28.550  1.00  0.00     0.173 A 
ATOM     72  F   UNL A   1      44.443  28.984  27.503  1.00  0.00    -0.203 F 
ATOM     73  C   UNL A   1      44.934  26.924  26.475  1.00  0.00     0.198 A 
ATOM     74  C   UNL A   1      44.247  24.871  27.510  1.00  0.00     0.198 A 
ATOM     75  F   UNL A   1      43.049  24.914  29.534  1.00  0.00    -0.203 F 
ATOM     76  F   UNL A   1      45.518  27.573  25.458  1.00  0.00    -0.200 F 
ATOM     77  C   UNL A   1      44.877  25.539  26.470  1.00  0.00     0.200 A 
ATOM     78  F   UNL A   1      44.199  23.532  27.513  1.00  0.00    -0.200 F 
ATOM     79  F   UNL A   1      45.420  24.847  25.459  1.00  0.00    -0.200 F 
ENDBRANCH  55  69
BRANCH  56  80
ATOM     80  C   UNL A   1      39.316  32.067  35.963  1.00  0.00     0.064 A 
ATOM     81  C   UNL A   1      38.409  31.420  36.811  1.00  0.00     0.173 A 
ATOM     82  C   UNL A   1      39.568  33.428  36.191  1.00  0.00     0.173 A 
ATOM     83  F   UNL A   1      38.115  30.126  36.615  1.00  0.00    -0.203 F 
ATOM     84  C   UNL A   1      37.764  32.110  37.835  1.00  0.00     0.198 A 
ATOM     85  C   UNL A   1      38.944  34.110  37.233  1.00  0.00     0.198 A 
ATOM     86  F   UNL A   1      40.427  34.094  35.406  1.00  0.00    -0.203 F 
ATOM     87  F   UNL A   1      36.866  31.479  38.604  1.00  0.00    -0.200 F 
ATOM     88  C   UNL A   1      38.037  33.454  38.050  1.00  0.00     0.200 A 
ATOM     89  F   UNL A   1      39.220  35.405  37.443  1.00  0.00    -0.200 F 
ATOM     90  F   UNL A   1      37.419  34.116  39.037  1.00  0.00    -0.200 F 
ENDBRANCH  56  80
BRANCH  68  91
ATOM     91  C   UNL A   1      45.389  28.691  35.386  1.00  0.00     0.064 A 
ATOM     92  C   UNL A   1      46.428  29.623  35.524  1.00  0.00     0.173 A 
ATOM     93  C   UNL A   1      45.411  27.555  36.209  1.00  0.00     0.173 A 
ATOM     94  F   UNL A   1      46.459  30.718  34.750  1.00  0.00    -0.203 F 
ATOM     95  C   UNL A   1      47.460  29.412  36.434  1.00  0.00     0.198 A 
ATOM     96  C   UNL A   1      46.429  27.362  37.138  1.00  0.00     0.198 A 
ATOM     97  F   UNL A   1      44.435  26.638  36.121  1.00  0.00    -0.203 F 
ATOM     98  F   UNL A   1      48.467  30.293  36.517  1.00  0.00    -0.200 F 
ATOM     99  C   UNL A   1      47.456  28.287  37.245  1.00  0.00     0.200 A 
ATOM    100  F   UNL A   1      46.416  26.282  37.930  1.00  0.00    -0.200 F 
ATOM    101  F   UNL A   1      48.447  28.090  38.125  1.00  0.00    -0.200 F 
ENDBRANCH  68  91
ENDBRANCH  42  43
ENDBRANCH  35  37
ENDBRANCH  34  35
ENDBRANCH  33  34
ENDBRANCH  32  33
ENDBRANCH  31  32
ENDBRANCH   1  31
TORSDOF 18
ENDMDL
MODEL 2
REMARK VINA RESULT:     -11.3      0.920      6.914
REMARK SMILES C[C@@H](C(=O)OCCOCCOC(=O)c1ccc(-c2c3nc(c(-c4c(F)c(F)c(F)c(F)c4F)c4ccc([nH]4)c(-c4c(F)c(F)c(F)c(F)c4F)c4nc(c(-c5c(F)c(F)c(F)c(F)c5F)c5ccc2[nH]5)C=C4)C=C3)cc1)N1C(=O)/C(=C/c2ccc(-c3ccc([N+](=O)[O-])cc3Cl)o2)SC1=S
REMARK SMILES IDX 7 1 6 2 5 3 3 4 4 5 2 6 1 7 77 8 78 9 98 10 79 11 80 12
REMARK SMILES IDX 97 13 99 14 81 15 82 16 83 17 96 18 84 19 85 20 86 21 87 22
REMARK SMILES IDX 94 23 88 24 93 25 95 26 89 27 90 28 91 29 92 30 8 31 9 32
REMARK SMILES IDX 10 33 11 34 12 35 13 36 14 37 15 38 76 39 16 40 75 41 17 42
REMARK SMILES IDX 18 43 19 44 69 45 20 46 74 47 68 48 70 49 21 50 73 51 67 52
REMARK SMILES IDX 66 53 22 55 54 56 34 57 53 58 35 59 38 60 52 61 71 62 36 63
REMARK SMILES IDX 37 64 51 66 72 67 39 68 23 69 24 70 32 71 25 72 26 73 30 74
REMARK SMILES IDX 33 75 27 76 28 77 31 78 29 79 55 80 56 81 64 82 57 83 58 84
REMARK SMILES IDX 62 85 65 86 59 87 60 88 63 89 61 90 40 91 41 92 49 93 42 94
REMARK SMILES IDX 43 95 47 96 50 97 44 98 45 99 48 100 46 101
REMARK H PARENT 70 54 38 65
REMARK Flexibility Score: inf
ROOT
ATOM      1  C   UNL A   1      31.384  27.071  24.848  1.00  0.00     0.202 C 
ENDROOT
BRANCH   1   2
ATOM      2  C   UNL A   1      31.026  25.617  24.525  1.00  0.00     0.261 C 
BRANCH   2   3
ATOM      3  O   UNL A   1      31.464  24.689  25.533  1.00  0.00    -0.462 OA
BRANCH   3   4
ATOM      4  C   UNL A   1      31.454  23.382  25.146  1.00  0.00     0.329 C 
ATOM      5  O   UNL A   1      30.696  22.535  25.610  1.00  0.00    -0.250 OA
BRANCH   4   6
ATOM      6  C   UNL A   1      32.550  23.065  24.113  1.00  0.00     0.199 C 
ATOM      7  C   UNL A   1      32.202  21.887  23.197  1.00  0.00     0.044 C 
BRANCH   6   8
ATOM      8  N   UNL A   1      33.819  22.926  24.872  1.00  0.00    -0.279 N 
ATOM      9  C   UNL A   1      34.737  23.961  24.959  1.00  0.00     0.267 C 
ATOM     10  C   UNL A   1      34.254  21.699  25.354  1.00  0.00     0.149 C 
ATOM     11  O   UNL A   1      34.614  25.090  24.503  1.00  0.00    -0.268 OA
ATOM     12  C   UNL A   1      35.977  23.511  25.650  1.00  0.00     0.084 C 
ATOM     13  S   UNL A   1      35.926  21.813  25.885  1.00  0.00    -0.054 SA
ATOM     14  S   UNL A   1      33.402  20.266  25.472  1.00  0.00    -0.052 S 
ATOM     15  C   UNL A   1      36.955  24.360  25.997  1.00  0.00     0.068 C 
BRANCH  15  16
ATOM     16  C   UNL A   1      38.213  23.906  26.477  1.00  0.00     0.128 A 
ATOM     17  C   UNL A   1      38.964  24.453  27.510  1.00  0.00     0.051 A 
ATOM     18  O   UNL A   1      38.904  22.819  25.983  1.00  0.00    -0.457 OA
ATOM     19  C   UNL A   1      40.150  23.702  27.629  1.00  0.00     0.051 A 
ATOM     20  C   UNL A   1      40.085  22.726  26.660  1.00  0.00     0.136 A 
BRANCH  20  21
ATOM     21  C   UNL A   1      41.012  21.665  26.280  1.00  0.00     0.036 A 
ATOM     22  C   UNL A   1      40.719  20.353  26.700  1.00  0.00     0.020 A 
ATOM     23  C   UNL A   1      42.228  21.900  25.613  1.00  0.00     0.058 A 
ATOM     24  C   UNL A   1      41.618  19.304  26.487  1.00  0.00     0.086 A 
ATOM     25  C   UNL A   1      43.137  20.854  25.394  1.00  0.00     0.106 A 
ATOM     26  Cl  UNL A   1      42.714  23.478  25.096  1.00  0.00    -0.083 Cl
ATOM     27  C   UNL A   1      42.833  19.564  25.845  1.00  0.00     0.270 A 
BRANCH  27  28
ATOM     28  N   UNL A   1      43.808  18.479  25.670  1.00  0.00     0.062 N 
ATOM     29  O   UNL A   1      43.929  17.661  26.592  1.00  0.00    -0.258 OA
ATOM     30  O   UNL A   1      44.458  18.455  24.616  1.00  0.00    -0.258 OA
ENDBRANCH  27  28
ENDBRANCH  20  21
ENDBRANCH  15  16
ENDBRANCH   6   8
ENDBRANCH   4   6
ENDBRANCH   3   4
ENDBRANCH   2   3
ENDBRANCH   1   2
BRANCH   1  31
ATOM     31  O   UNL A   1      32.486  27.636  24.146  1.00  0.00    -0.374 OA
BRANCH  31  32
ATOM     32  C   UNL A   1      33.363  28.494  24.878  1.00  0.00     0.202 C 
BRANCH  32  33
ATOM     33  C   UNL A   1      32.699  29.530  25.790  1.00  0.00     0.261 C 
BRANCH  33  34
ATOM     34  O   UNL A   1      33.332  29.577  27.083  1.00  0.00    -0.460 OA
BRANCH  34  35
ATOM     35  C   UNL A   1      33.858  30.777  27.415  1.00  0.00     0.338 C 
ATOM     36  O   UNL A   1      33.261  31.838  27.552  1.00  0.00    -0.246 OA
BRANCH  35  37
ATOM     37  C   UNL A   1      35.278  30.627  27.788  1.00  0.00     0.060 A 
ATOM     38  C   UNL A   1      35.751  29.327  28.005  1.00  0.00     0.016 A 
ATOM     39  C   UNL A   1      36.111  31.729  27.997  1.00  0.00     0.016 A 
ATOM     40  C   UNL A   1      37.037  29.124  28.496  1.00  0.00     0.010 A 
ATOM     41  C   UNL A   1      37.401  31.524  28.498  1.00  0.00     0.010 A 
ATOM     42  C   UNL A   1      37.854  30.224  28.789  1.00  0.00    -0.014 A 
BRANCH  42  43
ATOM     43  C   UNL A   1      39.107  30.011  29.553  1.00  0.00     0.031 A 
ATOM     44  C   UNL A   1      39.208  30.562  30.949  1.00  0.00     0.074 A 
ATOM     45  C   UNL A   1      40.123  29.302  29.032  1.00  0.00     0.049 A 
ATOM     46  N   UNL A   1      40.208  30.513  31.793  1.00  0.00    -0.248 NA
ATOM     47  C   UNL A   1      38.019  31.261  31.463  1.00  0.00     0.031 C 
ATOM     48  C   UNL A   1      40.128  28.683  27.709  1.00  0.00     0.029 A 
ATOM     49  N   UNL A   1      41.351  28.987  29.558  1.00  0.00    -0.354 N 
ATOM     50  C   UNL A   1      39.769  31.173  32.934  1.00  0.00     0.074 A 
ATOM     51  C   UNL A   1      38.428  31.643  32.665  1.00  0.00     0.031 C 
ATOM     52  C   UNL A   1      41.309  28.071  27.520  1.00  0.00     0.029 A 
ATOM     53  C   UNL A   1      42.152  28.280  28.697  1.00  0.00     0.049 A 
ATOM     54  H   UNL A   1      41.631  29.243  30.467  1.00  0.00     0.167 HD
ATOM     55  C   UNL A   1      40.423  31.359  34.106  1.00  0.00     0.037 A 
ATOM     56  C   UNL A   1      43.427  27.868  28.837  1.00  0.00     0.037 A 
ATOM     57  C   UNL A   1      41.757  30.893  34.374  1.00  0.00     0.049 A 
ATOM     58  C   UNL A   1      44.159  28.150  30.124  1.00  0.00     0.074 A 
ATOM     59  C   UNL A   1      42.502  31.024  35.532  1.00  0.00     0.029 A 
ATOM     60  N   UNL A   1      42.549  30.207  33.464  1.00  0.00    -0.354 N 
ATOM     61  N   UNL A   1      43.731  28.757  31.204  1.00  0.00    -0.248 NA
ATOM     62  C   UNL A   1      45.550  27.683  30.212  1.00  0.00     0.031 C 
ATOM     63  C   UNL A   1      43.763  30.459  35.308  1.00  0.00     0.029 A 
ATOM     64  C   UNL A   1      43.784  29.929  34.027  1.00  0.00     0.049 A 
ATOM     65  H   UNL A   1      42.274  29.954  32.553  1.00  0.00     0.167 HD
ATOM     66  C   UNL A   1      44.787  28.722  32.107  1.00  0.00     0.074 A 
ATOM     67  C   UNL A   1      45.872  28.022  31.452  1.00  0.00     0.031 C 
ATOM     68  C   UNL A   1      44.852  29.225  33.365  1.00  0.00     0.037 A 
BRANCH  55  69
ATOM     69  C   UNL A   1      39.709  32.123  35.182  1.00  0.00     0.064 A 
ATOM     70  C   UNL A   1      39.806  33.519  35.282  1.00  0.00     0.173 A 
ATOM     71  C   UNL A   1      38.891  31.453  36.105  1.00  0.00     0.173 A 
ATOM     72  F   UNL A   1      40.587  34.204  34.434  1.00  0.00    -0.203 F 
ATOM     73  C   UNL A   1      39.129  34.213  36.283  1.00  0.00     0.198 A 
ATOM     74  C   UNL A   1      38.194  32.154  37.085  1.00  0.00     0.198 A 
ATOM     75  F   UNL A   1      38.761  30.118  36.050  1.00  0.00    -0.203 F 
ATOM     76  F   UNL A   1      39.272  35.541  36.387  1.00  0.00    -0.200 F 
ATOM     77  C   UNL A   1      38.318  33.532  37.178  1.00  0.00     0.200 A 
ATOM     78  F   UNL A   1      37.403  31.494  37.942  1.00  0.00    -0.200 F 
ATOM     79  F   UNL A   1      37.663  34.202  38.135  1.00  0.00    -0.200 F 
ENDBRANCH  55  69
BRANCH  56  80
ATOM     80  C   UNL A   1      44.103  27.157  27.720  1.00  0.00     0.064 A 
ATOM     81  C   UNL A   1      44.279  25.768  27.745  1.00  0.00     0.173 A 
ATOM     82  C   UNL A   1      44.600  27.859  26.613  1.00  0.00     0.173 A 
ATOM     83  F   UNL A   1      43.845  25.056  28.796  1.00  0.00    -0.203 F 
ATOM     84  C   UNL A   1      44.943  25.108  26.712  1.00  0.00     0.198 A 
ATOM     85  C   UNL A   1      45.238  27.195  25.567  1.00  0.00     0.198 A 
ATOM     86  F   UNL A   1      44.459  29.191  26.541  1.00  0.00    -0.203 F 
ATOM     87  F   UNL A   1      45.139  23.784  26.782  1.00  0.00    -0.200 F 
ATOM     88  C   UNL A   1      45.417  25.822  25.621  1.00  0.00     0.200 A 
ATOM     89  F   UNL A   1      45.685  27.888  24.510  1.00  0.00    -0.200 F 
ATOM     90  F   UNL A   1      46.052  25.187  24.627  1.00  0.00    -0.200 F 
ENDBRANCH  56  80
BRANCH  68  91
ATOM     91  C   UNL A   1      46.126  29.008  34.130  1.00  0.00     0.064 A 
ATOM     92  C   UNL A   1      47.172  29.942  34.098  1.00  0.00     0.173 A 
ATOM     93  C   UNL A   1      46.281  27.873  34.940  1.00  0.00     0.173 A 
ATOM     94  F   UNL A   1      47.077  31.036  33.327  1.00  0.00    -0.203 F 
ATOM     95  C   UNL A   1      48.337  29.734  34.831  1.00  0.00     0.198 A 
ATOM     96  C   UNL A   1      47.435  27.684  35.695  1.00  0.00     0.198 A 
ATOM     97  F   UNL A   1      45.306  26.954  35.012  1.00  0.00    -0.203 F 
ATOM     98  F   UNL A   1      49.343  30.617  34.750  1.00  0.00    -0.200 F 
ATOM     99  C   UNL A   1      48.465  28.610  35.634  1.00  0.00     0.200 A 
ATOM    100  F   UNL A   1      47.551  26.605  36.480  1.00  0.00    -0.200 F 
ATOM    101  F   UNL A   1      49.584  28.417  36.344  1.00  0.00    -0.200 F 
ENDBRANCH  68  91
ENDBRANCH  42  43
ENDBRANCH  35  37
ENDBRANCH  34  35
ENDBRANCH  33  34
ENDBRANCH  32  33
ENDBRANCH  31  32
ENDBRANCH   1  31
TORSDOF 18
ENDMDL
MODEL 3
REMARK VINA RESULT:     -10.8      4.729      9.394
REMARK SMILES C[C@@H](C(=O)OCCOCCOC(=O)c1ccc(-c2c3nc(c(-c4c(F)c(F)c(F)c(F)c4F)c4ccc([nH]4)c(-c4c(F)c(F)c(F)c(F)c4F)c4nc(c(-c5c(F)c(F)c(F)c(F)c5F)c5ccc2[nH]5)C=C4)C=C3)cc1)N1C(=O)/C(=C/c2ccc(-c3ccc([N+](=O)[O-])cc3Cl)o2)SC1=S
REMARK SMILES IDX 7 1 6 2 5 3 3 4 4 5 2 6 1 7 77 8 78 9 98 10 79 11 80 12
REMARK SMILES IDX 97 13 99 14 81 15 82 16 83 17 96 18 84 19 85 20 86 21 87 22
REMARK SMILES IDX 94 23 88 24 93 25 95 26 89 27 90 28 91 29 92 30 8 31 9 32
REMARK SMILES IDX 10 33 11 34 12 35 13 36 14 37 15 38 76 39 16 40 75 41 17 42
REMARK SMILES IDX 18 43 19 44 69 45 20 46 74 47 68 48 70 49 21 50 73 51 67 52
REMARK SMILES IDX 66 53 22 55 54 56 34 57 53 58 35 59 38 60 52 61 71 62 36 63
REMARK SMILES IDX 37 64 51 66 72 67 39 68 23 69 24 70 32 71 25 72 26 73 30 74
REMARK SMILES IDX 33 75 27 76 28 77 31 78 29 79 55 80 56 81 64 82 57 83 58 84
REMARK SMILES IDX 62 85 65 86 59 87 60 88 63 89 61 90 40 91 41 92 49 93 42 94
REMARK SMILES IDX 43 95 47 96 50 97 44 98 45 99 48 100 46 101
REMARK H PARENT 70 54 38 65
REMARK Flexibility Score: inf
ROOT
ATOM      1  C   UNL A   1      34.766  34.736  32.952  1.00  0.00     0.202 C 
ENDROOT
BRANCH   1   2
ATOM      2  C   UNL A   1      34.364  33.290  32.651  1.00  0.00     0.261 C 
BRANCH   2   3
ATOM      3  O   UNL A   1      34.304  33.001  31.243  1.00  0.00    -0.462 OA
BRANCH   3   4
ATOM      4  C   UNL A   1      35.281  32.164  30.792  1.00  0.00     0.329 C 
ATOM      5  O   UNL A   1      35.698  31.195  31.420  1.00  0.00    -0.250 OA
BRANCH   4   6
ATOM      6  C   UNL A   1      35.860  32.610  29.438  1.00  0.00     0.199 C 
ATOM      7  C   UNL A   1      35.531  34.063  29.082  1.00  0.00     0.044 C 
BRANCH   6   8
ATOM      8  N   UNL A   1      35.428  31.599  28.439  1.00  0.00    -0.279 N 
ATOM      9  C   UNL A   1      34.151  31.603  27.898  1.00  0.00     0.267 C 
ATOM     10  C   UNL A   1      36.195  30.478  28.151  1.00  0.00     0.149 C 
ATOM     11  O   UNL A   1      33.271  32.428  28.105  1.00  0.00    -0.268 OA
ATOM     12  C   UNL A   1      33.937  30.405  27.040  1.00  0.00     0.084 C 
ATOM     13  S   UNL A   1      35.258  29.325  27.212  1.00  0.00    -0.054 SA
ATOM     14  S   UNL A   1      37.783  30.168  28.572  1.00  0.00    -0.052 S 
ATOM     15  C   UNL A   1      32.843  30.251  26.281  1.00  0.00     0.068 C 
BRANCH  15  16
ATOM     16  C   UNL A   1      32.549  29.029  25.619  1.00  0.00     0.128 A 
ATOM     17  C   UNL A   1      31.405  28.721  24.893  1.00  0.00     0.051 A 
ATOM     18  O   UNL A   1      33.377  27.926  25.588  1.00  0.00    -0.457 OA
ATOM     19  C   UNL A   1      31.526  27.395  24.434  1.00  0.00     0.051 A 
ATOM     20  C   UNL A   1      32.737  26.935  24.902  1.00  0.00     0.136 A 
BRANCH  20  21
ATOM     21  C   UNL A   1      33.408  25.647  24.772  1.00  0.00     0.036 A 
ATOM     22  C   UNL A   1      33.701  24.935  25.951  1.00  0.00     0.020 A 
ATOM     23  C   UNL A   1      33.871  25.133  23.547  1.00  0.00     0.058 A 
ATOM     24  C   UNL A   1      34.453  23.757  25.921  1.00  0.00     0.086 A 
ATOM     25  C   UNL A   1      34.627  23.953  23.505  1.00  0.00     0.106 A 
ATOM     26  Cl  UNL A   1      33.613  25.948  22.042  1.00  0.00    -0.083 Cl
ATOM     27  C   UNL A   1      34.925  23.277  24.695  1.00  0.00     0.270 A 
BRANCH  27  28
ATOM     28  N   UNL A   1      35.766  22.074  24.662  1.00  0.00     0.062 N 
ATOM     29  O   UNL A   1      36.821  22.127  24.016  1.00  0.00    -0.258 OA
ATOM     30  O   UNL A   1      35.363  21.074  25.272  1.00  0.00    -0.258 OA
ENDBRANCH  27  28
ENDBRANCH  20  21
ENDBRANCH  15  16
ENDBRANCH   6   8
ENDBRANCH   4   6
ENDBRANCH   3   4
ENDBRANCH   2   3
ENDBRANCH   1   2
BRANCH   1  31
ATOM     31  O   UNL A   1      35.669  34.943  34.034  1.00  0.00    -0.374 OA
BRANCH  31  32
ATOM     32  C   UNL A   1      36.931  34.277  33.976  1.00  0.00     0.202 C 
BRANCH  32  33
ATOM     33  C   UNL A   1      37.078  33.017  34.835  1.00  0.00     0.261 C 
BRANCH  33  34
ATOM     34  O   UNL A   1      37.245  31.840  34.021  1.00  0.00    -0.460 OA
BRANCH  34  35
ATOM     35  C   UNL A   1      38.147  30.949  34.490  1.00  0.00     0.338 C 
ATOM     36  O   UNL A   1      38.000  30.161  35.416  1.00  0.00    -0.246 OA
BRANCH  35  37
ATOM     37  C   UNL A   1      39.327  30.902  33.606  1.00  0.00     0.060 A 
ATOM     38  C   UNL A   1      39.140  31.270  32.267  1.00  0.00     0.016 A 
ATOM     39  C   UNL A   1      40.568  30.439  34.047  1.00  0.00     0.016 A 
ATOM     40  C   UNL A   1      40.174  31.113  31.348  1.00  0.00     0.010 A 
ATOM     41  C   UNL A   1      41.604  30.273  33.121  1.00  0.00     0.010 A 
ATOM     42  C   UNL A   1      41.398  30.570  31.761  1.00  0.00    -0.014 A 
BRANCH  42  43
ATOM     43  C   UNL A   1      42.391  30.162  30.738  1.00  0.00     0.031 A 
ATOM     44  C   UNL A   1      42.145  28.905  29.949  1.00  0.00     0.074 A 
ATOM     45  C   UNL A   1      43.471  30.920  30.482  1.00  0.00     0.049 A 
ATOM     46  N   UNL A   1      42.881  28.348  29.020  1.00  0.00    -0.248 NA
ATOM     47  C   UNL A   1      40.900  28.180  30.247  1.00  0.00     0.031 C 
ATOM     48  C   UNL A   1      43.795  32.179  31.148  1.00  0.00     0.029 A 
ATOM     49  N   UNL A   1      44.497  30.734  29.589  1.00  0.00    -0.354 N 
ATOM     50  C   UNL A   1      42.189  27.210  28.625  1.00  0.00     0.074 A 
ATOM     51  C   UNL A   1      40.994  27.136  29.436  1.00  0.00     0.031 C 
ATOM     52  C   UNL A   1      44.952  32.648  30.650  1.00  0.00     0.029 A 
ATOM     53  C   UNL A   1      45.461  31.709  29.651  1.00  0.00     0.049 A 
ATOM     54  H   UNL A   1      44.538  29.975  28.964  1.00  0.00     0.167 HD
ATOM     55  C   UNL A   1      42.517  26.313  27.664  1.00  0.00     0.037 A 
ATOM     56  C   UNL A   1      46.631  31.817  28.990  1.00  0.00     0.037 A 
ATOM     57  C   UNL A   1      43.706  26.386  26.858  1.00  0.00     0.049 A 
ATOM     58  C   UNL A   1      47.007  30.768  27.976  1.00  0.00     0.074 A 
ATOM     59  C   UNL A   1      44.122  25.532  25.853  1.00  0.00     0.029 A 
ATOM     60  N   UNL A   1      44.675  27.372  26.972  1.00  0.00    -0.354 N 
ATOM     61  N   UNL A   1      46.340  29.707  27.595  1.00  0.00    -0.248 NA
ATOM     62  C   UNL A   1      48.300  30.938  27.296  1.00  0.00     0.031 C 
ATOM     63  C   UNL A   1      45.367  25.974  25.389  1.00  0.00     0.029 A 
ATOM     64  C   UNL A   1      45.701  27.134  26.071  1.00  0.00     0.049 A 
ATOM     65  H   UNL A   1      44.640  28.130  27.600  1.00  0.00     0.167 HD
ATOM     66  C   UNL A   1      47.115  29.098  26.615  1.00  0.00     0.074 A 
ATOM     67  C   UNL A   1      48.298  29.916  26.451  1.00  0.00     0.031 C 
ATOM     68  C   UNL A   1      46.868  27.963  25.915  1.00  0.00     0.037 A 
BRANCH  55  69
ATOM     69  C   UNL A   1      41.582  25.160  27.447  1.00  0.00     0.064 A 
ATOM     70  C   UNL A   1      41.816  23.904  28.026  1.00  0.00     0.173 A 
ATOM     71  C   UNL A   1      40.421  25.322  26.676  1.00  0.00     0.173 A 
ATOM     72  F   UNL A   1      42.919  23.693  28.759  1.00  0.00    -0.203 F 
ATOM     73  C   UNL A   1      40.933  22.846  27.822  1.00  0.00     0.198 A 
ATOM     74  C   UNL A   1      39.527  24.270  26.497  1.00  0.00     0.198 A 
ATOM     75  F   UNL A   1      40.149  26.504  26.102  1.00  0.00    -0.203 F 
ATOM     76  F   UNL A   1      41.199  21.643  28.348  1.00  0.00    -0.200 F 
ATOM     77  C   UNL A   1      39.786  23.031  27.064  1.00  0.00     0.200 A 
ATOM     78  F   UNL A   1      38.414  24.455  25.773  1.00  0.00    -0.200 F 
ATOM     79  F   UNL A   1      38.935  22.014  26.874  1.00  0.00    -0.200 F 
ENDBRANCH  55  69
BRANCH  56  80
ATOM     80  C   UNL A   1      47.542  32.956  29.279  1.00  0.00     0.064 A 
ATOM     81  C   UNL A   1      47.476  34.143  28.539  1.00  0.00     0.173 A 
ATOM     82  C   UNL A   1      48.507  32.869  30.292  1.00  0.00     0.173 A 
ATOM     83  F   UNL A   1      46.587  34.263  27.542  1.00  0.00    -0.203 F 
ATOM     84  C   UNL A   1      48.354  35.196  28.790  1.00  0.00     0.198 A 
ATOM     85  C   UNL A   1      49.366  33.933  30.561  1.00  0.00     0.198 A 
ATOM     86  F   UNL A   1      48.612  31.753  31.029  1.00  0.00    -0.203 F 
ATOM     87  F   UNL A   1      48.301  36.304  28.037  1.00  0.00    -0.200 F 
ATOM     88  C   UNL A   1      49.294  35.093  29.805  1.00  0.00     0.200 A 
ATOM     89  F   UNL A   1      50.265  33.832  31.550  1.00  0.00    -0.200 F 
ATOM     90  F   UNL A   1      50.136  36.106  30.047  1.00  0.00    -0.200 F 
ENDBRANCH  56  80
BRANCH  68  91
ATOM     91  C   UNL A   1      47.880  27.556  24.883  1.00  0.00     0.064 A 
ATOM     92  C   UNL A   1      47.689  27.819  23.519  1.00  0.00     0.173 A 
ATOM     93  C   UNL A   1      49.077  26.934  25.271  1.00  0.00     0.173 A 
ATOM     94  F   UNL A   1      46.555  28.399  23.096  1.00  0.00    -0.203 F 
ATOM     95  C   UNL A   1      48.648  27.453  22.579  1.00  0.00     0.198 A 
ATOM     96  C   UNL A   1      50.047  26.597  24.331  1.00  0.00     0.198 A 
ATOM     97  F   UNL A   1      49.313  26.667  26.564  1.00  0.00    -0.203 F 
ATOM     98  F   UNL A   1      48.424  27.674  21.276  1.00  0.00    -0.200 F 
ATOM     99  C   UNL A   1      49.829  26.850  22.985  1.00  0.00     0.200 A 
ATOM    100  F   UNL A   1      51.192  26.026  24.728  1.00  0.00    -0.200 F 
ATOM    101  F   UNL A   1      50.754  26.505  22.080  1.00  0.00    -0.200 F 
ENDBRANCH  68  91
ENDBRANCH  42  43
ENDBRANCH  35  37
ENDBRANCH  34  35
ENDBRANCH  33  34
ENDBRANCH  32  33
ENDBRANCH  31  32
ENDBRANCH   1  31
TORSDOF 18
ENDMDL
