MODEL 1
REMARK VINA RESULT:     -12.8      0.000      0.000
REMARK SMILES O=C(OCCOCCOC(=O)c1ccc(-c2c3nc(c(-c4c(F)c(F)c(F)c(F)c4F)c4ccc([nH]4)c(-c4c(F)c(F)c(F)c(F)c4F)c4nc(c(-c5c(F)c(F)c(F)c(F)c5F)c5ccc2[nH]5)C=C4)C=C3)cc1)C1=Cc2c(Cl)ccc(Cl)c2O[C@@H]1C(F)(F)F
REMARK SMILES IDX 7 1 6 2 5 3 4 4 3 5 2 6 1 7 75 8 76 9 86 10 77 11 85 12
REMARK SMILES IDX 78 13 84 14 79 15 80 16 82 17 81 18 83 19 87 20 88 21 89 22
REMARK SMILES IDX 90 23 8 24 9 25 10 26 11 27 12 28 13 29 74 30 14 31 73 32
REMARK SMILES IDX 15 33 16 34 17 35 67 36 18 37 72 38 66 39 68 40 19 41 71 42
REMARK SMILES IDX 65 43 64 44 20 46 52 47 32 48 51 49 33 50 36 51 50 52 69 53
REMARK SMILES IDX 34 54 35 55 49 57 70 58 37 59 21 60 22 61 30 62 23 63 24 64
REMARK SMILES IDX 28 65 31 66 25 67 26 68 29 69 27 70 53 71 54 72 62 73 55 74
REMARK SMILES IDX 56 75 60 76 63 77 57 78 58 79 61 80 59 81 38 82 39 83 47 84
REMARK SMILES IDX 40 85 41 86 45 87 48 88 42 89 43 90 46 91 44 92
REMARK H PARENT 68 45 36 56
REMARK Flexibility Score: inf
ROOT
ATOM      1  C   UNL A   1      42.545  21.168  26.096  1.00  0.00     0.202 C 
ENDROOT
BRANCH   1   2
ATOM      2  O   UNL A   1      41.313  21.786  25.678  1.00  0.00    -0.374 OA
BRANCH   2   3
ATOM      3  C   UNL A   1      39.891  21.733  26.382  1.00  0.00     0.202 C 
BRANCH   3   4
ATOM      4  C   UNL A   1      37.930  21.382  25.533  1.00  0.00     0.261 C 
BRANCH   4   5
ATOM      5  O   UNL A   1      36.643  22.193  25.827  1.00  0.00    -0.460 OA
BRANCH   5   6
ATOM      6  C   UNL A   1      36.349  23.077  24.871  1.00  0.00     0.338 C 
ATOM      7  O   UNL A   1      37.070  23.703  24.138  1.00  0.00    -0.246 OA
BRANCH   6   8
ATOM      8  C   UNL A   1      34.972  23.236  25.257  1.00  0.00     0.087 C 
ATOM      9  C   UNL A   1      34.692  24.677  25.580  1.00  0.00     0.029 C 
ATOM     10  C   UNL A   1      34.185  22.275  23.763  1.00  0.00     0.316 C 
ATOM     11  C   UNL A   1      33.710  25.794  24.495  1.00  0.00     0.037 A 
ATOM     12  O   UNL A   1      33.206  23.433  22.599  1.00  0.00    -0.474 OA
ATOM     13  C   UNL A   1      33.659  27.151  24.717  1.00  0.00     0.052 A 
ATOM     14  C   UNL A   1      33.024  25.197  23.018  1.00  0.00     0.148 A 
ATOM     15  Cl  UNL A   1      34.278  27.900  26.126  1.00  0.00    -0.084 Cl
ATOM     16  C   UNL A   1      33.111  27.927  23.677  1.00  0.00     0.023 A 
ATOM     17  C   UNL A   1      32.653  26.047  22.011  1.00  0.00     0.083 A 
ATOM     18  C   UNL A   1      32.675  27.409  22.388  1.00  0.00     0.026 A 
ATOM     19  Cl  UNL A   1      32.528  25.573  20.381  1.00  0.00    -0.080 Cl
BRANCH  10  20
ATOM     20  C   UNL A   1      33.698  20.926  24.403  1.00  0.00     0.430 C 
ATOM     21  F   UNL A   1      32.957  21.076  25.515  1.00  0.00    -0.167 F 
ATOM     22  F   UNL A   1      32.891  20.308  23.495  1.00  0.00    -0.167 F 
ATOM     23  F   UNL A   1      34.682  20.038  24.660  1.00  0.00    -0.167 F 
ENDBRANCH  10  20
ENDBRANCH   6   8
ENDBRANCH   5   6
ENDBRANCH   4   5
ENDBRANCH   3   4
ENDBRANCH   2   3
ENDBRANCH   1   2
BRANCH   1  24
ATOM     24  C   UNL A   1      43.762  21.777  25.395  1.00  0.00     0.261 C 
BRANCH  24  25
ATOM     25  O   UNL A   1      44.279  22.890  26.120  1.00  0.00    -0.460 OA
BRANCH  25  26
ATOM     26  C   UNL A   1      44.044  24.093  25.546  1.00  0.00     0.338 C 
ATOM     27  O   UNL A   1      44.263  24.430  24.395  1.00  0.00    -0.246 OA
BRANCH  26  28
ATOM     28  C   UNL A   1      43.450  24.986  26.555  1.00  0.00     0.060 A 
ATOM     29  C   UNL A   1      43.971  26.278  26.690  1.00  0.00     0.016 A 
ATOM     30  C   UNL A   1      42.369  24.565  27.341  1.00  0.00     0.016 A 
ATOM     31  C   UNL A   1      43.387  27.165  27.593  1.00  0.00     0.010 A 
ATOM     32  C   UNL A   1      41.782  25.452  28.236  1.00  0.00     0.010 A 
ATOM     33  C   UNL A   1      42.294  26.751  28.366  1.00  0.00    -0.014 A 
BRANCH  33  34
ATOM     34  C   UNL A   1      41.793  27.611  29.453  1.00  0.00     0.031 A 
ATOM     35  C   UNL A   1      42.470  27.507  30.783  1.00  0.00     0.074 A 
ATOM     36  C   UNL A   1      40.756  28.444  29.257  1.00  0.00     0.049 A 
ATOM     37  N   UNL A   1      42.220  28.147  31.893  1.00  0.00    -0.248 NA
ATOM     38  C   UNL A   1      43.583  26.544  30.875  1.00  0.00     0.031 C 
ATOM     39  C   UNL A   1      40.031  28.611  28.000  1.00  0.00     0.029 A 
ATOM     40  N   UNL A   1      40.125  29.296  30.124  1.00  0.00    -0.354 N 
ATOM     41  C   UNL A   1      43.150  27.678  32.808  1.00  0.00     0.074 A 
ATOM     42  C   UNL A   1      43.941  26.667  32.143  1.00  0.00     0.031 C 
ATOM     43  C   UNL A   1      39.045  29.508  28.179  1.00  0.00     0.029 A 
ATOM     44  C   UNL A   1      39.052  29.952  29.570  1.00  0.00     0.049 A 
ATOM     45  H   UNL A   1      40.412  29.426  31.057  1.00  0.00     0.167 HD
ATOM     46  C   UNL A   1      43.333  28.072  34.086  1.00  0.00     0.037 A 
ATOM     47  C   UNL A   1      38.172  30.797  30.139  1.00  0.00     0.037 A 
ATOM     48  C   UNL A   1      42.516  29.052  34.743  1.00  0.00     0.049 A 
ATOM     49  C   UNL A   1      38.350  31.151  31.595  1.00  0.00     0.074 A 
ATOM     50  C   UNL A   1      42.619  29.536  36.034  1.00  0.00     0.029 A 
ATOM     51  N   UNL A   1      41.425  29.684  34.160  1.00  0.00    -0.354 N 
ATOM     52  N   UNL A   1      39.279  30.764  32.438  1.00  0.00    -0.248 NA
ATOM     53  C   UNL A   1      37.362  32.070  32.179  1.00  0.00     0.031 C 
ATOM     54  C   UNL A   1      41.551  30.410  36.254  1.00  0.00     0.029 A 
ATOM     55  C   UNL A   1      40.825  30.528  35.078  1.00  0.00     0.049 A 
ATOM     56  H   UNL A   1      41.124  29.550  33.233  1.00  0.00     0.167 HD
ATOM     57  C   UNL A   1      39.010  31.418  33.633  1.00  0.00     0.074 A 
ATOM     58  C   UNL A   1      37.842  32.241  33.402  1.00  0.00     0.031 C 
ATOM     59  C   UNL A   1      39.669  31.348  34.817  1.00  0.00     0.037 A 
BRANCH  46  60
ATOM     60  C   UNL A   1      44.440  27.419  34.856  1.00  0.00     0.064 A 
ATOM     61  C   UNL A   1      45.733  27.965  34.893  1.00  0.00     0.173 A 
ATOM     62  C   UNL A   1      44.202  26.244  35.584  1.00  0.00     0.173 A 
ATOM     63  F   UNL A   1      46.018  29.074  34.193  1.00  0.00    -0.203 F 
ATOM     64  C   UNL A   1      46.749  27.348  35.616  1.00  0.00     0.198 A 
ATOM     65  C   UNL A   1      45.213  25.648  36.331  1.00  0.00     0.198 A 
ATOM     66  F   UNL A   1      42.986  25.678  35.575  1.00  0.00    -0.203 F 
ATOM     67  F   UNL A   1      47.987  27.862  35.600  1.00  0.00    -0.200 F 
ATOM     68  C   UNL A   1      46.486  26.196  36.342  1.00  0.00     0.200 A 
ATOM     69  F   UNL A   1      44.954  24.540  37.039  1.00  0.00    -0.200 F 
ATOM     70  F   UNL A   1      47.463  25.610  37.048  1.00  0.00    -0.200 F 
ENDBRANCH  46  60
BRANCH  47  71
ATOM     71  C   UNL A   1      37.041  31.362  29.353  1.00  0.00     0.064 A 
ATOM     72  C   UNL A   1      37.024  32.713  28.977  1.00  0.00     0.173 A 
ATOM     73  C   UNL A   1      35.929  30.578  29.008  1.00  0.00     0.173 A 
ATOM     74  F   UNL A   1      38.053  33.510  29.298  1.00  0.00    -0.203 F 
ATOM     75  C   UNL A   1      35.922  33.267  28.326  1.00  0.00     0.198 A 
ATOM     76  C   UNL A   1      34.843  31.126  28.328  1.00  0.00     0.198 A 
ATOM     77  F   UNL A   1      35.893  29.280  29.339  1.00  0.00    -0.203 F 
ATOM     78  F   UNL A   1      35.904  34.577  28.043  1.00  0.00    -0.200 F 
ATOM     79  C   UNL A   1      34.833  32.473  28.001  1.00  0.00     0.200 A 
ATOM     80  F   UNL A   1      33.800  30.351  28.001  1.00  0.00    -0.200 F 
ATOM     81  F   UNL A   1      33.771  33.008  27.383  1.00  0.00    -0.200 F 
ENDBRANCH  47  71
BRANCH  59  82
ATOM     82  C   UNL A   1      39.172  32.216  35.937  1.00  0.00     0.064 A 
ATOM     83  C   UNL A   1      38.272  31.740  36.901  1.00  0.00     0.173 A 
ATOM     84  C   UNL A   1      39.647  33.531  36.073  1.00  0.00     0.173 A 
ATOM     85  F   UNL A   1      37.778  30.496  36.808  1.00  0.00    -0.203 F 
ATOM     86  C   UNL A   1      37.843  32.557  37.942  1.00  0.00     0.198 A 
ATOM     87  C   UNL A   1      39.246  34.330  37.139  1.00  0.00     0.198 A 
ATOM     88  F   UNL A   1      40.518  34.032  35.184  1.00  0.00    -0.203 F 
ATOM     89  F   UNL A   1      36.940  32.099  38.820  1.00  0.00    -0.200 F 
ATOM     90  C   UNL A   1      38.337  33.847  38.067  1.00  0.00     0.200 A 
ATOM     91  F   UNL A   1      39.742  35.569  37.267  1.00  0.00    -0.200 F 
ATOM     92  F   UNL A   1      37.933  34.626  39.079  1.00  0.00    -0.200 F 
ENDBRANCH  59  82
ENDBRANCH  33  34
ENDBRANCH  26  28
ENDBRANCH  25  26
ENDBRANCH  24  25
ENDBRANCH   1  24
TORSDOF 15
ENDMDL
MODEL 2
REMARK VINA RESULT:     -12.5      4.613      6.967
REMARK SMILES O=C(OCCOCCOC(=O)c1ccc(-c2c3nc(c(-c4c(F)c(F)c(F)c(F)c4F)c4ccc([nH]4)c(-c4c(F)c(F)c(F)c(F)c4F)c4nc(c(-c5c(F)c(F)c(F)c(F)c5F)c5ccc2[nH]5)C=C4)C=C3)cc1)C1=Cc2c(Cl)ccc(Cl)c2O[C@@H]1C(F)(F)F
REMARK SMILES IDX 7 1 6 2 5 3 4 4 3 5 2 6 1 7 75 8 76 9 86 10 77 11 85 12
REMARK SMILES IDX 78 13 84 14 79 15 80 16 82 17 81 18 83 19 87 20 88 21 89 22
REMARK SMILES IDX 90 23 8 24 9 25 10 26 11 27 12 28 13 29 74 30 14 31 73 32
REMARK SMILES IDX 15 33 16 34 17 35 67 36 18 37 72 38 66 39 68 40 19 41 71 42
REMARK SMILES IDX 65 43 64 44 20 46 52 47 32 48 51 49 33 50 36 51 50 52 69 53
REMARK SMILES IDX 34 54 35 55 49 57 70 58 37 59 21 60 22 61 30 62 23 63 24 64
REMARK SMILES IDX 28 65 31 66 25 67 26 68 29 69 27 70 53 71 54 72 62 73 55 74
REMARK SMILES IDX 56 75 60 76 63 77 57 78 58 79 61 80 59 81 38 82 39 83 47 84
REMARK SMILES IDX 40 85 41 86 45 87 48 88 42 89 43 90 46 91 44 92
REMARK H PARENT 68 45 36 56
REMARK Flexibility Score: inf
ROOT
ATOM      1  C   UNL A   1      37.861  19.571  24.970  1.00  0.00     0.202 C 
ENDROOT
BRANCH   1   2
ATOM      2  O   UNL A   1      37.196  20.833  25.168  1.00  0.00    -0.374 OA
BRANCH   2   3
ATOM      3  C   UNL A   1      35.751  21.278  24.682  1.00  0.00     0.202 C 
BRANCH   3   4
ATOM      4  C   UNL A   1      35.154  22.942  23.433  1.00  0.00     0.261 C 
BRANCH   4   5
ATOM      5  O   UNL A   1      35.081  24.430  23.859  1.00  0.00    -0.460 OA
BRANCH   5   6
ATOM      6  C   UNL A   1      34.099  25.102  23.254  1.00  0.00     0.338 C 
ATOM      7  O   UNL A   1      34.085  25.687  22.203  1.00  0.00    -0.246 OA
BRANCH   6   8
ATOM      8  C   UNL A   1      33.238  25.144  24.407  1.00  0.00     0.087 C 
ATOM      9  C   UNL A   1      33.678  26.239  25.336  1.00  0.00     0.029 C 
ATOM     10  C   UNL A   1      31.546  25.132  23.451  1.00  0.00     0.316 C 
ATOM     11  C   UNL A   1      32.761  27.820  25.558  1.00  0.00     0.037 A 
ATOM     12  O   UNL A   1      30.608  26.787  23.630  1.00  0.00    -0.474 OA
ATOM     13  C   UNL A   1      33.306  28.878  26.249  1.00  0.00     0.052 A 
ATOM     14  C   UNL A   1      31.286  28.105  24.690  1.00  0.00     0.148 A 
ATOM     15  Cl  UNL A   1      34.747  28.764  27.165  1.00  0.00    -0.084 Cl
ATOM     16  C   UNL A   1      32.638  30.111  26.119  1.00  0.00     0.023 A 
ATOM     17  C   UNL A   1      30.802  29.372  24.505  1.00  0.00     0.083 A 
ATOM     18  C   UNL A   1      31.483  30.350  25.266  1.00  0.00     0.026 A 
ATOM     19  Cl  UNL A   1      29.746  29.798  23.240  1.00  0.00    -0.080 Cl
BRANCH  10  20
ATOM     20  C   UNL A   1      30.989  23.684  23.699  1.00  0.00     0.430 C 
ATOM     21  F   UNL A   1      30.576  23.456  24.958  1.00  0.00    -0.167 F 
ATOM     22  F   UNL A   1      29.890  23.525  22.908  1.00  0.00    -0.167 F 
ATOM     23  F   UNL A   1      31.828  22.689  23.337  1.00  0.00    -0.167 F 
ENDBRANCH  10  20
ENDBRANCH   6   8
ENDBRANCH   5   6
ENDBRANCH   4   5
ENDBRANCH   3   4
ENDBRANCH   2   3
ENDBRANCH   1   2
BRANCH   1  24
ATOM     24  C   UNL A   1      39.249  19.544  25.613  1.00  0.00     0.261 C 
BRANCH  24  25
ATOM     25  O   UNL A   1      39.663  20.848  26.015  1.00  0.00    -0.460 OA
BRANCH  25  26
ATOM     26  C   UNL A   1      40.487  20.869  27.089  1.00  0.00     0.338 C 
ATOM     27  O   UNL A   1      40.881  19.926  27.751  1.00  0.00    -0.246 OA
BRANCH  26  28
ATOM     28  C   UNL A   1      40.869  22.266  27.358  1.00  0.00     0.060 A 
ATOM     29  C   UNL A   1      40.231  23.282  26.637  1.00  0.00     0.016 A 
ATOM     30  C   UNL A   1      41.827  22.575  28.333  1.00  0.00     0.016 A 
ATOM     31  C   UNL A   1      40.527  24.615  26.916  1.00  0.00     0.010 A 
ATOM     32  C   UNL A   1      42.117  23.905  28.616  1.00  0.00     0.010 A 
ATOM     33  C   UNL A   1      41.471  24.925  27.904  1.00  0.00    -0.014 A 
BRANCH  33  34
ATOM     34  C   UNL A   1      41.930  26.315  28.073  1.00  0.00     0.031 A 
ATOM     35  C   UNL A   1      43.288  26.663  27.550  1.00  0.00     0.074 A 
ATOM     36  C   UNL A   1      41.161  27.230  28.691  1.00  0.00     0.049 A 
ATOM     37  N   UNL A   1      43.920  27.805  27.577  1.00  0.00    -0.248 NA
ATOM     38  C   UNL A   1      44.040  25.568  26.910  1.00  0.00     0.031 C 
ATOM     39  C   UNL A   1      39.829  26.985  29.237  1.00  0.00     0.029 A 
ATOM     40  N   UNL A   1      41.402  28.549  28.973  1.00  0.00    -0.354 N 
ATOM     41  C   UNL A   1      45.132  27.572  26.946  1.00  0.00     0.074 A 
ATOM     42  C   UNL A   1      45.172  26.172  26.587  1.00  0.00     0.031 C 
ATOM     43  C   UNL A   1      39.370  28.117  29.798  1.00  0.00     0.029 A 
ATOM     44  C   UNL A   1      40.391  29.155  29.677  1.00  0.00     0.049 A 
ATOM     45  H   UNL A   1      42.224  29.018  28.698  1.00  0.00     0.167 HD
ATOM     46  C   UNL A   1      46.116  28.457  26.678  1.00  0.00     0.037 A 
ATOM     47  C   UNL A   1      40.318  30.403  30.178  1.00  0.00     0.037 A 
ATOM     48  C   UNL A   1      46.076  29.837  27.072  1.00  0.00     0.049 A 
ATOM     49  C   UNL A   1      41.473  31.345  29.939  1.00  0.00     0.074 A 
ATOM     50  C   UNL A   1      47.013  30.827  26.844  1.00  0.00     0.029 A 
ATOM     51  N   UNL A   1      45.045  30.416  27.801  1.00  0.00    -0.354 N 
ATOM     52  N   UNL A   1      42.587  31.143  29.274  1.00  0.00    -0.248 NA
ATOM     53  C   UNL A   1      41.357  32.694  30.511  1.00  0.00     0.031 C 
ATOM     54  C   UNL A   1      46.581  31.988  27.491  1.00  0.00     0.029 A 
ATOM     55  C   UNL A   1      45.341  31.743  28.060  1.00  0.00     0.049 A 
ATOM     56  H   UNL A   1      44.227  29.951  28.090  1.00  0.00     0.167 HD
ATOM     57  C   UNL A   1      43.282  32.344  29.316  1.00  0.00     0.074 A 
ATOM     58  C   UNL A   1      42.457  33.275  30.056  1.00  0.00     0.031 C 
ATOM     59  C   UNL A   1      44.493  32.653  28.789  1.00  0.00     0.037 A 
BRANCH  46  60
ATOM     60  C   UNL A   1      47.322  27.947  25.951  1.00  0.00     0.064 A 
ATOM     61  C   UNL A   1      48.485  27.560  26.634  1.00  0.00     0.173 A 
ATOM     62  C   UNL A   1      47.309  27.824  24.554  1.00  0.00     0.173 A 
ATOM     63  F   UNL A   1      48.556  27.681  27.969  1.00  0.00    -0.203 F 
ATOM     64  C   UNL A   1      49.595  27.084  25.944  1.00  0.00     0.198 A 
ATOM     65  C   UNL A   1      48.410  27.319  23.870  1.00  0.00     0.198 A 
ATOM     66  F   UNL A   1      46.225  28.189  23.853  1.00  0.00    -0.203 F 
ATOM     67  F   UNL A   1      50.711  26.763  26.613  1.00  0.00    -0.200 F 
ATOM     68  C   UNL A   1      49.554  26.955  24.563  1.00  0.00     0.200 A 
ATOM     69  F   UNL A   1      48.365  27.188  22.537  1.00  0.00    -0.200 F 
ATOM     70  F   UNL A   1      50.620  26.487  23.901  1.00  0.00    -0.200 F 
ENDBRANCH  46  60
BRANCH  47  71
ATOM     71  C   UNL A   1      39.130  30.842  30.961  1.00  0.00     0.064 A 
ATOM     72  C   UNL A   1      39.056  30.631  32.345  1.00  0.00     0.173 A 
ATOM     73  C   UNL A   1      38.021  31.430  30.334  1.00  0.00     0.173 A 
ATOM     74  F   UNL A   1      40.081  30.054  32.990  1.00  0.00    -0.203 F 
ATOM     75  C   UNL A   1      37.905  30.952  33.064  1.00  0.00     0.198 A 
ATOM     76  C   UNL A   1      36.884  31.782  31.060  1.00  0.00     0.198 A 
ATOM     77  F   UNL A   1      38.037  31.659  29.013  1.00  0.00    -0.203 F 
ATOM     78  F   UNL A   1      37.838  30.673  34.373  1.00  0.00    -0.200 F 
ATOM     79  C   UNL A   1      36.821  31.529  32.421  1.00  0.00     0.200 A 
ATOM     80  F   UNL A   1      35.845  32.354  30.437  1.00  0.00    -0.200 F 
ATOM     81  F   UNL A   1      35.712  31.829  33.111  1.00  0.00    -0.200 F 
ENDBRANCH  47  71
BRANCH  59  82
ATOM     82  C   UNL A   1      44.978  34.065  28.953  1.00  0.00     0.064 A 
ATOM     83  C   UNL A   1      44.668  35.068  28.024  1.00  0.00     0.173 A 
ATOM     84  C   UNL A   1      45.723  34.428  30.088  1.00  0.00     0.173 A 
ATOM     85  F   UNL A   1      43.971  34.771  26.916  1.00  0.00    -0.203 F 
ATOM     86  C   UNL A   1      45.110  36.375  28.209  1.00  0.00     0.198 A 
ATOM     87  C   UNL A   1      46.128  35.743  30.288  1.00  0.00     0.198 A 
ATOM     88  F   UNL A   1      46.037  33.508  31.013  1.00  0.00    -0.203 F 
ATOM     89  F   UNL A   1      44.849  37.305  27.280  1.00  0.00    -0.200 F 
ATOM     90  C   UNL A   1      45.830  36.713  29.344  1.00  0.00     0.200 A 
ATOM     91  F   UNL A   1      46.805  36.071  31.398  1.00  0.00    -0.200 F 
ATOM     92  F   UNL A   1      46.242  37.975  29.527  1.00  0.00    -0.200 F 
ENDBRANCH  59  82
ENDBRANCH  33  34
ENDBRANCH  26  28
ENDBRANCH  25  26
ENDBRANCH  24  25
ENDBRANCH   1  24
TORSDOF 15
ENDMDL
MODEL 3
REMARK VINA RESULT:     -12.4      5.140      7.800
REMARK SMILES O=C(OCCOCCOC(=O)c1ccc(-c2c3nc(c(-c4c(F)c(F)c(F)c(F)c4F)c4ccc([nH]4)c(-c4c(F)c(F)c(F)c(F)c4F)c4nc(c(-c5c(F)c(F)c(F)c(F)c5F)c5ccc2[nH]5)C=C4)C=C3)cc1)C1=Cc2c(Cl)ccc(Cl)c2O[C@@H]1C(F)(F)F
REMARK SMILES IDX 7 1 6 2 5 3 4 4 3 5 2 6 1 7 75 8 76 9 86 10 77 11 85 12
REMARK SMILES IDX 78 13 84 14 79 15 80 16 82 17 81 18 83 19 87 20 88 21 89 22
REMARK SMILES IDX 90 23 8 24 9 25 10 26 11 27 12 28 13 29 74 30 14 31 73 32
REMARK SMILES IDX 15 33 16 34 17 35 67 36 18 37 72 38 66 39 68 40 19 41 71 42
REMARK SMILES IDX 65 43 64 44 20 46 52 47 32 48 51 49 33 50 36 51 50 52 69 53
REMARK SMILES IDX 34 54 35 55 49 57 70 58 37 59 21 60 22 61 30 62 23 63 24 64
REMARK SMILES IDX 28 65 31 66 25 67 26 68 29 69 27 70 53 71 54 72 62 73 55 74
REMARK SMILES IDX 56 75 60 76 63 77 57 78 58 79 61 80 59 81 38 82 39 83 47 84
REMARK SMILES IDX 40 85 41 86 45 87 48 88 42 89 43 90 46 91 44 92
REMARK H PARENT 68 45 36 56
REMARK Flexibility Score: inf
ROOT
ATOM      1  C   UNL A   1      40.168  19.838  26.073  1.00  0.00     0.202 C 
ENDROOT
BRANCH   1   2
ATOM      2  O   UNL A   1      41.364  19.094  25.775  1.00  0.00    -0.374 OA
BRANCH   2   3
ATOM      3  C   UNL A   1      42.876  19.570  25.877  1.00  0.00     0.202 C 
BRANCH   3   4
ATOM      4  C   UNL A   1      43.742  21.532  25.580  1.00  0.00     0.261 C 
BRANCH   4   5
ATOM      5  O   UNL A   1      44.754  22.240  26.514  1.00  0.00    -0.460 OA
BRANCH   5   6
ATOM      6  C   UNL A   1      45.830  22.699  25.871  1.00  0.00     0.338 C 
ATOM      7  O   UNL A   1      46.658  22.116  25.220  1.00  0.00    -0.246 OA
BRANCH   6   8
ATOM      8  C   UNL A   1      45.812  23.997  26.493  1.00  0.00     0.087 C 
ATOM      9  C   UNL A   1      47.109  24.240  27.212  1.00  0.00     0.029 C 
ATOM     10  C   UNL A   1      45.214  25.003  24.941  1.00  0.00     0.316 C 
ATOM     11  C   UNL A   1      48.406  25.401  26.613  1.00  0.00     0.037 A 
ATOM     12  O   UNL A   1      46.571  26.174  24.277  1.00  0.00    -0.474 OA
ATOM     13  C   UNL A   1      49.660  25.434  27.180  1.00  0.00     0.052 A 
ATOM     14  C   UNL A   1      48.162  26.310  25.156  1.00  0.00     0.148 A 
ATOM     15  Cl  UNL A   1      50.065  24.605  28.621  1.00  0.00    -0.084 Cl
ATOM     16  C   UNL A   1      50.640  26.155  26.471  1.00  0.00     0.023 A 
ATOM     17  C   UNL A   1      49.215  26.852  24.470  1.00  0.00     0.083 A 
ATOM     18  C   UNL A   1      50.438  26.787  25.175  1.00  0.00     0.026 A 
ATOM     19  Cl  UNL A   1      49.158  27.234  22.812  1.00  0.00    -0.080 Cl
BRANCH  10  20
ATOM     20  C   UNL A   1      43.724  25.361  25.282  1.00  0.00     0.430 C 
ATOM     21  F   UNL A   1      43.385  26.636  25.018  1.00  0.00    -0.167 F 
ATOM     22  F   UNL A   1      42.924  24.590  24.492  1.00  0.00    -0.167 F 
ATOM     23  F   UNL A   1      43.351  25.073  26.547  1.00  0.00    -0.167 F 
ENDBRANCH  10  20
ENDBRANCH   6   8
ENDBRANCH   5   6
ENDBRANCH   4   5
ENDBRANCH   3   4
ENDBRANCH   2   3
ENDBRANCH   1   2
BRANCH   1  24
ATOM     24  C   UNL A   1      40.407  21.349  26.048  1.00  0.00     0.261 C 
BRANCH  24  25
ATOM     25  O   UNL A   1      39.521  22.032  26.931  1.00  0.00    -0.460 OA
BRANCH  25  26
ATOM     26  C   UNL A   1      38.817  23.034  26.356  1.00  0.00     0.338 C 
ATOM     27  O   UNL A   1      37.920  22.946  25.536  1.00  0.00    -0.246 OA
BRANCH  26  28
ATOM     28  C   UNL A   1      39.304  24.317  26.892  1.00  0.00     0.060 A 
ATOM     29  C   UNL A   1      39.131  24.578  28.257  1.00  0.00     0.016 A 
ATOM     30  C   UNL A   1      39.952  25.244  26.063  1.00  0.00     0.016 A 
ATOM     31  C   UNL A   1      39.639  25.755  28.802  1.00  0.00     0.010 A 
ATOM     32  C   UNL A   1      40.465  26.415  26.609  1.00  0.00     0.010 A 
ATOM     33  C   UNL A   1      40.304  26.674  27.978  1.00  0.00    -0.014 A 
BRANCH  33  34
ATOM     34  C   UNL A   1      40.673  28.000  28.503  1.00  0.00     0.031 A 
ATOM     35  C   UNL A   1      42.116  28.242  28.816  1.00  0.00     0.074 A 
ATOM     36  C   UNL A   1      39.742  28.949  28.707  1.00  0.00     0.049 A 
ATOM     37  N   UNL A   1      42.694  29.314  29.287  1.00  0.00    -0.248 NA
ATOM     38  C   UNL A   1      43.035  27.116  28.566  1.00  0.00     0.031 C 
ATOM     39  C   UNL A   1      38.315  28.806  28.437  1.00  0.00     0.029 A 
ATOM     40  N   UNL A   1      39.864  30.220  29.205  1.00  0.00    -0.354 N 
ATOM     41  C   UNL A   1      44.041  28.998  29.374  1.00  0.00     0.074 A 
ATOM     42  C   UNL A   1      44.194  27.623  28.954  1.00  0.00     0.031 C 
ATOM     43  C   UNL A   1      37.687  29.944  28.780  1.00  0.00     0.029 A 
ATOM     44  C   UNL A   1      38.666  30.882  29.322  1.00  0.00     0.049 A 
ATOM     45  H   UNL A   1      40.728  30.621  29.455  1.00  0.00     0.167 HD
ATOM     46  C   UNL A   1      45.061  29.796  29.758  1.00  0.00     0.037 A 
ATOM     47  C   UNL A   1      38.402  32.101  29.831  1.00  0.00     0.037 A 
ATOM     48  C   UNL A   1      44.888  31.149  30.207  1.00  0.00     0.049 A 
ATOM     49  C   UNL A   1      39.553  32.937  30.335  1.00  0.00     0.074 A 
ATOM     50  C   UNL A   1      45.852  32.053  30.610  1.00  0.00     0.029 A 
ATOM     51  N   UNL A   1      43.660  31.785  30.333  1.00  0.00    -0.354 N 
ATOM     52  N   UNL A   1      40.837  32.665  30.344  1.00  0.00    -0.248 NA
ATOM     53  C   UNL A   1      39.221  34.257  30.890  1.00  0.00     0.031 C 
ATOM     54  C   UNL A   1      45.204  33.213  31.042  1.00  0.00     0.029 A 
ATOM     55  C   UNL A   1      43.840  33.059  30.841  1.00  0.00     0.049 A 
ATOM     56  H   UNL A   1      42.791  31.387  30.096  1.00  0.00     0.167 HD
ATOM     57  C   UNL A   1      41.465  33.787  30.868  1.00  0.00     0.074 A 
ATOM     58  C   UNL A   1      40.422  34.752  31.148  1.00  0.00     0.031 C 
ATOM     59  C   UNL A   1      42.784  34.005  31.097  1.00  0.00     0.037 A 
BRANCH  46  60
ATOM     60  C   UNL A   1      46.440  29.212  29.733  1.00  0.00     0.064 A 
ATOM     61  C   UNL A   1      47.274  29.342  28.612  1.00  0.00     0.173 A 
ATOM     62  C   UNL A   1      46.943  28.532  30.852  1.00  0.00     0.173 A 
ATOM     63  F   UNL A   1      46.831  29.963  27.508  1.00  0.00    -0.203 F 
ATOM     64  C   UNL A   1      48.554  28.797  28.607  1.00  0.00     0.198 A 
ATOM     65  C   UNL A   1      48.234  28.016  30.854  1.00  0.00     0.198 A 
ATOM     66  F   UNL A   1      46.182  28.373  31.945  1.00  0.00    -0.203 F 
ATOM     67  F   UNL A   1      49.317  28.893  27.509  1.00  0.00    -0.200 F 
ATOM     68  C   UNL A   1      49.037  28.143  29.731  1.00  0.00     0.200 A 
ATOM     69  F   UNL A   1      48.702  27.391  31.943  1.00  0.00    -0.200 F 
ATOM     70  F   UNL A   1      50.275  27.628  29.728  1.00  0.00    -0.200 F 
ENDBRANCH  46  60
BRANCH  47  71
ATOM     71  C   UNL A   1      37.005  32.609  29.905  1.00  0.00     0.064 A 
ATOM     72  C   UNL A   1      36.450  33.357  28.857  1.00  0.00     0.173 A 
ATOM     73  C   UNL A   1      36.215  32.407  31.047  1.00  0.00     0.173 A 
ATOM     74  F   UNL A   1      37.168  33.596  27.751  1.00  0.00    -0.203 F 
ATOM     75  C   UNL A   1      35.177  33.917  28.965  1.00  0.00     0.198 A 
ATOM     76  C   UNL A   1      34.930  32.938  31.140  1.00  0.00     0.198 A 
ATOM     77  F   UNL A   1      36.694  31.697  32.079  1.00  0.00    -0.203 F 
ATOM     78  F   UNL A   1      34.701  34.686  27.976  1.00  0.00    -0.200 F 
ATOM     79  C   UNL A   1      34.418  33.706  30.105  1.00  0.00     0.200 A 
ATOM     80  F   UNL A   1      34.194  32.718  32.238  1.00  0.00    -0.200 F 
ATOM     81  F   UNL A   1      33.198  34.252  30.213  1.00  0.00    -0.200 F 
ENDBRANCH  47  71
BRANCH  59  82
ATOM     82  C   UNL A   1      43.179  35.352  31.633  1.00  0.00     0.064 A 
ATOM     83  C   UNL A   1      43.184  35.630  33.007  1.00  0.00     0.173 A 
ATOM     84  C   UNL A   1      43.609  36.361  30.756  1.00  0.00     0.173 A 
ATOM     85  F   UNL A   1      42.770  34.704  33.885  1.00  0.00    -0.203 F 
ATOM     86  C   UNL A   1      43.576  36.879  33.481  1.00  0.00     0.198 A 
ATOM     87  C   UNL A   1      44.037  37.594  31.237  1.00  0.00     0.198 A 
ATOM     88  F   UNL A   1      43.633  36.143  29.432  1.00  0.00    -0.203 F 
ATOM     89  F   UNL A   1      43.519  37.140  34.795  1.00  0.00    -0.200 F 
ATOM     90  C   UNL A   1      44.011  37.855  32.599  1.00  0.00     0.200 A 
ATOM     91  F   UNL A   1      44.477  38.528  30.382  1.00  0.00    -0.200 F 
ATOM     92  F   UNL A   1      44.401  39.052  33.059  1.00  0.00    -0.200 F 
ENDBRANCH  59  82
ENDBRANCH  33  34
ENDBRANCH  26  28
ENDBRANCH  25  26
ENDBRANCH  24  25
ENDBRANCH   1  24
TORSDOF 15
ENDMDL
