MODEL 1
REMARK VINA RESULT:     -11.7      0.000      0.000
REMARK SMILES CC(C)CN(C)c1cc2c(cc1Cl)C=C(C(=O)OCCOCCOC(=O)c1ccc(-c3c4nc(c(-c5c(F)c(F)c(F)c(F)c5F)c5ccc([nH]5)c(-c5c(F)c(F)c(F)c(F)c5F)c5nc(c(-c6c(F)c(F)c(F)c(F)c6F)c6ccc3[nH]6)C=C5)C=C4)cc1)[C@@H](C(F)(F)F)O2
REMARK SMILES IDX 20 1 19 2 18 3 16 4 17 5 15 6 7 7 8 8 12 9 9 10 11 11 13 12
REMARK SMILES IDX 10 13 95 14 14 15 90 16 5 17 6 18 4 19 2 20 1 21 3 22 91 23
REMARK SMILES IDX 92 24 93 25 94 26 21 27 22 28 23 29 24 30 25 31 26 32 27 33
REMARK SMILES IDX 28 34 89 35 29 36 88 37 30 38 31 39 32 40 82 41 33 42 87 43
REMARK SMILES IDX 81 44 83 45 34 46 86 47 80 48 79 49 35 51 67 52 47 53 66 54
REMARK SMILES IDX 48 55 51 56 65 57 84 58 49 59 50 60 64 62 85 63 52 64 36 65
REMARK SMILES IDX 37 66 45 67 38 68 39 69 43 70 46 71 40 72 41 73 44 74 42 75
REMARK SMILES IDX 68 76 69 77 77 78 70 79 71 80 75 81 78 82 72 83 73 84 76 85
REMARK SMILES IDX 74 86 53 87 54 88 62 89 55 90 56 91 60 92 63 93 57 94 58 95
REMARK SMILES IDX 61 96 59 97
REMARK H PARENT 83 50 51 61
REMARK Flexibility Score: inf
ROOT
ATOM      1  C   UNL A   1      31.775  29.152  27.277  1.00  0.00     0.202 C 
ENDROOT
BRANCH   1   2
ATOM      2  C   UNL A   1      31.613  28.115  26.162  1.00  0.00     0.261 C 
BRANCH   2   3
ATOM      3  O   UNL A   1      31.765  26.767  26.629  1.00  0.00    -0.460 OA
BRANCH   3   4
ATOM      4  C   UNL A   1      32.827  26.129  26.084  1.00  0.00     0.338 C 
ATOM      5  O   UNL A   1      33.943  26.596  25.916  1.00  0.00    -0.246 OA
BRANCH   4   6
ATOM      6  C   UNL A   1      32.510  24.720  25.797  1.00  0.00     0.087 C 
ATOM      7  C   UNL A   1      33.183  19.874  24.660  1.00  0.00     0.059 A 
ATOM      8  C   UNL A   1      32.049  20.717  24.697  1.00  0.00     0.074 A 
ATOM      9  C   UNL A   1      34.428  20.443  25.008  1.00  0.00     0.065 A 
ATOM     10  C   UNL A   1      32.155  22.050  25.116  1.00  0.00     0.130 A 
ATOM     11  C   UNL A   1      34.506  21.724  25.545  1.00  0.00     0.034 A 
ATOM     12  Cl  UNL A   1      35.934  19.635  24.736  1.00  0.00    -0.082 Cl
ATOM     13  C   UNL A   1      33.369  22.519  25.607  1.00  0.00     0.019 A 
ATOM     14  O   UNL A   1      31.041  22.850  25.043  1.00  0.00    -0.475 OA
ATOM     15  C   UNL A   1      33.488  23.867  26.112  1.00  0.00     0.027 C 
ATOM     16  C   UNL A   1      31.255  24.303  25.083  1.00  0.00     0.316 C 
BRANCH   7  17
ATOM     17  N   UNL A   1      33.076  18.526  24.305  1.00  0.00    -0.373 N 
ATOM     18  C   UNL A   1      32.532  18.251  22.980  1.00  0.00     0.143 C 
BRANCH  17  19
ATOM     19  C   UNL A   1      32.835  17.535  25.376  1.00  0.00     0.119 C 
BRANCH  19  20
ATOM     20  C   UNL A   1      33.334  16.116  25.016  1.00  0.00     0.002 C 
ATOM     21  C   UNL A   1      34.827  15.930  25.303  1.00  0.00     0.009 C 
ATOM     22  C   UNL A   1      32.560  15.031  25.772  1.00  0.00     0.009 C 
ENDBRANCH  19  20
ENDBRANCH  17  19
ENDBRANCH   7  17
BRANCH  16  23
ATOM     23  C   UNL A   1      31.198  24.902  23.669  1.00  0.00     0.430 C 
ATOM     24  F   UNL A   1      30.491  26.056  23.645  1.00  0.00    -0.167 F 
ATOM     25  F   UNL A   1      32.441  25.201  23.216  1.00  0.00    -0.167 F 
ATOM     26  F   UNL A   1      30.637  24.058  22.775  1.00  0.00    -0.167 F 
ENDBRANCH  16  23
ENDBRANCH   4   6
ENDBRANCH   3   4
ENDBRANCH   2   3
ENDBRANCH   1   2
BRANCH   1  27
ATOM     27  O   UNL A   1      32.390  30.395  26.959  1.00  0.00    -0.374 OA
BRANCH  27  28
ATOM     28  C   UNL A   1      31.569  31.495  26.573  1.00  0.00     0.202 C 
BRANCH  28  29
ATOM     29  C   UNL A   1      32.091  32.922  26.786  1.00  0.00     0.261 C 
BRANCH  29  30
ATOM     30  O   UNL A   1      32.775  33.095  28.039  1.00  0.00    -0.460 OA
BRANCH  30  31
ATOM     31  C   UNL A   1      33.862  33.903  27.990  1.00  0.00     0.338 C 
ATOM     32  O   UNL A   1      33.889  35.100  27.739  1.00  0.00    -0.246 OA
BRANCH  31  33
ATOM     33  C   UNL A   1      35.038  33.171  28.490  1.00  0.00     0.060 A 
ATOM     34  C   UNL A   1      36.321  33.698  28.354  1.00  0.00     0.016 A 
ATOM     35  C   UNL A   1      34.831  31.953  29.152  1.00  0.00     0.016 A 
ATOM     36  C   UNL A   1      37.403  33.008  28.908  1.00  0.00     0.010 A 
ATOM     37  C   UNL A   1      35.913  31.266  29.702  1.00  0.00     0.010 A 
ATOM     38  C   UNL A   1      37.204  31.798  29.602  1.00  0.00    -0.014 A 
BRANCH  38  39
ATOM     39  C   UNL A   1      38.333  31.162  30.322  1.00  0.00     0.031 A 
ATOM     40  C   UNL A   1      38.628  31.484  31.755  1.00  0.00     0.074 A 
ATOM     41  C   UNL A   1      39.101  30.278  29.655  1.00  0.00     0.049 A 
ATOM     42  N   UNL A   1      39.528  30.957  32.548  1.00  0.00    -0.248 NA
ATOM     43  C   UNL A   1      37.813  32.534  32.384  1.00  0.00     0.031 C 
ATOM     44  C   UNL A   1      38.928  29.915  28.248  1.00  0.00     0.029 A 
ATOM     45  N   UNL A   1      40.164  29.517  30.069  1.00  0.00    -0.354 N 
ATOM     46  C   UNL A   1      39.370  31.587  33.774  1.00  0.00     0.074 A 
ATOM     47  C   UNL A   1      38.328  32.579  33.606  1.00  0.00     0.031 C 
ATOM     48  C   UNL A   1      39.823  28.969  27.927  1.00  0.00     0.029 A 
ATOM     49  C   UNL A   1      40.655  28.683  29.093  1.00  0.00     0.049 A 
ATOM     50  H   UNL A   1      40.540  29.564  30.978  1.00  0.00     0.167 HD
ATOM     51  C   UNL A   1      40.017  31.336  34.937  1.00  0.00     0.037 A 
ATOM     52  C   UNL A   1      41.656  27.784  29.137  1.00  0.00     0.037 A 
ATOM     53  C   UNL A   1      41.067  30.360  35.091  1.00  0.00     0.049 A 
ATOM     54  C   UNL A   1      42.402  27.578  30.427  1.00  0.00     0.074 A 
ATOM     55  C   UNL A   1      41.769  30.025  36.236  1.00  0.00     0.029 A 
ATOM     56  N   UNL A   1      41.572  29.569  34.069  1.00  0.00    -0.354 N 
ATOM     57  N   UNL A   1      42.195  28.127  31.599  1.00  0.00    -0.248 NA
ATOM     58  C   UNL A   1      43.520  26.624  30.399  1.00  0.00     0.031 C 
ATOM     59  C   UNL A   1      42.733  29.071  35.897  1.00  0.00     0.029 A 
ATOM     60  C   UNL A   1      42.595  28.767  34.553  1.00  0.00     0.049 A 
ATOM     61  H   UNL A   1      41.252  29.576  33.138  1.00  0.00     0.167 HD
ATOM     62  C   UNL A   1      43.136  27.567  32.453  1.00  0.00     0.074 A 
ATOM     63  C   UNL A   1      43.902  26.621  31.670  1.00  0.00     0.031 C 
ATOM     64  C   UNL A   1      43.346  27.820  33.767  1.00  0.00     0.037 A 
BRANCH  51  65
ATOM     65  C   UNL A   1      39.600  32.108  36.155  1.00  0.00     0.064 A 
ATOM     66  C   UNL A   1      40.230  33.314  36.499  1.00  0.00     0.173 A 
ATOM     67  C   UNL A   1      38.502  31.700  36.927  1.00  0.00     0.173 A 
ATOM     68  F   UNL A   1      41.288  33.747  35.796  1.00  0.00    -0.203 F 
ATOM     69  C   UNL A   1      39.782  34.076  37.575  1.00  0.00     0.198 A 
ATOM     70  C   UNL A   1      38.040  32.478  37.985  1.00  0.00     0.198 A 
ATOM     71  F   UNL A   1      37.857  30.560  36.635  1.00  0.00    -0.203 F 
ATOM     72  F   UNL A   1      40.416  35.212  37.898  1.00  0.00    -0.200 F 
ATOM     73  C   UNL A   1      38.682  33.663  38.310  1.00  0.00     0.200 A 
ATOM     74  F   UNL A   1      36.963  32.087  38.682  1.00  0.00    -0.200 F 
ATOM     75  F   UNL A   1      38.237  34.411  39.330  1.00  0.00    -0.200 F 
ENDBRANCH  51  65
BRANCH  52  76
ATOM     76  C   UNL A   1      41.979  26.978  27.931  1.00  0.00     0.064 A 
ATOM     77  C   UNL A   1      41.372  25.731  27.719  1.00  0.00     0.173 A 
ATOM     78  C   UNL A   1      42.890  27.432  26.967  1.00  0.00     0.173 A 
ATOM     79  F   UNL A   1      40.507  25.245  28.621  1.00  0.00    -0.203 F 
ATOM     80  C   UNL A   1      41.678  24.964  26.596  1.00  0.00     0.198 A 
ATOM     81  C   UNL A   1      43.171  26.678  25.829  1.00  0.00     0.198 A 
ATOM     82  F   UNL A   1      43.495  28.619  27.120  1.00  0.00    -0.203 F 
ATOM     83  F   UNL A   1      41.117  23.757  26.441  1.00  0.00    -0.200 F 
ATOM     84  C   UNL A   1      42.572  25.441  25.649  1.00  0.00     0.200 A 
ATOM     85  F   UNL A   1      44.022  27.150  24.909  1.00  0.00    -0.200 F 
ATOM     86  F   UNL A   1      42.858  24.706  24.567  1.00  0.00    -0.200 F 
ENDBRANCH  52  76
BRANCH  64  87
ATOM     87  C   UNL A   1      44.436  27.052  34.460  1.00  0.00     0.064 A 
ATOM     88  C   UNL A   1      44.203  25.785  35.014  1.00  0.00     0.173 A 
ATOM     89  C   UNL A   1      45.745  27.556  34.505  1.00  0.00     0.173 A 
ATOM     90  F   UNL A   1      42.966  25.264  35.011  1.00  0.00    -0.203 F 
ATOM     91  C   UNL A   1      45.236  25.058  35.600  1.00  0.00     0.198 A 
ATOM     92  C   UNL A   1      46.782  26.812  35.062  1.00  0.00     0.198 A 
ATOM     93  F   UNL A   1      46.025  28.760  33.983  1.00  0.00    -0.203 F 
ATOM     94  F   UNL A   1      44.981  23.866  36.157  1.00  0.00    -0.200 F 
ATOM     95  C   UNL A   1      46.526  25.566  35.613  1.00  0.00     0.200 A 
ATOM     96  F   UNL A   1      48.031  27.298  35.058  1.00  0.00    -0.200 F 
ATOM     97  F   UNL A   1      47.522  24.856  36.159  1.00  0.00    -0.200 F 
ENDBRANCH  64  87
ENDBRANCH  38  39
ENDBRANCH  31  33
ENDBRANCH  30  31
ENDBRANCH  29  30
ENDBRANCH  28  29
ENDBRANCH  27  28
ENDBRANCH   1  27
TORSDOF 18
ENDMDL
MODEL 2
REMARK VINA RESULT:     -11.4      3.483      8.887
REMARK SMILES CC(C)CN(C)c1cc2c(cc1Cl)C=C(C(=O)OCCOCCOC(=O)c1ccc(-c3c4nc(c(-c5c(F)c(F)c(F)c(F)c5F)c5ccc([nH]5)c(-c5c(F)c(F)c(F)c(F)c5F)c5nc(c(-c6c(F)c(F)c(F)c(F)c6F)c6ccc3[nH]6)C=C5)C=C4)cc1)[C@@H](C(F)(F)F)O2
REMARK SMILES IDX 20 1 19 2 18 3 16 4 17 5 15 6 7 7 8 8 12 9 9 10 11 11 13 12
REMARK SMILES IDX 10 13 95 14 14 15 90 16 5 17 6 18 4 19 2 20 1 21 3 22 91 23
REMARK SMILES IDX 92 24 93 25 94 26 21 27 22 28 23 29 24 30 25 31 26 32 27 33
REMARK SMILES IDX 28 34 89 35 29 36 88 37 30 38 31 39 32 40 82 41 33 42 87 43
REMARK SMILES IDX 81 44 83 45 34 46 86 47 80 48 79 49 35 51 67 52 47 53 66 54
REMARK SMILES IDX 48 55 51 56 65 57 84 58 49 59 50 60 64 62 85 63 52 64 36 65
REMARK SMILES IDX 37 66 45 67 38 68 39 69 43 70 46 71 40 72 41 73 44 74 42 75
REMARK SMILES IDX 68 76 69 77 77 78 70 79 71 80 75 81 78 82 72 83 73 84 76 85
REMARK SMILES IDX 74 86 53 87 54 88 62 89 55 90 56 91 60 92 63 93 57 94 58 95
REMARK SMILES IDX 61 96 59 97
REMARK H PARENT 83 50 51 61
REMARK Flexibility Score: inf
ROOT
ATOM      1  C   UNL A   1      38.410  21.427  25.642  1.00  0.00     0.202 C 
ENDROOT
BRANCH   1   2
ATOM      2  C   UNL A   1      37.202  20.731  25.008  1.00  0.00     0.261 C 
BRANCH   2   3
ATOM      3  O   UNL A   1      36.200  21.655  24.558  1.00  0.00    -0.460 OA
BRANCH   3   4
ATOM      4  C   UNL A   1      34.944  21.157  24.628  1.00  0.00     0.338 C 
ATOM      5  O   UNL A   1      34.639  19.988  24.811  1.00  0.00    -0.246 OA
BRANCH   4   6
ATOM      6  C   UNL A   1      33.941  22.233  24.562  1.00  0.00     0.087 C 
ATOM      7  C   UNL A   1      31.950  26.780  23.796  1.00  0.00     0.059 A 
ATOM      8  C   UNL A   1      31.495  25.617  24.457  1.00  0.00     0.074 A 
ATOM      9  C   UNL A   1      33.226  26.729  23.194  1.00  0.00     0.065 A 
ATOM     10  C   UNL A   1      32.262  24.444  24.465  1.00  0.00     0.130 A 
ATOM     11  C   UNL A   1      33.924  25.530  23.093  1.00  0.00     0.034 A 
ATOM     12  Cl  UNL A   1      34.041  28.139  22.607  1.00  0.00    -0.082 Cl
ATOM     13  C   UNL A   1      33.436  24.389  23.719  1.00  0.00     0.019 A 
ATOM     14  O   UNL A   1      31.817  23.374  25.200  1.00  0.00    -0.475 OA
ATOM     15  C   UNL A   1      34.209  23.172  23.650  1.00  0.00     0.027 C 
ATOM     16  C   UNL A   1      32.799  22.334  25.533  1.00  0.00     0.316 C 
BRANCH   7  17
ATOM     17  N   UNL A   1      31.163  27.934  23.729  1.00  0.00    -0.373 N 
ATOM     18  C   UNL A   1      31.359  28.909  24.795  1.00  0.00     0.143 C 
BRANCH  17  19
ATOM     19  C   UNL A   1      29.820  27.833  23.115  1.00  0.00     0.119 C 
BRANCH  19  20
ATOM     20  C   UNL A   1      29.100  29.196  22.999  1.00  0.00     0.002 C 
ATOM     21  C   UNL A   1      29.638  30.046  21.843  1.00  0.00     0.009 C 
ATOM     22  C   UNL A   1      27.590  29.028  22.811  1.00  0.00     0.009 C 
ENDBRANCH  19  20
ENDBRANCH  17  19
ENDBRANCH   7  17
BRANCH  16  23
ATOM     23  C   UNL A   1      33.309  22.506  26.972  1.00  0.00     0.430 C 
ATOM     24  F   UNL A   1      34.458  23.221  27.012  1.00  0.00    -0.167 F 
ATOM     25  F   UNL A   1      32.408  23.179  27.731  1.00  0.00    -0.167 F 
ATOM     26  F   UNL A   1      33.542  21.322  27.580  1.00  0.00    -0.167 F 
ENDBRANCH  16  23
ENDBRANCH   4   6
ENDBRANCH   3   4
ENDBRANCH   2   3
ENDBRANCH   1   2
BRANCH   1  27
ATOM     27  O   UNL A   1      39.668  20.760  25.607  1.00  0.00    -0.374 OA
BRANCH  27  28
ATOM     28  C   UNL A   1      40.632  21.050  26.616  1.00  0.00     0.202 C 
BRANCH  28  29
ATOM     29  C   UNL A   1      41.922  21.781  26.222  1.00  0.00     0.261 C 
BRANCH  29  30
ATOM     30  O   UNL A   1      41.683  23.027  25.544  1.00  0.00    -0.460 OA
BRANCH  30  31
ATOM     31  C   UNL A   1      42.655  23.958  25.702  1.00  0.00     0.338 C 
ATOM     32  O   UNL A   1      43.701  24.056  25.076  1.00  0.00    -0.246 OA
BRANCH  31  33
ATOM     33  C   UNL A   1      42.185  25.001  26.629  1.00  0.00     0.060 A 
ATOM     34  C   UNL A   1      41.084  24.782  27.456  1.00  0.00     0.016 A 
ATOM     35  C   UNL A   1      42.901  26.204  26.697  1.00  0.00     0.016 A 
ATOM     36  C   UNL A   1      40.715  25.767  28.375  1.00  0.00     0.010 A 
ATOM     37  C   UNL A   1      42.529  27.187  27.614  1.00  0.00     0.010 A 
ATOM     38  C   UNL A   1      41.446  26.967  28.473  1.00  0.00    -0.014 A 
BRANCH  38  39
ATOM     39  C   UNL A   1      41.145  27.933  29.559  1.00  0.00     0.031 A 
ATOM     40  C   UNL A   1      40.035  28.930  29.433  1.00  0.00     0.074 A 
ATOM     41  C   UNL A   1      41.901  27.897  30.674  1.00  0.00     0.049 A 
ATOM     42  N   UNL A   1      39.596  29.788  30.320  1.00  0.00    -0.248 NA
ATOM     43  C   UNL A   1      39.324  28.978  28.147  1.00  0.00     0.031 C 
ATOM     44  C   UNL A   1      43.030  26.993  30.890  1.00  0.00     0.029 A 
ATOM     45  N   UNL A   1      41.827  28.625  31.834  1.00  0.00    -0.354 N 
ATOM     46  C   UNL A   1      38.541  30.456  29.715  1.00  0.00     0.074 A 
ATOM     47  C   UNL A   1      38.443  29.948  28.362  1.00  0.00     0.031 C 
ATOM     48  C   UNL A   1      43.516  27.187  32.125  1.00  0.00     0.029 A 
ATOM     49  C   UNL A   1      42.756  28.252  32.775  1.00  0.00     0.049 A 
ATOM     50  H   UNL A   1      41.172  29.345  31.979  1.00  0.00     0.167 HD
ATOM     51  C   UNL A   1      37.716  31.386  30.252  1.00  0.00     0.037 A 
ATOM     52  C   UNL A   1      42.966  28.710  34.023  1.00  0.00     0.037 A 
ATOM     53  C   UNL A   1      37.833  31.901  31.593  1.00  0.00     0.049 A 
ATOM     54  C   UNL A   1      42.075  29.793  34.568  1.00  0.00     0.074 A 
ATOM     55  C   UNL A   1      37.031  32.833  32.231  1.00  0.00     0.029 A 
ATOM     56  N   UNL A   1      38.817  31.537  32.501  1.00  0.00    -0.354 N 
ATOM     57  N   UNL A   1      41.035  30.365  34.011  1.00  0.00    -0.248 NA
ATOM     58  C   UNL A   1      42.386  30.292  35.914  1.00  0.00     0.031 C 
ATOM     59  C   UNL A   1      37.560  33.072  33.502  1.00  0.00     0.029 A 
ATOM     60  C   UNL A   1      38.657  32.245  33.683  1.00  0.00     0.049 A 
ATOM     61  H   UNL A   1      39.524  30.873  32.332  1.00  0.00     0.167 HD
ATOM     62  C   UNL A   1      40.552  31.270  34.948  1.00  0.00     0.074 A 
ATOM     63  C   UNL A   1      41.400  31.156  36.115  1.00  0.00     0.031 C 
ATOM     64  C   UNL A   1      39.501  32.119  34.844  1.00  0.00     0.037 A 
BRANCH  51  65
ATOM     65  C   UNL A   1      36.589  31.900  29.404  1.00  0.00     0.064 A 
ATOM     66  C   UNL A   1      35.512  31.072  29.053  1.00  0.00     0.173 A 
ATOM     67  C   UNL A   1      36.529  33.249  29.025  1.00  0.00     0.173 A 
ATOM     68  F   UNL A   1      35.522  29.773  29.387  1.00  0.00    -0.203 F 
ATOM     69  C   UNL A   1      34.422  31.574  28.345  1.00  0.00     0.198 A 
ATOM     70  C   UNL A   1      35.426  33.754  28.341  1.00  0.00     0.198 A 
ATOM     71  F   UNL A   1      37.528  34.087  29.344  1.00  0.00    -0.203 F 
ATOM     72  F   UNL A   1      33.418  30.757  27.999  1.00  0.00    -0.200 F 
ATOM     73  C   UNL A   1      34.375  32.916  28.000  1.00  0.00     0.200 A 
ATOM     74  F   UNL A   1      35.372  35.056  28.026  1.00  0.00    -0.200 F 
ATOM     75  F   UNL A   1      33.314  33.403  27.340  1.00  0.00    -0.200 F 
ENDBRANCH  51  65
BRANCH  52  76
ATOM     76  C   UNL A   1      44.039  28.112  34.861  1.00  0.00     0.064 A 
ATOM     77  C   UNL A   1      43.800  26.950  35.609  1.00  0.00     0.173 A 
ATOM     78  C   UNL A   1      45.319  28.679  34.929  1.00  0.00     0.173 A 
ATOM     79  F   UNL A   1      42.586  26.380  35.591  1.00  0.00    -0.203 F 
ATOM     80  C   UNL A   1      44.797  26.390  36.405  1.00  0.00     0.198 A 
ATOM     81  C   UNL A   1      46.324  28.100  35.700  1.00  0.00     0.198 A 
ATOM     82  F   UNL A   1      45.600  29.789  34.229  1.00  0.00    -0.203 F 
ATOM     83  F   UNL A   1      44.528  25.304  37.143  1.00  0.00    -0.200 F 
ATOM     84  C   UNL A   1      46.059  26.960  36.445  1.00  0.00     0.200 A 
ATOM     85  F   UNL A   1      47.547  28.646  35.723  1.00  0.00    -0.200 F 
ATOM     86  F   UNL A   1      47.019  26.416  37.203  1.00  0.00    -0.200 F 
ENDBRANCH  52  76
BRANCH  64  87
ATOM     87  C   UNL A   1      39.187  32.988  36.030  1.00  0.00     0.064 A 
ATOM     88  C   UNL A   1      38.377  32.531  37.079  1.00  0.00     0.173 A 
ATOM     89  C   UNL A   1      39.763  34.262  36.152  1.00  0.00     0.173 A 
ATOM     90  F   UNL A   1      37.791  31.327  37.005  1.00  0.00    -0.203 F 
ATOM     91  C   UNL A   1      38.143  33.324  38.200  1.00  0.00     0.198 A 
ATOM     92  C   UNL A   1      39.554  35.038  37.289  1.00  0.00     0.198 A 
ATOM     93  F   UNL A   1      40.552  34.744  35.180  1.00  0.00    -0.203 F 
ATOM     94  F   UNL A   1      37.335  32.883  39.173  1.00  0.00    -0.200 F 
ATOM     95  C   UNL A   1      38.740  34.571  38.309  1.00  0.00     0.200 A 
ATOM     96  F   UNL A   1      40.146  36.236  37.399  1.00  0.00    -0.200 F 
ATOM     97  F   UNL A   1      38.530  35.324  39.397  1.00  0.00    -0.200 F 
ENDBRANCH  64  87
ENDBRANCH  38  39
ENDBRANCH  31  33
ENDBRANCH  30  31
ENDBRANCH  29  30
ENDBRANCH  28  29
ENDBRANCH  27  28
ENDBRANCH   1  27
TORSDOF 18
ENDMDL
MODEL 3
REMARK VINA RESULT:     -11.2      5.511      9.648
REMARK SMILES CC(C)CN(C)c1cc2c(cc1Cl)C=C(C(=O)OCCOCCOC(=O)c1ccc(-c3c4nc(c(-c5c(F)c(F)c(F)c(F)c5F)c5ccc([nH]5)c(-c5c(F)c(F)c(F)c(F)c5F)c5nc(c(-c6c(F)c(F)c(F)c(F)c6F)c6ccc3[nH]6)C=C5)C=C4)cc1)[C@@H](C(F)(F)F)O2
REMARK SMILES IDX 20 1 19 2 18 3 16 4 17 5 15 6 7 7 8 8 12 9 9 10 11 11 13 12
REMARK SMILES IDX 10 13 95 14 14 15 90 16 5 17 6 18 4 19 2 20 1 21 3 22 91 23
REMARK SMILES IDX 92 24 93 25 94 26 21 27 22 28 23 29 24 30 25 31 26 32 27 33
REMARK SMILES IDX 28 34 89 35 29 36 88 37 30 38 31 39 32 40 82 41 33 42 87 43
REMARK SMILES IDX 81 44 83 45 34 46 86 47 80 48 79 49 35 51 67 52 47 53 66 54
REMARK SMILES IDX 48 55 51 56 65 57 84 58 49 59 50 60 64 62 85 63 52 64 36 65
REMARK SMILES IDX 37 66 45 67 38 68 39 69 43 70 46 71 40 72 41 73 44 74 42 75
REMARK SMILES IDX 68 76 69 77 77 78 70 79 71 80 75 81 78 82 72 83 73 84 76 85
REMARK SMILES IDX 74 86 53 87 54 88 62 89 55 90 56 91 60 92 63 93 57 94 58 95
REMARK SMILES IDX 61 96 59 97
REMARK H PARENT 83 50 51 61
REMARK Flexibility Score: inf
ROOT
ATOM      1  C   UNL A   1      37.571  22.877  25.728  1.00  0.00     0.202 C 
ENDROOT
BRANCH   1   2
ATOM      2  C   UNL A   1      36.075  23.195  25.799  1.00  0.00     0.261 C 
BRANCH   2   3
ATOM      3  O   UNL A   1      35.687  24.251  24.909  1.00  0.00    -0.460 OA
BRANCH   3   4
ATOM      4  C   UNL A   1      35.216  23.802  23.722  1.00  0.00     0.338 C 
ATOM      5  O   UNL A   1      35.617  22.825  23.107  1.00  0.00    -0.246 OA
BRANCH   4   6
ATOM      6  C   UNL A   1      34.051  24.587  23.282  1.00  0.00     0.087 C 
ATOM      7  C   UNL A   1      30.494  28.133  23.255  1.00  0.00     0.059 A 
ATOM      8  C   UNL A   1      30.671  26.927  22.540  1.00  0.00     0.074 A 
ATOM      9  C   UNL A   1      31.489  28.486  24.191  1.00  0.00     0.065 A 
ATOM     10  C   UNL A   1      31.820  26.144  22.720  1.00  0.00     0.130 A 
ATOM     11  C   UNL A   1      32.683  27.777  24.272  1.00  0.00     0.034 A 
ATOM     12  Cl  UNL A   1      31.281  29.763  25.341  1.00  0.00    -0.082 Cl
ATOM     13  C   UNL A   1      32.849  26.615  23.529  1.00  0.00     0.019 A 
ATOM     14  O   UNL A   1      31.898  24.936  22.072  1.00  0.00    -0.475 OA
ATOM     15  C   UNL A   1      34.074  25.863  23.675  1.00  0.00     0.027 C 
ATOM     16  C   UNL A   1      32.878  23.966  22.577  1.00  0.00     0.316 C 
BRANCH   7  17
ATOM     17  N   UNL A   1      29.382  28.952  23.035  1.00  0.00    -0.373 N 
ATOM     18  C   UNL A   1      28.079  28.305  23.126  1.00  0.00     0.143 C 
BRANCH  17  19
ATOM     19  C   UNL A   1      29.527  30.099  22.112  1.00  0.00     0.119 C 
BRANCH  19  20
ATOM     20  C   UNL A   1      28.300  31.040  22.114  1.00  0.00     0.002 C 
ATOM     21  C   UNL A   1      28.246  31.931  23.359  1.00  0.00     0.009 C 
ATOM     22  C   UNL A   1      28.272  31.942  20.876  1.00  0.00     0.009 C 
ENDBRANCH  19  20
ENDBRANCH  17  19
ENDBRANCH   7  17
BRANCH  16  23
ATOM     23  C   UNL A   1      32.195  22.911  23.462  1.00  0.00     0.430 C 
ATOM     24  F   UNL A   1      32.618  21.661  23.165  1.00  0.00    -0.167 F 
ATOM     25  F   UNL A   1      32.483  23.115  24.773  1.00  0.00    -0.167 F 
ATOM     26  F   UNL A   1      30.849  22.930  23.339  1.00  0.00    -0.167 F 
ENDBRANCH  16  23
ENDBRANCH   4   6
ENDBRANCH   3   4
ENDBRANCH   2   3
ENDBRANCH   1   2
BRANCH   1  27
ATOM     27  O   UNL A   1      37.967  21.516  25.586  1.00  0.00    -0.374 OA
BRANCH  27  28
ATOM     28  C   UNL A   1      39.341  21.175  25.751  1.00  0.00     0.202 C 
BRANCH  28  29
ATOM     29  C   UNL A   1      39.708  19.732  26.123  1.00  0.00     0.261 C 
BRANCH  29  30
ATOM     30  O   UNL A   1      40.846  19.232  25.400  1.00  0.00    -0.460 OA
BRANCH  30  31
ATOM     31  C   UNL A   1      41.987  19.137  26.126  1.00  0.00     0.338 C 
ATOM     32  O   UNL A   1      42.587  18.119  26.440  1.00  0.00    -0.246 OA
BRANCH  31  33
ATOM     33  C   UNL A   1      42.546  20.483  26.333  1.00  0.00     0.060 A 
ATOM     34  C   UNL A   1      43.010  21.239  25.258  1.00  0.00     0.016 A 
ATOM     35  C   UNL A   1      42.554  21.008  27.632  1.00  0.00     0.016 A 
ATOM     36  C   UNL A   1      43.464  22.541  25.486  1.00  0.00     0.010 A 
ATOM     37  C   UNL A   1      43.010  22.307  27.857  1.00  0.00     0.010 A 
ATOM     38  C   UNL A   1      43.449  23.090  26.782  1.00  0.00    -0.014 A 
BRANCH  38  39
ATOM     39  C   UNL A   1      43.779  24.521  26.987  1.00  0.00     0.031 A 
ATOM     40  C   UNL A   1      42.744  25.506  27.439  1.00  0.00     0.074 A 
ATOM     41  C   UNL A   1      45.042  24.927  26.752  1.00  0.00     0.049 A 
ATOM     42  N   UNL A   1      42.891  26.773  27.737  1.00  0.00    -0.248 NA
ATOM     43  C   UNL A   1      41.367  25.011  27.573  1.00  0.00     0.031 C 
ATOM     44  C   UNL A   1      46.123  24.063  26.274  1.00  0.00     0.029 A 
ATOM     45  N   UNL A   1      45.635  26.155  26.895  1.00  0.00    -0.354 N 
ATOM     46  C   UNL A   1      41.635  27.220  28.123  1.00  0.00     0.074 A 
ATOM     47  C   UNL A   1      40.724  26.105  27.962  1.00  0.00     0.031 C 
ATOM     48  C   UNL A   1      47.256  24.777  26.207  1.00  0.00     0.029 A 
ATOM     49  C   UNL A   1      46.977  26.154  26.602  1.00  0.00     0.049 A 
ATOM     50  H   UNL A   1      45.146  26.961  27.180  1.00  0.00     0.167 HD
ATOM     51  C   UNL A   1      41.285  28.441  28.593  1.00  0.00     0.037 A 
ATOM     52  C   UNL A   1      47.882  27.150  26.656  1.00  0.00     0.037 A 
ATOM     53  C   UNL A   1      42.194  29.552  28.731  1.00  0.00     0.049 A 
ATOM     54  C   UNL A   1      47.448  28.514  27.117  1.00  0.00     0.074 A 
ATOM     55  C   UNL A   1      41.933  30.823  29.215  1.00  0.00     0.029 A 
ATOM     56  N   UNL A   1      43.535  29.529  28.377  1.00  0.00    -0.354 N 
ATOM     57  N   UNL A   1      46.273  28.905  27.548  1.00  0.00    -0.248 NA
ATOM     58  C   UNL A   1      48.466  29.573  27.102  1.00  0.00     0.031 C 
ATOM     59  C   UNL A   1      43.100  31.583  29.105  1.00  0.00     0.029 A 
ATOM     60  C   UNL A   1      44.107  30.771  28.608  1.00  0.00     0.049 A 
ATOM     61  H   UNL A   1      44.011  28.747  28.016  1.00  0.00     0.167 HD
ATOM     62  C   UNL A   1      46.417  30.246  27.880  1.00  0.00     0.074 A 
ATOM     63  C   UNL A   1      47.798  30.596  27.620  1.00  0.00     0.031 C 
ATOM     64  C   UNL A   1      45.485  31.108  28.354  1.00  0.00     0.037 A 
BRANCH  51  65
ATOM     65  C   UNL A   1      39.861  28.649  29.022  1.00  0.00     0.064 A 
ATOM     66  C   UNL A   1      39.458  28.388  30.341  1.00  0.00     0.173 A 
ATOM     67  C   UNL A   1      38.918  29.205  28.146  1.00  0.00     0.173 A 
ATOM     68  F   UNL A   1      40.320  27.850  31.217  1.00  0.00    -0.203 F 
ATOM     69  C   UNL A   1      38.160  28.667  30.762  1.00  0.00     0.198 A 
ATOM     70  C   UNL A   1      37.629  29.509  28.578  1.00  0.00     0.198 A 
ATOM     71  F   UNL A   1      39.255  29.484  26.877  1.00  0.00    -0.203 F 
ATOM     72  F   UNL A   1      37.792  28.386  32.019  1.00  0.00    -0.200 F 
ATOM     73  C   UNL A   1      37.251  29.238  29.884  1.00  0.00     0.200 A 
ATOM     74  F   UNL A   1      36.758  30.079  27.734  1.00  0.00    -0.200 F 
ATOM     75  F   UNL A   1      36.010  29.529  30.298  1.00  0.00    -0.200 F 
ENDBRANCH  51  65
BRANCH  52  76
ATOM     76  C   UNL A   1      49.301  26.879  26.305  1.00  0.00     0.064 A 
ATOM     77  C   UNL A   1      50.225  26.509  27.293  1.00  0.00     0.173 A 
ATOM     78  C   UNL A   1      49.762  26.978  24.985  1.00  0.00     0.173 A 
ATOM     79  F   UNL A   1      49.837  26.419  28.573  1.00  0.00    -0.203 F 
ATOM     80  C   UNL A   1      51.560  26.265  26.974  1.00  0.00     0.198 A 
ATOM     81  C   UNL A   1      51.089  26.703  24.662  1.00  0.00     0.198 A 
ATOM     82  F   UNL A   1      48.918  27.324  24.002  1.00  0.00    -0.203 F 
ATOM     83  F   UNL A   1      52.431  25.956  27.944  1.00  0.00    -0.200 F 
ATOM     84  C   UNL A   1      51.989  26.355  25.659  1.00  0.00     0.200 A 
ATOM     85  F   UNL A   1      51.496  26.774  23.388  1.00  0.00    -0.200 F 
ATOM     86  F   UNL A   1      53.270  26.111  25.352  1.00  0.00    -0.200 F 
ENDBRANCH  52  76
BRANCH  64  87
ATOM     87  C   UNL A   1      45.922  32.516  28.646  1.00  0.00     0.064 A 
ATOM     88  C   UNL A   1      45.844  33.525  27.676  1.00  0.00     0.173 A 
ATOM     89  C   UNL A   1      46.353  32.876  29.933  1.00  0.00     0.173 A 
ATOM     90  F   UNL A   1      45.452  33.231  26.426  1.00  0.00    -0.203 F 
ATOM     91  C   UNL A   1      46.195  34.839  27.977  1.00  0.00     0.198 A 
ATOM     92  C   UNL A   1      46.672  34.196  30.240  1.00  0.00     0.198 A 
ATOM     93  F   UNL A   1      46.440  31.951  30.901  1.00  0.00    -0.203 F 
ATOM     94  F   UNL A   1      46.149  35.778  27.023  1.00  0.00    -0.200 F 
ATOM     95  C   UNL A   1      46.598  35.174  29.261  1.00  0.00     0.200 A 
ATOM     96  F   UNL A   1      47.044  34.521  31.486  1.00  0.00    -0.200 F 
ATOM     97  F   UNL A   1      46.916  36.443  29.555  1.00  0.00    -0.200 F 
ENDBRANCH  64  87
ENDBRANCH  38  39
ENDBRANCH  31  33
ENDBRANCH  30  31
ENDBRANCH  29  30
ENDBRANCH  28  29
ENDBRANCH  27  28
ENDBRANCH   1  27
TORSDOF 18
ENDMDL
