MODEL 1
REMARK VINA RESULT:     -11.7      0.000      0.000
REMARK SMILES Cc1cc(C[N@@H+]2CC[C@@H](C(=O)OCCOCCOC(=O)c3ccc(-c4c5nc(c(-c6c(F)c(F)c(F)c(F)c6F)c6ccc([nH]6)c(-c6c(F)c(F)c(F)c(F)c6F)c6nc(c(-c7c(F)c(F)c(F)c(F)c7F)c7ccc4[nH]7)C=C6)C=C5)cc3)C2)ccc1Br
REMARK SMILES IDX 15 1 14 2 13 3 12 4 10 5 11 6 9 7 6 8 7 9 84 10 8 12 5 13
REMARK SMILES IDX 4 14 1 15 2 16 3 17 87 18 86 19 88 20 85 21 16 22 17 23
REMARK SMILES IDX 18 24 19 25 20 26 21 27 22 28 83 29 23 30 82 31 24 32 25 33
REMARK SMILES IDX 26 34 76 35 27 36 81 37 75 38 77 39 28 40 80 41 74 42 73 43
REMARK SMILES IDX 29 45 61 46 41 47 60 48 42 49 45 50 59 51 78 52 43 53 44 54
REMARK SMILES IDX 58 56 79 57 46 58 30 59 31 60 39 61 32 62 33 63 37 64 40 65
REMARK SMILES IDX 34 66 35 67 38 68 36 69 62 70 63 71 71 72 64 73 65 74 69 75
REMARK SMILES IDX 72 76 66 77 67 78 70 79 68 80 47 81 48 82 56 83 49 84 50 85
REMARK SMILES IDX 54 86 57 87 51 88 52 89 55 90 53 91
REMARK H PARENT 6 11 77 44 45 55
REMARK Flexibility Score: inf
ROOT
ATOM      1  O   UNL A   1      42.221  21.317  25.373  1.00  0.00    -0.374 OA
ENDROOT
BRANCH   1   2
ATOM      2  C   UNL A   1      41.163  21.617  26.285  1.00  0.00     0.202 C 
BRANCH   2   3
ATOM      3  C   UNL A   1      39.899  20.773  26.126  1.00  0.00     0.261 C 
BRANCH   3   4
ATOM      4  O   UNL A   1      38.800  21.565  25.632  1.00  0.00    -0.463 OA
BRANCH   4   5
ATOM      5  C   UNL A   1      37.790  20.891  25.016  1.00  0.00     0.314 C 
ATOM      6  O   UNL A   1      37.807  19.699  24.741  1.00  0.00    -0.252 OA
BRANCH   5   7
ATOM      7  C   UNL A   1      36.602  21.782  24.739  1.00  0.00     0.159 C 
ATOM      8  N   UNL A   1      35.117  23.238  25.924  1.00  0.00    -0.330 N 
ATOM      9  C   UNL A   1      36.181  24.080  25.379  1.00  0.00     0.263 C 
ATOM     10  C   UNL A   1      35.651  21.874  25.928  1.00  0.00     0.278 C 
ATOM     11  H   UNL A   1      34.888  23.528  26.875  1.00  0.00     0.348 HD
ATOM     12  C   UNL A   1      36.979  23.222  24.406  1.00  0.00     0.082 C 
BRANCH   8  13
ATOM     13  C   UNL A   1      33.790  23.411  25.321  1.00  0.00     0.299 C 
BRANCH  13  14
ATOM     14  C   UNL A   1      33.241  24.818  25.220  1.00  0.00     0.007 A 
ATOM     15  C   UNL A   1      33.657  27.850  22.943  1.00  0.00     0.045 C 
ATOM     16  C   UNL A   1      33.201  26.997  24.093  1.00  0.00    -0.036 A 
ATOM     17  C   UNL A   1      33.645  25.665  24.174  1.00  0.00     0.014 A 
ATOM     18  C   UNL A   1      32.374  27.487  25.112  1.00  0.00     0.020 A 
ATOM     19  C   UNL A   1      31.932  26.644  26.134  1.00  0.00     0.016 A 
ATOM     20  Br  UNL A   1      31.824  29.304  25.180  1.00  0.00    -0.051 Br
ATOM     21  C   UNL A   1      32.338  25.310  26.168  1.00  0.00     0.011 A 
ENDBRANCH  13  14
ENDBRANCH   8  13
ENDBRANCH   5   7
ENDBRANCH   4   5
ENDBRANCH   3   4
ENDBRANCH   2   3
ENDBRANCH   1   2
BRANCH   1  22
ATOM     22  C   UNL A   1      43.551  21.530  25.839  1.00  0.00     0.202 C 
BRANCH  22  23
ATOM     23  C   UNL A   1      44.406  22.466  24.976  1.00  0.00     0.261 C 
BRANCH  23  24
ATOM     24  O   UNL A   1      43.687  23.652  24.588  1.00  0.00    -0.460 OA
BRANCH  24  25
ATOM     25  C   UNL A   1      44.263  24.808  24.988  1.00  0.00     0.338 C 
ATOM     26  O   UNL A   1      45.368  25.234  24.672  1.00  0.00    -0.246 OA
BRANCH  25  27
ATOM     27  C   UNL A   1      43.325  25.623  25.780  1.00  0.00     0.060 A 
ATOM     28  C   UNL A   1      43.736  26.921  26.106  1.00  0.00     0.016 A 
ATOM     29  C   UNL A   1      42.140  25.101  26.306  1.00  0.00     0.016 A 
ATOM     30  C   UNL A   1      43.016  27.669  27.034  1.00  0.00     0.010 A 
ATOM     31  C   UNL A   1      41.416  25.854  27.242  1.00  0.00     0.010 A 
ATOM     32  C   UNL A   1      41.888  27.116  27.653  1.00  0.00    -0.014 A 
BRANCH  32  33
ATOM     33  C   UNL A   1      41.360  27.781  28.870  1.00  0.00     0.031 A 
ATOM     34  C   UNL A   1      42.119  27.632  30.163  1.00  0.00     0.074 A 
ATOM     35  C   UNL A   1      40.287  28.590  28.811  1.00  0.00     0.049 A 
ATOM     36  N   UNL A   1      41.904  28.194  31.326  1.00  0.00    -0.248 NA
ATOM     37  C   UNL A   1      43.283  26.732  30.139  1.00  0.00     0.031 C 
ATOM     38  C   UNL A   1      39.491  28.849  27.614  1.00  0.00     0.029 A 
ATOM     39  N   UNL A   1      39.696  29.359  29.783  1.00  0.00    -0.354 N 
ATOM     40  C   UNL A   1      42.904  27.719  32.166  1.00  0.00     0.074 A 
ATOM     41  C   UNL A   1      43.703  26.794  31.393  1.00  0.00     0.031 C 
ATOM     42  C   UNL A   1      38.516  29.722  27.921  1.00  0.00     0.029 A 
ATOM     43  C   UNL A   1      38.613  30.073  29.337  1.00  0.00     0.049 A 
ATOM     44  H   UNL A   1      40.019  29.393  30.712  1.00  0.00     0.167 HD
ATOM     45  C   UNL A   1      43.147  28.038  33.459  1.00  0.00     0.037 A 
ATOM     46  C   UNL A   1      37.795  30.913  29.999  1.00  0.00     0.037 A 
ATOM     47  C   UNL A   1      42.359  28.962  34.230  1.00  0.00     0.049 A 
ATOM     48  C   UNL A   1      38.060  31.218  31.451  1.00  0.00     0.074 A 
ATOM     49  C   UNL A   1      42.526  29.352  35.548  1.00  0.00     0.029 A 
ATOM     50  N   UNL A   1      41.250  29.641  33.750  1.00  0.00    -0.354 N 
ATOM     51  N   UNL A   1      39.023  30.785  32.227  1.00  0.00    -0.248 NA
ATOM     52  C   UNL A   1      37.128  32.142  32.114  1.00  0.00     0.031 C 
ATOM     53  C   UNL A   1      41.494  30.238  35.876  1.00  0.00     0.029 A 
ATOM     54  C   UNL A   1      40.713  30.436  34.750  1.00  0.00     0.049 A 
ATOM     55  H   UNL A   1      40.896  29.569  32.834  1.00  0.00     0.167 HD
ATOM     56  C   UNL A   1      38.835  31.407  33.454  1.00  0.00     0.074 A 
ATOM     57  C   UNL A   1      37.671  32.257  33.318  1.00  0.00     0.031 C 
ATOM     58  C   UNL A   1      39.563  31.288  34.592  1.00  0.00     0.037 A 
BRANCH  45  59
ATOM     59  C   UNL A   1      44.308  27.363  34.128  1.00  0.00     0.064 A 
ATOM     60  C   UNL A   1      44.173  26.116  34.754  1.00  0.00     0.173 A 
ATOM     61  C   UNL A   1      45.577  27.961  34.120  1.00  0.00     0.173 A 
ATOM     62  F   UNL A   1      42.977  25.510  34.803  1.00  0.00    -0.203 F 
ATOM     63  C   UNL A   1      45.261  25.502  35.371  1.00  0.00     0.198 A 
ATOM     64  C   UNL A   1      46.669  27.333  34.714  1.00  0.00     0.198 A 
ATOM     65  F   UNL A   1      45.759  29.153  33.532  1.00  0.00    -0.203 F 
ATOM     66  F   UNL A   1      45.099  24.331  36.003  1.00  0.00    -0.200 F 
ATOM     67  C   UNL A   1      46.508  26.107  35.345  1.00  0.00     0.200 A 
ATOM     68  F   UNL A   1      47.876  27.914  34.679  1.00  0.00    -0.200 F 
ATOM     69  F   UNL A   1      47.556  25.514  35.935  1.00  0.00    -0.200 F 
ENDBRANCH  45  59
BRANCH  46  70
ATOM     70  C   UNL A   1      36.651  31.545  29.291  1.00  0.00     0.064 A 
ATOM     71  C   UNL A   1      36.639  32.919  29.011  1.00  0.00     0.173 A 
ATOM     72  C   UNL A   1      35.536  30.789  28.902  1.00  0.00     0.173 A 
ATOM     73  F   UNL A   1      37.672  33.687  29.386  1.00  0.00    -0.203 F 
ATOM     74  C   UNL A   1      35.547  33.515  28.384  1.00  0.00     0.198 A 
ATOM     75  C   UNL A   1      34.456  31.383  28.252  1.00  0.00     0.198 A 
ATOM     76  F   UNL A   1      35.498  29.471  29.150  1.00  0.00    -0.203 F 
ATOM     77  F   UNL A   1      35.541  34.838  28.170  1.00  0.00    -0.200 F 
ATOM     78  C   UNL A   1      34.458  32.746  28.001  1.00  0.00     0.200 A 
ATOM     79  F   UNL A   1      33.410  30.634  27.875  1.00  0.00    -0.200 F 
ATOM     80  F   UNL A   1      33.408  33.320  27.398  1.00  0.00    -0.200 F 
ENDBRANCH  46  70
BRANCH  58  81
ATOM     81  C   UNL A   1      39.151  32.130  35.766  1.00  0.00     0.064 A 
ATOM     82  C   UNL A   1      38.292  31.640  36.761  1.00  0.00     0.173 A 
ATOM     83  C   UNL A   1      39.649  33.434  35.911  1.00  0.00     0.173 A 
ATOM     84  F   UNL A   1      37.780  30.405  36.662  1.00  0.00    -0.203 F 
ATOM     85  C   UNL A   1      37.925  32.436  37.843  1.00  0.00     0.198 A 
ATOM     86  C   UNL A   1      39.302  34.217  37.008  1.00  0.00     0.198 A 
ATOM     87  F   UNL A   1      40.481  33.947  34.991  1.00  0.00    -0.203 F 
ATOM     88  F   UNL A   1      37.064  31.965  38.755  1.00  0.00    -0.200 F 
ATOM     89  C   UNL A   1      38.433  33.721  37.968  1.00  0.00     0.200 A 
ATOM     90  F   UNL A   1      39.804  35.453  37.134  1.00  0.00    -0.200 F 
ATOM     91  F   UNL A   1      38.079  34.484  39.011  1.00  0.00    -0.200 F 
ENDBRANCH  58  81
ENDBRANCH  32  33
ENDBRANCH  25  27
ENDBRANCH  24  25
ENDBRANCH  23  24
ENDBRANCH  22  23
ENDBRANCH   1  22
TORSDOF 16
ENDMDL
MODEL 2
REMARK VINA RESULT:     -11.6      3.808      8.977
REMARK SMILES Cc1cc(C[N@@H+]2CC[C@@H](C(=O)OCCOCCOC(=O)c3ccc(-c4c5nc(c(-c6c(F)c(F)c(F)c(F)c6F)c6ccc([nH]6)c(-c6c(F)c(F)c(F)c(F)c6F)c6nc(c(-c7c(F)c(F)c(F)c(F)c7F)c7ccc4[nH]7)C=C6)C=C5)cc3)C2)ccc1Br
REMARK SMILES IDX 15 1 14 2 13 3 12 4 10 5 11 6 9 7 6 8 7 9 84 10 8 12 5 13
REMARK SMILES IDX 4 14 1 15 2 16 3 17 87 18 86 19 88 20 85 21 16 22 17 23
REMARK SMILES IDX 18 24 19 25 20 26 21 27 22 28 83 29 23 30 82 31 24 32 25 33
REMARK SMILES IDX 26 34 76 35 27 36 81 37 75 38 77 39 28 40 80 41 74 42 73 43
REMARK SMILES IDX 29 45 61 46 41 47 60 48 42 49 45 50 59 51 78 52 43 53 44 54
REMARK SMILES IDX 58 56 79 57 46 58 30 59 31 60 39 61 32 62 33 63 37 64 40 65
REMARK SMILES IDX 34 66 35 67 38 68 36 69 62 70 63 71 71 72 64 73 65 74 69 75
REMARK SMILES IDX 72 76 66 77 67 78 70 79 68 80 47 81 48 82 56 83 49 84 50 85
REMARK SMILES IDX 54 86 57 87 51 88 52 89 55 90 53 91
REMARK H PARENT 6 11 77 44 45 55
REMARK Flexibility Score: inf
ROOT
ATOM      1  O   UNL A   1      30.721  29.508  24.451  1.00  0.00    -0.374 OA
ENDROOT
BRANCH   1   2
ATOM      2  C   UNL A   1      30.934  29.119  23.095  1.00  0.00     0.202 C 
BRANCH   2   3
ATOM      3  C   UNL A   1      30.509  27.693  22.745  1.00  0.00     0.261 C 
BRANCH   3   4
ATOM      4  O   UNL A   1      31.441  27.076  21.834  1.00  0.00    -0.463 OA
BRANCH   4   5
ATOM      5  C   UNL A   1      32.665  26.759  22.336  1.00  0.00     0.314 C 
ATOM      6  O   UNL A   1      33.728  27.203  21.926  1.00  0.00    -0.252 OA
BRANCH   5   7
ATOM      7  C   UNL A   1      32.568  25.811  23.508  1.00  0.00     0.159 C 
ATOM      8  N   UNL A   1      33.837  24.055  24.525  1.00  0.00    -0.330 N 
ATOM      9  C   UNL A   1      34.180  25.284  25.238  1.00  0.00     0.263 C 
ATOM     10  C   UNL A   1      33.268  24.482  23.245  1.00  0.00     0.278 C 
ATOM     11  H   UNL A   1      34.673  23.492  24.368  1.00  0.00     0.348 HD
ATOM     12  C   UNL A   1      33.192  26.353  24.790  1.00  0.00     0.082 C 
BRANCH   8  13
ATOM     13  C   UNL A   1      33.055  23.070  25.284  1.00  0.00     0.299 C 
BRANCH  13  14
ATOM     14  C   UNL A   1      33.371  21.605  25.069  1.00  0.00     0.007 A 
ATOM     15  C   UNL A   1      36.471  19.396  24.829  1.00  0.00     0.045 C 
ATOM     16  C   UNL A   1      35.029  19.816  24.805  1.00  0.00    -0.036 A 
ATOM     17  C   UNL A   1      34.703  21.159  25.066  1.00  0.00     0.014 A 
ATOM     18  C   UNL A   1      33.990  18.926  24.498  1.00  0.00     0.020 A 
ATOM     19  C   UNL A   1      32.659  19.348  24.539  1.00  0.00     0.016 A 
ATOM     20  Br  UNL A   1      34.320  17.124  23.996  1.00  0.00    -0.051 Br
ATOM     21  C   UNL A   1      32.352  20.671  24.854  1.00  0.00     0.011 A 
ENDBRANCH  13  14
ENDBRANCH   8  13
ENDBRANCH   5   7
ENDBRANCH   4   5
ENDBRANCH   3   4
ENDBRANCH   2   3
ENDBRANCH   1   2
BRANCH   1  22
ATOM     22  C   UNL A   1      31.882  29.743  25.244  1.00  0.00     0.202 C 
BRANCH  22  23
ATOM     23  C   UNL A   1      31.766  30.889  26.255  1.00  0.00     0.261 C 
BRANCH  23  24
ATOM     24  O   UNL A   1      32.701  30.750  27.342  1.00  0.00    -0.460 OA
BRANCH  24  25
ATOM     25  C   UNL A   1      33.454  31.848  27.572  1.00  0.00     0.338 C 
ATOM     26  O   UNL A   1      33.060  32.998  27.734  1.00  0.00    -0.246 OA
BRANCH  25  27
ATOM     27  C   UNL A   1      34.872  31.490  27.759  1.00  0.00     0.060 A 
ATOM     28  C   UNL A   1      35.174  30.125  27.832  1.00  0.00     0.016 A 
ATOM     29  C   UNL A   1      35.862  32.449  27.993  1.00  0.00     0.016 A 
ATOM     30  C   UNL A   1      36.442  29.711  28.231  1.00  0.00     0.010 A 
ATOM     31  C   UNL A   1      37.138  32.031  28.397  1.00  0.00     0.010 A 
ATOM     32  C   UNL A   1      37.412  30.661  28.575  1.00  0.00    -0.014 A 
BRANCH  32  33
ATOM     33  C   UNL A   1      38.610  30.202  29.321  1.00  0.00     0.031 A 
ATOM     34  C   UNL A   1      38.799  30.667  30.742  1.00  0.00     0.074 A 
ATOM     35  C   UNL A   1      39.459  29.305  28.789  1.00  0.00     0.049 A 
ATOM     36  N   UNL A   1      39.712  30.326  31.616  1.00  0.00    -0.248 NA
ATOM     37  C   UNL A   1      37.822  31.645  31.247  1.00  0.00     0.031 C 
ATOM     38  C   UNL A   1      39.363  28.749  27.442  1.00  0.00     0.029 A 
ATOM     39  N   UNL A   1      40.561  28.692  29.331  1.00  0.00    -0.354 N 
ATOM     40  C   UNL A   1      39.417  31.041  32.770  1.00  0.00     0.074 A 
ATOM     41  C   UNL A   1      38.266  31.866  32.475  1.00  0.00     0.031 C 
ATOM     42  C   UNL A   1      40.363  27.869  27.263  1.00  0.00     0.029 A 
ATOM     43  C   UNL A   1      41.176  27.811  28.478  1.00  0.00     0.049 A 
ATOM     44  H   UNL A   1      40.879  28.868  30.246  1.00  0.00     0.167 HD
ATOM     45  C   UNL A   1      40.038  31.004  33.973  1.00  0.00     0.037 A 
ATOM     46  C   UNL A   1      42.270  27.046  28.659  1.00  0.00     0.037 A 
ATOM     47  C   UNL A   1      41.179  30.182  34.273  1.00  0.00     0.049 A 
ATOM     48  C   UNL A   1      42.970  27.055  29.994  1.00  0.00     0.074 A 
ATOM     49  C   UNL A   1      41.877  30.073  35.463  1.00  0.00     0.029 A 
ATOM     50  N   UNL A   1      41.792  29.327  33.370  1.00  0.00    -0.354 N 
ATOM     51  N   UNL A   1      42.666  27.715  31.085  1.00  0.00    -0.248 NA
ATOM     52  C   UNL A   1      44.157  26.199  30.124  1.00  0.00     0.031 C 
ATOM     53  C   UNL A   1      42.936  29.180  35.269  1.00  0.00     0.029 A 
ATOM     54  C   UNL A   1      42.869  28.697  33.972  1.00  0.00     0.049 A 
ATOM     55  H   UNL A   1      41.503  29.187  32.439  1.00  0.00     0.167 HD
ATOM     56  C   UNL A   1      43.600  27.330  32.038  1.00  0.00     0.074 A 
ATOM     57  C   UNL A   1      44.476  26.370  31.399  1.00  0.00     0.031 C 
ATOM     58  C   UNL A   1      43.721  27.732  33.327  1.00  0.00     0.037 A 
BRANCH  45  59
ATOM     59  C   UNL A   1      39.500  31.896  35.053  1.00  0.00     0.064 A 
ATOM     60  C   UNL A   1      39.863  33.248  35.138  1.00  0.00     0.173 A 
ATOM     61  C   UNL A   1      38.590  31.399  35.998  1.00  0.00     0.173 A 
ATOM     62  F   UNL A   1      40.742  33.769  34.268  1.00  0.00    -0.203 F 
ATOM     63  C   UNL A   1      39.355  34.064  36.147  1.00  0.00     0.198 A 
ATOM     64  C   UNL A   1      38.064  32.223  36.988  1.00  0.00     0.198 A 
ATOM     65  F   UNL A   1      38.209  30.113  35.957  1.00  0.00    -0.203 F 
ATOM     66  F   UNL A   1      39.751  35.341  36.238  1.00  0.00    -0.200 F 
ATOM     67  C   UNL A   1      38.452  33.553  37.067  1.00  0.00     0.200 A 
ATOM     68  F   UNL A   1      37.183  31.730  37.870  1.00  0.00    -0.200 F 
ATOM     69  F   UNL A   1      37.961  34.340  38.034  1.00  0.00    -0.200 F 
ENDBRANCH  45  59
BRANCH  46  70
ATOM     70  C   UNL A   1      42.767  26.190  27.551  1.00  0.00     0.064 A 
ATOM     71  C   UNL A   1      43.768  26.640  26.678  1.00  0.00     0.173 A 
ATOM     72  C   UNL A   1      42.232  24.913  27.329  1.00  0.00     0.173 A 
ATOM     73  F   UNL A   1      44.291  27.865  26.834  1.00  0.00    -0.203 F 
ATOM     74  C   UNL A   1      44.202  25.851  25.615  1.00  0.00     0.198 A 
ATOM     75  C   UNL A   1      42.686  24.115  26.281  1.00  0.00     0.198 A 
ATOM     76  F   UNL A   1      41.271  24.438  28.134  1.00  0.00    -0.203 F 
ATOM     77  F   UNL A   1      45.127  26.324  24.767  1.00  0.00    -0.200 F 
ATOM     78  C   UNL A   1      43.665  24.588  25.420  1.00  0.00     0.200 A 
ATOM     79  F   UNL A   1      42.171  22.891  26.102  1.00  0.00    -0.200 F 
ATOM     80  F   UNL A   1      44.083  23.829  24.397  1.00  0.00    -0.200 F 
ENDBRANCH  46  70
BRANCH  58  81
ATOM     81  C   UNL A   1      44.810  27.102  34.147  1.00  0.00     0.064 A 
ATOM     82  C   UNL A   1      46.081  27.684  34.259  1.00  0.00     0.173 A 
ATOM     83  C   UNL A   1      44.565  25.916  34.857  1.00  0.00     0.173 A 
ATOM     84  F   UNL A   1      46.368  28.811  33.591  1.00  0.00    -0.203 F 
ATOM     85  C   UNL A   1      47.076  27.085  35.027  1.00  0.00     0.198 A 
ATOM     86  C   UNL A   1      45.554  25.335  35.646  1.00  0.00     0.198 A 
ATOM     87  F   UNL A   1      43.362  25.324  34.790  1.00  0.00    -0.203 F 
ATOM     88  F   UNL A   1      48.299  27.632  35.079  1.00  0.00    -0.200 F 
ATOM     89  C   UNL A   1      46.810  25.915  35.723  1.00  0.00     0.200 A 
ATOM     90  F   UNL A   1      45.291  24.212  36.328  1.00  0.00    -0.200 F 
ATOM     91  F   UNL A   1      47.770  25.341  36.463  1.00  0.00    -0.200 F 
ENDBRANCH  58  81
ENDBRANCH  32  33
ENDBRANCH  25  27
ENDBRANCH  24  25
ENDBRANCH  23  24
ENDBRANCH  22  23
ENDBRANCH   1  22
TORSDOF 16
ENDMDL
MODEL 3
REMARK VINA RESULT:     -11.5      4.490      6.965
REMARK SMILES Cc1cc(C[N@@H+]2CC[C@@H](C(=O)OCCOCCOC(=O)c3ccc(-c4c5nc(c(-c6c(F)c(F)c(F)c(F)c6F)c6ccc([nH]6)c(-c6c(F)c(F)c(F)c(F)c6F)c6nc(c(-c7c(F)c(F)c(F)c(F)c7F)c7ccc4[nH]7)C=C6)C=C5)cc3)C2)ccc1Br
REMARK SMILES IDX 15 1 14 2 13 3 12 4 10 5 11 6 9 7 6 8 7 9 84 10 8 12 5 13
REMARK SMILES IDX 4 14 1 15 2 16 3 17 87 18 86 19 88 20 85 21 16 22 17 23
REMARK SMILES IDX 18 24 19 25 20 26 21 27 22 28 83 29 23 30 82 31 24 32 25 33
REMARK SMILES IDX 26 34 76 35 27 36 81 37 75 38 77 39 28 40 80 41 74 42 73 43
REMARK SMILES IDX 29 45 61 46 41 47 60 48 42 49 45 50 59 51 78 52 43 53 44 54
REMARK SMILES IDX 58 56 79 57 46 58 30 59 31 60 39 61 32 62 33 63 37 64 40 65
REMARK SMILES IDX 34 66 35 67 38 68 36 69 62 70 63 71 71 72 64 73 65 74 69 75
REMARK SMILES IDX 72 76 66 77 67 78 70 79 68 80 47 81 48 82 56 83 49 84 50 85
REMARK SMILES IDX 54 86 57 87 51 88 52 89 55 90 53 91
REMARK H PARENT 6 11 77 44 45 55
REMARK Flexibility Score: inf
ROOT
ATOM      1  O   UNL A   1      34.884  20.754  24.905  1.00  0.00    -0.374 OA
ENDROOT
BRANCH   1   2
ATOM      2  C   UNL A   1      33.657  21.455  24.702  1.00  0.00     0.202 C 
BRANCH   2   3
ATOM      3  C   UNL A   1      32.517  21.073  25.646  1.00  0.00     0.261 C 
BRANCH   3   4
ATOM      4  O   UNL A   1      32.039  22.218  26.380  1.00  0.00    -0.463 OA
BRANCH   4   5
ATOM      5  C   UNL A   1      30.781  22.648  26.090  1.00  0.00     0.314 C 
ATOM      6  O   UNL A   1      29.751  22.072  26.410  1.00  0.00    -0.252 OA
BRANCH   5   7
ATOM      7  C   UNL A   1      30.790  23.965  25.349  1.00  0.00     0.159 C 
ATOM      8  N   UNL A   1      32.367  25.560  24.514  1.00  0.00    -0.330 N 
ATOM      9  C   UNL A   1      32.054  24.661  23.404  1.00  0.00     0.263 C 
ATOM     10  C   UNL A   1      31.978  24.841  25.729  1.00  0.00     0.278 C 
ATOM     11  H   UNL A   1      33.366  25.766  24.532  1.00  0.00     0.348 HD
ATOM     12  C   UNL A   1      30.863  23.815  23.833  1.00  0.00     0.082 C 
BRANCH   8  13
ATOM     13  C   UNL A   1      31.865  26.934  24.388  1.00  0.00     0.299 C 
BRANCH  13  14
ATOM     14  C   UNL A   1      32.464  27.988  25.296  1.00  0.00     0.007 A 
ATOM     15  C   UNL A   1      31.539  31.458  26.580  1.00  0.00     0.045 C 
ATOM     16  C   UNL A   1      32.333  30.207  26.335  1.00  0.00    -0.036 A 
ATOM     17  C   UNL A   1      31.773  29.184  25.548  1.00  0.00     0.014 A 
ATOM     18  C   UNL A   1      33.631  30.028  26.833  1.00  0.00     0.020 A 
ATOM     19  C   UNL A   1      34.311  28.826  26.625  1.00  0.00     0.016 A 
ATOM     20  Br  UNL A   1      34.541  31.392  27.792  1.00  0.00    -0.051 Br
ATOM     21  C   UNL A   1      33.717  27.802  25.888  1.00  0.00     0.011 A 
ENDBRANCH  13  14
ENDBRANCH   8  13
ENDBRANCH   5   7
ENDBRANCH   4   5
ENDBRANCH   3   4
ENDBRANCH   2   3
ENDBRANCH   1   2
BRANCH   1  22
ATOM     22  C   UNL A   1      36.087  21.473  24.644  1.00  0.00     0.202 C 
BRANCH  22  23
ATOM     23  C   UNL A   1      37.375  20.793  25.121  1.00  0.00     0.261 C 
BRANCH  23  24
ATOM     24  O   UNL A   1      38.492  21.701  25.141  1.00  0.00    -0.460 OA
BRANCH  24  25
ATOM     25  C   UNL A   1      39.448  21.389  26.045  1.00  0.00     0.338 C 
ATOM     26  O   UNL A   1      40.069  20.336  26.133  1.00  0.00    -0.246 OA
BRANCH  25  27
ATOM     27  C   UNL A   1      39.790  22.554  26.880  1.00  0.00     0.060 A 
ATOM     28  C   UNL A   1      39.114  23.749  26.606  1.00  0.00     0.016 A 
ATOM     29  C   UNL A   1      40.832  22.527  27.811  1.00  0.00     0.016 A 
ATOM     30  C   UNL A   1      39.536  24.940  27.189  1.00  0.00     0.010 A 
ATOM     31  C   UNL A   1      41.259  23.728  28.396  1.00  0.00     0.010 A 
ATOM     32  C   UNL A   1      40.649  24.946  28.039  1.00  0.00    -0.014 A 
BRANCH  32  33
ATOM     33  C   UNL A   1      41.282  26.251  28.357  1.00  0.00     0.031 A 
ATOM     34  C   UNL A   1      42.668  26.529  27.835  1.00  0.00     0.074 A 
ATOM     35  C   UNL A   1      40.602  27.214  29.004  1.00  0.00     0.049 A 
ATOM     36  N   UNL A   1      43.381  27.624  27.904  1.00  0.00    -0.248 NA
ATOM     37  C   UNL A   1      43.338  25.421  27.133  1.00  0.00     0.031 C 
ATOM     38  C   UNL A   1      39.244  27.083  29.524  1.00  0.00     0.029 A 
ATOM     39  N   UNL A   1      40.962  28.501  29.316  1.00  0.00    -0.354 N 
ATOM     40  C   UNL A   1      44.576  27.340  27.255  1.00  0.00     0.074 A 
ATOM     41  C   UNL A   1      44.511  25.958  26.833  1.00  0.00     0.031 C 
ATOM     42  C   UNL A   1      38.880  28.249  30.087  1.00  0.00     0.029 A 
ATOM     43  C   UNL A   1      39.986  29.201  29.978  1.00  0.00     0.049 A 
ATOM     44  H   UNL A   1      41.839  28.885  29.087  1.00  0.00     0.167 HD
ATOM     45  C   UNL A   1      45.627  28.159  27.016  1.00  0.00     0.037 A 
ATOM     46  C   UNL A   1      39.985  30.465  30.442  1.00  0.00     0.037 A 
ATOM     47  C   UNL A   1      45.694  29.536  27.428  1.00  0.00     0.049 A 
ATOM     48  C   UNL A   1      41.186  31.344  30.202  1.00  0.00     0.074 A 
ATOM     49  C   UNL A   1      46.716  30.448  27.231  1.00  0.00     0.029 A 
ATOM     50  N   UNL A   1      44.696  30.198  28.125  1.00  0.00    -0.354 N 
ATOM     51  N   UNL A   1      42.298  31.073  29.564  1.00  0.00    -0.248 NA
ATOM     52  C   UNL A   1      41.121  32.712  30.736  1.00  0.00     0.031 C 
ATOM     53  C   UNL A   1      46.351  31.652  27.843  1.00  0.00     0.029 A 
ATOM     54  C   UNL A   1      45.082  31.503  28.380  1.00  0.00     0.049 A 
ATOM     55  H   UNL A   1      43.838  29.799  28.398  1.00  0.00     0.167 HD
ATOM     56  C   UNL A   1      43.049  32.241  29.590  1.00  0.00     0.074 A 
ATOM     57  C   UNL A   1      42.261  33.229  30.298  1.00  0.00     0.031 C 
ATOM     58  C   UNL A   1      44.279  32.478  29.071  1.00  0.00     0.037 A 
BRANCH  45  59
ATOM     59  C   UNL A   1      46.802  27.577  26.285  1.00  0.00     0.064 A 
ATOM     60  C   UNL A   1      46.931  27.689  24.893  1.00  0.00     0.173 A 
ATOM     61  C   UNL A   1      47.822  26.921  26.989  1.00  0.00     0.173 A 
ATOM     62  F   UNL A   1      45.974  28.294  24.172  1.00  0.00    -0.203 F 
ATOM     63  C   UNL A   1      48.027  27.144  24.229  1.00  0.00     0.198 A 
ATOM     64  C   UNL A   1      48.929  26.400  26.326  1.00  0.00     0.198 A 
ATOM     65  F   UNL A   1      47.746  26.790  28.322  1.00  0.00    -0.203 F 
ATOM     66  F   UNL A   1      48.108  27.223  22.894  1.00  0.00    -0.200 F 
ATOM     67  C   UNL A   1      49.028  26.506  24.946  1.00  0.00     0.200 A 
ATOM     68  F   UNL A   1      49.901  25.793  27.022  1.00  0.00    -0.200 F 
ATOM     69  F   UNL A   1      50.084  25.984  24.307  1.00  0.00    -0.200 F 
ENDBRANCH  45  59
BRANCH  46  70
ATOM     70  C   UNL A   1      38.800  30.987  31.170  1.00  0.00     0.064 A 
ATOM     71  C   UNL A   1      37.782  31.679  30.499  1.00  0.00     0.173 A 
ATOM     72  C   UNL A   1      38.675  30.824  32.557  1.00  0.00     0.173 A 
ATOM     73  F   UNL A   1      37.870  31.883  29.177  1.00  0.00    -0.203 F 
ATOM     74  C   UNL A   1      36.693  32.204  31.191  1.00  0.00     0.198 A 
ATOM     75  C   UNL A   1      37.571  31.327  33.244  1.00  0.00     0.198 A 
ATOM     76  F   UNL A   1      39.623  30.172  33.246  1.00  0.00    -0.203 F 
ATOM     77  F   UNL A   1      35.756  32.902  30.533  1.00  0.00    -0.200 F 
ATOM     78  C   UNL A   1      36.585  32.023  32.562  1.00  0.00     0.200 A 
ATOM     79  F   UNL A   1      37.467  31.141  34.567  1.00  0.00    -0.200 F 
ATOM     80  F   UNL A   1      35.537  32.527  33.227  1.00  0.00    -0.200 F 
ENDBRANCH  46  70
BRANCH  58  81
ATOM     81  C   UNL A   1      44.831  33.867  29.208  1.00  0.00     0.064 A 
ATOM     82  C   UNL A   1      45.628  34.242  30.300  1.00  0.00     0.173 A 
ATOM     83  C   UNL A   1      44.582  34.829  28.215  1.00  0.00     0.173 A 
ATOM     84  F   UNL A   1      45.884  33.364  31.280  1.00  0.00    -0.203 F 
ATOM     85  C   UNL A   1      46.132  35.536  30.407  1.00  0.00     0.198 A 
ATOM     86  C   UNL A   1      45.111  36.113  28.312  1.00  0.00     0.198 A 
ATOM     87  F   UNL A   1      43.832  34.518  27.147  1.00  0.00    -0.203 F 
ATOM     88  F   UNL A   1      46.850  35.885  31.483  1.00  0.00    -0.200 F 
ATOM     89  C   UNL A   1      45.877  36.468  29.411  1.00  0.00     0.200 A 
ATOM     90  F   UNL A   1      44.875  37.008  27.343  1.00  0.00    -0.200 F 
ATOM     91  F   UNL A   1      46.365  37.712  29.516  1.00  0.00    -0.200 F 
ENDBRANCH  58  81
ENDBRANCH  32  33
ENDBRANCH  25  27
ENDBRANCH  24  25
ENDBRANCH  23  24
ENDBRANCH  22  23
ENDBRANCH   1  22
TORSDOF 16
ENDMDL
