MODEL 1
REMARK VINA RESULT:     -10.5      0.000      0.000
REMARK SMILES CC(C)[C@@H](NC(=O)[C@@](C)([NH3+])C(F)(F)F)C(=O)OCCOCCOC(=O)c1ccc(-c2c3nc(c(-c4c(F)c(F)c(F)c(F)c4F)c4ccc([nH]4)c(-c4c(F)c(F)c(F)c(F)c4F)c4nc(c(-c5c(F)c(F)c(F)c(F)c5F)c5ccc2[nH]5)C=C4)C=C3)cc1
REMARK SMILES IDX 19 1 18 2 17 3 15 4 16 5 4 6 2 7 1 8 3 9 5 10 6 11 7 13 8 14
REMARK SMILES IDX 9 15 10 16 11 20 12 21 13 22 14 23 20 24 21 25 22 26 23 27
REMARK SMILES IDX 24 28 25 29 26 30 27 31 88 32 28 33 87 34 29 35 30 36 31 37
REMARK SMILES IDX 81 38 32 39 86 40 80 41 82 42 33 43 85 44 79 45 78 46 34 48
REMARK SMILES IDX 66 49 46 50 65 51 47 52 50 53 64 54 83 55 48 56 49 57 63 59
REMARK SMILES IDX 84 60 51 61 35 62 36 63 44 64 37 65 38 66 42 67 45 68 39 69
REMARK SMILES IDX 40 70 43 71 41 72 67 73 68 74 76 75 69 76 70 77 74 78 77 79
REMARK SMILES IDX 71 80 72 81 75 82 73 83 52 84 53 85 61 86 54 87 55 88 59 89
REMARK SMILES IDX 62 90 56 91 57 92 60 93 58 94
REMARK H PARENT 5 12 10 17 10 18 10 19 82 47 50 58
REMARK Flexibility Score: inf
ROOT
ATOM      1  C   UNL A   1      36.989  22.029  24.252  1.00  0.00     0.202 C 
ENDROOT
BRANCH   1   2
ATOM      2  C   UNL A   1      36.075  23.226  23.997  1.00  0.00     0.261 C 
BRANCH   2   3
ATOM      3  O   UNL A   1      34.772  23.126  24.609  1.00  0.00    -0.462 OA
BRANCH   3   4
ATOM      4  C   UNL A   1      33.854  22.420  23.886  1.00  0.00     0.328 C 
ATOM      5  O   UNL A   1      33.543  22.664  22.722  1.00  0.00    -0.250 OA
BRANCH   4   6
ATOM      6  C   UNL A   1      33.127  21.329  24.701  1.00  0.00     0.195 C 
BRANCH   6   7
ATOM      7  C   UNL A   1      32.330  21.682  25.986  1.00  0.00     0.017 C 
ATOM      8  C   UNL A   1      33.301  21.929  27.160  1.00  0.00     0.010 C 
ATOM      9  C   UNL A   1      31.469  22.938  25.838  1.00  0.00     0.010 C 
ENDBRANCH   6   7
BRANCH   6  10
ATOM     10  N   UNL A   1      32.453  20.281  23.896  1.00  0.00    -0.337 N 
ATOM     11  C   UNL A   1      32.762  19.011  23.507  1.00  0.00     0.291 C 
ATOM     12  H   UNL A   1      31.573  20.573  23.564  1.00  0.00     0.164 HD
ATOM     13  O   UNL A   1      32.182  18.626  22.488  1.00  0.00    -0.267 OA
BRANCH  11  14
ATOM     14  C   UNL A   1      33.697  18.072  24.298  1.00  0.00     0.267 C 
ATOM     15  C   UNL A   1      34.148  16.874  23.459  1.00  0.00     0.100 C 
BRANCH  14  16
ATOM     16  N   UNL A   1      34.908  18.842  24.737  1.00  0.00    -0.337 N 
ATOM     17  H   UNL A   1      34.626  19.772  25.050  1.00  0.00     0.345 HD
ATOM     18  H   UNL A   1      35.557  18.930  23.955  1.00  0.00     0.345 HD
ATOM     19  H   UNL A   1      35.366  18.350  25.504  1.00  0.00     0.345 HD
ENDBRANCH  14  16
BRANCH  14  20
ATOM     20  C   UNL A   1      32.899  17.528  25.518  1.00  0.00     0.453 C 
ATOM     21  F   UNL A   1      33.484  16.440  26.068  1.00  0.00    -0.164 F 
ATOM     22  F   UNL A   1      32.681  18.446  26.480  1.00  0.00    -0.164 F 
ATOM     23  F   UNL A   1      31.670  17.115  25.092  1.00  0.00    -0.164 F 
ENDBRANCH  14  20
ENDBRANCH  11  14
ENDBRANCH   6  10
ENDBRANCH   4   6
ENDBRANCH   3   4
ENDBRANCH   2   3
ENDBRANCH   1   2
BRANCH   1  24
ATOM     24  O   UNL A   1      37.461  21.881  25.585  1.00  0.00    -0.374 OA
BRANCH  24  25
ATOM     25  C   UNL A   1      38.860  21.658  25.751  1.00  0.00     0.202 C 
BRANCH  25  26
ATOM     26  C   UNL A   1      39.318  20.209  25.540  1.00  0.00     0.261 C 
BRANCH  26  27
ATOM     27  O   UNL A   1      40.181  19.745  26.602  1.00  0.00    -0.460 OA
BRANCH  27  28
ATOM     28  C   UNL A   1      41.458  19.498  26.229  1.00  0.00     0.338 C 
ATOM     29  O   UNL A   1      41.876  18.523  25.614  1.00  0.00    -0.246 OA
BRANCH  28  30
ATOM     30  C   UNL A   1      42.344  20.627  26.561  1.00  0.00     0.060 A 
ATOM     31  C   UNL A   1      42.365  21.078  27.887  1.00  0.00     0.016 A 
ATOM     32  C   UNL A   1      42.980  21.356  25.555  1.00  0.00     0.016 A 
ATOM     33  C   UNL A   1      42.972  22.297  28.200  1.00  0.00     0.010 A 
ATOM     34  C   UNL A   1      43.584  22.581  25.871  1.00  0.00     0.010 A 
ATOM     35  C   UNL A   1      43.543  23.080  27.187  1.00  0.00    -0.014 A 
BRANCH  35  36
ATOM     36  C   UNL A   1      43.956  24.478  27.478  1.00  0.00     0.031 A 
ATOM     37  C   UNL A   1      42.910  25.501  27.837  1.00  0.00     0.074 A 
ATOM     38  C   UNL A   1      45.252  24.836  27.454  1.00  0.00     0.049 A 
ATOM     39  N   UNL A   1      43.049  26.776  28.103  1.00  0.00    -0.248 NA
ATOM     40  C   UNL A   1      41.520  25.021  27.909  1.00  0.00     0.031 C 
ATOM     41  C   UNL A   1      46.369  23.942  27.160  1.00  0.00     0.029 A 
ATOM     42  N   UNL A   1      45.843  26.056  27.675  1.00  0.00    -0.354 N 
ATOM     43  C   UNL A   1      41.771  27.249  28.374  1.00  0.00     0.074 A 
ATOM     44  C   UNL A   1      40.864  26.133  28.212  1.00  0.00     0.031 C 
ATOM     45  C   UNL A   1      47.513  24.647  27.209  1.00  0.00     0.029 A 
ATOM     46  C   UNL A   1      47.205  26.046  27.508  1.00  0.00     0.049 A 
ATOM     47  H   UNL A   1      45.337  26.862  27.929  1.00  0.00     0.167 HD
ATOM     48  C   UNL A   1      41.389  28.497  28.735  1.00  0.00     0.037 A 
ATOM     49  C   UNL A   1      48.099  27.051  27.567  1.00  0.00     0.037 A 
ATOM     50  C   UNL A   1      42.283  29.612  28.908  1.00  0.00     0.049 A 
ATOM     51  C   UNL A   1      47.636  28.450  27.881  1.00  0.00     0.074 A 
ATOM     52  C   UNL A   1      41.987  30.900  29.322  1.00  0.00     0.029 A 
ATOM     53  N   UNL A   1      43.646  29.574  28.663  1.00  0.00    -0.354 N 
ATOM     54  N   UNL A   1      46.432  28.879  28.165  1.00  0.00    -0.248 NA
ATOM     55  C   UNL A   1      48.661  29.505  27.874  1.00  0.00     0.031 C 
ATOM     56  C   UNL A   1      43.166  31.655  29.282  1.00  0.00     0.029 A 
ATOM     57  C   UNL A   1      44.200  30.826  28.882  1.00  0.00     0.049 A 
ATOM     58  H   UNL A   1      44.148  28.777  28.378  1.00  0.00     0.167 HD
ATOM     59  C   UNL A   1      46.554  30.246  28.384  1.00  0.00     0.074 A 
ATOM     60  C   UNL A   1      47.954  30.573  28.214  1.00  0.00     0.031 C 
ATOM     61  C   UNL A   1      45.591  31.147  28.696  1.00  0.00     0.037 A 
BRANCH  48  62
ATOM     62  C   UNL A   1      39.926  28.735  28.960  1.00  0.00     0.064 A 
ATOM     63  C   UNL A   1      39.336  28.541  30.218  1.00  0.00     0.173 A 
ATOM     64  C   UNL A   1      39.117  29.216  27.920  1.00  0.00     0.173 A 
ATOM     65  F   UNL A   1      40.067  28.073  31.240  1.00  0.00    -0.203 F 
ATOM     66  C   UNL A   1      37.983  28.801  30.420  1.00  0.00     0.198 A 
ATOM     67  C   UNL A   1      37.770  29.496  28.132  1.00  0.00     0.198 A 
ATOM     68  F   UNL A   1      39.637  29.424  26.700  1.00  0.00    -0.203 F 
ATOM     69  F   UNL A   1      37.432  28.578  31.621  1.00  0.00    -0.200 F 
ATOM     70  C   UNL A   1      37.204  29.284  29.379  1.00  0.00     0.200 A 
ATOM     71  F   UNL A   1      37.020  29.972  27.127  1.00  0.00    -0.200 F 
ATOM     72  F   UNL A   1      35.903  29.543  29.578  1.00  0.00    -0.200 F 
ENDBRANCH  48  62
BRANCH  49  73
ATOM     73  C   UNL A   1      49.532  26.780  27.292  1.00  0.00     0.064 A 
ATOM     74  C   UNL A   1      50.427  26.500  28.333  1.00  0.00     0.173 A 
ATOM     75  C   UNL A   1      50.037  26.812  25.984  1.00  0.00     0.173 A 
ATOM     76  F   UNL A   1      49.995  26.491  29.602  1.00  0.00    -0.203 F 
ATOM     77  C   UNL A   1      51.778  26.273  28.076  1.00  0.00     0.198 A 
ATOM     78  C   UNL A   1      51.382  26.562  25.726  1.00  0.00     0.198 A 
ATOM     79  F   UNL A   1      49.219  27.084  24.956  1.00  0.00    -0.203 F 
ATOM     80  F   UNL A   1      52.622  26.047  29.092  1.00  0.00    -0.200 F 
ATOM     81  C   UNL A   1      52.253  26.299  26.773  1.00  0.00     0.200 A 
ATOM     82  F   UNL A   1      51.836  26.584  24.466  1.00  0.00    -0.200 F 
ATOM     83  F   UNL A   1      53.551  26.079  26.527  1.00  0.00    -0.200 F 
ENDBRANCH  49  73
BRANCH  61  84
ATOM     84  C   UNL A   1      46.014  32.575  28.876  1.00  0.00     0.064 A 
ATOM     85  C   UNL A   1      45.975  33.485  27.810  1.00  0.00     0.173 A 
ATOM     86  C   UNL A   1      46.422  33.049  30.131  1.00  0.00     0.173 A 
ATOM     87  F   UNL A   1      45.607  33.076  26.586  1.00  0.00    -0.203 F 
ATOM     88  C   UNL A   1      46.345  34.816  27.991  1.00  0.00     0.198 A 
ATOM     89  C   UNL A   1      46.769  34.385  30.315  1.00  0.00     0.198 A 
ATOM     90  F   UNL A   1      46.471  32.219  31.184  1.00  0.00    -0.203 F 
ATOM     91  F   UNL A   1      46.335  35.660  26.950  1.00  0.00    -0.200 F 
ATOM     92  C   UNL A   1      46.735  35.266  29.243  1.00  0.00     0.200 A 
ATOM     93  F   UNL A   1      47.137  34.821  31.527  1.00  0.00    -0.200 F 
ATOM     94  F   UNL A   1      47.086  36.548  29.417  1.00  0.00    -0.200 F 
ENDBRANCH  61  84
ENDBRANCH  35  36
ENDBRANCH  28  30
ENDBRANCH  27  28
ENDBRANCH  26  27
ENDBRANCH  25  26
ENDBRANCH  24  25
ENDBRANCH   1  24
TORSDOF 19
ENDMDL
MODEL 2
REMARK VINA RESULT:     -10.4      5.022      8.304
REMARK SMILES CC(C)[C@@H](NC(=O)[C@@](C)([NH3+])C(F)(F)F)C(=O)OCCOCCOC(=O)c1ccc(-c2c3nc(c(-c4c(F)c(F)c(F)c(F)c4F)c4ccc([nH]4)c(-c4c(F)c(F)c(F)c(F)c4F)c4nc(c(-c5c(F)c(F)c(F)c(F)c5F)c5ccc2[nH]5)C=C4)C=C3)cc1
REMARK SMILES IDX 19 1 18 2 17 3 15 4 16 5 4 6 2 7 1 8 3 9 5 10 6 11 7 13 8 14
REMARK SMILES IDX 9 15 10 16 11 20 12 21 13 22 14 23 20 24 21 25 22 26 23 27
REMARK SMILES IDX 24 28 25 29 26 30 27 31 88 32 28 33 87 34 29 35 30 36 31 37
REMARK SMILES IDX 81 38 32 39 86 40 80 41 82 42 33 43 85 44 79 45 78 46 34 48
REMARK SMILES IDX 66 49 46 50 65 51 47 52 50 53 64 54 83 55 48 56 49 57 63 59
REMARK SMILES IDX 84 60 51 61 35 62 36 63 44 64 37 65 38 66 42 67 45 68 39 69
REMARK SMILES IDX 40 70 43 71 41 72 67 73 68 74 76 75 69 76 70 77 74 78 77 79
REMARK SMILES IDX 71 80 72 81 75 82 73 83 52 84 53 85 61 86 54 87 55 88 59 89
REMARK SMILES IDX 62 90 56 91 57 92 60 93 58 94
REMARK H PARENT 5 12 10 17 10 18 10 19 82 47 50 58
REMARK Flexibility Score: inf
ROOT
ATOM      1  C   UNL A   1      33.121  27.652  25.807  1.00  0.00     0.202 C 
ENDROOT
BRANCH   1   2
ATOM      2  C   UNL A   1      33.602  27.537  24.362  1.00  0.00     0.261 C 
BRANCH   2   3
ATOM      3  O   UNL A   1      32.689  26.856  23.478  1.00  0.00    -0.462 OA
BRANCH   3   4
ATOM      4  C   UNL A   1      33.263  25.903  22.688  1.00  0.00     0.328 C 
ATOM      5  O   UNL A   1      33.613  26.079  21.522  1.00  0.00    -0.250 OA
BRANCH   4   6
ATOM      6  C   UNL A   1      33.338  24.509  23.348  1.00  0.00     0.195 C 
BRANCH   6   7
ATOM      7  C   UNL A   1      32.052  23.687  23.636  1.00  0.00     0.017 C 
ATOM      8  C   UNL A   1      30.817  24.422  23.075  1.00  0.00     0.010 C 
ATOM      9  C   UNL A   1      32.072  22.292  23.009  1.00  0.00     0.010 C 
ENDBRANCH   6   7
BRANCH   6  10
ATOM     10  N   UNL A   1      34.459  23.651  22.892  1.00  0.00    -0.337 N 
ATOM     11  C   UNL A   1      35.647  23.248  23.426  1.00  0.00     0.291 C 
ATOM     12  H   UNL A   1      34.308  23.288  21.990  1.00  0.00     0.164 HD
ATOM     13  O   UNL A   1      36.503  22.924  22.597  1.00  0.00    -0.267 OA
BRANCH  11  14
ATOM     14  C   UNL A   1      35.909  23.116  24.941  1.00  0.00     0.267 C 
ATOM     15  C   UNL A   1      37.390  22.868  25.245  1.00  0.00     0.100 C 
BRANCH  14  16
ATOM     16  N   UNL A   1      35.478  24.381  25.624  1.00  0.00    -0.337 N 
ATOM     17  H   UNL A   1      35.534  24.257  26.636  1.00  0.00     0.345 HD
ATOM     18  H   UNL A   1      34.518  24.600  25.361  1.00  0.00     0.345 HD
ATOM     19  H   UNL A   1      36.090  25.147  25.342  1.00  0.00     0.345 HD
ENDBRANCH  14  16
BRANCH  14  20
ATOM     20  C   UNL A   1      35.103  21.890  25.456  1.00  0.00     0.453 C 
ATOM     21  F   UNL A   1      35.740  21.243  26.459  1.00  0.00    -0.164 F 
ATOM     22  F   UNL A   1      33.849  22.188  25.850  1.00  0.00    -0.164 F 
ATOM     23  F   UNL A   1      34.986  20.982  24.443  1.00  0.00    -0.164 F 
ENDBRANCH  14  20
ENDBRANCH  11  14
ENDBRANCH   6  10
ENDBRANCH   4   6
ENDBRANCH   3   4
ENDBRANCH   2   3
ENDBRANCH   1   2
BRANCH   1  24
ATOM     24  O   UNL A   1      32.032  28.540  26.029  1.00  0.00    -0.374 OA
BRANCH  24  25
ATOM     25  C   UNL A   1      32.100  29.813  25.389  1.00  0.00     0.202 C 
BRANCH  25  26
ATOM     26  C   UNL A   1      31.799  31.015  26.292  1.00  0.00     0.261 C 
BRANCH  26  27
ATOM     27  O   UNL A   1      32.589  31.005  27.502  1.00  0.00    -0.460 OA
BRANCH  27  28
ATOM     28  C   UNL A   1      33.484  32.014  27.605  1.00  0.00     0.338 C 
ATOM     29  O   UNL A   1      33.252  33.218  27.577  1.00  0.00    -0.246 OA
BRANCH  28  30
ATOM     30  C   UNL A   1      34.841  31.506  27.871  1.00  0.00     0.060 A 
ATOM     31  C   UNL A   1      34.998  30.130  28.079  1.00  0.00     0.016 A 
ATOM     32  C   UNL A   1      35.898  32.384  28.115  1.00  0.00     0.016 A 
ATOM     33  C   UNL A   1      36.199  29.635  28.594  1.00  0.00     0.010 A 
ATOM     34  C   UNL A   1      37.100  31.885  28.636  1.00  0.00     0.010 A 
ATOM     35  C   UNL A   1      37.240  30.514  28.922  1.00  0.00    -0.014 A 
BRANCH  35  36
ATOM     36  C   UNL A   1      38.407  30.020  29.700  1.00  0.00     0.031 A 
ATOM     37  C   UNL A   1      38.622  30.511  31.107  1.00  0.00     0.074 A 
ATOM     38  C   UNL A   1      39.256  29.119  29.176  1.00  0.00     0.049 A 
ATOM     39  N   UNL A   1      39.584  30.229  31.949  1.00  0.00    -0.248 NA
ATOM     40  C   UNL A   1      37.615  31.445  31.637  1.00  0.00     0.031 C 
ATOM     41  C   UNL A   1      39.146  28.531  27.843  1.00  0.00     0.029 A 
ATOM     42  N   UNL A   1      40.387  28.547  29.706  1.00  0.00    -0.354 N 
ATOM     43  C   UNL A   1      39.300  30.946  33.105  1.00  0.00     0.074 A 
ATOM     44  C   UNL A   1      38.092  31.700  32.848  1.00  0.00     0.031 C 
ATOM     45  C   UNL A   1      40.176  27.687  27.655  1.00  0.00     0.029 A 
ATOM     46  C   UNL A   1      41.032  27.698  28.841  1.00  0.00     0.049 A 
ATOM     47  H   UNL A   1      40.705  28.729  30.620  1.00  0.00     0.167 HD
ATOM     48  C   UNL A   1      39.977  30.966  34.278  1.00  0.00     0.037 A 
ATOM     49  C   UNL A   1      42.190  27.026  28.981  1.00  0.00     0.037 A 
ATOM     50  C   UNL A   1      41.174  30.213  34.548  1.00  0.00     0.049 A 
ATOM     51  C   UNL A   1      42.973  27.137  30.263  1.00  0.00     0.074 A 
ATOM     52  C   UNL A   1      41.898  30.135  35.726  1.00  0.00     0.029 A 
ATOM     53  N   UNL A   1      41.831  29.418  33.622  1.00  0.00    -0.354 N 
ATOM     54  N   UNL A   1      42.679  27.791  31.358  1.00  0.00    -0.248 NA
ATOM     55  C   UNL A   1      44.255  26.417  30.321  1.00  0.00     0.031 C 
ATOM     56  C   UNL A   1      43.020  29.329  35.498  1.00  0.00     0.029 A 
ATOM     57  C   UNL A   1      42.972  28.875  34.191  1.00  0.00     0.049 A 
ATOM     58  H   UNL A   1      41.531  29.262  32.698  1.00  0.00     0.167 HD
ATOM     59  C   UNL A   1      43.728  27.554  32.239  1.00  0.00     0.074 A 
ATOM     60  C   UNL A   1      44.659  26.682  31.556  1.00  0.00     0.031 C 
ATOM     61  C   UNL A   1      43.901  28.020  33.500  1.00  0.00     0.037 A 
BRANCH  48  62
ATOM     62  C   UNL A   1      39.446  31.845  35.369  1.00  0.00     0.064 A 
ATOM     63  C   UNL A   1      38.534  31.365  36.320  1.00  0.00     0.173 A 
ATOM     64  C   UNL A   1      39.897  33.168  35.497  1.00  0.00     0.173 A 
ATOM     65  F   UNL A   1      38.067  30.111  36.233  1.00  0.00    -0.203 F 
ATOM     66  C   UNL A   1      38.077  32.184  37.350  1.00  0.00     0.198 A 
ATOM     67  C   UNL A   1      39.455  33.977  36.541  1.00  0.00     0.198 A 
ATOM     68  F   UNL A   1      40.774  33.671  34.616  1.00  0.00    -0.203 F 
ATOM     69  F   UNL A   1      37.181  31.715  38.229  1.00  0.00    -0.200 F 
ATOM     70  C   UNL A   1      38.542  33.486  37.463  1.00  0.00     0.200 A 
ATOM     71  F   UNL A   1      39.913  35.231  36.654  1.00  0.00    -0.200 F 
ATOM     72  F   UNL A   1      38.109  34.270  38.460  1.00  0.00    -0.200 F 
ENDBRANCH  48  62
BRANCH  49  73
ATOM     73  C   UNL A   1      42.703  26.201  27.858  1.00  0.00     0.064 A 
ATOM     74  C   UNL A   1      43.554  26.749  26.889  1.00  0.00     0.173 A 
ATOM     75  C   UNL A   1      42.336  24.855  27.723  1.00  0.00     0.173 A 
ATOM     76  F   UNL A   1      43.905  28.041  26.960  1.00  0.00    -0.203 F 
ATOM     77  C   UNL A   1      44.011  25.981  25.820  1.00  0.00     0.198 A 
ATOM     78  C   UNL A   1      42.813  24.082  26.668  1.00  0.00     0.198 A 
ATOM     79  F   UNL A   1      41.517  24.289  28.622  1.00  0.00    -0.203 F 
ATOM     80  F   UNL A   1      44.793  26.538  24.884  1.00  0.00    -0.200 F 
ATOM     81  C   UNL A   1      43.645  24.647  25.714  1.00  0.00     0.200 A 
ATOM     82  F   UNL A   1      42.460  22.793  26.570  1.00  0.00    -0.200 F 
ATOM     83  F   UNL A   1      44.087  23.910  24.686  1.00  0.00    -0.200 F 
ENDBRANCH  49  73
BRANCH  61  84
ATOM     84  C   UNL A   1      45.144  27.598  34.227  1.00  0.00     0.064 A 
ATOM     85  C   UNL A   1      45.185  26.408  34.967  1.00  0.00     0.173 A 
ATOM     86  C   UNL A   1      46.315  28.366  34.150  1.00  0.00     0.173 A 
ATOM     87  F   UNL A   1      44.085  25.647  35.084  1.00  0.00    -0.203 F 
ATOM     88  C   UNL A   1      46.350  26.010  35.619  1.00  0.00     0.198 A 
ATOM     89  C   UNL A   1      47.485  27.953  34.784  1.00  0.00     0.198 A 
ATOM     90  F   UNL A   1      46.329  29.509  33.450  1.00  0.00    -0.203 F 
ATOM     91  F   UNL A   1      46.355  24.887  36.351  1.00  0.00    -0.200 F 
ATOM     92  C   UNL A   1      47.500  26.778  35.521  1.00  0.00     0.200 A 
ATOM     93  F   UNL A   1      48.598  28.692  34.681  1.00  0.00    -0.200 F 
ATOM     94  F   UNL A   1      48.621  26.391  36.145  1.00  0.00    -0.200 F 
ENDBRANCH  61  84
ENDBRANCH  35  36
ENDBRANCH  28  30
ENDBRANCH  27  28
ENDBRANCH  26  27
ENDBRANCH  25  26
ENDBRANCH  24  25
ENDBRANCH   1  24
TORSDOF 19
ENDMDL
MODEL 3
REMARK VINA RESULT:     -10.4      5.523      8.998
REMARK SMILES CC(C)[C@@H](NC(=O)[C@@](C)([NH3+])C(F)(F)F)C(=O)OCCOCCOC(=O)c1ccc(-c2c3nc(c(-c4c(F)c(F)c(F)c(F)c4F)c4ccc([nH]4)c(-c4c(F)c(F)c(F)c(F)c4F)c4nc(c(-c5c(F)c(F)c(F)c(F)c5F)c5ccc2[nH]5)C=C4)C=C3)cc1
REMARK SMILES IDX 19 1 18 2 17 3 15 4 16 5 4 6 2 7 1 8 3 9 5 10 6 11 7 13 8 14
REMARK SMILES IDX 9 15 10 16 11 20 12 21 13 22 14 23 20 24 21 25 22 26 23 27
REMARK SMILES IDX 24 28 25 29 26 30 27 31 88 32 28 33 87 34 29 35 30 36 31 37
REMARK SMILES IDX 81 38 32 39 86 40 80 41 82 42 33 43 85 44 79 45 78 46 34 48
REMARK SMILES IDX 66 49 46 50 65 51 47 52 50 53 64 54 83 55 48 56 49 57 63 59
REMARK SMILES IDX 84 60 51 61 35 62 36 63 44 64 37 65 38 66 42 67 45 68 39 69
REMARK SMILES IDX 40 70 43 71 41 72 67 73 68 74 76 75 69 76 70 77 74 78 77 79
REMARK SMILES IDX 71 80 72 81 75 82 73 83 52 84 53 85 61 86 54 87 55 88 59 89
REMARK SMILES IDX 62 90 56 91 57 92 60 93 58 94
REMARK H PARENT 5 12 10 17 10 18 10 19 82 47 50 58
REMARK Flexibility Score: inf
ROOT
ATOM      1  C   UNL A   1      33.220  29.138  25.297  1.00  0.00     0.202 C 
ENDROOT
BRANCH   1   2
ATOM      2  C   UNL A   1      33.159  28.770  23.816  1.00  0.00     0.261 C 
BRANCH   2   3
ATOM      3  O   UNL A   1      34.001  27.661  23.439  1.00  0.00    -0.462 OA
BRANCH   3   4
ATOM      4  C   UNL A   1      33.328  26.553  23.012  1.00  0.00     0.328 C 
ATOM      5  O   UNL A   1      32.644  26.500  21.992  1.00  0.00    -0.250 OA
BRANCH   4   6
ATOM      6  C   UNL A   1      33.397  25.366  23.996  1.00  0.00     0.195 C 
BRANCH   6   7
ATOM      7  C   UNL A   1      34.605  24.389  23.995  1.00  0.00     0.017 C 
ATOM      8  C   UNL A   1      35.096  24.153  25.439  1.00  0.00     0.010 C 
ATOM      9  C   UNL A   1      34.276  23.020  23.398  1.00  0.00     0.010 C 
ENDBRANCH   6   7
BRANCH   6  10
ATOM     10  N   UNL A   1      32.912  25.651  25.368  1.00  0.00    -0.337 N 
ATOM     11  C   UNL A   1      31.688  25.753  25.960  1.00  0.00     0.291 C 
ATOM     12  H   UNL A   1      33.650  25.803  26.002  1.00  0.00     0.164 HD
ATOM     13  O   UNL A   1      31.664  26.440  26.986  1.00  0.00    -0.267 OA
BRANCH  11  14
ATOM     14  C   UNL A   1      30.427  25.017  25.461  1.00  0.00     0.267 C 
ATOM     15  C   UNL A   1      30.773  23.693  24.773  1.00  0.00     0.100 C 
BRANCH  14  16
ATOM     16  N   UNL A   1      29.528  24.737  26.630  1.00  0.00    -0.337 N 
ATOM     17  H   UNL A   1      29.264  23.751  26.627  1.00  0.00     0.345 HD
ATOM     18  H   UNL A   1      28.690  25.313  26.561  1.00  0.00     0.345 HD
ATOM     19  H   UNL A   1      30.019  24.954  27.497  1.00  0.00     0.345 HD
ENDBRANCH  14  16
BRANCH  14  20
ATOM     20  C   UNL A   1      29.728  25.931  24.415  1.00  0.00     0.453 C 
ATOM     21  F   UNL A   1      28.425  26.143  24.709  1.00  0.00    -0.164 F 
ATOM     22  F   UNL A   1      30.339  27.119  24.234  1.00  0.00    -0.164 F 
ATOM     23  F   UNL A   1      29.739  25.302  23.203  1.00  0.00    -0.164 F 
ENDBRANCH  14  20
ENDBRANCH  11  14
ENDBRANCH   6  10
ENDBRANCH   4   6
ENDBRANCH   3   4
ENDBRANCH   2   3
ENDBRANCH   1   2
BRANCH   1  24
ATOM     24  O   UNL A   1      32.961  30.501  25.609  1.00  0.00    -0.374 OA
BRANCH  24  25
ATOM     25  C   UNL A   1      31.842  30.765  26.453  1.00  0.00     0.202 C 
BRANCH  25  26
ATOM     26  C   UNL A   1      31.801  32.173  27.060  1.00  0.00     0.261 C 
BRANCH  26  27
ATOM     27  O   UNL A   1      33.024  32.908  26.828  1.00  0.00    -0.460 OA
BRANCH  27  28
ATOM     28  C   UNL A   1      33.650  33.339  27.947  1.00  0.00     0.338 C 
ATOM     29  O   UNL A   1      33.233  34.154  28.763  1.00  0.00    -0.246 OA
BRANCH  28  30
ATOM     30  C   UNL A   1      34.916  32.619  28.167  1.00  0.00     0.060 A 
ATOM     31  C   UNL A   1      34.852  31.252  28.464  1.00  0.00     0.016 A 
ATOM     32  C   UNL A   1      36.121  33.313  28.283  1.00  0.00     0.016 A 
ATOM     33  C   UNL A   1      35.985  30.588  28.941  1.00  0.00     0.010 A 
ATOM     34  C   UNL A   1      37.255  32.645  28.765  1.00  0.00     0.010 A 
ATOM     35  C   UNL A   1      37.181  31.291  29.140  1.00  0.00    -0.014 A 
BRANCH  35  36
ATOM     36  C   UNL A   1      38.300  30.649  29.880  1.00  0.00     0.031 A 
ATOM     37  C   UNL A   1      38.553  31.027  31.316  1.00  0.00     0.074 A 
ATOM     38  C   UNL A   1      39.071  29.716  29.295  1.00  0.00     0.049 A 
ATOM     39  N   UNL A   1      39.485  30.609  32.135  1.00  0.00    -0.248 NA
ATOM     40  C   UNL A   1      37.628  32.006  31.910  1.00  0.00     0.031 C 
ATOM     41  C   UNL A   1      38.915  29.228  27.927  1.00  0.00     0.029 A 
ATOM     42  N   UNL A   1      40.148  29.017  29.783  1.00  0.00    -0.354 N 
ATOM     43  C   UNL A   1      39.261  31.270  33.336  1.00  0.00     0.074 A 
ATOM     44  C   UNL A   1      38.121  32.139  33.133  1.00  0.00     0.031 C 
ATOM     45  C   UNL A   1      39.869  28.314  27.680  1.00  0.00     0.029 A 
ATOM     46  C   UNL A   1      40.720  28.175  28.862  1.00  0.00     0.049 A 
ATOM     47  H   UNL A   1      40.478  29.110  30.706  1.00  0.00     0.167 HD
ATOM     48  C   UNL A   1      39.935  31.155  34.505  1.00  0.00     0.037 A 
ATOM     49  C   UNL A   1      41.817  27.399  28.953  1.00  0.00     0.037 A 
ATOM     50  C   UNL A   1      41.063  30.288  34.721  1.00  0.00     0.049 A 
ATOM     51  C   UNL A   1      42.604  27.358  30.237  1.00  0.00     0.074 A 
ATOM     52  C   UNL A   1      41.775  30.071  35.889  1.00  0.00     0.029 A 
ATOM     53  N   UNL A   1      41.652  29.503  33.743  1.00  0.00    -0.354 N 
ATOM     54  N   UNL A   1      42.364  27.962  31.374  1.00  0.00    -0.248 NA
ATOM     55  C   UNL A   1      43.820  26.531  30.244  1.00  0.00     0.031 C 
ATOM     56  C   UNL A   1      42.824  29.189  35.605  1.00  0.00     0.029 A 
ATOM     57  C   UNL A   1      42.741  28.828  34.271  1.00  0.00     0.049 A 
ATOM     58  H   UNL A   1      41.342  29.433  32.811  1.00  0.00     0.167 HD
ATOM     59  C   UNL A   1      43.387  27.579  32.234  1.00  0.00     0.074 A 
ATOM     60  C   UNL A   1      44.243  26.679  31.492  1.00  0.00     0.031 C 
ATOM     61  C   UNL A   1      43.596  27.945  33.522  1.00  0.00     0.037 A 
BRANCH  48  62
ATOM     62  C   UNL A   1      39.478  32.003  35.654  1.00  0.00     0.064 A 
ATOM     63  C   UNL A   1      39.972  33.301  35.851  1.00  0.00     0.173 A 
ATOM     64  C   UNL A   1      38.494  31.532  36.536  1.00  0.00     0.173 A 
ATOM     65  F   UNL A   1      40.922  33.790  35.039  1.00  0.00    -0.203 F 
ATOM     66  C   UNL A   1      39.511  34.090  36.901  1.00  0.00     0.198 A 
ATOM     67  C   UNL A   1      38.020  32.332  37.572  1.00  0.00     0.198 A 
ATOM     68  F   UNL A   1      37.985  30.300  36.386  1.00  0.00    -0.203 F 
ATOM     69  F   UNL A   1      40.021  35.315  37.090  1.00  0.00    -0.200 F 
ATOM     70  C   UNL A   1      38.532  33.607  37.756  1.00  0.00     0.200 A 
ATOM     71  F   UNL A   1      37.066  31.868  38.392  1.00  0.00    -0.200 F 
ATOM     72  F   UNL A   1      38.083  34.371  38.762  1.00  0.00    -0.200 F 
ENDBRANCH  48  62
BRANCH  49  73
ATOM     73  C   UNL A   1      42.261  26.610  27.776  1.00  0.00     0.064 A 
ATOM     74  C   UNL A   1      41.743  25.333  27.526  1.00  0.00     0.173 A 
ATOM     75  C   UNL A   1      43.226  27.112  26.891  1.00  0.00     0.173 A 
ATOM     76  F   UNL A   1      40.843  24.800  28.363  1.00  0.00    -0.203 F 
ATOM     77  C   UNL A   1      42.182  24.583  26.436  1.00  0.00     0.198 A 
ATOM     78  C   UNL A   1      43.646  26.371  25.790  1.00  0.00     0.198 A 
ATOM     79  F   UNL A   1      43.757  28.327  27.096  1.00  0.00    -0.203 F 
ATOM     80  F   UNL A   1      41.700  23.347  26.239  1.00  0.00    -0.200 F 
ATOM     81  C   UNL A   1      43.128  25.105  25.566  1.00  0.00     0.200 A 
ATOM     82  F   UNL A   1      44.558  26.880  24.950  1.00  0.00    -0.200 F 
ATOM     83  F   UNL A   1      43.548  24.382  24.519  1.00  0.00    -0.200 F 
ENDBRANCH  49  73
BRANCH  61  84
ATOM     84  C   UNL A   1      44.797  27.372  34.215  1.00  0.00     0.064 A 
ATOM     85  C   UNL A   1      46.015  28.065  34.256  1.00  0.00     0.173 A 
ATOM     86  C   UNL A   1      44.719  26.140  34.881  1.00  0.00     0.173 A 
ATOM     87  F   UNL A   1      46.143  29.240  33.620  1.00  0.00    -0.203 F 
ATOM     88  C   UNL A   1      47.117  27.537  34.923  1.00  0.00     0.198 A 
ATOM     89  C   UNL A   1      45.817  25.626  35.568  1.00  0.00     0.198 A 
ATOM     90  F   UNL A   1      43.575  25.440  34.878  1.00  0.00    -0.203 F 
ATOM     91  F   UNL A   1      48.282  28.201  34.917  1.00  0.00    -0.200 F 
ATOM     92  C   UNL A   1      47.016  26.323  35.584  1.00  0.00     0.200 A 
ATOM     93  F   UNL A   1      45.714  24.456  36.214  1.00  0.00    -0.200 F 
ATOM     94  F   UNL A   1      48.077  25.819  36.230  1.00  0.00    -0.200 F 
ENDBRANCH  61  84
ENDBRANCH  35  36
ENDBRANCH  28  30
ENDBRANCH  27  28
ENDBRANCH  26  27
ENDBRANCH  25  26
ENDBRANCH  24  25
ENDBRANCH   1  24
TORSDOF 19
ENDMDL
