MODEL 1
REMARK VINA RESULT:     -12.2      0.000      0.000
REMARK SMILES Cc1cc2cc(-c3ccc([C@@H](C)C(=O)OCCOCCOC(=O)c4ccc(-c5c6nc(c(-c7c(F)c(F)c(F)c(F)c7F)c7ccc([nH]7)c(-c7c(F)c(F)c(F)c(F)c7F)c7nc(c(-c8c(F)c(F)c(F)c(F)c8F)c8ccc5[nH]8)C=C7)C=C6)cc4)cc3)ccc2[nH]1
REMARK SMILES IDX 18 1 17 2 16 3 15 4 13 5 14 6 11 7 12 8 10 9 7 10 8 11 88 12
REMARK SMILES IDX 9 13 87 14 6 15 1 16 2 17 3 18 92 19 4 20 91 21 5 23 90 24
REMARK SMILES IDX 89 25 19 26 20 27 21 28 22 29 23 30 24 31 25 32 86 33 26 34
REMARK SMILES IDX 85 35 27 36 28 37 29 38 79 39 30 40 84 41 78 42 80 43 31 44
REMARK SMILES IDX 83 45 77 46 76 47 32 49 64 50 44 51 63 52 45 53 48 54 62 55
REMARK SMILES IDX 81 56 46 57 47 58 61 60 82 61 49 62 33 63 34 64 42 65 35 66
REMARK SMILES IDX 36 67 40 68 43 69 37 70 38 71 41 72 39 73 65 74 66 75 74 76
REMARK SMILES IDX 67 77 68 78 72 79 75 80 69 81 70 82 73 83 71 84 50 85 51 86
REMARK SMILES IDX 59 87 52 88 53 89 57 90 60 91 54 92 55 93 58 94 56 95
REMARK H PARENT 92 22 80 48 48 59
REMARK Flexibility Score: inf
ROOT
ATOM      1  O   UNL A   1      30.367  29.585  24.031  1.00  0.00    -0.374 OA
ENDROOT
BRANCH   1   2
ATOM      2  C   UNL A   1      30.400  28.667  22.938  1.00  0.00     0.202 C 
BRANCH   2   3
ATOM      3  C   UNL A   1      31.749  27.994  22.678  1.00  0.00     0.261 C 
BRANCH   3   4
ATOM      4  O   UNL A   1      31.573  26.733  22.006  1.00  0.00    -0.463 OA
BRANCH   4   5
ATOM      5  C   UNL A   1      32.698  25.997  21.814  1.00  0.00     0.313 C 
ATOM      6  O   UNL A   1      33.689  26.394  21.208  1.00  0.00    -0.252 OA
BRANCH   5   7
ATOM      7  C   UNL A   1      32.617  24.587  22.379  1.00  0.00     0.126 C 
ATOM      8  C   UNL A   1      31.259  24.397  23.050  1.00  0.00     0.025 C 
BRANCH   7   9
ATOM      9  C   UNL A   1      33.759  24.109  23.271  1.00  0.00    -0.034 A 
ATOM     10  C   UNL A   1      36.049  23.444  24.831  1.00  0.00    -0.018 A 
ATOM     11  C   UNL A   1      35.683  22.681  23.711  1.00  0.00     0.009 A 
ATOM     12  C   UNL A   1      35.218  24.513  25.190  1.00  0.00     0.009 A 
ATOM     13  C   UNL A   1      34.558  23.007  22.942  1.00  0.00     0.005 A 
ATOM     14  C   UNL A   1      34.091  24.841  24.424  1.00  0.00     0.005 A 
BRANCH  10  15
ATOM     15  C   UNL A   1      37.306  23.175  25.553  1.00  0.00    -0.018 A 
ATOM     16  C   UNL A   1      42.184  19.993  27.479  1.00  0.00     0.064 C 
ATOM     17  C   UNL A   1      41.026  20.808  27.034  1.00  0.00     0.013 A 
ATOM     18  C   UNL A   1      39.965  20.490  26.213  1.00  0.00     0.031 A 
ATOM     19  N   UNL A   1      40.859  22.113  27.430  1.00  0.00    -0.359 N 
ATOM     20  C   UNL A   1      39.124  21.633  26.121  1.00  0.00     0.000 A 
ATOM     21  C   UNL A   1      39.706  22.637  26.888  1.00  0.00     0.046 A 
ATOM     22  H   UNL A   1      41.477  22.604  28.019  1.00  0.00     0.166 HD
ATOM     23  C   UNL A   1      37.916  21.908  25.449  1.00  0.00     0.019 A 
ATOM     24  C   UNL A   1      39.139  23.911  27.012  1.00  0.00     0.027 A 
ATOM     25  C   UNL A   1      37.935  24.157  26.333  1.00  0.00     0.011 A 
ENDBRANCH  10  15
ENDBRANCH   7   9
ENDBRANCH   5   7
ENDBRANCH   4   5
ENDBRANCH   3   4
ENDBRANCH   2   3
ENDBRANCH   1   2
BRANCH   1  26
ATOM     26  C   UNL A   1      31.290  29.364  25.098  1.00  0.00     0.202 C 
BRANCH  26  27
ATOM     27  C   UNL A   1      31.747  30.612  25.859  1.00  0.00     0.261 C 
BRANCH  27  28
ATOM     28  O   UNL A   1      33.042  30.433  26.461  1.00  0.00    -0.460 OA
BRANCH  28  29
ATOM     29  C   UNL A   1      33.471  31.466  27.219  1.00  0.00     0.338 C 
ATOM     30  O   UNL A   1      32.827  32.439  27.585  1.00  0.00    -0.246 OA
BRANCH  29  31
ATOM     31  C   UNL A   1      34.831  31.194  27.721  1.00  0.00     0.060 A 
ATOM     32  C   UNL A   1      35.141  29.870  28.062  1.00  0.00     0.016 A 
ATOM     33  C   UNL A   1      35.757  32.216  27.932  1.00  0.00     0.016 A 
ATOM     34  C   UNL A   1      36.359  29.572  28.668  1.00  0.00     0.010 A 
ATOM     35  C   UNL A   1      36.976  31.917  28.551  1.00  0.00     0.010 A 
ATOM     36  C   UNL A   1      37.266  30.600  28.954  1.00  0.00    -0.014 A 
BRANCH  36  37
ATOM     37  C   UNL A   1      38.438  30.323  29.819  1.00  0.00     0.031 A 
ATOM     38  C   UNL A   1      39.557  29.479  29.274  1.00  0.00     0.074 A 
ATOM     39  C   UNL A   1      38.526  30.840  31.057  1.00  0.00     0.049 A 
ATOM     40  N   UNL A   1      40.651  29.065  29.862  1.00  0.00    -0.248 NA
ATOM     41  C   UNL A   1      39.426  29.046  27.874  1.00  0.00     0.031 C 
ATOM     42  C   UNL A   1      37.536  31.718  31.677  1.00  0.00     0.029 A 
ATOM     43  N   UNL A   1      39.496  30.692  32.017  1.00  0.00    -0.354 N 
ATOM     44  C   UNL A   1      41.334  28.323  28.907  1.00  0.00     0.074 A 
ATOM     45  C   UNL A   1      40.522  28.320  27.709  1.00  0.00     0.031 C 
ATOM     46  C   UNL A   1      37.943  32.020  32.922  1.00  0.00     0.029 A 
ATOM     47  C   UNL A   1      39.203  31.330  33.196  1.00  0.00     0.049 A 
ATOM     48  H   UNL A   1      40.323  30.177  31.873  1.00  0.00     0.167 HD
ATOM     49  C   UNL A   1      42.535  27.707  29.015  1.00  0.00     0.037 A 
ATOM     50  C   UNL A   1      39.866  31.334  34.369  1.00  0.00     0.037 A 
ATOM     51  C   UNL A   1      43.342  27.706  30.207  1.00  0.00     0.049 A 
ATOM     52  C   UNL A   1      41.156  30.564  34.493  1.00  0.00     0.074 A 
ATOM     53  C   UNL A   1      44.572  27.109  30.418  1.00  0.00     0.029 A 
ATOM     54  N   UNL A   1      42.992  28.332  31.394  1.00  0.00    -0.354 N 
ATOM     55  N   UNL A   1      41.799  29.873  33.585  1.00  0.00    -0.248 NA
ATOM     56  C   UNL A   1      41.812  30.576  35.810  1.00  0.00     0.031 C 
ATOM     57  C   UNL A   1      44.948  27.338  31.745  1.00  0.00     0.029 A 
ATOM     58  C   UNL A   1      43.974  28.117  32.348  1.00  0.00     0.049 A 
ATOM     59  H   UNL A   1      42.169  28.852  31.538  1.00  0.00     0.167 HD
ATOM     60  C   UNL A   1      42.945  29.395  34.207  1.00  0.00     0.074 A 
ATOM     61  C   UNL A   1      42.915  29.881  35.571  1.00  0.00     0.031 C 
ATOM     62  C   UNL A   1      43.936  28.624  33.695  1.00  0.00     0.037 A 
BRANCH  49  63
ATOM     63  C   UNL A   1      43.040  26.961  27.817  1.00  0.00     0.064 A 
ATOM     64  C   UNL A   1      43.812  27.594  26.831  1.00  0.00     0.173 A 
ATOM     65  C   UNL A   1      42.779  25.591  27.670  1.00  0.00     0.173 A 
ATOM     66  F   UNL A   1      44.077  28.906  26.919  1.00  0.00    -0.203 F 
ATOM     67  C   UNL A   1      44.285  26.886  25.729  1.00  0.00     0.198 A 
ATOM     68  C   UNL A   1      43.276  24.881  26.581  1.00  0.00     0.198 A 
ATOM     69  F   UNL A   1      42.049  24.940  28.587  1.00  0.00    -0.203 F 
ATOM     70  F   UNL A   1      44.986  27.518  24.779  1.00  0.00    -0.200 F 
ATOM     71  C   UNL A   1      44.023  25.529  25.609  1.00  0.00     0.200 A 
ATOM     72  F   UNL A   1      43.029  23.568  26.470  1.00  0.00    -0.200 F 
ATOM     73  F   UNL A   1      44.484  24.847  24.551  1.00  0.00    -0.200 F 
ENDBRANCH  49  63
BRANCH  50  74
ATOM     74  C   UNL A   1      39.314  32.074  35.533  1.00  0.00     0.064 A 
ATOM     75  C   UNL A   1      39.653  33.414  35.766  1.00  0.00     0.173 A 
ATOM     76  C   UNL A   1      38.460  31.447  36.453  1.00  0.00     0.173 A 
ATOM     77  F   UNL A   1      40.490  34.047  34.930  1.00  0.00    -0.203 F 
ATOM     78  C   UNL A   1      39.173  34.093  36.883  1.00  0.00     0.198 A 
ATOM     79  C   UNL A   1      37.959  32.137  37.555  1.00  0.00     0.198 A 
ATOM     80  F   UNL A   1      38.109  30.165  36.279  1.00  0.00    -0.203 F 
ATOM     81  F   UNL A   1      39.551  35.360  37.108  1.00  0.00    -0.200 F 
ATOM     82  C   UNL A   1      38.322  33.457  37.775  1.00  0.00     0.200 A 
ATOM     83  F   UNL A   1      37.131  31.519  38.409  1.00  0.00    -0.200 F 
ATOM     84  F   UNL A   1      37.861  34.110  38.849  1.00  0.00    -0.200 F 
ENDBRANCH  50  74
BRANCH  62  85
ATOM     85  C   UNL A   1      45.092  28.294  34.594  1.00  0.00     0.064 A 
ATOM     86  C   UNL A   1      45.094  27.144  35.396  1.00  0.00     0.173 A 
ATOM     87  C   UNL A   1      46.234  29.109  34.607  1.00  0.00     0.173 A 
ATOM     88  F   UNL A   1      44.020  26.341  35.428  1.00  0.00    -0.203 F 
ATOM     89  C   UNL A   1      46.192  26.832  36.195  1.00  0.00     0.198 A 
ATOM     90  C   UNL A   1      47.340  28.780  35.386  1.00  0.00     0.198 A 
ATOM     91  F   UNL A   1      46.283  30.215  33.851  1.00  0.00    -0.203 F 
ATOM     92  F   UNL A   1      46.158  25.749  36.983  1.00  0.00    -0.200 F 
ATOM     93  C   UNL A   1      47.315  27.646  36.183  1.00  0.00     0.200 A 
ATOM     94  F   UNL A   1      48.428  29.560  35.364  1.00  0.00    -0.200 F 
ATOM     95  F   UNL A   1      48.374  27.339  36.946  1.00  0.00    -0.200 F 
ENDBRANCH  62  85
ENDBRANCH  36  37
ENDBRANCH  29  31
ENDBRANCH  28  29
ENDBRANCH  27  28
ENDBRANCH  26  27
ENDBRANCH   1  26
TORSDOF 16
ENDMDL
MODEL 2
REMARK VINA RESULT:     -12.2      3.473      8.590
REMARK SMILES Cc1cc2cc(-c3ccc([C@@H](C)C(=O)OCCOCCOC(=O)c4ccc(-c5c6nc(c(-c7c(F)c(F)c(F)c(F)c7F)c7ccc([nH]7)c(-c7c(F)c(F)c(F)c(F)c7F)c7nc(c(-c8c(F)c(F)c(F)c(F)c8F)c8ccc5[nH]8)C=C7)C=C6)cc4)cc3)ccc2[nH]1
REMARK SMILES IDX 18 1 17 2 16 3 15 4 13 5 14 6 11 7 12 8 10 9 7 10 8 11 88 12
REMARK SMILES IDX 9 13 87 14 6 15 1 16 2 17 3 18 92 19 4 20 91 21 5 23 90 24
REMARK SMILES IDX 89 25 19 26 20 27 21 28 22 29 23 30 24 31 25 32 86 33 26 34
REMARK SMILES IDX 85 35 27 36 28 37 29 38 79 39 30 40 84 41 78 42 80 43 31 44
REMARK SMILES IDX 83 45 77 46 76 47 32 49 64 50 44 51 63 52 45 53 48 54 62 55
REMARK SMILES IDX 81 56 46 57 47 58 61 60 82 61 49 62 33 63 34 64 42 65 35 66
REMARK SMILES IDX 36 67 40 68 43 69 37 70 38 71 41 72 39 73 65 74 66 75 74 76
REMARK SMILES IDX 67 77 68 78 72 79 75 80 69 81 70 82 73 83 71 84 50 85 51 86
REMARK SMILES IDX 59 87 52 88 53 89 57 90 60 91 54 92 55 93 58 94 56 95
REMARK H PARENT 92 22 80 48 48 59
REMARK Flexibility Score: inf
ROOT
ATOM      1  O   UNL A   1      40.133  21.339  25.990  1.00  0.00    -0.374 OA
ENDROOT
BRANCH   1   2
ATOM      2  C   UNL A   1      39.075  20.410  25.756  1.00  0.00     0.202 C 
BRANCH   2   3
ATOM      3  C   UNL A   1      37.853  20.967  25.022  1.00  0.00     0.261 C 
BRANCH   3   4
ATOM      4  O   UNL A   1      37.007  21.707  25.921  1.00  0.00    -0.463 OA
BRANCH   4   5
ATOM      5  C   UNL A   1      35.680  21.423  25.861  1.00  0.00     0.313 C 
ATOM      6  O   UNL A   1      35.191  20.557  25.143  1.00  0.00    -0.252 OA
BRANCH   5   7
ATOM      7  C   UNL A   1      34.817  22.318  26.737  1.00  0.00     0.126 C 
ATOM      8  C   UNL A   1      33.690  21.485  27.342  1.00  0.00     0.025 C 
BRANCH   7   9
ATOM      9  C   UNL A   1      34.296  23.619  26.134  1.00  0.00    -0.034 A 
ATOM     10  C   UNL A   1      33.177  25.881  24.809  1.00  0.00    -0.018 A 
ATOM     11  C   UNL A   1      34.534  25.551  24.669  1.00  0.00     0.009 A 
ATOM     12  C   UNL A   1      32.401  25.092  25.669  1.00  0.00     0.009 A 
ATOM     13  C   UNL A   1      35.086  24.439  25.318  1.00  0.00     0.005 A 
ATOM     14  C   UNL A   1      32.951  23.979  26.321  1.00  0.00     0.005 A 
BRANCH  10  15
ATOM     15  C   UNL A   1      32.577  26.971  24.019  1.00  0.00    -0.018 A 
ATOM     16  C   UNL A   1      28.155  30.436  21.557  1.00  0.00     0.064 C 
ATOM     17  C   UNL A   1      29.261  29.635  22.136  1.00  0.00     0.013 A 
ATOM     18  C   UNL A   1      29.236  28.520  22.948  1.00  0.00     0.031 A 
ATOM     19  N   UNL A   1      30.580  29.944  21.909  1.00  0.00    -0.359 N 
ATOM     20  C   UNL A   1      30.580  28.135  23.206  1.00  0.00     0.000 A 
ATOM     21  C   UNL A   1      31.404  29.043  22.550  1.00  0.00     0.046 A 
ATOM     22  H   UNL A   1      30.894  30.702  21.365  1.00  0.00     0.166 HD
ATOM     23  C   UNL A   1      31.174  27.093  23.946  1.00  0.00     0.019 A 
ATOM     24  C   UNL A   1      32.800  28.964  22.601  1.00  0.00     0.027 A 
ATOM     25  C   UNL A   1      33.366  27.915  23.345  1.00  0.00     0.011 A 
ENDBRANCH  10  15
ENDBRANCH   7   9
ENDBRANCH   5   7
ENDBRANCH   4   5
ENDBRANCH   3   4
ENDBRANCH   2   3
ENDBRANCH   1   2
BRANCH   1  26
ATOM     26  C   UNL A   1      41.394  20.803  26.393  1.00  0.00     0.202 C 
BRANCH  26  27
ATOM     27  C   UNL A   1      42.633  21.546  25.883  1.00  0.00     0.261 C 
BRANCH  27  28
ATOM     28  O   UNL A   1      42.286  22.674  25.059  1.00  0.00    -0.460 OA
BRANCH  28  29
ATOM     29  C   UNL A   1      43.111  23.738  25.165  1.00  0.00     0.338 C 
ATOM     30  O   UNL A   1      44.161  23.930  24.568  1.00  0.00    -0.246 OA
BRANCH  29  31
ATOM     31  C   UNL A   1      42.488  24.778  26.006  1.00  0.00     0.060 A 
ATOM     32  C   UNL A   1      43.148  26.010  26.105  1.00  0.00     0.016 A 
ATOM     33  C   UNL A   1      41.331  24.531  26.747  1.00  0.00     0.016 A 
ATOM     34  C   UNL A   1      42.685  26.982  26.989  1.00  0.00     0.010 A 
ATOM     35  C   UNL A   1      40.873  25.504  27.642  1.00  0.00     0.010 A 
ATOM     36  C   UNL A   1      41.569  26.718  27.793  1.00  0.00    -0.014 A 
BRANCH  36  37
ATOM     37  C   UNL A   1      41.232  27.642  28.903  1.00  0.00     0.031 A 
ATOM     38  C   UNL A   1      42.069  27.610  30.152  1.00  0.00     0.074 A 
ATOM     39  C   UNL A   1      40.220  28.519  28.792  1.00  0.00     0.049 A 
ATOM     40  N   UNL A   1      41.932  28.285  31.265  1.00  0.00    -0.248 NA
ATOM     41  C   UNL A   1      43.222  26.695  30.142  1.00  0.00     0.031 C 
ATOM     42  C   UNL A   1      39.372  28.686  27.614  1.00  0.00     0.029 A 
ATOM     43  N   UNL A   1      39.730  29.432  29.694  1.00  0.00    -0.354 N 
ATOM     44  C   UNL A   1      42.974  27.875  32.085  1.00  0.00     0.074 A 
ATOM     45  C   UNL A   1      43.722  26.874  31.355  1.00  0.00     0.031 C 
ATOM     46  C   UNL A   1      38.455  29.636  27.871  1.00  0.00     0.029 A 
ATOM     47  C   UNL A   1      38.632  30.118  29.240  1.00  0.00     0.049 A 
ATOM     48  H   UNL A   1      40.130  29.581  30.582  1.00  0.00     0.167 HD
ATOM     49  C   UNL A   1      43.286  28.301  33.332  1.00  0.00     0.037 A 
ATOM     50  C   UNL A   1      37.846  31.012  29.870  1.00  0.00     0.037 A 
ATOM     51  C   UNL A   1      42.541  29.294  34.061  1.00  0.00     0.049 A 
ATOM     52  C   UNL A   1      38.159  31.403  31.291  1.00  0.00     0.074 A 
ATOM     53  C   UNL A   1      42.775  29.791  35.330  1.00  0.00     0.029 A 
ATOM     54  N   UNL A   1      41.410  29.937  33.581  1.00  0.00    -0.354 N 
ATOM     55  N   UNL A   1      39.150  31.017  32.057  1.00  0.00    -0.248 NA
ATOM     56  C   UNL A   1      37.241  32.354  31.936  1.00  0.00     0.031 C 
ATOM     57  C   UNL A   1      41.762  30.706  35.636  1.00  0.00     0.029 A 
ATOM     58  C   UNL A   1      40.923  30.812  34.538  1.00  0.00     0.049 A 
ATOM     59  H   UNL A   1      41.013  29.794  32.692  1.00  0.00     0.167 HD
ATOM     60  C   UNL A   1      38.994  31.699  33.258  1.00  0.00     0.074 A 
ATOM     61  C   UNL A   1      37.816  32.529  33.118  1.00  0.00     0.031 C 
ATOM     62  C   UNL A   1      39.759  31.644  34.376  1.00  0.00     0.037 A 
BRANCH  49  63
ATOM     63  C   UNL A   1      44.475  27.677  33.999  1.00  0.00     0.064 A 
ATOM     64  C   UNL A   1      45.751  28.254  33.912  1.00  0.00     0.173 A 
ATOM     65  C   UNL A   1      44.331  26.509  34.762  1.00  0.00     0.173 A 
ATOM     66  F   UNL A   1      45.943  29.363  33.183  1.00  0.00    -0.203 F 
ATOM     67  C   UNL A   1      46.844  27.669  34.546  1.00  0.00     0.198 A 
ATOM     68  C   UNL A   1      45.421  25.943  35.416  1.00  0.00     0.198 A 
ATOM     69  F   UNL A   1      43.131  25.922  34.879  1.00  0.00    -0.203 F 
ATOM     70  F   UNL A   1      48.062  28.213  34.417  1.00  0.00    -0.200 F 
ATOM     71  C   UNL A   1      46.677  26.519  35.304  1.00  0.00     0.200 A 
ATOM     72  F   UNL A   1      45.256  24.837  36.155  1.00  0.00    -0.200 F 
ATOM     73  F   UNL A   1      47.729  25.962  35.919  1.00  0.00    -0.200 F 
ENDBRANCH  49  63
BRANCH  50  74
ATOM     74  C   UNL A   1      36.668  31.589  29.171  1.00  0.00     0.064 A 
ATOM     75  C   UNL A   1      36.631  32.942  28.810  1.00  0.00     0.173 A 
ATOM     76  C   UNL A   1      35.542  30.804  28.878  1.00  0.00     0.173 A 
ATOM     77  F   UNL A   1      37.672  33.739  29.096  1.00  0.00    -0.203 F 
ATOM     78  C   UNL A   1      35.508  33.493  28.198  1.00  0.00     0.198 A 
ATOM     79  C   UNL A   1      34.430  31.351  28.241  1.00  0.00     0.198 A 
ATOM     80  F   UNL A   1      35.524  29.505  29.207  1.00  0.00    -0.203 F 
ATOM     81  F   UNL A   1      35.481  34.802  27.906  1.00  0.00    -0.200 F 
ATOM     82  C   UNL A   1      34.410  32.697  27.908  1.00  0.00     0.200 A 
ATOM     83  F   UNL A   1      33.375  30.574  27.956  1.00  0.00    -0.200 F 
ATOM     84  F   UNL A   1      33.330  33.227  27.320  1.00  0.00    -0.200 F 
ENDBRANCH  50  74
BRANCH  62  85
ATOM     85  C   UNL A   1      39.377  32.536  35.521  1.00  0.00     0.064 A 
ATOM     86  C   UNL A   1      38.566  32.079  36.569  1.00  0.00     0.173 A 
ATOM     87  C   UNL A   1      39.878  33.844  35.596  1.00  0.00     0.173 A 
ATOM     88  F   UNL A   1      38.053  30.840  36.535  1.00  0.00    -0.203 F 
ATOM     89  C   UNL A   1      38.254  32.908  37.644  1.00  0.00     0.198 A 
ATOM     90  C   UNL A   1      39.585  34.661  36.685  1.00  0.00     0.198 A 
ATOM     91  F   UNL A   1      40.664  34.324  34.622  1.00  0.00    -0.203 F 
ATOM     92  F   UNL A   1      37.446  32.465  38.617  1.00  0.00    -0.200 F 
ATOM     93  C   UNL A   1      38.770  34.195  37.704  1.00  0.00     0.200 A 
ATOM     94  F   UNL A   1      40.094  35.899  36.747  1.00  0.00    -0.200 F 
ATOM     95  F   UNL A   1      38.475  34.988  38.744  1.00  0.00    -0.200 F 
ENDBRANCH  62  85
ENDBRANCH  36  37
ENDBRANCH  29  31
ENDBRANCH  28  29
ENDBRANCH  27  28
ENDBRANCH  26  27
ENDBRANCH   1  26
TORSDOF 16
ENDMDL
MODEL 3
REMARK VINA RESULT:     -12.0      0.515      7.364
REMARK SMILES Cc1cc2cc(-c3ccc([C@@H](C)C(=O)OCCOCCOC(=O)c4ccc(-c5c6nc(c(-c7c(F)c(F)c(F)c(F)c7F)c7ccc([nH]7)c(-c7c(F)c(F)c(F)c(F)c7F)c7nc(c(-c8c(F)c(F)c(F)c(F)c8F)c8ccc5[nH]8)C=C7)C=C6)cc4)cc3)ccc2[nH]1
REMARK SMILES IDX 18 1 17 2 16 3 15 4 13 5 14 6 11 7 12 8 10 9 7 10 8 11 88 12
REMARK SMILES IDX 9 13 87 14 6 15 1 16 2 17 3 18 92 19 4 20 91 21 5 23 90 24
REMARK SMILES IDX 89 25 19 26 20 27 21 28 22 29 23 30 24 31 25 32 86 33 26 34
REMARK SMILES IDX 85 35 27 36 28 37 29 38 79 39 30 40 84 41 78 42 80 43 31 44
REMARK SMILES IDX 83 45 77 46 76 47 32 49 64 50 44 51 63 52 45 53 48 54 62 55
REMARK SMILES IDX 81 56 46 57 47 58 61 60 82 61 49 62 33 63 34 64 42 65 35 66
REMARK SMILES IDX 36 67 40 68 43 69 37 70 38 71 41 72 39 73 65 74 66 75 74 76
REMARK SMILES IDX 67 77 68 78 72 79 75 80 69 81 70 82 73 83 71 84 50 85 51 86
REMARK SMILES IDX 59 87 52 88 53 89 57 90 60 91 54 92 55 93 58 94 56 95
REMARK H PARENT 92 22 80 48 48 59
REMARK Flexibility Score: inf
ROOT
ATOM      1  O   UNL A   1      30.551  29.818  24.150  1.00  0.00    -0.374 OA
ENDROOT
BRANCH   1   2
ATOM      2  C   UNL A   1      30.574  28.969  23.003  1.00  0.00     0.202 C 
BRANCH   2   3
ATOM      3  C   UNL A   1      31.870  28.187  22.783  1.00  0.00     0.261 C 
BRANCH   3   4
ATOM      4  O   UNL A   1      31.618  26.964  22.067  1.00  0.00    -0.463 OA
BRANCH   4   5
ATOM      5  C   UNL A   1      32.685  26.143  21.892  1.00  0.00     0.313 C 
ATOM      6  O   UNL A   1      33.676  26.430  21.227  1.00  0.00    -0.252 OA
BRANCH   5   7
ATOM      7  C   UNL A   1      32.535  24.784  22.558  1.00  0.00     0.126 C 
ATOM      8  C   UNL A   1      31.218  24.752  23.331  1.00  0.00     0.025 C 
BRANCH   7   9
ATOM      9  C   UNL A   1      33.697  24.270  23.403  1.00  0.00    -0.034 A 
ATOM     10  C   UNL A   1      36.018  23.552  24.891  1.00  0.00    -0.018 A 
ATOM     11  C   UNL A   1      35.665  22.870  23.717  1.00  0.00     0.009 A 
ATOM     12  C   UNL A   1      35.159  24.563  25.340  1.00  0.00     0.009 A 
ATOM     13  C   UNL A   1      34.525  23.222  22.982  1.00  0.00     0.005 A 
ATOM     14  C   UNL A   1      34.017  24.917  24.608  1.00  0.00     0.005 A 
BRANCH  10  15
ATOM     15  C   UNL A   1      37.288  23.263  25.583  1.00  0.00    -0.018 A 
ATOM     16  C   UNL A   1      42.175  20.016  27.370  1.00  0.00     0.064 C 
ATOM     17  C   UNL A   1      41.016  20.845  26.959  1.00  0.00     0.013 A 
ATOM     18  C   UNL A   1      39.933  20.547  26.158  1.00  0.00     0.031 A 
ATOM     19  N   UNL A   1      40.871  22.148  27.370  1.00  0.00    -0.359 N 
ATOM     20  C   UNL A   1      39.102  21.698  26.096  1.00  0.00     0.000 A 
ATOM     21  C   UNL A   1      39.711  22.689  26.859  1.00  0.00     0.046 A 
ATOM     22  H   UNL A   1      41.506  22.628  27.950  1.00  0.00     0.166 HD
ATOM     23  C   UNL A   1      37.883  21.992  25.454  1.00  0.00     0.019 A 
ATOM     24  C   UNL A   1      39.160  23.967  27.008  1.00  0.00     0.027 A 
ATOM     25  C   UNL A   1      37.944  24.232  26.358  1.00  0.00     0.011 A 
ENDBRANCH  10  15
ENDBRANCH   7   9
ENDBRANCH   5   7
ENDBRANCH   4   5
ENDBRANCH   3   4
ENDBRANCH   2   3
ENDBRANCH   1   2
BRANCH   1  26
ATOM     26  C   UNL A   1      31.352  29.429  25.266  1.00  0.00     0.202 C 
BRANCH  26  27
ATOM     27  C   UNL A   1      31.800  30.560  26.198  1.00  0.00     0.261 C 
BRANCH  27  28
ATOM     28  O   UNL A   1      33.122  30.337  26.722  1.00  0.00    -0.460 OA
BRANCH  28  29
ATOM     29  C   UNL A   1      33.685  31.403  27.332  1.00  0.00     0.338 C 
ATOM     30  O   UNL A   1      33.143  32.452  27.649  1.00  0.00    -0.246 OA
BRANCH  29  31
ATOM     31  C   UNL A   1      35.063  31.079  27.744  1.00  0.00     0.060 A 
ATOM     32  C   UNL A   1      35.400  29.724  27.863  1.00  0.00     0.016 A 
ATOM     33  C   UNL A   1      35.983  32.072  28.085  1.00  0.00     0.016 A 
ATOM     34  C   UNL A   1      36.641  29.356  28.378  1.00  0.00     0.010 A 
ATOM     35  C   UNL A   1      37.225  31.700  28.612  1.00  0.00     0.010 A 
ATOM     36  C   UNL A   1      37.544  30.342  28.795  1.00  0.00    -0.014 A 
BRANCH  36  37
ATOM     37  C   UNL A   1      38.747  29.952  29.570  1.00  0.00     0.031 A 
ATOM     38  C   UNL A   1      38.915  30.490  30.965  1.00  0.00     0.074 A 
ATOM     39  C   UNL A   1      39.659  29.108  29.058  1.00  0.00     0.049 A 
ATOM     40  N   UNL A   1      39.905  30.328  31.806  1.00  0.00    -0.248 NA
ATOM     41  C   UNL A   1      37.815  31.319  31.482  1.00  0.00     0.031 C 
ATOM     42  C   UNL A   1      39.581  28.477  27.743  1.00  0.00     0.029 A 
ATOM     43  N   UNL A   1      40.839  28.645  29.588  1.00  0.00    -0.354 N 
ATOM     44  C   UNL A   1      39.549  31.036  32.946  1.00  0.00     0.074 A 
ATOM     45  C   UNL A   1      38.266  31.650  32.683  1.00  0.00     0.031 C 
ATOM     46  C   UNL A   1      40.675  27.716  27.561  1.00  0.00     0.029 A 
ATOM     47  C   UNL A   1      41.543  27.836  28.732  1.00  0.00     0.049 A 
ATOM     48  H   UNL A   1      41.148  28.870  30.495  1.00  0.00     0.167 HD
ATOM     49  C   UNL A   1      40.227  31.155  34.113  1.00  0.00     0.037 A 
ATOM     50  C   UNL A   1      42.762  27.278  28.871  1.00  0.00     0.037 A 
ATOM     51  C   UNL A   1      41.506  30.548  34.374  1.00  0.00     0.049 A 
ATOM     52  C   UNL A   1      43.538  27.501  30.143  1.00  0.00     0.074 A 
ATOM     53  C   UNL A   1      42.274  30.612  35.523  1.00  0.00     0.029 A 
ATOM     54  N   UNL A   1      42.205  29.768  33.467  1.00  0.00    -0.354 N 
ATOM     55  N   UNL A   1      43.192  28.164  31.220  1.00  0.00    -0.248 NA
ATOM     56  C   UNL A   1      44.878  26.898  30.218  1.00  0.00     0.031 C 
ATOM     57  C   UNL A   1      43.459  29.904  35.297  1.00  0.00     0.029 A 
ATOM     58  C   UNL A   1      43.407  29.361  34.024  1.00  0.00     0.049 A 
ATOM     59  H   UNL A   1      41.895  29.536  32.563  1.00  0.00     0.167 HD
ATOM     60  C   UNL A   1      44.252  28.033  32.108  1.00  0.00     0.074 A 
ATOM     61  C   UNL A   1      45.253  27.220  31.448  1.00  0.00     0.031 C 
ATOM     62  C   UNL A   1      44.385  28.537  33.359  1.00  0.00     0.037 A 
BRANCH  49  63
ATOM     63  C   UNL A   1      39.607  31.995  35.190  1.00  0.00     0.064 A 
ATOM     64  C   UNL A   1      38.775  31.433  36.169  1.00  0.00     0.173 A 
ATOM     65  C   UNL A   1      39.877  33.369  35.263  1.00  0.00     0.173 A 
ATOM     66  F   UNL A   1      38.476  30.127  36.134  1.00  0.00    -0.203 F 
ATOM     67  C   UNL A   1      38.216  32.223  37.170  1.00  0.00     0.198 A 
ATOM     68  C   UNL A   1      39.338  34.150  36.281  1.00  0.00     0.198 A 
ATOM     69  F   UNL A   1      40.670  33.953  34.352  1.00  0.00    -0.203 F 
ATOM     70  F   UNL A   1      37.391  31.675  38.073  1.00  0.00    -0.200 F 
ATOM     71  C   UNL A   1      38.504  33.579  37.230  1.00  0.00     0.200 A 
ATOM     72  F   UNL A   1      39.624  35.459  36.342  1.00  0.00    -0.200 F 
ATOM     73  F   UNL A   1      37.971  34.337  38.198  1.00  0.00    -0.200 F 
ENDBRANCH  49  63
BRANCH  50  74
ATOM     74  C   UNL A   1      43.340  26.469  27.767  1.00  0.00     0.064 A 
ATOM     75  C   UNL A   1      43.236  25.071  27.762  1.00  0.00     0.173 A 
ATOM     76  C   UNL A   1      44.033  27.075  26.708  1.00  0.00     0.173 A 
ATOM     77  F   UNL A   1      42.608  24.444  28.768  1.00  0.00    -0.203 F 
ATOM     78  C   UNL A   1      43.819  24.310  26.752  1.00  0.00     0.198 A 
ATOM     79  C   UNL A   1      44.592  26.314  25.684  1.00  0.00     0.198 A 
ATOM     80  F   UNL A   1      44.165  28.409  26.668  1.00  0.00    -0.203 F 
ATOM     81  F   UNL A   1      43.747  22.972  26.798  1.00  0.00    -0.200 F 
ATOM     82  C   UNL A   1      44.493  24.932  25.710  1.00  0.00     0.200 A 
ATOM     83  F   UNL A   1      45.234  26.921  24.676  1.00  0.00    -0.200 F 
ATOM     84  F   UNL A   1      45.053  24.199  24.739  1.00  0.00    -0.200 F 
ENDBRANCH  50  74
BRANCH  62  85
ATOM     85  C   UNL A   1      45.632  28.192  34.117  1.00  0.00     0.064 A 
ATOM     86  C   UNL A   1      46.758  29.029  34.101  1.00  0.00     0.173 A 
ATOM     87  C   UNL A   1      45.680  27.039  34.915  1.00  0.00     0.173 A 
ATOM     88  F   UNL A   1      46.765  30.135  33.343  1.00  0.00    -0.203 F 
ATOM     89  C   UNL A   1      47.894  28.712  34.842  1.00  0.00     0.198 A 
ATOM     90  C   UNL A   1      46.807  26.740  35.675  1.00  0.00     0.198 A 
ATOM     91  F   UNL A   1      44.626  26.211  34.969  1.00  0.00    -0.203 F 
ATOM     92  F   UNL A   1      48.973  29.505  34.782  1.00  0.00    -0.200 F 
ATOM     93  C   UNL A   1      47.914  27.573  35.633  1.00  0.00     0.200 A 
ATOM     94  F   UNL A   1      46.821  25.646  36.448  1.00  0.00    -0.200 F 
ATOM     95  F   UNL A   1      49.005  27.275  36.353  1.00  0.00    -0.200 F 
ENDBRANCH  62  85
ENDBRANCH  36  37
ENDBRANCH  29  31
ENDBRANCH  28  29
ENDBRANCH  27  28
ENDBRANCH  26  27
ENDBRANCH   1  26
TORSDOF 16
ENDMDL
