MODEL 1
REMARK VINA RESULT:     -10.6      0.000      0.000
REMARK SMILES C[NH2+][C@]1(C(=O)OCCOCCOC(=O)c2ccc(-c3c4nc(c(-c5c(F)c(F)c(F)c(F)c5F)c5ccc([nH]5)c(-c5c(F)c(F)c(F)c(F)c5F)c5nc(c(-c6c(F)c(F)c(F)c(F)c6F)c6ccc3[nH]6)C=C5)C=C4)cc2)CCC[C@@H]1CCn1nc(C)c(Cl)c1C
REMARK SMILES IDX 8 1 7 2 6 3 4 4 5 5 3 6 78 7 81 8 79 9 80 10 2 11 1 12 82 15
REMARK SMILES IDX 83 16 84 17 85 18 90 19 86 20 88 21 91 22 87 23 89 24 9 25
REMARK SMILES IDX 10 26 11 27 12 28 13 29 14 30 15 31 16 32 77 33 17 34 76 35
REMARK SMILES IDX 18 36 19 37 20 38 70 39 21 40 75 41 69 42 71 43 22 44 74 45
REMARK SMILES IDX 68 46 67 47 23 49 55 50 35 51 54 52 36 53 39 54 53 55 72 56
REMARK SMILES IDX 37 57 38 58 52 60 73 61 40 62 24 63 25 64 33 65 26 66 27 67
REMARK SMILES IDX 31 68 34 69 28 70 29 71 32 72 30 73 56 74 57 75 65 76 58 77
REMARK SMILES IDX 59 78 63 79 66 80 60 81 61 82 64 83 62 84 41 85 42 86 50 87
REMARK SMILES IDX 43 88 44 89 48 90 51 91 45 92 46 93 49 94 47 95
REMARK H PARENT 2 13 2 14 71 48 39 59
REMARK Flexibility Score: inf
ROOT
ATOM      1  C   UNL A   1      33.427  27.448  24.047  1.00  0.00     0.202 C 
ENDROOT
BRANCH   1   2
ATOM      2  C   UNL A   1      34.027  26.072  24.353  1.00  0.00     0.261 C 
BRANCH   2   3
ATOM      3  O   UNL A   1      33.141  24.998  24.014  1.00  0.00    -0.459 OA
BRANCH   3   4
ATOM      4  C   UNL A   1      33.751  23.889  23.509  1.00  0.00     0.368 C 
ATOM      5  O   UNL A   1      34.316  23.845  22.420  1.00  0.00    -0.245 OA
BRANCH   4   6
ATOM      6  C   UNL A   1      33.605  22.659  24.444  1.00  0.00     0.197 C 
ATOM      7  C   UNL A   1      33.014  21.373  23.824  1.00  0.00     0.081 C 
ATOM      8  C   UNL A   1      35.036  22.146  24.759  1.00  0.00     0.064 C 
ATOM      9  C   UNL A   1      33.561  20.220  24.673  1.00  0.00     0.008 C 
ATOM     10  C   UNL A   1      34.802  20.765  25.384  1.00  0.00     0.011 C 
BRANCH   6  11
ATOM     11  N   UNL A   1      32.865  23.001  25.697  1.00  0.00    -0.334 N 
ATOM     12  C   UNL A   1      31.442  22.662  25.658  1.00  0.00     0.331 C 
ATOM     13  H   UNL A   1      33.295  22.494  26.471  1.00  0.00     0.347 HD
ATOM     14  H   UNL A   1      32.925  24.013  25.808  1.00  0.00     0.347 HD
ENDBRANCH   6  11
BRANCH   8  15
ATOM     15  C   UNL A   1      35.906  23.091  25.604  1.00  0.00     0.034 C 
BRANCH  15  16
ATOM     16  C   UNL A   1      37.301  23.352  25.026  1.00  0.00     0.145 C 
BRANCH  16  17
ATOM     17  N   UNL A   1      38.372  22.656  25.724  1.00  0.00    -0.268 N 
ATOM     18  N   UNL A   1      38.634  21.376  25.383  1.00  0.00    -0.176 NA
ATOM     19  C   UNL A   1      39.187  23.125  26.728  1.00  0.00     0.054 A 
ATOM     20  C   UNL A   1      39.655  21.020  26.174  1.00  0.00     0.078 A 
ATOM     21  C   UNL A   1      40.019  22.071  27.043  1.00  0.00     0.084 A 
ATOM     22  C   UNL A   1      39.112  24.480  27.328  1.00  0.00     0.068 C 
ATOM     23  C   UNL A   1      40.243  19.663  26.053  1.00  0.00     0.070 C 
ATOM     24  Cl  UNL A   1      41.234  22.033  28.229  1.00  0.00    -0.080 Cl
ENDBRANCH  16  17
ENDBRANCH  15  16
ENDBRANCH   8  15
ENDBRANCH   4   6
ENDBRANCH   3   4
ENDBRANCH   2   3
ENDBRANCH   1   2
BRANCH   1  25
ATOM     25  O   UNL A   1      33.348  28.392  25.112  1.00  0.00    -0.374 OA
BRANCH  25  26
ATOM     26  C   UNL A   1      32.678  29.627  24.867  1.00  0.00     0.202 C 
BRANCH  26  27
ATOM     27  C   UNL A   1      31.957  30.297  26.043  1.00  0.00     0.261 C 
BRANCH  27  28
ATOM     28  O   UNL A   1      32.750  30.296  27.243  1.00  0.00    -0.460 OA
BRANCH  28  29
ATOM     29  C   UNL A   1      33.436  31.445  27.461  1.00  0.00     0.338 C 
ATOM     30  O   UNL A   1      33.002  32.583  27.450  1.00  0.00    -0.246 OA
BRANCH  29  31
ATOM     31  C   UNL A   1      34.805  31.137  27.910  1.00  0.00     0.060 A 
ATOM     32  C   UNL A   1      35.060  29.827  28.335  1.00  0.00     0.016 A 
ATOM     33  C   UNL A   1      35.788  32.123  28.006  1.00  0.00     0.016 A 
ATOM     34  C   UNL A   1      36.284  29.510  28.915  1.00  0.00     0.010 A 
ATOM     35  C   UNL A   1      37.013  31.807  28.601  1.00  0.00     0.010 A 
ATOM     36  C   UNL A   1      37.248  30.511  29.094  1.00  0.00    -0.014 A 
BRANCH  36  37
ATOM     37  C   UNL A   1      38.421  30.232  29.955  1.00  0.00     0.031 A 
ATOM     38  C   UNL A   1      39.551  29.415  29.394  1.00  0.00     0.074 A 
ATOM     39  C   UNL A   1      38.496  30.738  31.197  1.00  0.00     0.049 A 
ATOM     40  N   UNL A   1      40.669  29.040  29.962  1.00  0.00    -0.248 NA
ATOM     41  C   UNL A   1      39.402  28.962  28.002  1.00  0.00     0.031 C 
ATOM     42  C   UNL A   1      37.480  31.576  31.829  1.00  0.00     0.029 A 
ATOM     43  N   UNL A   1      39.475  30.615  32.149  1.00  0.00    -0.354 N 
ATOM     44  C   UNL A   1      41.351  28.306  29.000  1.00  0.00     0.074 A 
ATOM     45  C   UNL A   1      40.513  28.263  27.823  1.00  0.00     0.031 C 
ATOM     46  C   UNL A   1      37.884  31.886  33.073  1.00  0.00     0.029 A 
ATOM     47  C   UNL A   1      39.173  31.246  33.330  1.00  0.00     0.049 A 
ATOM     48  H   UNL A   1      40.314  30.122  32.001  1.00  0.00     0.167 HD
ATOM     49  C   UNL A   1      42.572  27.728  29.091  1.00  0.00     0.037 A 
ATOM     50  C   UNL A   1      39.856  31.282  34.491  1.00  0.00     0.037 A 
ATOM     51  C   UNL A   1      43.402  27.773  30.265  1.00  0.00     0.049 A 
ATOM     52  C   UNL A   1      41.183  30.575  34.587  1.00  0.00     0.074 A 
ATOM     53  C   UNL A   1      44.661  27.230  30.456  1.00  0.00     0.029 A 
ATOM     54  N   UNL A   1      43.048  28.395  31.454  1.00  0.00    -0.354 N 
ATOM     55  N   UNL A   1      41.832  29.902  33.668  1.00  0.00    -0.248 NA
ATOM     56  C   UNL A   1      41.874  30.636  35.883  1.00  0.00     0.031 C 
ATOM     57  C   UNL A   1      45.049  27.484  31.776  1.00  0.00     0.029 A 
ATOM     58  C   UNL A   1      44.055  28.228  32.391  1.00  0.00     0.049 A 
ATOM     59  H   UNL A   1      42.208  28.883  31.608  1.00  0.00     0.167 HD
ATOM     60  C   UNL A   1      43.015  29.483  34.263  1.00  0.00     0.074 A 
ATOM     61  C   UNL A   1      43.000  29.988  35.621  1.00  0.00     0.031 C 
ATOM     62  C   UNL A   1      44.023  28.745  33.735  1.00  0.00     0.037 A 
BRANCH  49  63
ATOM     63  C   UNL A   1      43.071  26.973  27.894  1.00  0.00     0.064 A 
ATOM     64  C   UNL A   1      43.845  27.593  26.902  1.00  0.00     0.173 A 
ATOM     65  C   UNL A   1      42.791  25.605  27.751  1.00  0.00     0.173 A 
ATOM     66  F   UNL A   1      44.127  28.902  26.985  1.00  0.00    -0.203 F 
ATOM     67  C   UNL A   1      44.302  26.876  25.798  1.00  0.00     0.198 A 
ATOM     68  C   UNL A   1      43.273  24.886  26.660  1.00  0.00     0.198 A 
ATOM     69  F   UNL A   1      42.056  24.965  28.672  1.00  0.00    -0.203 F 
ATOM     70  F   UNL A   1      45.004  27.499  24.841  1.00  0.00    -0.200 F 
ATOM     71  C   UNL A   1      44.022  25.524  25.682  1.00  0.00     0.200 A 
ATOM     72  F   UNL A   1      43.009  23.577  26.553  1.00  0.00    -0.200 F 
ATOM     73  F   UNL A   1      44.466  24.834  24.622  1.00  0.00    -0.200 F 
ENDBRANCH  49  63
BRANCH  50  74
ATOM     74  C   UNL A   1      39.290  32.006  35.659  1.00  0.00     0.064 A 
ATOM     75  C   UNL A   1      38.434  31.363  36.563  1.00  0.00     0.173 A 
ATOM     76  C   UNL A   1      39.587  33.357  35.888  1.00  0.00     0.173 A 
ATOM     77  F   UNL A   1      38.100  30.079  36.371  1.00  0.00    -0.203 F 
ATOM     78  C   UNL A   1      37.882  32.050  37.643  1.00  0.00     0.198 A 
ATOM     79  C   UNL A   1      39.057  34.035  36.983  1.00  0.00     0.198 A 
ATOM     80  F   UNL A   1      40.397  34.019  35.049  1.00  0.00    -0.203 F 
ATOM     81  F   UNL A   1      37.030  31.424  38.467  1.00  0.00    -0.200 F 
ATOM     82  C   UNL A   1      38.198  33.383  37.856  1.00  0.00     0.200 A 
ATOM     83  F   UNL A   1      39.371  35.321  37.189  1.00  0.00    -0.200 F 
ATOM     84  F   UNL A   1      37.669  34.041  38.896  1.00  0.00    -0.200 F 
ENDBRANCH  50  74
BRANCH  62  85
ATOM     85  C   UNL A   1      45.206  28.468  34.615  1.00  0.00     0.064 A 
ATOM     86  C   UNL A   1      46.287  29.358  34.698  1.00  0.00     0.173 A 
ATOM     87  C   UNL A   1      45.237  27.319  35.421  1.00  0.00     0.173 A 
ATOM     88  F   UNL A   1      46.310  30.463  33.938  1.00  0.00    -0.203 F 
ATOM     89  C   UNL A   1      47.366  29.096  35.539  1.00  0.00     0.198 A 
ATOM     90  C   UNL A   1      46.304  27.075  36.280  1.00  0.00     0.198 A 
ATOM     91  F   UNL A   1      44.224  26.441  35.385  1.00  0.00    -0.203 F 
ATOM     92  F   UNL A   1      48.407  29.939  35.570  1.00  0.00    -0.200 F 
ATOM     93  C   UNL A   1      47.370  27.960  36.334  1.00  0.00     0.200 A 
ATOM     94  F   UNL A   1      46.300  25.983  37.059  1.00  0.00    -0.200 F 
ATOM     95  F   UNL A   1      48.406  27.714  37.148  1.00  0.00    -0.200 F 
ENDBRANCH  62  85
ENDBRANCH  36  37
ENDBRANCH  29  31
ENDBRANCH  28  29
ENDBRANCH  27  28
ENDBRANCH  26  27
ENDBRANCH  25  26
ENDBRANCH   1  25
TORSDOF 18
ENDMDL
MODEL 2
REMARK VINA RESULT:     -10.5      1.614      7.518
REMARK SMILES C[NH2+][C@]1(C(=O)OCCOCCOC(=O)c2ccc(-c3c4nc(c(-c5c(F)c(F)c(F)c(F)c5F)c5ccc([nH]5)c(-c5c(F)c(F)c(F)c(F)c5F)c5nc(c(-c6c(F)c(F)c(F)c(F)c6F)c6ccc3[nH]6)C=C5)C=C4)cc2)CCC[C@@H]1CCn1nc(C)c(Cl)c1C
REMARK SMILES IDX 8 1 7 2 6 3 4 4 5 5 3 6 78 7 81 8 79 9 80 10 2 11 1 12 82 15
REMARK SMILES IDX 83 16 84 17 85 18 90 19 86 20 88 21 91 22 87 23 89 24 9 25
REMARK SMILES IDX 10 26 11 27 12 28 13 29 14 30 15 31 16 32 77 33 17 34 76 35
REMARK SMILES IDX 18 36 19 37 20 38 70 39 21 40 75 41 69 42 71 43 22 44 74 45
REMARK SMILES IDX 68 46 67 47 23 49 55 50 35 51 54 52 36 53 39 54 53 55 72 56
REMARK SMILES IDX 37 57 38 58 52 60 73 61 40 62 24 63 25 64 33 65 26 66 27 67
REMARK SMILES IDX 31 68 34 69 28 70 29 71 32 72 30 73 56 74 57 75 65 76 58 77
REMARK SMILES IDX 59 78 63 79 66 80 60 81 61 82 64 83 62 84 41 85 42 86 50 87
REMARK SMILES IDX 43 88 44 89 48 90 51 91 45 92 46 93 49 94 47 95
REMARK H PARENT 2 13 2 14 71 48 39 59
REMARK Flexibility Score: inf
ROOT
ATOM      1  C   UNL A   1      33.288  28.837  25.341  1.00  0.00     0.202 C 
ENDROOT
BRANCH   1   2
ATOM      2  C   UNL A   1      32.677  27.830  26.320  1.00  0.00     0.261 C 
BRANCH   2   3
ATOM      3  O   UNL A   1      32.953  26.471  25.955  1.00  0.00    -0.459 OA
BRANCH   3   4
ATOM      4  C   UNL A   1      31.862  25.656  25.915  1.00  0.00     0.368 C 
ATOM      5  O   UNL A   1      31.159  25.391  26.885  1.00  0.00    -0.245 OA
BRANCH   4   6
ATOM      6  C   UNL A   1      31.634  25.046  24.505  1.00  0.00     0.197 C 
ATOM      7  C   UNL A   1      32.356  25.728  23.321  1.00  0.00     0.081 C 
ATOM      8  C   UNL A   1      32.354  23.671  24.475  1.00  0.00     0.064 C 
ATOM      9  C   UNL A   1      32.511  24.639  22.254  1.00  0.00     0.008 C 
ATOM     10  C   UNL A   1      32.378  23.302  22.987  1.00  0.00     0.011 C 
BRANCH   6  11
ATOM     11  N   UNL A   1      30.179  24.902  24.194  1.00  0.00    -0.334 N 
ATOM     12  C   UNL A   1      29.491  26.173  23.965  1.00  0.00     0.331 C 
ATOM     13  H   UNL A   1      30.086  24.331  23.354  1.00  0.00     0.347 HD
ATOM     14  H   UNL A   1      29.743  24.473  25.010  1.00  0.00     0.347 HD
ENDBRANCH   6  11
BRANCH   8  15
ATOM     15  C   UNL A   1      31.758  22.592  25.393  1.00  0.00     0.034 C 
BRANCH  15  16
ATOM     16  C   UNL A   1      32.721  22.070  26.464  1.00  0.00     0.145 C 
BRANCH  16  17
ATOM     17  N   UNL A   1      34.121  22.087  26.062  1.00  0.00    -0.268 N 
ATOM     18  N   UNL A   1      34.867  23.165  26.385  1.00  0.00    -0.176 NA
ATOM     19  C   UNL A   1      34.824  21.133  25.365  1.00  0.00     0.054 A 
ATOM     20  C   UNL A   1      36.085  22.888  25.900  1.00  0.00     0.078 A 
ATOM     21  C   UNL A   1      36.101  21.641  25.239  1.00  0.00     0.084 A 
ATOM     22  C   UNL A   1      34.261  19.859  24.852  1.00  0.00     0.068 C 
ATOM     23  C   UNL A   1      37.196  23.850  26.102  1.00  0.00     0.070 C 
ATOM     24  Cl  UNL A   1      37.424  20.925  24.452  1.00  0.00    -0.080 Cl
ENDBRANCH  16  17
ENDBRANCH  15  16
ENDBRANCH   8  15
ENDBRANCH   4   6
ENDBRANCH   3   4
ENDBRANCH   2   3
ENDBRANCH   1   2
BRANCH   1  25
ATOM     25  O   UNL A   1      33.138  30.224  25.632  1.00  0.00    -0.374 OA
BRANCH  25  26
ATOM     26  C   UNL A   1      31.874  30.677  26.116  1.00  0.00     0.202 C 
BRANCH  26  27
ATOM     27  C   UNL A   1      31.814  32.058  26.779  1.00  0.00     0.261 C 
BRANCH  27  28
ATOM     28  O   UNL A   1      32.675  32.152  27.927  1.00  0.00    -0.460 OA
BRANCH  28  29
ATOM     29  C   UNL A   1      33.684  33.048  27.797  1.00  0.00     0.338 C 
ATOM     30  O   UNL A   1      33.593  34.247  27.601  1.00  0.00    -0.246 OA
BRANCH  29  31
ATOM     31  C   UNL A   1      34.972  32.404  28.108  1.00  0.00     0.060 A 
ATOM     32  C   UNL A   1      34.950  31.035  28.400  1.00  0.00     0.016 A 
ATOM     33  C   UNL A   1      36.156  33.137  28.209  1.00  0.00     0.016 A 
ATOM     34  C   UNL A   1      36.102  30.401  28.853  1.00  0.00     0.010 A 
ATOM     35  C   UNL A   1      37.311  32.502  28.676  1.00  0.00     0.010 A 
ATOM     36  C   UNL A   1      37.276  31.143  29.039  1.00  0.00    -0.014 A 
BRANCH  36  37
ATOM     37  C   UNL A   1      38.404  30.530  29.777  1.00  0.00     0.031 A 
ATOM     38  C   UNL A   1      38.622  30.918  31.214  1.00  0.00     0.074 A 
ATOM     39  C   UNL A   1      39.188  29.610  29.193  1.00  0.00     0.049 A 
ATOM     40  N   UNL A   1      39.545  30.519  32.052  1.00  0.00    -0.248 NA
ATOM     41  C   UNL A   1      37.669  31.885  31.782  1.00  0.00     0.031 C 
ATOM     42  C   UNL A   1      39.044  29.128  27.822  1.00  0.00     0.029 A 
ATOM     43  N   UNL A   1      40.266  28.919  29.684  1.00  0.00    -0.354 N 
ATOM     44  C   UNL A   1      39.285  31.188  33.241  1.00  0.00     0.074 A 
ATOM     45  C   UNL A   1      38.138  32.038  33.011  1.00  0.00     0.031 C 
ATOM     46  C   UNL A   1      40.007  28.224  27.575  1.00  0.00     0.029 A 
ATOM     47  C   UNL A   1      40.848  28.085  28.763  1.00  0.00     0.049 A 
ATOM     48  H   UNL A   1      40.592  29.013  30.608  1.00  0.00     0.167 HD
ATOM     49  C   UNL A   1      39.940  31.093  34.422  1.00  0.00     0.037 A 
ATOM     50  C   UNL A   1      41.949  27.314  28.867  1.00  0.00     0.037 A 
ATOM     51  C   UNL A   1      41.081  30.245  34.647  1.00  0.00     0.049 A 
ATOM     52  C   UNL A   1      42.700  27.276  30.173  1.00  0.00     0.074 A 
ATOM     53  C   UNL A   1      41.811  30.067  35.809  1.00  0.00     0.029 A 
ATOM     54  N   UNL A   1      41.662  29.438  33.679  1.00  0.00    -0.354 N 
ATOM     55  N   UNL A   1      42.436  27.893  31.299  1.00  0.00    -0.248 NA
ATOM     56  C   UNL A   1      43.900  26.429  30.221  1.00  0.00     0.031 C 
ATOM     57  C   UNL A   1      42.862  29.186  35.533  1.00  0.00     0.029 A 
ATOM     58  C   UNL A   1      42.757  28.777  34.213  1.00  0.00     0.049 A 
ATOM     59  H   UNL A   1      41.344  29.348  32.753  1.00  0.00     0.167 HD
ATOM     60  C   UNL A   1      43.419  27.492  32.195  1.00  0.00     0.074 A 
ATOM     61  C   UNL A   1      44.278  26.567  31.484  1.00  0.00     0.031 C 
ATOM     62  C   UNL A   1      43.595  27.855  33.489  1.00  0.00     0.037 A 
BRANCH  49  63
ATOM     63  C   UNL A   1      39.454  31.948  35.555  1.00  0.00     0.064 A 
ATOM     64  C   UNL A   1      39.895  33.269  35.724  1.00  0.00     0.173 A 
ATOM     65  C   UNL A   1      38.513  31.447  36.469  1.00  0.00     0.173 A 
ATOM     66  F   UNL A   1      40.805  33.789  34.887  1.00  0.00    -0.203 F 
ATOM     67  C   UNL A   1      39.431  34.049  36.781  1.00  0.00     0.198 A 
ATOM     68  C   UNL A   1      38.031  32.239  37.507  1.00  0.00     0.198 A 
ATOM     69  F   UNL A   1      38.059  30.191  36.350  1.00  0.00    -0.203 F 
ATOM     70  F   UNL A   1      39.899  35.294  36.949  1.00  0.00    -0.200 F 
ATOM     71  C   UNL A   1      38.495  33.536  37.666  1.00  0.00     0.200 A 
ATOM     72  F   UNL A   1      37.120  31.745  38.357  1.00  0.00    -0.200 F 
ATOM     73  F   UNL A   1      38.045  34.290  38.679  1.00  0.00    -0.200 F 
ENDBRANCH  49  63
BRANCH  50  74
ATOM     74  C   UNL A   1      42.411  26.524  27.696  1.00  0.00     0.064 A 
ATOM     75  C   UNL A   1      41.896  25.248  27.436  1.00  0.00     0.173 A 
ATOM     76  C   UNL A   1      43.385  27.027  26.822  1.00  0.00     0.173 A 
ATOM     77  F   UNL A   1      40.981  24.714  28.259  1.00  0.00    -0.203 F 
ATOM     78  C   UNL A   1      42.349  24.497  26.352  1.00  0.00     0.198 A 
ATOM     79  C   UNL A   1      43.818  26.287  25.724  1.00  0.00     0.198 A 
ATOM     80  F   UNL A   1      43.914  28.242  27.031  1.00  0.00    -0.203 F 
ATOM     81  F   UNL A   1      41.872  23.260  26.152  1.00  0.00    -0.200 F 
ATOM     82  C   UNL A   1      43.305  25.018  25.495  1.00  0.00     0.200 A 
ATOM     83  F   UNL A   1      44.737  26.798  24.893  1.00  0.00    -0.200 F 
ATOM     84  F   UNL A   1      43.739  24.297  24.453  1.00  0.00    -0.200 F 
ENDBRANCH  50  74
BRANCH  62  85
ATOM     85  C   UNL A   1      44.741  27.229  34.230  1.00  0.00     0.064 A 
ATOM     86  C   UNL A   1      45.997  27.849  34.303  1.00  0.00     0.173 A 
ATOM     87  C   UNL A   1      44.565  26.016  34.915  1.00  0.00     0.173 A 
ATOM     88  F   UNL A   1      46.218  29.002  33.655  1.00  0.00    -0.203 F 
ATOM     89  C   UNL A   1      47.041  27.265  35.015  1.00  0.00     0.198 A 
ATOM     90  C   UNL A   1      45.603  25.451  35.648  1.00  0.00     0.198 A 
ATOM     91  F   UNL A   1      43.380  25.389  34.883  1.00  0.00    -0.203 F 
ATOM     92  F   UNL A   1      48.245  27.853  35.035  1.00  0.00    -0.200 F 
ATOM     93  C   UNL A   1      46.842  26.072  35.692  1.00  0.00     0.200 A 
ATOM     94  F   UNL A   1      45.405  24.304  36.314  1.00  0.00    -0.200 F 
ATOM     95  F   UNL A   1      47.846  25.516  36.383  1.00  0.00    -0.200 F 
ENDBRANCH  62  85
ENDBRANCH  36  37
ENDBRANCH  29  31
ENDBRANCH  28  29
ENDBRANCH  27  28
ENDBRANCH  26  27
ENDBRANCH  25  26
ENDBRANCH   1  25
TORSDOF 18
ENDMDL
MODEL 3
REMARK VINA RESULT:     -10.5      1.043      7.332
REMARK SMILES C[NH2+][C@]1(C(=O)OCCOCCOC(=O)c2ccc(-c3c4nc(c(-c5c(F)c(F)c(F)c(F)c5F)c5ccc([nH]5)c(-c5c(F)c(F)c(F)c(F)c5F)c5nc(c(-c6c(F)c(F)c(F)c(F)c6F)c6ccc3[nH]6)C=C5)C=C4)cc2)CCC[C@@H]1CCn1nc(C)c(Cl)c1C
REMARK SMILES IDX 8 1 7 2 6 3 4 4 5 5 3 6 78 7 81 8 79 9 80 10 2 11 1 12 82 15
REMARK SMILES IDX 83 16 84 17 85 18 90 19 86 20 88 21 91 22 87 23 89 24 9 25
REMARK SMILES IDX 10 26 11 27 12 28 13 29 14 30 15 31 16 32 77 33 17 34 76 35
REMARK SMILES IDX 18 36 19 37 20 38 70 39 21 40 75 41 69 42 71 43 22 44 74 45
REMARK SMILES IDX 68 46 67 47 23 49 55 50 35 51 54 52 36 53 39 54 53 55 72 56
REMARK SMILES IDX 37 57 38 58 52 60 73 61 40 62 24 63 25 64 33 65 26 66 27 67
REMARK SMILES IDX 31 68 34 69 28 70 29 71 32 72 30 73 56 74 57 75 65 76 58 77
REMARK SMILES IDX 59 78 63 79 66 80 60 81 61 82 64 83 62 84 41 85 42 86 50 87
REMARK SMILES IDX 43 88 44 89 48 90 51 91 45 92 46 93 49 94 47 95
REMARK H PARENT 2 13 2 14 71 48 39 59
REMARK Flexibility Score: inf
ROOT
ATOM      1  C   UNL A   1      32.410  28.440  23.405  1.00  0.00     0.202 C 
ENDROOT
BRANCH   1   2
ATOM      2  C   UNL A   1      31.667  27.246  24.014  1.00  0.00     0.261 C 
BRANCH   2   3
ATOM      3  O   UNL A   1      32.539  26.147  24.307  1.00  0.00    -0.459 OA
BRANCH   3   4
ATOM      4  C   UNL A   1      32.227  25.454  25.438  1.00  0.00     0.368 C 
ATOM      5  O   UNL A   1      32.016  25.971  26.531  1.00  0.00    -0.245 OA
BRANCH   4   6
ATOM      6  C   UNL A   1      32.224  23.919  25.207  1.00  0.00     0.197 C 
ATOM      7  C   UNL A   1      31.481  23.400  23.955  1.00  0.00     0.081 C 
ATOM      8  C   UNL A   1      33.671  23.507  24.824  1.00  0.00     0.064 C 
ATOM      9  C   UNL A   1      32.144  22.061  23.611  1.00  0.00     0.008 C 
ATOM     10  C   UNL A   1      33.517  22.079  24.288  1.00  0.00     0.011 C 
BRANCH   6  11
ATOM     11  N   UNL A   1      31.753  23.178  26.416  1.00  0.00    -0.334 N 
ATOM     12  C   UNL A   1      30.296  23.104  26.537  1.00  0.00     0.331 C 
ATOM     13  H   UNL A   1      32.120  22.228  26.373  1.00  0.00     0.347 HD
ATOM     14  H   UNL A   1      32.091  23.694  27.229  1.00  0.00     0.347 HD
ENDBRANCH   6  11
BRANCH   8  15
ATOM     15  C   UNL A   1      34.719  23.663  25.938  1.00  0.00     0.034 C 
BRANCH  15  16
ATOM     16  C   UNL A   1      36.118  24.042  25.441  1.00  0.00     0.145 C 
BRANCH  16  17
ATOM     17  N   UNL A   1      37.111  22.990  25.604  1.00  0.00    -0.268 N 
ATOM     18  N   UNL A   1      36.829  21.761  25.120  1.00  0.00    -0.176 NA
ATOM     19  C   UNL A   1      38.343  23.061  26.212  1.00  0.00     0.054 A 
ATOM     20  C   UNL A   1      37.914  21.030  25.407  1.00  0.00     0.078 A 
ATOM     21  C   UNL A   1      38.875  21.792  26.104  1.00  0.00     0.084 A 
ATOM     22  C   UNL A   1      38.908  24.270  26.859  1.00  0.00     0.068 C 
ATOM     23  C   UNL A   1      37.978  19.608  24.986  1.00  0.00     0.070 C 
ATOM     24  Cl  UNL A   1      40.374  21.249  26.688  1.00  0.00    -0.080 Cl
ENDBRANCH  16  17
ENDBRANCH  15  16
ENDBRANCH   8  15
ENDBRANCH   4   6
ENDBRANCH   3   4
ENDBRANCH   2   3
ENDBRANCH   1   2
BRANCH   1  25
ATOM     25  O   UNL A   1      32.862  29.463  24.287  1.00  0.00    -0.374 OA
BRANCH  25  26
ATOM     26  C   UNL A   1      32.311  29.510  25.602  1.00  0.00     0.202 C 
BRANCH  26  27
ATOM     27  C   UNL A   1      32.111  30.887  26.247  1.00  0.00     0.261 C 
BRANCH  27  28
ATOM     28  O   UNL A   1      32.744  30.986  27.534  1.00  0.00    -0.460 OA
BRANCH  28  29
ATOM     29  C   UNL A   1      33.596  32.032  27.660  1.00  0.00     0.338 C 
ATOM     30  O   UNL A   1      33.322  33.219  27.645  1.00  0.00    -0.246 OA
BRANCH  29  31
ATOM     31  C   UNL A   1      34.942  31.547  28.009  1.00  0.00     0.060 A 
ATOM     32  C   UNL A   1      35.079  30.180  28.284  1.00  0.00     0.016 A 
ATOM     33  C   UNL A   1      36.023  32.417  28.159  1.00  0.00     0.016 A 
ATOM     34  C   UNL A   1      36.285  29.685  28.770  1.00  0.00     0.010 A 
ATOM     35  C   UNL A   1      37.231  31.921  28.660  1.00  0.00     0.010 A 
ATOM     36  C   UNL A   1      37.351  30.563  29.006  1.00  0.00    -0.014 A 
BRANCH  36  37
ATOM     37  C   UNL A   1      38.520  30.081  29.777  1.00  0.00     0.031 A 
ATOM     38  C   UNL A   1      38.698  30.558  31.192  1.00  0.00     0.074 A 
ATOM     39  C   UNL A   1      39.380  29.199  29.241  1.00  0.00     0.049 A 
ATOM     40  N   UNL A   1      39.645  30.278  32.051  1.00  0.00    -0.248 NA
ATOM     41  C   UNL A   1      37.668  31.472  31.708  1.00  0.00     0.031 C 
ATOM     42  C   UNL A   1      39.282  28.637  27.897  1.00  0.00     0.029 A 
ATOM     43  N   UNL A   1      40.507  28.623  29.769  1.00  0.00    -0.354 N 
ATOM     44  C   UNL A   1      39.326  30.984  33.204  1.00  0.00     0.074 A 
ATOM     45  C   UNL A   1      38.115  31.726  32.928  1.00  0.00     0.031 C 
ATOM     46  C   UNL A   1      40.316  27.802  27.699  1.00  0.00     0.029 A 
ATOM     47  C   UNL A   1      41.159  27.793  28.893  1.00  0.00     0.049 A 
ATOM     48  H   UNL A   1      40.818  28.789  30.688  1.00  0.00     0.167 HD
ATOM     49  C   UNL A   1      39.980  31.002  34.389  1.00  0.00     0.037 A 
ATOM     50  C   UNL A   1      42.317  27.119  29.038  1.00  0.00     0.037 A 
ATOM     51  C   UNL A   1      41.184  30.262  34.659  1.00  0.00     0.049 A 
ATOM     52  C   UNL A   1      43.061  27.208  30.345  1.00  0.00     0.074 A 
ATOM     53  C   UNL A   1      41.919  30.202  35.830  1.00  0.00     0.029 A 
ATOM     54  N   UNL A   1      41.834  29.455  33.735  1.00  0.00    -0.354 N 
ATOM     55  N   UNL A   1      42.742  27.858  31.438  1.00  0.00    -0.248 NA
ATOM     56  C   UNL A   1      44.326  26.464  30.439  1.00  0.00     0.031 C 
ATOM     57  C   UNL A   1      43.039  29.395  35.601  1.00  0.00     0.029 A 
ATOM     58  C   UNL A   1      42.975  28.913  34.303  1.00  0.00     0.049 A 
ATOM     59  H   UNL A   1      41.529  29.293  32.814  1.00  0.00     0.167 HD
ATOM     60  C   UNL A   1      43.749  27.584  32.355  1.00  0.00     0.074 A 
ATOM     61  C   UNL A   1      44.684  26.697  31.694  1.00  0.00     0.031 C 
ATOM     62  C   UNL A   1      43.888  28.026  33.629  1.00  0.00     0.037 A 
BRANCH  49  63
ATOM     63  C   UNL A   1      39.420  31.872  35.476  1.00  0.00     0.064 A 
ATOM     64  C   UNL A   1      39.760  33.228  35.584  1.00  0.00     0.173 A 
ATOM     65  C   UNL A   1      38.510  31.347  36.406  1.00  0.00     0.173 A 
ATOM     66  F   UNL A   1      40.638  33.774  34.728  1.00  0.00    -0.203 F 
ATOM     67  C   UNL A   1      39.228  34.022  36.598  1.00  0.00     0.198 A 
ATOM     68  C   UNL A   1      37.959  32.149  37.402  1.00  0.00     0.198 A 
ATOM     69  F   UNL A   1      38.151  30.056  36.346  1.00  0.00    -0.203 F 
ATOM     70  F   UNL A   1      39.602  35.304  36.708  1.00  0.00    -0.200 F 
ATOM     71  C   UNL A   1      38.324  33.484  37.501  1.00  0.00     0.200 A 
ATOM     72  F   UNL A   1      37.079  31.630  38.268  1.00  0.00    -0.200 F 
ATOM     73  F   UNL A   1      37.809  34.249  38.473  1.00  0.00    -0.200 F 
ENDBRANCH  49  63
BRANCH  50  74
ATOM     74  C   UNL A   1      42.848  26.310  27.911  1.00  0.00     0.064 A 
ATOM     75  C   UNL A   1      42.555  24.945  27.798  1.00  0.00     0.173 A 
ATOM     76  C   UNL A   1      43.669  26.885  26.929  1.00  0.00     0.173 A 
ATOM     77  F   UNL A   1      41.795  24.345  28.726  1.00  0.00    -0.203 F 
ATOM     78  C   UNL A   1      43.075  24.181  26.754  1.00  0.00     0.198 A 
ATOM     79  C   UNL A   1      44.166  26.127  25.872  1.00  0.00     0.198 A 
ATOM     80  F   UNL A   1      43.984  28.187  26.995  1.00  0.00    -0.203 F 
ATOM     81  F   UNL A   1      42.815  22.868  26.695  1.00  0.00    -0.200 F 
ATOM     82  C   UNL A   1      43.875  24.774  25.789  1.00  0.00     0.200 A 
ATOM     83  F   UNL A   1      44.933  26.706  24.937  1.00  0.00    -0.200 F 
ATOM     84  F   UNL A   1      44.373  24.039  24.786  1.00  0.00    -0.200 F 
ENDBRANCH  50  74
BRANCH  62  85
ATOM     85  C   UNL A   1      45.076  27.533  34.403  1.00  0.00     0.064 A 
ATOM     86  C   UNL A   1      45.047  26.316  35.101  1.00  0.00     0.173 A 
ATOM     87  C   UNL A   1      46.274  28.265  34.407  1.00  0.00     0.173 A 
ATOM     88  F   UNL A   1      43.922  25.587  35.138  1.00  0.00    -0.203 F 
ATOM     89  C   UNL A   1      46.167  25.863  35.793  1.00  0.00     0.198 A 
ATOM     90  C   UNL A   1      47.399  27.794  35.076  1.00  0.00     0.198 A 
ATOM     91  F   UNL A   1      46.356  29.430  33.747  1.00  0.00    -0.203 F 
ATOM     92  F   UNL A   1      46.103  24.719  36.488  1.00  0.00    -0.200 F 
ATOM     93  C   UNL A   1      47.342  26.597  35.774  1.00  0.00     0.200 A 
ATOM     94  F   UNL A   1      48.539  28.498  35.046  1.00  0.00    -0.200 F 
ATOM     95  F   UNL A   1      48.421  26.155  36.435  1.00  0.00    -0.200 F 
ENDBRANCH  62  85
ENDBRANCH  36  37
ENDBRANCH  29  31
ENDBRANCH  28  29
ENDBRANCH  27  28
ENDBRANCH  26  27
ENDBRANCH  25  26
ENDBRANCH   1  25
TORSDOF 18
ENDMDL
