MODEL 1
REMARK VINA RESULT:     -11.3      0.000      0.000
REMARK SMILES CCOc1oc(-c2ccccc2SC)nc1C(=O)OCCOCCOC(=O)c1ccc(-c2c3nc(c(-c4c(F)c(F)c(F)c(F)c4F)c4ccc([nH]4)c(-c4c(F)c(F)c(F)c(F)c4F)c4nc(c(-c5c(F)c(F)c(F)c(F)c5F)c5ccc2[nH]5)C=C4)C=C3)cc1
REMARK SMILES IDX 22 1 21 2 20 3 19 4 17 5 18 6 16 7 4 8 5 9 6 10 15 11 3 12
REMARK SMILES IDX 2 13 1 14 7 15 8 16 12 17 9 18 11 19 10 20 13 21 14 22 23 23
REMARK SMILES IDX 24 24 25 25 26 26 27 27 28 28 29 29 90 30 30 31 89 32 31 33
REMARK SMILES IDX 32 34 33 35 83 36 34 37 88 38 82 39 84 40 35 41 87 42 81 43
REMARK SMILES IDX 80 44 36 46 68 47 48 48 67 49 49 50 52 51 66 52 85 53 50 54
REMARK SMILES IDX 51 55 65 57 86 58 53 59 37 60 38 61 46 62 39 63 40 64 44 65
REMARK SMILES IDX 47 66 41 67 42 68 45 69 43 70 69 71 70 72 78 73 71 74 72 75
REMARK SMILES IDX 76 76 79 77 73 78 74 79 77 80 75 81 54 82 55 83 63 84 56 85
REMARK SMILES IDX 57 86 61 87 64 88 58 89 59 90 62 91 60 92
REMARK H PARENT 84 45 52 56
REMARK Flexibility Score: inf
ROOT
ATOM      1  O   UNL A   1      30.579  29.072  23.901  1.00  0.00    -0.374 OA
ENDROOT
BRANCH   1   2
ATOM      2  C   UNL A   1      30.671  28.585  22.562  1.00  0.00     0.202 C 
BRANCH   2   3
ATOM      3  C   UNL A   1      30.988  27.099  22.379  1.00  0.00     0.261 C 
BRANCH   3   4
ATOM      4  O   UNL A   1      32.401  26.877  22.449  1.00  0.00    -0.458 OA
BRANCH   4   5
ATOM      5  C   UNL A   1      32.813  25.665  21.984  1.00  0.00     0.364 C 
ATOM      6  O   UNL A   1      33.288  25.471  20.870  1.00  0.00    -0.244 OA
BRANCH   5   7
ATOM      7  C   UNL A   1      32.673  24.618  22.971  1.00  0.00     0.233 A 
ATOM      8  C   UNL A   1      32.740  24.770  24.338  1.00  0.00     0.321 A 
ATOM      9  O   UNL A   1      32.916  23.528  24.884  1.00  0.00    -0.405 OA
ATOM     10  C   UNL A   1      32.912  22.683  23.801  1.00  0.00     0.232 A 
ATOM     11  N   UNL A   1      32.603  23.271  22.664  1.00  0.00    -0.198 NA
BRANCH   8  12
ATOM     12  O   UNL A   1      32.791  25.774  25.207  1.00  0.00    -0.464 OA
BRANCH  12  13
ATOM     13  C   UNL A   1      31.914  25.655  26.332  1.00  0.00     0.230 C 
ATOM     14  C   UNL A   1      30.575  26.334  26.098  1.00  0.00     0.049 C 
ENDBRANCH  12  13
ENDBRANCH   8  12
BRANCH  10  15
ATOM     15  C   UNL A   1      33.313  21.309  24.057  1.00  0.00     0.051 A 
ATOM     16  C   UNL A   1      32.367  20.304  23.738  1.00  0.00     0.015 A 
ATOM     17  C   UNL A   1      34.559  20.928  24.606  1.00  0.00     0.020 A 
ATOM     18  C   UNL A   1      32.634  18.950  23.944  1.00  0.00     0.001 A 
ATOM     19  C   UNL A   1      34.798  19.546  24.797  1.00  0.00     0.016 A 
ATOM     20  C   UNL A   1      33.857  18.571  24.473  1.00  0.00     0.001 A 
BRANCH  17  21
ATOM     21  S   UNL A   1      35.960  21.880  25.235  1.00  0.00    -0.129 SA
ATOM     22  C   UNL A   1      36.699  22.798  23.873  1.00  0.00     0.091 C 
ENDBRANCH  17  21
ENDBRANCH  10  15
ENDBRANCH   5   7
ENDBRANCH   4   5
ENDBRANCH   3   4
ENDBRANCH   2   3
ENDBRANCH   1   2
BRANCH   1  23
ATOM     23  C   UNL A   1      31.782  29.409  24.589  1.00  0.00     0.202 C 
BRANCH  23  24
ATOM     24  C   UNL A   1      31.710  30.380  25.771  1.00  0.00     0.261 C 
BRANCH  24  25
ATOM     25  O   UNL A   1      32.757  30.179  26.725  1.00  0.00    -0.460 OA
BRANCH  25  26
ATOM     26  C   UNL A   1      33.311  31.322  27.189  1.00  0.00     0.338 C 
ATOM     27  O   UNL A   1      32.769  32.406  27.340  1.00  0.00    -0.246 OA
BRANCH  26  28
ATOM     28  C   UNL A   1      34.666  31.037  27.685  1.00  0.00     0.060 A 
ATOM     29  C   UNL A   1      35.015  29.694  27.878  1.00  0.00     0.016 A 
ATOM     30  C   UNL A   1      35.557  32.064  28.003  1.00  0.00     0.016 A 
ATOM     31  C   UNL A   1      36.242  29.372  28.443  1.00  0.00     0.010 A 
ATOM     32  C   UNL A   1      36.783  31.740  28.584  1.00  0.00     0.010 A 
ATOM     33  C   UNL A   1      37.108  30.397  28.842  1.00  0.00    -0.014 A 
BRANCH  33  34
ATOM     34  C   UNL A   1      38.267  30.070  29.698  1.00  0.00     0.031 A 
ATOM     35  C   UNL A   1      39.299  29.119  29.165  1.00  0.00     0.074 A 
ATOM     36  C   UNL A   1      38.399  30.630  30.912  1.00  0.00     0.049 A 
ATOM     37  N   UNL A   1      40.375  28.651  29.741  1.00  0.00    -0.248 NA
ATOM     38  C   UNL A   1      39.086  28.625  27.794  1.00  0.00     0.031 C 
ATOM     39  C   UNL A   1      37.473  31.594  31.502  1.00  0.00     0.029 A 
ATOM     40  N   UNL A   1      39.366  30.460  31.867  1.00  0.00    -0.354 N 
ATOM     41  C   UNL A   1      40.958  27.801  28.810  1.00  0.00     0.074 A 
ATOM     42  C   UNL A   1      40.107  27.795  27.642  1.00  0.00     0.031 C 
ATOM     43  C   UNL A   1      37.912  31.925  32.728  1.00  0.00     0.029 A 
ATOM     44  C   UNL A   1      39.131  31.171  33.017  1.00  0.00     0.049 A 
ATOM     45  H   UNL A   1      40.154  29.884  31.741  1.00  0.00     0.167 HD
ATOM     46  C   UNL A   1      42.108  27.096  28.922  1.00  0.00     0.037 A 
ATOM     47  C   UNL A   1      39.817  31.188  34.176  1.00  0.00     0.037 A 
ATOM     48  C   UNL A   1      42.947  27.116  30.091  1.00  0.00     0.049 A 
ATOM     49  C   UNL A   1      41.061  30.345  34.296  1.00  0.00     0.074 A 
ATOM     50  C   UNL A   1      44.144  26.459  30.307  1.00  0.00     0.029 A 
ATOM     51  N   UNL A   1      42.666  27.830  31.248  1.00  0.00    -0.354 N 
ATOM     52  N   UNL A   1      41.626  29.567  33.403  1.00  0.00    -0.248 NA
ATOM     53  C   UNL A   1      41.764  30.385  35.585  1.00  0.00     0.031 C 
ATOM     54  C   UNL A   1      44.562  26.734  31.613  1.00  0.00     0.029 A 
ATOM     55  C   UNL A   1      43.654  27.608  32.191  1.00  0.00     0.049 A 
ATOM     56  H   UNL A   1      41.879  28.408  31.378  1.00  0.00     0.167 HD
ATOM     57  C   UNL A   1      42.764  29.053  34.007  1.00  0.00     0.074 A 
ATOM     58  C   UNL A   1      42.816  29.617  35.341  1.00  0.00     0.031 C 
ATOM     59  C   UNL A   1      43.687  28.193  33.508  1.00  0.00     0.037 A 
BRANCH  46  60
ATOM     60  C   UNL A   1      42.505  26.224  27.768  1.00  0.00     0.064 A 
ATOM     61  C   UNL A   1      43.407  26.662  26.786  1.00  0.00     0.173 A 
ATOM     62  C   UNL A   1      41.997  24.922  27.658  1.00  0.00     0.173 A 
ATOM     63  F   UNL A   1      43.909  27.906  26.835  1.00  0.00    -0.203 F 
ATOM     64  C   UNL A   1      43.766  25.835  25.724  1.00  0.00     0.198 A 
ATOM     65  C   UNL A   1      42.381  24.087  26.611  1.00  0.00     0.198 A 
ATOM     66  F   UNL A   1      41.132  24.453  28.569  1.00  0.00    -0.203 F 
ATOM     67  F   UNL A   1      44.594  26.290  24.773  1.00  0.00    -0.200 F 
ATOM     68  C   UNL A   1      43.260  24.546  25.641  1.00  0.00     0.200 A 
ATOM     69  F   UNL A   1      41.898  22.839  26.538  1.00  0.00    -0.200 F 
ATOM     70  F   UNL A   1      43.613  23.750  24.624  1.00  0.00    -0.200 F 
ENDBRANCH  46  60
BRANCH  47  71
ATOM     71  C   UNL A   1      39.345  32.022  35.310  1.00  0.00     0.064 A 
ATOM     72  C   UNL A   1      38.512  31.487  36.303  1.00  0.00     0.173 A 
ATOM     73  C   UNL A   1      39.699  33.375  35.417  1.00  0.00     0.173 A 
ATOM     74  F   UNL A   1      38.126  30.204  36.234  1.00  0.00    -0.203 F 
ATOM     75  C   UNL A   1      38.036  32.278  37.347  1.00  0.00     0.198 A 
ATOM     76  C   UNL A   1      39.246  34.158  36.477  1.00  0.00     0.198 A 
ATOM     77  F   UNL A   1      40.492  33.937  34.494  1.00  0.00    -0.203 F 
ATOM     78  F   UNL A   1      37.203  31.753  38.255  1.00  0.00    -0.200 F 
ATOM     79  C   UNL A   1      38.407  33.611  37.437  1.00  0.00     0.200 A 
ATOM     80  F   UNL A   1      39.616  35.442  36.566  1.00  0.00    -0.200 F 
ATOM     81  F   UNL A   1      37.949  34.370  38.441  1.00  0.00    -0.200 F 
ENDBRANCH  47  71
BRANCH  59  82
ATOM     82  C   UNL A   1      44.851  27.847  34.388  1.00  0.00     0.064 A 
ATOM     83  C   UNL A   1      46.031  28.604  34.382  1.00  0.00     0.173 A 
ATOM     84  C   UNL A   1      44.766  26.769  35.283  1.00  0.00     0.173 A 
ATOM     85  F   UNL A   1      46.167  29.636  33.535  1.00  0.00    -0.203 F 
ATOM     86  C   UNL A   1      47.094  28.277  35.221  1.00  0.00     0.198 A 
ATOM     87  C   UNL A   1      45.816  26.466  36.143  1.00  0.00     0.198 A 
ATOM     88  F   UNL A   1      43.654  26.019  35.334  1.00  0.00    -0.203 F 
ATOM     89  F   UNL A   1      48.231  28.984  35.164  1.00  0.00    -0.200 F 
ATOM     90  C   UNL A   1      46.982  27.214  36.105  1.00  0.00     0.200 A 
ATOM     91  F   UNL A   1      45.701  25.448  37.007  1.00  0.00    -0.200 F 
ATOM     92  F   UNL A   1      48.003  26.908  36.917  1.00  0.00    -0.200 F 
ENDBRANCH  59  82
ENDBRANCH  33  34
ENDBRANCH  26  28
ENDBRANCH  25  26
ENDBRANCH  24  25
ENDBRANCH  23  24
ENDBRANCH   1  23
TORSDOF 18
ENDMDL
MODEL 2
REMARK VINA RESULT:     -11.1      1.391      2.483
REMARK SMILES CCOc1oc(-c2ccccc2SC)nc1C(=O)OCCOCCOC(=O)c1ccc(-c2c3nc(c(-c4c(F)c(F)c(F)c(F)c4F)c4ccc([nH]4)c(-c4c(F)c(F)c(F)c(F)c4F)c4nc(c(-c5c(F)c(F)c(F)c(F)c5F)c5ccc2[nH]5)C=C4)C=C3)cc1
REMARK SMILES IDX 22 1 21 2 20 3 19 4 17 5 18 6 16 7 4 8 5 9 6 10 15 11 3 12
REMARK SMILES IDX 2 13 1 14 7 15 8 16 12 17 9 18 11 19 10 20 13 21 14 22 23 23
REMARK SMILES IDX 24 24 25 25 26 26 27 27 28 28 29 29 90 30 30 31 89 32 31 33
REMARK SMILES IDX 32 34 33 35 83 36 34 37 88 38 82 39 84 40 35 41 87 42 81 43
REMARK SMILES IDX 80 44 36 46 68 47 48 48 67 49 49 50 52 51 66 52 85 53 50 54
REMARK SMILES IDX 51 55 65 57 86 58 53 59 37 60 38 61 46 62 39 63 40 64 44 65
REMARK SMILES IDX 47 66 41 67 42 68 45 69 43 70 69 71 70 72 78 73 71 74 72 75
REMARK SMILES IDX 76 76 79 77 73 78 74 79 77 80 75 81 54 82 55 83 63 84 56 85
REMARK SMILES IDX 57 86 61 87 64 88 58 89 59 90 62 91 60 92
REMARK H PARENT 84 45 52 56
REMARK Flexibility Score: inf
ROOT
ATOM      1  O   UNL A   1      32.258  30.424  25.766  1.00  0.00    -0.374 OA
ENDROOT
BRANCH   1   2
ATOM      2  C   UNL A   1      33.165  29.325  25.865  1.00  0.00     0.202 C 
BRANCH   2   3
ATOM      3  C   UNL A   1      33.621  28.675  24.558  1.00  0.00     0.261 C 
BRANCH   3   4
ATOM      4  O   UNL A   1      32.559  27.902  23.987  1.00  0.00    -0.458 OA
BRANCH   4   5
ATOM      5  C   UNL A   1      32.429  26.646  24.496  1.00  0.00     0.364 C 
ATOM      6  O   UNL A   1      31.496  26.270  25.196  1.00  0.00    -0.244 OA
BRANCH   5   7
ATOM      7  C   UNL A   1      33.503  25.769  24.083  1.00  0.00     0.233 A 
ATOM      8  C   UNL A   1      33.893  25.509  22.788  1.00  0.00     0.321 A 
ATOM      9  O   UNL A   1      34.675  24.388  22.808  1.00  0.00    -0.405 OA
ATOM     10  C   UNL A   1      34.740  24.050  24.138  1.00  0.00     0.232 A 
ATOM     11  N   UNL A   1      34.197  24.939  24.944  1.00  0.00    -0.198 NA
BRANCH   8  12
ATOM     12  O   UNL A   1      33.621  25.979  21.574  1.00  0.00    -0.464 OA
BRANCH  12  13
ATOM     13  C   UNL A   1      32.414  25.487  20.985  1.00  0.00     0.230 C 
ATOM     14  C   UNL A   1      32.523  25.341  19.476  1.00  0.00     0.049 C 
ENDBRANCH  12  13
ENDBRANCH   8  12
BRANCH  10  15
ATOM     15  C   UNL A   1      35.323  22.754  24.444  1.00  0.00     0.051 A 
ATOM     16  C   UNL A   1      36.737  22.677  24.440  1.00  0.00     0.015 A 
ATOM     17  C   UNL A   1      34.575  21.587  24.725  1.00  0.00     0.020 A 
ATOM     18  C   UNL A   1      37.411  21.486  24.713  1.00  0.00     0.001 A 
ATOM     19  C   UNL A   1      35.290  20.397  25.002  1.00  0.00     0.016 A 
ATOM     20  C   UNL A   1      36.683  20.343  24.998  1.00  0.00     0.001 A 
BRANCH  17  21
ATOM     21  S   UNL A   1      32.801  21.241  24.722  1.00  0.00    -0.129 SA
ATOM     22  C   UNL A   1      32.526  19.612  24.005  1.00  0.00     0.091 C 
ENDBRANCH  17  21
ENDBRANCH  10  15
ENDBRANCH   5   7
ENDBRANCH   4   5
ENDBRANCH   3   4
ENDBRANCH   2   3
ENDBRANCH   1   2
BRANCH   1  23
ATOM     23  C   UNL A   1      31.930  31.147  26.952  1.00  0.00     0.202 C 
BRANCH  23  24
ATOM     24  C   UNL A   1      31.779  32.669  26.870  1.00  0.00     0.261 C 
BRANCH  24  25
ATOM     25  O   UNL A   1      33.034  33.356  26.879  1.00  0.00    -0.460 OA
BRANCH  25  26
ATOM     26  C   UNL A   1      33.406  33.814  28.097  1.00  0.00     0.338 C 
ATOM     27  O   UNL A   1      32.790  34.573  28.828  1.00  0.00    -0.246 OA
BRANCH  26  28
ATOM     28  C   UNL A   1      34.620  33.105  28.530  1.00  0.00     0.060 A 
ATOM     29  C   UNL A   1      34.453  31.878  29.184  1.00  0.00     0.016 A 
ATOM     30  C   UNL A   1      35.890  33.656  28.346  1.00  0.00     0.016 A 
ATOM     31  C   UNL A   1      35.558  31.217  29.708  1.00  0.00     0.010 A 
ATOM     32  C   UNL A   1      36.996  32.999  28.884  1.00  0.00     0.010 A 
ATOM     33  C   UNL A   1      36.826  31.801  29.601  1.00  0.00    -0.014 A 
BRANCH  33  34
ATOM     34  C   UNL A   1      37.941  31.255  30.401  1.00  0.00     0.031 A 
ATOM     35  C   UNL A   1      38.854  30.252  29.756  1.00  0.00     0.074 A 
ATOM     36  C   UNL A   1      38.142  31.666  31.664  1.00  0.00     0.049 A 
ATOM     37  N   UNL A   1      39.870  29.605  30.264  1.00  0.00    -0.248 NA
ATOM     38  C   UNL A   1      38.580  29.932  28.345  1.00  0.00     0.031 C 
ATOM     39  C   UNL A   1      37.336  32.663  32.365  1.00  0.00     0.029 A 
ATOM     40  N   UNL A   1      39.085  31.286  32.581  1.00  0.00    -0.354 N 
ATOM     41  C   UNL A   1      40.347  28.796  29.242  1.00  0.00     0.074 A 
ATOM     42  C   UNL A   1      39.497  29.010  28.092  1.00  0.00     0.031 C 
ATOM     43  C   UNL A   1      37.814  32.810  33.612  1.00  0.00     0.029 A 
ATOM     44  C   UNL A   1      38.938  31.895  33.802  1.00  0.00     0.049 A 
ATOM     45  H   UNL A   1      39.800  30.639  32.384  1.00  0.00     0.167 HD
ATOM     46  C   UNL A   1      41.408  27.955  29.262  1.00  0.00     0.037 A 
ATOM     47  C   UNL A   1      39.625  31.711  34.946  1.00  0.00     0.037 A 
ATOM     48  C   UNL A   1      42.247  27.755  30.413  1.00  0.00     0.049 A 
ATOM     49  C   UNL A   1      40.762  30.722  34.959  1.00  0.00     0.074 A 
ATOM     50  C   UNL A   1      43.360  26.946  30.542  1.00  0.00     0.029 A 
ATOM     51  N   UNL A   1      42.054  28.372  31.643  1.00  0.00    -0.354 N 
ATOM     52  N   UNL A   1      41.230  29.983  33.982  1.00  0.00    -0.248 NA
ATOM     53  C   UNL A   1      41.469  30.545  36.234  1.00  0.00     0.031 C 
ATOM     54  C   UNL A   1      43.811  27.033  31.863  1.00  0.00     0.029 A 
ATOM     55  C   UNL A   1      43.013  27.940  32.542  1.00  0.00     0.049 A 
ATOM     56  H   UNL A   1      41.340  29.020  31.844  1.00  0.00     0.167 HD
ATOM     57  C   UNL A   1      42.303  29.280  34.512  1.00  0.00     0.074 A 
ATOM     58  C   UNL A   1      42.424  29.691  35.896  1.00  0.00     0.031 C 
ATOM     59  C   UNL A   1      43.118  28.376  33.912  1.00  0.00     0.037 A 
BRANCH  46  60
ATOM     60  C   UNL A   1      41.697  27.168  28.018  1.00  0.00     0.064 A 
ATOM     61  C   UNL A   1      42.615  27.618  27.055  1.00  0.00     0.173 A 
ATOM     62  C   UNL A   1      41.068  25.935  27.798  1.00  0.00     0.173 A 
ATOM     63  F   UNL A   1      43.231  28.800  27.209  1.00  0.00    -0.203 F 
ATOM     64  C   UNL A   1      42.873  26.871  25.909  1.00  0.00     0.198 A 
ATOM     65  C   UNL A   1      41.350  25.176  26.664  1.00  0.00     0.198 A 
ATOM     66  F   UNL A   1      40.182  25.459  28.686  1.00  0.00    -0.203 F 
ATOM     67  F   UNL A   1      43.718  27.341  24.981  1.00  0.00    -0.200 F 
ATOM     68  C   UNL A   1      42.247  25.648  25.718  1.00  0.00     0.200 A 
ATOM     69  F   UNL A   1      40.751  23.991  26.487  1.00  0.00    -0.200 F 
ATOM     70  F   UNL A   1      42.502  24.927  24.618  1.00  0.00    -0.200 F 
ENDBRANCH  46  60
BRANCH  47  71
ATOM     71  C   UNL A   1      39.256  32.471  36.168  1.00  0.00     0.064 A 
ATOM     72  C   UNL A   1      38.284  31.986  37.054  1.00  0.00     0.173 A 
ATOM     73  C   UNL A   1      39.853  33.704  36.467  1.00  0.00     0.173 A 
ATOM     74  F   UNL A   1      37.668  30.822  36.801  1.00  0.00    -0.203 F 
ATOM     75  C   UNL A   1      37.908  32.716  38.181  1.00  0.00     0.198 A 
ATOM     76  C   UNL A   1      39.498  34.419  37.609  1.00  0.00     0.198 A 
ATOM     77  F   UNL A   1      40.788  34.214  35.652  1.00  0.00    -0.203 F 
ATOM     78  F   UNL A   1      36.942  32.252  38.984  1.00  0.00    -0.200 F 
ATOM     79  C   UNL A   1      38.518  33.929  38.460  1.00  0.00     0.200 A 
ATOM     80  F   UNL A   1      40.098  35.586  37.881  1.00  0.00    -0.200 F 
ATOM     81  F   UNL A   1      38.158  34.630  39.544  1.00  0.00    -0.200 F 
ENDBRANCH  47  71
BRANCH  59  82
ATOM     82  C   UNL A   1      44.237  27.808  34.734  1.00  0.00     0.064 A 
ATOM     83  C   UNL A   1      44.094  26.608  35.444  1.00  0.00     0.173 A 
ATOM     84  C   UNL A   1      45.483  28.453  34.774  1.00  0.00     0.173 A 
ATOM     85  F   UNL A   1      42.918  25.961  35.449  1.00  0.00    -0.203 F 
ATOM     86  C   UNL A   1      45.152  26.087  36.187  1.00  0.00     0.198 A 
ATOM     87  C   UNL A   1      46.547  27.913  35.490  1.00  0.00     0.198 A 
ATOM     88  F   UNL A   1      45.673  29.600  34.104  1.00  0.00    -0.203 F 
ATOM     89  F   UNL A   1      44.979  24.965  36.898  1.00  0.00    -0.200 F 
ATOM     90  C   UNL A   1      46.378  26.736  36.202  1.00  0.00     0.200 A 
ATOM     91  F   UNL A   1      47.735  28.532  35.492  1.00  0.00    -0.200 F 
ATOM     92  F   UNL A   1      47.396  26.228  36.911  1.00  0.00    -0.200 F 
ENDBRANCH  59  82
ENDBRANCH  33  34
ENDBRANCH  26  28
ENDBRANCH  25  26
ENDBRANCH  24  25
ENDBRANCH  23  24
ENDBRANCH   1  23
TORSDOF 18
ENDMDL
MODEL 3
REMARK VINA RESULT:     -11.0      1.116      7.621
REMARK SMILES CCOc1oc(-c2ccccc2SC)nc1C(=O)OCCOCCOC(=O)c1ccc(-c2c3nc(c(-c4c(F)c(F)c(F)c(F)c4F)c4ccc([nH]4)c(-c4c(F)c(F)c(F)c(F)c4F)c4nc(c(-c5c(F)c(F)c(F)c(F)c5F)c5ccc2[nH]5)C=C4)C=C3)cc1
REMARK SMILES IDX 22 1 21 2 20 3 19 4 17 5 18 6 16 7 4 8 5 9 6 10 15 11 3 12
REMARK SMILES IDX 2 13 1 14 7 15 8 16 12 17 9 18 11 19 10 20 13 21 14 22 23 23
REMARK SMILES IDX 24 24 25 25 26 26 27 27 28 28 29 29 90 30 30 31 89 32 31 33
REMARK SMILES IDX 32 34 33 35 83 36 34 37 88 38 82 39 84 40 35 41 87 42 81 43
REMARK SMILES IDX 80 44 36 46 68 47 48 48 67 49 49 50 52 51 66 52 85 53 50 54
REMARK SMILES IDX 51 55 65 57 86 58 53 59 37 60 38 61 46 62 39 63 40 64 44 65
REMARK SMILES IDX 47 66 41 67 42 68 45 69 43 70 69 71 70 72 78 73 71 74 72 75
REMARK SMILES IDX 76 76 79 77 73 78 74 79 77 80 75 81 54 82 55 83 63 84 56 85
REMARK SMILES IDX 57 86 61 87 64 88 58 89 59 90 62 91 60 92
REMARK H PARENT 84 45 52 56
REMARK Flexibility Score: inf
ROOT
ATOM      1  O   UNL A   1      32.315  28.969  23.821  1.00  0.00    -0.374 OA
ENDROOT
BRANCH   1   2
ATOM      2  C   UNL A   1      32.005  27.760  23.128  1.00  0.00     0.202 C 
BRANCH   2   3
ATOM      3  C   UNL A   1      33.008  27.280  22.077  1.00  0.00     0.261 C 
BRANCH   3   4
ATOM      4  O   UNL A   1      34.018  26.467  22.684  1.00  0.00    -0.458 OA
BRANCH   4   5
ATOM      5  C   UNL A   1      33.693  25.151  22.812  1.00  0.00     0.364 C 
ATOM      6  O   UNL A   1      32.996  24.525  22.021  1.00  0.00    -0.244 OA
BRANCH   5   7
ATOM      7  C   UNL A   1      34.302  24.542  23.974  1.00  0.00     0.233 A 
ATOM      8  C   UNL A   1      33.983  24.795  25.290  1.00  0.00     0.321 A 
ATOM      9  O   UNL A   1      35.000  24.307  26.063  1.00  0.00    -0.405 OA
ATOM     10  C   UNL A   1      35.871  23.751  25.158  1.00  0.00     0.232 A 
ATOM     11  N   UNL A   1      35.414  23.721  23.923  1.00  0.00    -0.198 NA
BRANCH   8  12
ATOM     12  O   UNL A   1      33.045  25.460  25.956  1.00  0.00    -0.464 OA
BRANCH  12  13
ATOM     13  C   UNL A   1      32.014  24.651  26.531  1.00  0.00     0.230 C 
ATOM     14  C   UNL A   1      31.736  23.399  25.716  1.00  0.00     0.049 C 
ENDBRANCH  12  13
ENDBRANCH   8  12
BRANCH  10  15
ATOM     15  C   UNL A   1      37.170  23.353  25.676  1.00  0.00     0.051 A 
ATOM     16  C   UNL A   1      37.908  24.346  26.366  1.00  0.00     0.015 A 
ATOM     17  C   UNL A   1      37.733  22.065  25.522  1.00  0.00     0.020 A 
ATOM     18  C   UNL A   1      39.169  24.085  26.903  1.00  0.00     0.001 A 
ATOM     19  C   UNL A   1      39.011  21.834  26.084  1.00  0.00     0.016 A 
ATOM     20  C   UNL A   1      39.720  22.823  26.763  1.00  0.00     0.001 A 
BRANCH  17  21
ATOM     21  S   UNL A   1      37.182  20.588  24.638  1.00  0.00    -0.129 SA
ATOM     22  C   UNL A   1      35.454  20.278  25.042  1.00  0.00     0.091 C 
ENDBRANCH  17  21
ENDBRANCH  10  15
ENDBRANCH   5   7
ENDBRANCH   4   5
ENDBRANCH   3   4
ENDBRANCH   2   3
ENDBRANCH   1   2
BRANCH   1  23
ATOM     23  C   UNL A   1      32.154  29.003  25.239  1.00  0.00     0.202 C 
BRANCH  23  24
ATOM     24  C   UNL A   1      32.092  30.362  25.942  1.00  0.00     0.261 C 
BRANCH  24  25
ATOM     25  O   UNL A   1      32.762  30.368  27.206  1.00  0.00    -0.460 OA
BRANCH  25  26
ATOM     26  C   UNL A   1      33.490  31.483  27.443  1.00  0.00     0.338 C 
ATOM     27  O   UNL A   1      33.096  32.638  27.479  1.00  0.00    -0.246 OA
BRANCH  26  28
ATOM     28  C   UNL A   1      34.849  31.096  27.850  1.00  0.00     0.060 A 
ATOM     29  C   UNL A   1      35.121  29.728  27.980  1.00  0.00     0.016 A 
ATOM     30  C   UNL A   1      35.821  32.053  28.148  1.00  0.00     0.016 A 
ATOM     31  C   UNL A   1      36.355  29.309  28.463  1.00  0.00     0.010 A 
ATOM     32  C   UNL A   1      37.054  31.633  28.646  1.00  0.00     0.010 A 
ATOM     33  C   UNL A   1      37.306  30.264  28.843  1.00  0.00    -0.014 A 
BRANCH  33  34
ATOM     34  C   UNL A   1      38.487  29.835  29.620  1.00  0.00     0.031 A 
ATOM     35  C   UNL A   1      38.651  30.365  31.015  1.00  0.00     0.074 A 
ATOM     36  C   UNL A   1      39.375  28.974  29.095  1.00  0.00     0.049 A 
ATOM     37  N   UNL A   1      39.618  30.167  31.871  1.00  0.00    -0.248 NA
ATOM     38  C   UNL A   1      37.579  31.244  31.510  1.00  0.00     0.031 C 
ATOM     39  C   UNL A   1      39.282  28.372  27.766  1.00  0.00     0.029 A 
ATOM     40  N   UNL A   1      40.532  28.463  29.619  1.00  0.00    -0.354 N 
ATOM     41  C   UNL A   1      39.278  30.903  32.998  1.00  0.00     0.074 A 
ATOM     42  C   UNL A   1      38.029  31.575  32.711  1.00  0.00     0.031 C 
ATOM     43  C   UNL A   1      40.349  27.578  27.573  1.00  0.00     0.029 A 
ATOM     44  C   UNL A   1      41.211  27.643  28.753  1.00  0.00     0.049 A 
ATOM     45  H   UNL A   1      40.848  28.665  30.530  1.00  0.00     0.167 HD
ATOM     46  C   UNL A   1      39.946  31.001  34.171  1.00  0.00     0.037 A 
ATOM     47  C   UNL A   1      42.404  27.035  28.896  1.00  0.00     0.037 A 
ATOM     48  C   UNL A   1      41.185  30.324  34.443  1.00  0.00     0.049 A 
ATOM     49  C   UNL A   1      43.157  27.211  30.190  1.00  0.00     0.074 A 
ATOM     50  C   UNL A   1      41.939  30.332  35.602  1.00  0.00     0.029 A 
ATOM     51  N   UNL A   1      41.857  29.518  33.533  1.00  0.00    -0.354 N 
ATOM     52  N   UNL A   1      42.817  27.882  31.264  1.00  0.00    -0.248 NA
ATOM     53  C   UNL A   1      44.461  26.542  30.291  1.00  0.00     0.031 C 
ATOM     54  C   UNL A   1      43.092  29.575  35.377  1.00  0.00     0.029 A 
ATOM     55  C   UNL A   1      43.030  29.047  34.097  1.00  0.00     0.049 A 
ATOM     56  H   UNL A   1      41.545  29.314  32.622  1.00  0.00     0.167 HD
ATOM     57  C   UNL A   1      43.843  27.690  32.179  1.00  0.00     0.074 A 
ATOM     58  C   UNL A   1      44.815  26.829  31.536  1.00  0.00     0.031 C 
ATOM     59  C   UNL A   1      43.973  28.179  33.437  1.00  0.00     0.037 A 
BRANCH  46  60
ATOM     60  C   UNL A   1      39.369  31.894  35.230  1.00  0.00     0.064 A 
ATOM     61  C   UNL A   1      38.560  31.391  36.261  1.00  0.00     0.173 A 
ATOM     62  C   UNL A   1      39.650  33.268  35.227  1.00  0.00     0.173 A 
ATOM     63  F   UNL A   1      38.246  30.087  36.299  1.00  0.00    -0.203 F 
ATOM     64  C   UNL A   1      38.037  32.237  37.236  1.00  0.00     0.198 A 
ATOM     65  C   UNL A   1      39.149  34.105  36.221  1.00  0.00     0.198 A 
ATOM     66  F   UNL A   1      40.417  33.800  34.264  1.00  0.00    -0.203 F 
ATOM     67  F   UNL A   1      37.230  31.742  38.186  1.00  0.00    -0.200 F 
ATOM     68  C   UNL A   1      38.338  33.590  37.221  1.00  0.00     0.200 A 
ATOM     69  F   UNL A   1      39.449  35.412  36.209  1.00  0.00    -0.200 F 
ATOM     70  F   UNL A   1      37.840  34.401  38.164  1.00  0.00    -0.200 F 
ENDBRANCH  46  60
BRANCH  47  71
ATOM     71  C   UNL A   1      42.959  26.212  27.792  1.00  0.00     0.064 A 
ATOM     72  C   UNL A   1      42.733  24.829  27.737  1.00  0.00     0.173 A 
ATOM     73  C   UNL A   1      43.743  26.784  26.779  1.00  0.00     0.173 A 
ATOM     74  F   UNL A   1      42.008  24.231  28.694  1.00  0.00    -0.203 F 
ATOM     75  C   UNL A   1      43.285  24.048  26.724  1.00  0.00     0.198 A 
ATOM     76  C   UNL A   1      44.272  26.007  25.751  1.00  0.00     0.198 A 
ATOM     77  F   UNL A   1      43.992  28.102  26.785  1.00  0.00    -0.203 F 
ATOM     78  F   UNL A   1      43.093  22.723  26.723  1.00  0.00    -0.200 F 
ATOM     79  C   UNL A   1      44.050  24.638  25.729  1.00  0.00     0.200 A 
ATOM     80  F   UNL A   1      45.000  26.582  24.785  1.00  0.00    -0.200 F 
ATOM     81  F   UNL A   1      44.580  23.886  24.754  1.00  0.00    -0.200 F 
ENDBRANCH  47  71
BRANCH  59  82
ATOM     82  C   UNL A   1      45.184  27.757  34.215  1.00  0.00     0.064 A 
ATOM     83  C   UNL A   1      45.192  26.591  34.994  1.00  0.00     0.173 A 
ATOM     84  C   UNL A   1      46.368  28.508  34.144  1.00  0.00     0.173 A 
ATOM     85  F   UNL A   1      44.081  25.847  35.106  1.00  0.00    -0.203 F 
ATOM     86  C   UNL A   1      46.333  26.207  35.695  1.00  0.00     0.198 A 
ATOM     87  C   UNL A   1      47.516  28.104  34.819  1.00  0.00     0.198 A 
ATOM     88  F   UNL A   1      46.415  29.628  33.406  1.00  0.00    -0.203 F 
ATOM     89  F   UNL A   1      46.303  25.116  36.471  1.00  0.00    -0.200 F 
ATOM     90  C   UNL A   1      47.495  26.959  35.600  1.00  0.00     0.200 A 
ATOM     91  F   UNL A   1      48.641  28.823  34.714  1.00  0.00    -0.200 F 
ATOM     92  F   UNL A   1      48.593  26.582  36.268  1.00  0.00    -0.200 F 
ENDBRANCH  59  82
ENDBRANCH  33  34
ENDBRANCH  26  28
ENDBRANCH  25  26
ENDBRANCH  24  25
ENDBRANCH  23  24
ENDBRANCH   1  23
TORSDOF 18
ENDMDL
