MODEL 1
REMARK VINA RESULT:     -12.2      0.000      0.000
REMARK SMILES CC[C@@H](C)[C@H](NC(=O)[C@H](C)N1C(=O)N2CCC3=c4cc(OC)ccc4=N[C@@H]3[C@@]2(C)C1=O)C(=O)OCCOCCOC(=O)c1ccc(-c2c3nc(c(-c4c(F)c(F)c(F)c(F)c4F)c4ccc([nH]4)c(-c4c(F)c(F)c(F)c(F)c4F)c4nc(c(-c5c(F)c(F)c(F)c(F)c5F)c5ccc2[nH]5)C=C4)C=C3)cc1
REMARK SMILES IDX 36 1 35 2 34 3 32 4 33 5 5 6 3 7 4 8 2 9 1 10 6 11 7 12 8 14
REMARK SMILES IDX 9 15 10 16 11 17 12 18 30 19 14 20 13 21 28 22 31 23 15 24
REMARK SMILES IDX 27 25 29 26 16 27 17 28 26 29 18 30 25 31 19 32 24 33 20 34
REMARK SMILES IDX 23 35 21 36 22 37 37 38 38 39 39 40 40 41 41 42 42 43 43 44
REMARK SMILES IDX 44 45 105 46 45 47 104 48 46 49 47 50 48 51 98 52 49 53
REMARK SMILES IDX 103 54 97 55 99 56 50 57 102 58 96 59 95 60 51 62 83 63
REMARK SMILES IDX 63 64 82 65 64 66 67 67 81 68 100 69 65 70 66 71 80 73
REMARK SMILES IDX 101 74 68 75 52 76 53 77 61 78 54 79 55 80 59 81 62 82 56 83
REMARK SMILES IDX 57 84 60 85 58 86 84 87 85 88 93 89 86 90 87 91 91 92 94 93
REMARK SMILES IDX 88 94 89 95 92 96 90 97 69 98 70 99 78 100 71 101 72 102
REMARK SMILES IDX 76 103 79 104 73 105 74 106 77 107 75 108
REMARK H PARENT 6 13 99 61 67 72
REMARK Flexibility Score: inf
ROOT
ATOM      1  C   UNL A   1      42.774  37.626  28.558  1.00  0.00     0.202 C 
ENDROOT
BRANCH   1   2
ATOM      2  C   UNL A   1      42.878  37.862  27.042  1.00  0.00     0.261 C 
BRANCH   2   3
ATOM      3  O   UNL A   1      43.429  39.111  26.558  1.00  0.00    -0.462 OA
BRANCH   3   4
ATOM      4  C   UNL A   1      42.588  40.169  26.290  1.00  0.00     0.328 C 
ATOM      5  O   UNL A   1      41.381  40.133  26.514  1.00  0.00    -0.250 OA
BRANCH   4   6
ATOM      6  C   UNL A   1      43.373  41.548  25.378  1.00  0.00     0.195 C 
BRANCH   6   7
ATOM      7  C   UNL A   1      44.834  41.361  26.362  1.00  0.00     0.019 C 
ATOM      8  C   UNL A   1      45.223  42.704  27.099  1.00  0.00     0.010 C 
BRANCH   7   9
ATOM      9  C   UNL A   1      46.135  40.929  25.633  1.00  0.00     0.002 C 
ATOM     10  C   UNL A   1      47.300  40.742  26.612  1.00  0.00     0.004 C 
ENDBRANCH   7   9
ENDBRANCH   6   7
BRANCH   6  11
ATOM     11  N   UNL A   1      42.441  43.072  24.245  1.00  0.00    -0.341 N 
ATOM     12  C   UNL A   1      42.566  43.808  22.838  1.00  0.00     0.243 C 
ATOM     13  H   UNL A   1      41.686  43.449  24.751  1.00  0.00     0.164 HD
ATOM     14  O   UNL A   1      41.903  44.853  22.771  1.00  0.00    -0.273 OA
BRANCH  12  15
ATOM     15  C   UNL A   1      43.638  43.314  21.473  1.00  0.00     0.181 C 
ATOM     16  C   UNL A   1      43.047  42.039  20.857  1.00  0.00     0.042 C 
BRANCH  15  17
ATOM     17  N   UNL A   1      45.095  43.095  21.876  1.00  0.00    -0.250 N 
ATOM     18  C   UNL A   1      46.313  42.519  21.395  1.00  0.00     0.328 C 
ATOM     19  C   UNL A   1      45.424  44.080  22.678  1.00  0.00     0.259 C 
ATOM     20  N   UNL A   1      47.540  43.260  21.674  1.00  0.00    -0.307 N 
ATOM     21  O   UNL A   1      46.349  41.576  20.609  1.00  0.00    -0.248 OA
ATOM     22  C   UNL A   1      46.833  44.268  22.261  1.00  0.00     0.147 C 
ATOM     23  O   UNL A   1      44.749  44.760  23.429  1.00  0.00    -0.271 OA
ATOM     24  C   UNL A   1      48.819  44.263  22.096  1.00  0.00     0.127 C 
ATOM     25  C   UNL A   1      47.262  45.396  20.680  1.00  0.00     0.168 C 
ATOM     26  C   UNL A   1      47.245  43.898  23.911  1.00  0.00     0.048 C 
ATOM     27  C   UNL A   1      48.086  45.957  22.468  1.00  0.00     0.055 C 
ATOM     28  C   UNL A   1      46.540  46.071  21.593  1.00  0.00    -0.032 C 
ATOM     29  N   UNL A   1      46.916  47.106  20.082  1.00  0.00    -0.274 NA
ATOM     30  C   UNL A   1      45.595  45.489  20.630  1.00  0.00     0.005 A 
ATOM     31  C   UNL A   1      45.609  46.980  19.875  1.00  0.00     0.066 A 
ATOM     32  C   UNL A   1      44.794  44.142  19.490  1.00  0.00     0.056 A 
ATOM     33  C   UNL A   1      44.209  47.512  18.654  1.00  0.00     0.032 A 
ATOM     34  C   UNL A   1      43.426  44.538  18.539  1.00  0.00     0.119 A 
ATOM     35  C   UNL A   1      43.172  46.384  18.082  1.00  0.00     0.048 A 
BRANCH  34  36
ATOM     36  O   UNL A   1      42.472  43.729  18.003  1.00  0.00    -0.497 OA
ATOM     37  C   UNL A   1      41.163  44.051  18.492  1.00  0.00     0.278 C 
ENDBRANCH  34  36
ENDBRANCH  15  17
ENDBRANCH  12  15
ENDBRANCH   6  11
ENDBRANCH   4   6
ENDBRANCH   3   4
ENDBRANCH   2   3
ENDBRANCH   1   2
BRANCH   1  38
ATOM     38  O   UNL A   1      43.166  38.689  29.418  1.00  0.00    -0.374 OA
BRANCH  38  39
ATOM     39  C   UNL A   1      44.019  38.337  30.505  1.00  0.00     0.202 C 
BRANCH  39  40
ATOM     40  C   UNL A   1      45.465  38.839  30.386  1.00  0.00     0.261 C 
BRANCH  40  41
ATOM     41  O   UNL A   1      46.254  38.020  29.490  1.00  0.00    -0.460 OA
BRANCH  41  42
ATOM     42  C   UNL A   1      46.907  36.999  30.093  1.00  0.00     0.338 C 
ATOM     43  O   UNL A   1      47.862  37.096  30.843  1.00  0.00    -0.246 OA
BRANCH  42  44
ATOM     44  C   UNL A   1      46.369  35.690  29.652  1.00  0.00     0.060 A 
ATOM     45  C   UNL A   1      46.386  34.637  30.560  1.00  0.00     0.016 A 
ATOM     46  C   UNL A   1      45.750  35.507  28.414  1.00  0.00     0.016 A 
ATOM     47  C   UNL A   1      45.878  33.380  30.197  1.00  0.00     0.010 A 
ATOM     48  C   UNL A   1      45.132  34.273  28.108  1.00  0.00     0.010 A 
ATOM     49  C   UNL A   1      45.200  33.169  28.981  1.00  0.00    -0.014 A 
BRANCH  49  50
ATOM     50  C   UNL A   1      44.573  31.826  28.660  1.00  0.00     0.031 A 
ATOM     51  C   UNL A   1      43.184  31.441  29.145  1.00  0.00     0.074 A 
ATOM     52  C   UNL A   1      45.230  30.909  27.909  1.00  0.00     0.049 A 
ATOM     53  N   UNL A   1      42.546  30.295  29.028  1.00  0.00    -0.248 NA
ATOM     54  C   UNL A   1      42.409  32.466  29.850  1.00  0.00     0.031 C 
ATOM     55  C   UNL A   1      46.563  31.080  27.331  1.00  0.00     0.029 A 
ATOM     56  N   UNL A   1      44.859  29.646  27.489  1.00  0.00    -0.354 N 
ATOM     57  C   UNL A   1      41.323  30.460  29.672  1.00  0.00     0.074 A 
ATOM     58  C   UNL A   1      41.309  31.810  30.188  1.00  0.00     0.031 C 
ATOM     59  C   UNL A   1      46.862  30.013  26.577  1.00  0.00     0.029 A 
ATOM     60  C   UNL A   1      45.803  29.018  26.709  1.00  0.00     0.049 A 
ATOM     61  H   UNL A   1      43.998  29.233  27.726  1.00  0.00     0.167 HD
ATOM     62  C   UNL A   1      40.298  29.584  29.828  1.00  0.00     0.037 A 
ATOM     63  C   UNL A   1      45.864  27.775  26.189  1.00  0.00     0.037 A 
ATOM     64  C   UNL A   1      40.267  28.235  29.318  1.00  0.00     0.049 A 
ATOM     65  C   UNL A   1      44.763  26.785  26.449  1.00  0.00     0.074 A 
ATOM     66  C   UNL A   1      39.253  27.299  29.426  1.00  0.00     0.029 A 
ATOM     67  N   UNL A   1      41.293  27.627  28.614  1.00  0.00    -0.354 N 
ATOM     68  N   UNL A   1      43.631  26.957  27.082  1.00  0.00    -0.248 NA
ATOM     69  C   UNL A   1      44.962  25.416  25.944  1.00  0.00     0.031 C 
ATOM     70  C   UNL A   1      39.685  26.105  28.841  1.00  0.00     0.029 A 
ATOM     71  C   UNL A   1      40.946  26.317  28.311  1.00  0.00     0.049 A 
ATOM     72  H   UNL A   1      42.141  28.059  28.363  1.00  0.00     0.167 HD
ATOM     73  C   UNL A   1      42.983  25.729  27.048  1.00  0.00     0.074 A 
ATOM     74  C   UNL A   1      43.835  24.822  26.313  1.00  0.00     0.031 C 
ATOM     75  C   UNL A   1      41.786  25.394  27.590  1.00  0.00     0.037 A 
BRANCH  62  76
ATOM     76  C   UNL A   1      39.107  30.043  30.627  1.00  0.00     0.064 A 
ATOM     77  C   UNL A   1      37.971  30.592  30.015  1.00  0.00     0.173 A 
ATOM     78  C   UNL A   1      39.087  29.886  32.023  1.00  0.00     0.173 A 
ATOM     79  F   UNL A   1      37.938  30.772  28.685  1.00  0.00    -0.203 F 
ATOM     80  C   UNL A   1      36.874  30.995  30.773  1.00  0.00     0.198 A 
ATOM     81  C   UNL A   1      37.975  30.258  32.773  1.00  0.00     0.198 A 
ATOM     82  F   UNL A   1      40.142  29.353  32.660  1.00  0.00    -0.203 F 
ATOM     83  F   UNL A   1      35.821  31.564  30.170  1.00  0.00    -0.200 F 
ATOM     84  C   UNL A   1      36.873  30.821  32.149  1.00  0.00     0.200 A 
ATOM     85  F   UNL A   1      37.970  30.072  34.100  1.00  0.00    -0.200 F 
ATOM     86  F   UNL A   1      35.812  31.203  32.873  1.00  0.00    -0.200 F 
ENDBRANCH  62  76
BRANCH  63  87
ATOM     87  C   UNL A   1      47.054  27.382  25.383  1.00  0.00     0.064 A 
ATOM     88  C   UNL A   1      47.130  27.684  24.017  1.00  0.00     0.173 A 
ATOM     89  C   UNL A   1      48.156  26.744  25.972  1.00  0.00     0.173 A 
ATOM     90  F   UNL A   1      46.087  28.258  23.397  1.00  0.00    -0.203 F 
ATOM     91  C   UNL A   1      48.271  27.380  23.276  1.00  0.00     0.198 A 
ATOM     92  C   UNL A   1      49.308  26.472  25.239  1.00  0.00     0.198 A 
ATOM     93  F   UNL A   1      48.129  26.424  27.273  1.00  0.00    -0.203 F 
ATOM     94  F   UNL A   1      48.310  27.660  21.965  1.00  0.00    -0.200 F 
ATOM     95  C   UNL A   1      49.365  26.791  23.890  1.00  0.00     0.200 A 
ATOM     96  F   UNL A   1      50.369  25.919  25.842  1.00  0.00    -0.200 F 
ATOM     97  F   UNL A   1      50.474  26.530  23.185  1.00  0.00    -0.200 F 
ENDBRANCH  63  87
BRANCH  75  98
ATOM     98  C   UNL A   1      41.299  23.984  27.411  1.00  0.00     0.064 A 
ATOM     99  C   UNL A   1      40.173  23.689  26.626  1.00  0.00     0.173 A 
ATOM    100  C   UNL A   1      42.004  22.907  27.971  1.00  0.00     0.173 A 
ATOM    101  F   UNL A   1      39.454  24.681  26.079  1.00  0.00    -0.203 F 
ATOM    102  C   UNL A   1      39.768  22.373  26.417  1.00  0.00     0.198 A 
ATOM    103  C   UNL A   1      41.612  21.591  27.738  1.00  0.00     0.198 A 
ATOM    104  F   UNL A   1      43.090  23.129  28.727  1.00  0.00    -0.203 F 
ATOM    105  F   UNL A   1      38.671  22.119  25.689  1.00  0.00    -0.200 F 
ATOM    106  C   UNL A   1      40.493  21.325  26.964  1.00  0.00     0.200 A 
ATOM    107  F   UNL A   1      42.323  20.579  28.254  1.00  0.00    -0.200 F 
ATOM    108  F   UNL A   1      40.112  20.058  26.747  1.00  0.00    -0.200 F 
ENDBRANCH  75  98
ENDBRANCH  49  50
ENDBRANCH  42  44
ENDBRANCH  41  42
ENDBRANCH  40  41
ENDBRANCH  39  40
ENDBRANCH  38  39
ENDBRANCH   1  38
TORSDOF 20
ENDMDL
MODEL 2
REMARK VINA RESULT:     -11.2      5.087      8.768
REMARK SMILES CC[C@@H](C)[C@H](NC(=O)[C@H](C)N1C(=O)N2CCC3=c4cc(OC)ccc4=N[C@@H]3[C@@]2(C)C1=O)C(=O)OCCOCCOC(=O)c1ccc(-c2c3nc(c(-c4c(F)c(F)c(F)c(F)c4F)c4ccc([nH]4)c(-c4c(F)c(F)c(F)c(F)c4F)c4nc(c(-c5c(F)c(F)c(F)c(F)c5F)c5ccc2[nH]5)C=C4)C=C3)cc1
REMARK SMILES IDX 36 1 35 2 34 3 32 4 33 5 5 6 3 7 4 8 2 9 1 10 6 11 7 12 8 14
REMARK SMILES IDX 9 15 10 16 11 17 12 18 30 19 14 20 13 21 28 22 31 23 15 24
REMARK SMILES IDX 27 25 29 26 16 27 17 28 26 29 18 30 25 31 19 32 24 33 20 34
REMARK SMILES IDX 23 35 21 36 22 37 37 38 38 39 39 40 40 41 41 42 42 43 43 44
REMARK SMILES IDX 44 45 105 46 45 47 104 48 46 49 47 50 48 51 98 52 49 53
REMARK SMILES IDX 103 54 97 55 99 56 50 57 102 58 96 59 95 60 51 62 83 63
REMARK SMILES IDX 63 64 82 65 64 66 67 67 81 68 100 69 65 70 66 71 80 73
REMARK SMILES IDX 101 74 68 75 52 76 53 77 61 78 54 79 55 80 59 81 62 82 56 83
REMARK SMILES IDX 57 84 60 85 58 86 84 87 85 88 93 89 86 90 87 91 91 92 94 93
REMARK SMILES IDX 88 94 89 95 92 96 90 97 69 98 70 99 78 100 71 101 72 102
REMARK SMILES IDX 76 103 79 104 73 105 74 106 77 107 75 108
REMARK H PARENT 6 13 99 61 67 72
REMARK Flexibility Score: inf
ROOT
ATOM      1  C   UNL A   1      41.884  42.184  21.942  1.00  0.00     0.202 C 
ENDROOT
BRANCH   1   2
ATOM      2  C   UNL A   1      41.995  43.639  21.454  1.00  0.00     0.261 C 
BRANCH   2   3
ATOM      3  O   UNL A   1      41.598  43.960  20.099  1.00  0.00    -0.462 OA
BRANCH   3   4
ATOM      4  C   UNL A   1      42.542  43.967  19.096  1.00  0.00     0.328 C 
ATOM      5  O   UNL A   1      43.006  42.937  18.613  1.00  0.00    -0.250 OA
BRANCH   4   6
ATOM      6  C   UNL A   1      43.202  45.624  18.688  1.00  0.00     0.195 C 
BRANCH   6   7
ATOM      7  C   UNL A   1      41.909  45.843  17.498  1.00  0.00     0.019 C 
ATOM      8  C   UNL A   1      42.327  45.313  16.069  1.00  0.00     0.010 C 
BRANCH   7   9
ATOM      9  C   UNL A   1      41.410  47.291  17.244  1.00  0.00     0.002 C 
ATOM     10  C   UNL A   1      42.389  48.085  16.372  1.00  0.00     0.004 C 
ENDBRANCH   7   9
ENDBRANCH   6   7
BRANCH   6  11
ATOM     11  N   UNL A   1      45.145  46.385  19.035  1.00  0.00    -0.341 N 
ATOM     12  C   UNL A   1      46.503  45.997  19.771  1.00  0.00     0.243 C 
ATOM     13  H   UNL A   1      45.241  47.263  18.602  1.00  0.00     0.164 HD
ATOM     14  O   UNL A   1      47.285  46.952  19.893  1.00  0.00    -0.273 OA
BRANCH  12  15
ATOM     15  C   UNL A   1      46.896  44.392  20.497  1.00  0.00     0.181 C 
ATOM     16  C   UNL A   1      46.840  43.348  19.374  1.00  0.00     0.042 C 
BRANCH  15  17
ATOM     17  N   UNL A   1      45.982  43.994  21.654  1.00  0.00    -0.250 N 
ATOM     18  C   UNL A   1      45.620  42.865  22.455  1.00  0.00     0.328 C 
ATOM     19  C   UNL A   1      45.813  45.064  22.395  1.00  0.00     0.259 C 
ATOM     20  N   UNL A   1      45.412  43.115  23.878  1.00  0.00    -0.307 N 
ATOM     21  O   UNL A   1      45.679  41.706  22.052  1.00  0.00    -0.248 OA
ATOM     22  C   UNL A   1      45.764  44.424  23.730  1.00  0.00     0.147 C 
ATOM     23  O   UNL A   1      45.847  46.247  22.112  1.00  0.00    -0.271 OA
ATOM     24  C   UNL A   1      45.224  43.615  25.470  1.00  0.00     0.127 C 
ATOM     25  C   UNL A   1      47.452  44.007  24.697  1.00  0.00     0.168 C 
ATOM     26  C   UNL A   1      44.167  45.102  23.864  1.00  0.00     0.048 C 
ATOM     27  C   UNL A   1      46.132  45.256  25.638  1.00  0.00     0.055 C 
ATOM     28  C   UNL A   1      47.375  45.309  24.366  1.00  0.00    -0.032 C 
ATOM     29  N   UNL A   1      48.976  44.893  25.239  1.00  0.00    -0.274 NA
ATOM     30  C   UNL A   1      48.098  44.622  23.286  1.00  0.00     0.005 A 
ATOM     31  C   UNL A   1      49.499  45.133  24.042  1.00  0.00     0.066 A 
ATOM     32  C   UNL A   1      48.480  43.256  21.966  1.00  0.00     0.056 A 
ATOM     33  C   UNL A   1      51.190  45.190  23.110  1.00  0.00     0.032 A 
ATOM     34  C   UNL A   1      49.880  43.386  20.989  1.00  0.00     0.119 A 
ATOM     35  C   UNL A   1      51.342  44.423  21.673  1.00  0.00     0.048 A 
BRANCH  34  36
ATOM     36  O   UNL A   1      50.154  42.829  19.778  1.00  0.00    -0.497 OA
ATOM     37  C   UNL A   1      50.604  43.805  18.830  1.00  0.00     0.278 C 
ENDBRANCH  34  36
ENDBRANCH  15  17
ENDBRANCH  12  15
ENDBRANCH   6  11
ENDBRANCH   4   6
ENDBRANCH   3   4
ENDBRANCH   2   3
ENDBRANCH   1   2
BRANCH   1  38
ATOM     38  O   UNL A   1      41.392  41.966  23.258  1.00  0.00    -0.374 OA
BRANCH  38  39
ATOM     39  C   UNL A   1      42.372  41.868  24.288  1.00  0.00     0.202 C 
BRANCH  39  40
ATOM     40  C   UNL A   1      41.971  40.996  25.487  1.00  0.00     0.261 C 
BRANCH  40  41
ATOM     41  O   UNL A   1      42.949  41.054  26.553  1.00  0.00    -0.460 OA
BRANCH  41  42
ATOM     42  C   UNL A   1      43.923  40.117  26.472  1.00  0.00     0.338 C 
ATOM     43  O   UNL A   1      44.893  40.147  25.734  1.00  0.00    -0.246 OA
BRANCH  42  44
ATOM     44  C   UNL A   1      43.623  38.961  27.349  1.00  0.00     0.060 A 
ATOM     45  C   UNL A   1      43.920  37.687  26.877  1.00  0.00     0.016 A 
ATOM     46  C   UNL A   1      43.162  39.107  28.658  1.00  0.00     0.016 A 
ATOM     47  C   UNL A   1      43.667  36.559  27.672  1.00  0.00     0.010 A 
ATOM     48  C   UNL A   1      43.027  37.973  29.491  1.00  0.00     0.010 A 
ATOM     49  C   UNL A   1      43.253  36.666  29.013  1.00  0.00    -0.014 A 
BRANCH  49  50
ATOM     50  C   UNL A   1      43.083  35.433  29.878  1.00  0.00     0.031 A 
ATOM     51  C   UNL A   1      44.181  34.932  30.804  1.00  0.00     0.074 A 
ATOM     52  C   UNL A   1      41.927  34.726  29.870  1.00  0.00     0.049 A 
ATOM     53  N   UNL A   1      44.221  33.841  31.540  1.00  0.00    -0.248 NA
ATOM     54  C   UNL A   1      45.389  35.754  30.922  1.00  0.00     0.031 C 
ATOM     55  C   UNL A   1      40.744  35.040  29.070  1.00  0.00     0.029 A 
ATOM     56  N   UNL A   1      41.550  33.595  30.569  1.00  0.00    -0.354 N 
ATOM     57  C   UNL A   1      45.462  33.839  32.171  1.00  0.00     0.074 A 
ATOM     58  C   UNL A   1      46.152  35.028  31.725  1.00  0.00     0.031 C 
ATOM     59  C   UNL A   1      39.758  34.185  29.376  1.00  0.00     0.029 A 
ATOM     60  C   UNL A   1      40.266  33.178  30.302  1.00  0.00     0.049 A 
ATOM     61  H   UNL A   1      42.145  33.131  31.200  1.00  0.00     0.167 HD
ATOM     62  C   UNL A   1      45.993  32.941  33.041  1.00  0.00     0.037 A 
ATOM     63  C   UNL A   1      39.567  32.094  30.699  1.00  0.00     0.037 A 
ATOM     64  C   UNL A   1      45.333  31.752  33.520  1.00  0.00     0.049 A 
ATOM     65  C   UNL A   1      40.201  31.062  31.588  1.00  0.00     0.074 A 
ATOM     66  C   UNL A   1      45.808  30.808  34.416  1.00  0.00     0.029 A 
ATOM     67  N   UNL A   1      44.067  31.337  33.142  1.00  0.00    -0.354 N 
ATOM     68  N   UNL A   1      41.384  31.069  32.149  1.00  0.00    -0.248 NA
ATOM     69  C   UNL A   1      39.411  29.853  31.878  1.00  0.00     0.031 C 
ATOM     70  C   UNL A   1      44.856  29.791  34.535  1.00  0.00     0.029 A 
ATOM     71  C   UNL A   1      43.760  30.133  33.763  1.00  0.00     0.049 A 
ATOM     72  H   UNL A   1      43.473  31.823  32.527  1.00  0.00     0.167 HD
ATOM     73  C   UNL A   1      41.479  29.878  32.858  1.00  0.00     0.074 A 
ATOM     74  C   UNL A   1      40.226  29.179  32.678  1.00  0.00     0.031 C 
ATOM     75  C   UNL A   1      42.523  29.415  33.587  1.00  0.00     0.037 A 
BRANCH  62  76
ATOM     76  C   UNL A   1      47.398  33.189  33.521  1.00  0.00     0.064 A 
ATOM     77  C   UNL A   1      48.517  32.718  32.819  1.00  0.00     0.173 A 
ATOM     78  C   UNL A   1      47.626  33.952  34.679  1.00  0.00     0.173 A 
ATOM     79  F   UNL A   1      48.357  31.977  31.711  1.00  0.00    -0.203 F 
ATOM     80  C   UNL A   1      49.808  32.973  33.274  1.00  0.00     0.198 A 
ATOM     81  C   UNL A   1      48.919  34.234  35.111  1.00  0.00     0.198 A 
ATOM     82  F   UNL A   1      46.593  34.441  35.383  1.00  0.00    -0.203 F 
ATOM     83  F   UNL A   1      50.859  32.468  32.614  1.00  0.00    -0.200 F 
ATOM     84  C   UNL A   1      50.008  33.737  34.415  1.00  0.00     0.200 A 
ATOM     85  F   UNL A   1      49.110  34.988  36.203  1.00  0.00    -0.200 F 
ATOM     86  F   UNL A   1      51.253  33.987  34.845  1.00  0.00    -0.200 F 
ENDBRANCH  62  76
BRANCH  63  87
ATOM     87  C   UNL A   1      38.170  31.914  30.214  1.00  0.00     0.064 A 
ATOM     88  C   UNL A   1      37.896  31.142  29.077  1.00  0.00     0.173 A 
ATOM     89  C   UNL A   1      37.081  32.466  30.905  1.00  0.00     0.173 A 
ATOM     90  F   UNL A   1      38.904  30.625  28.359  1.00  0.00    -0.203 F 
ATOM     91  C   UNL A   1      36.584  30.914  28.662  1.00  0.00     0.198 A 
ATOM     92  C   UNL A   1      35.770  32.210  30.509  1.00  0.00     0.198 A 
ATOM     93  F   UNL A   1      37.290  33.221  31.993  1.00  0.00    -0.203 F 
ATOM     94  F   UNL A   1      36.350  30.191  27.558  1.00  0.00    -0.200 F 
ATOM     95  C   UNL A   1      35.523  31.433  29.388  1.00  0.00     0.200 A 
ATOM     96  F   UNL A   1      34.748  32.699  31.225  1.00  0.00    -0.200 F 
ATOM     97  F   UNL A   1      34.262  31.186  29.007  1.00  0.00    -0.200 F 
ENDBRANCH  63  87
BRANCH  75  98
ATOM     98  C   UNL A   1      42.375  28.084  34.267  1.00  0.00     0.064 A 
ATOM     99  C   UNL A   1      42.950  26.918  33.736  1.00  0.00     0.173 A 
ATOM    100  C   UNL A   1      41.713  27.980  35.501  1.00  0.00     0.173 A 
ATOM    101  F   UNL A   1      43.581  26.957  32.553  1.00  0.00    -0.203 F 
ATOM    102  C   UNL A   1      42.859  25.701  34.408  1.00  0.00     0.198 A 
ATOM    103  C   UNL A   1      41.648  26.767  36.184  1.00  0.00     0.198 A 
ATOM    104  F   UNL A   1      41.149  29.062  36.059  1.00  0.00    -0.203 F 
ATOM    105  F   UNL A   1      43.389  24.596  33.865  1.00  0.00    -0.200 F 
ATOM    106  C   UNL A   1      42.218  25.629  35.635  1.00  0.00     0.200 A 
ATOM    107  F   UNL A   1      41.042  26.703  37.378  1.00  0.00    -0.200 F 
ATOM    108  F   UNL A   1      42.146  24.461  36.289  1.00  0.00    -0.200 F 
ENDBRANCH  75  98
ENDBRANCH  49  50
ENDBRANCH  42  44
ENDBRANCH  41  42
ENDBRANCH  40  41
ENDBRANCH  39  40
ENDBRANCH  38  39
ENDBRANCH   1  38
TORSDOF 20
ENDMDL
MODEL 3
REMARK VINA RESULT:     -11.2      4.208      6.470
REMARK SMILES CC[C@@H](C)[C@H](NC(=O)[C@H](C)N1C(=O)N2CCC3=c4cc(OC)ccc4=N[C@@H]3[C@@]2(C)C1=O)C(=O)OCCOCCOC(=O)c1ccc(-c2c3nc(c(-c4c(F)c(F)c(F)c(F)c4F)c4ccc([nH]4)c(-c4c(F)c(F)c(F)c(F)c4F)c4nc(c(-c5c(F)c(F)c(F)c(F)c5F)c5ccc2[nH]5)C=C4)C=C3)cc1
REMARK SMILES IDX 36 1 35 2 34 3 32 4 33 5 5 6 3 7 4 8 2 9 1 10 6 11 7 12 8 14
REMARK SMILES IDX 9 15 10 16 11 17 12 18 30 19 14 20 13 21 28 22 31 23 15 24
REMARK SMILES IDX 27 25 29 26 16 27 17 28 26 29 18 30 25 31 19 32 24 33 20 34
REMARK SMILES IDX 23 35 21 36 22 37 37 38 38 39 39 40 40 41 41 42 42 43 43 44
REMARK SMILES IDX 44 45 105 46 45 47 104 48 46 49 47 50 48 51 98 52 49 53
REMARK SMILES IDX 103 54 97 55 99 56 50 57 102 58 96 59 95 60 51 62 83 63
REMARK SMILES IDX 63 64 82 65 64 66 67 67 81 68 100 69 65 70 66 71 80 73
REMARK SMILES IDX 101 74 68 75 52 76 53 77 61 78 54 79 55 80 59 81 62 82 56 83
REMARK SMILES IDX 57 84 60 85 58 86 84 87 85 88 93 89 86 90 87 91 91 92 94 93
REMARK SMILES IDX 88 94 89 95 92 96 90 97 69 98 70 99 78 100 71 101 72 102
REMARK SMILES IDX 76 103 79 104 73 105 74 106 77 107 75 108
REMARK H PARENT 6 13 99 61 67 72
REMARK Flexibility Score: inf
ROOT
ATOM      1  C   UNL A   1      41.707  42.297  22.253  1.00  0.00     0.202 C 
ENDROOT
BRANCH   1   2
ATOM      2  C   UNL A   1      42.001  43.682  21.652  1.00  0.00     0.261 C 
BRANCH   2   3
ATOM      3  O   UNL A   1      41.560  43.973  20.303  1.00  0.00    -0.462 OA
BRANCH   3   4
ATOM      4  C   UNL A   1      42.457  43.890  19.260  1.00  0.00     0.328 C 
ATOM      5  O   UNL A   1      42.865  42.820  18.817  1.00  0.00    -0.250 OA
BRANCH   4   6
ATOM      6  C   UNL A   1      43.153  45.497  18.731  1.00  0.00     0.195 C 
BRANCH   6   7
ATOM      7  C   UNL A   1      42.023  45.533  17.367  1.00  0.00     0.019 C 
ATOM      8  C   UNL A   1      42.666  44.932  16.054  1.00  0.00     0.010 C 
BRANCH   7   9
ATOM      9  C   UNL A   1      41.474  46.918  16.930  1.00  0.00     0.002 C 
ATOM     10  C   UNL A   1      42.595  47.856  16.470  1.00  0.00     0.004 C 
ENDBRANCH   7   9
ENDBRANCH   6   7
BRANCH   6  11
ATOM     11  N   UNL A   1      45.029  46.343  19.223  1.00  0.00    -0.341 N 
ATOM     12  C   UNL A   1      46.373  45.984  19.997  1.00  0.00     0.243 C 
ATOM     13  H   UNL A   1      45.091  47.253  18.854  1.00  0.00     0.164 HD
ATOM     14  O   UNL A   1      47.089  46.971  20.221  1.00  0.00    -0.273 OA
BRANCH  12  15
ATOM     15  C   UNL A   1      46.829  44.358  20.636  1.00  0.00     0.181 C 
ATOM     16  C   UNL A   1      46.787  43.371  19.462  1.00  0.00     0.042 C 
BRANCH  15  17
ATOM     17  N   UNL A   1      45.947  43.872  21.784  1.00  0.00    -0.250 N 
ATOM     18  C   UNL A   1      45.660  42.702  22.555  1.00  0.00     0.328 C 
ATOM     19  C   UNL A   1      45.713  44.910  22.554  1.00  0.00     0.259 C 
ATOM     20  N   UNL A   1      45.442  42.901  23.985  1.00  0.00    -0.307 N 
ATOM     21  O   UNL A   1      45.791  41.560  22.122  1.00  0.00    -0.248 OA
ATOM     22  C   UNL A   1      45.710  44.233  23.871  1.00  0.00     0.147 C 
ATOM     23  O   UNL A   1      45.670  46.100  22.302  1.00  0.00    -0.271 OA
ATOM     24  C   UNL A   1      45.230  43.346  25.590  1.00  0.00     0.127 C 
ATOM     25  C   UNL A   1      47.425  43.899  24.822  1.00  0.00     0.168 C 
ATOM     26  C   UNL A   1      44.074  44.804  24.027  1.00  0.00     0.048 C 
ATOM     27  C   UNL A   1      46.032  45.036  25.799  1.00  0.00     0.055 C 
ATOM     28  C   UNL A   1      47.265  45.201  24.526  1.00  0.00    -0.032 C 
ATOM     29  N   UNL A   1      48.893  44.865  25.384  1.00  0.00    -0.274 NA
ATOM     30  C   UNL A   1      48.025  44.591  23.426  1.00  0.00     0.005 A 
ATOM     31  C   UNL A   1      49.394  45.170  24.191  1.00  0.00     0.066 A 
ATOM     32  C   UNL A   1      48.487  43.287  22.070  1.00  0.00     0.056 A 
ATOM     33  C   UNL A   1      51.074  45.358  23.257  1.00  0.00     0.032 A 
ATOM     34  C   UNL A   1      49.872  43.531  21.093  1.00  0.00     0.119 A 
ATOM     35  C   UNL A   1      51.268  44.641  21.800  1.00  0.00     0.048 A 
BRANCH  34  36
ATOM     36  O   UNL A   1      50.176  43.024  19.866  1.00  0.00    -0.497 OA
ATOM     37  C   UNL A   1      50.197  44.042  18.858  1.00  0.00     0.278 C 
ENDBRANCH  34  36
ENDBRANCH  15  17
ENDBRANCH  12  15
ENDBRANCH   6  11
ENDBRANCH   4   6
ENDBRANCH   3   4
ENDBRANCH   2   3
ENDBRANCH   1   2
BRANCH   1  38
ATOM     38  O   UNL A   1      41.233  42.248  23.593  1.00  0.00    -0.374 OA
BRANCH  38  39
ATOM     39  C   UNL A   1      42.121  41.684  24.554  1.00  0.00     0.202 C 
BRANCH  39  40
ATOM     40  C   UNL A   1      41.450  40.811  25.625  1.00  0.00     0.261 C 
BRANCH  40  41
ATOM     41  O   UNL A   1      42.295  40.631  26.787  1.00  0.00    -0.460 OA
BRANCH  41  42
ATOM     42  C   UNL A   1      43.376  39.841  26.579  1.00  0.00     0.338 C 
ATOM     43  O   UNL A   1      44.288  40.058  25.800  1.00  0.00    -0.246 OA
BRANCH  42  44
ATOM     44  C   UNL A   1      43.279  38.590  27.367  1.00  0.00     0.060 A 
ATOM     45  C   UNL A   1      43.164  37.389  26.675  1.00  0.00     0.016 A 
ATOM     46  C   UNL A   1      43.410  38.561  28.756  1.00  0.00     0.016 A 
ATOM     47  C   UNL A   1      43.081  36.174  27.372  1.00  0.00     0.010 A 
ATOM     48  C   UNL A   1      43.449  37.323  29.437  1.00  0.00     0.010 A 
ATOM     49  C   UNL A   1      43.261  36.097  28.766  1.00  0.00    -0.014 A 
BRANCH  49  50
ATOM     50  C   UNL A   1      43.267  34.760  29.480  1.00  0.00     0.031 A 
ATOM     51  C   UNL A   1      41.989  34.089  29.960  1.00  0.00     0.074 A 
ATOM     52  C   UNL A   1      44.425  34.094  29.710  1.00  0.00     0.049 A 
ATOM     53  N   UNL A   1      41.837  32.988  30.666  1.00  0.00    -0.248 NA
ATOM     54  C   UNL A   1      40.719  34.731  29.609  1.00  0.00     0.031 C 
ATOM     55  C   UNL A   1      45.759  34.548  29.319  1.00  0.00     0.029 A 
ATOM     56  N   UNL A   1      44.667  32.880  30.322  1.00  0.00    -0.354 N 
ATOM     57  C   UNL A   1      40.468  32.834  30.864  1.00  0.00     0.074 A 
ATOM     58  C   UNL A   1      39.830  33.959  30.216  1.00  0.00     0.031 C 
ATOM     59  C   UNL A   1      46.659  33.604  29.624  1.00  0.00     0.029 A 
ATOM     60  C   UNL A   1      45.996  32.524  30.347  1.00  0.00     0.049 A 
ATOM     61  H   UNL A   1      43.954  32.320  30.705  1.00  0.00     0.167 HD
ATOM     62  C   UNL A   1      39.788  31.859  31.519  1.00  0.00     0.037 A 
ATOM     63  C   UNL A   1      46.643  31.486  30.917  1.00  0.00     0.037 A 
ATOM     64  C   UNL A   1      40.384  30.715  32.165  1.00  0.00     0.049 A 
ATOM     65  C   UNL A   1      45.887  30.463  31.718  1.00  0.00     0.074 A 
ATOM     66  C   UNL A   1      39.752  29.679  32.832  1.00  0.00     0.029 A 
ATOM     67  N   UNL A   1      41.744  30.459  32.233  1.00  0.00    -0.354 N 
ATOM     68  N   UNL A   1      44.598  30.355  31.913  1.00  0.00    -0.248 NA
ATOM     69  C   UNL A   1      46.682  29.431  32.403  1.00  0.00     0.031 C 
ATOM     70  C   UNL A   1      40.729  28.827  33.356  1.00  0.00     0.029 A 
ATOM     71  C   UNL A   1      41.969  29.298  32.961  1.00  0.00     0.049 A 
ATOM     72  H   UNL A   1      42.446  31.015  31.825  1.00  0.00     0.167 HD
ATOM     73  C   UNL A   1      44.425  29.247  32.733  1.00  0.00     0.074 A 
ATOM     74  C   UNL A   1      45.740  28.700  32.984  1.00  0.00     0.031 C 
ATOM     75  C   UNL A   1      43.271  28.743  33.232  1.00  0.00     0.037 A 
BRANCH  62  76
ATOM     76  C   UNL A   1      38.291  31.995  31.607  1.00  0.00     0.064 A 
ATOM     77  C   UNL A   1      37.446  31.589  30.564  1.00  0.00     0.173 A 
ATOM     78  C   UNL A   1      37.694  32.494  32.777  1.00  0.00     0.173 A 
ATOM     79  F   UNL A   1      37.964  31.112  29.421  1.00  0.00    -0.203 F 
ATOM     80  C   UNL A   1      36.063  31.710  30.675  1.00  0.00     0.198 A 
ATOM     81  C   UNL A   1      36.309  32.580  32.897  1.00  0.00     0.198 A 
ATOM     82  F   UNL A   1      38.453  32.883  33.813  1.00  0.00    -0.203 F 
ATOM     83  F   UNL A   1      35.280  31.364  29.644  1.00  0.00    -0.200 F 
ATOM     84  C   UNL A   1      35.496  32.197  31.843  1.00  0.00     0.200 A 
ATOM     85  F   UNL A   1      35.763  33.034  34.033  1.00  0.00    -0.200 F 
ATOM     86  F   UNL A   1      34.164  32.303  31.949  1.00  0.00    -0.200 F 
ENDBRANCH  62  76
BRANCH  63  87
ATOM     87  C   UNL A   1      48.123  31.386  30.774  1.00  0.00     0.064 A 
ATOM     88  C   UNL A   1      48.979  31.978  31.712  1.00  0.00     0.173 A 
ATOM     89  C   UNL A   1      48.708  30.657  29.727  1.00  0.00     0.173 A 
ATOM     90  F   UNL A   1      48.472  32.719  32.709  1.00  0.00    -0.203 F 
ATOM     91  C   UNL A   1      50.362  31.827  31.619  1.00  0.00     0.198 A 
ATOM     92  C   UNL A   1      50.087  30.478  29.655  1.00  0.00     0.198 A 
ATOM     93  F   UNL A   1      47.933  30.079  28.798  1.00  0.00    -0.203 F 
ATOM     94  F   UNL A   1      51.160  32.422  32.517  1.00  0.00    -0.200 F 
ATOM     95  C   UNL A   1      50.913  31.064  30.602  1.00  0.00     0.200 A 
ATOM     96  F   UNL A   1      50.613  29.724  28.680  1.00  0.00    -0.200 F 
ATOM     97  F   UNL A   1      52.240  30.892  30.533  1.00  0.00    -0.200 F 
ENDBRANCH  63  87
BRANCH  75  98
ATOM     98  C   UNL A   1      43.352  27.522  34.104  1.00  0.00     0.064 A 
ATOM     99  C   UNL A   1      43.602  26.249  33.566  1.00  0.00     0.173 A 
ATOM    100  C   UNL A   1      43.251  27.630  35.500  1.00  0.00     0.173 A 
ATOM    101  F   UNL A   1      43.694  26.085  32.237  1.00  0.00    -0.203 F 
ATOM    102  C   UNL A   1      43.737  25.134  34.390  1.00  0.00     0.198 A 
ATOM    103  C   UNL A   1      43.414  26.519  36.323  1.00  0.00     0.198 A 
ATOM    104  F   UNL A   1      43.018  28.823  36.069  1.00  0.00    -0.203 F 
ATOM    105  F   UNL A   1      43.944  23.925  33.850  1.00  0.00    -0.200 F 
ATOM    106  C   UNL A   1      43.654  25.272  35.767  1.00  0.00     0.200 A 
ATOM    107  F   UNL A   1      43.349  26.656  37.654  1.00  0.00    -0.200 F 
ATOM    108  F   UNL A   1      43.801  24.201  36.560  1.00  0.00    -0.200 F 
ENDBRANCH  75  98
ENDBRANCH  49  50
ENDBRANCH  42  44
ENDBRANCH  41  42
ENDBRANCH  40  41
ENDBRANCH  39  40
ENDBRANCH  38  39
ENDBRANCH   1  38
TORSDOF 20
ENDMDL
