MODEL 1
REMARK VINA RESULT:     -12.1      0.000      0.000
REMARK SMILES Cc1ccnc(C(=O)c2[nH]c3ccc(OC(F)(F)F)cc3c2CC(=O)OCCOCCOC(=O)c2ccc(-c3c4nc(c(-c5c(F)c(F)c(F)c(F)c5F)c5ccc([nH]5)c(-c5c(F)c(F)c(F)c(F)c5F)c5nc(c(-c6c(F)c(F)c(F)c(F)c6F)c6ccc3[nH]6)C=C5)C=C4)cc2)c1
REMARK SMILES IDX 28 1 27 2 26 3 24 4 25 5 23 6 22 7 9 8 10 9 11 10 21 12
REMARK SMILES IDX 12 13 20 14 13 15 14 16 7 17 8 18 6 19 1 20 2 21 3 22 98 23
REMARK SMILES IDX 4 24 5 25 15 26 16 27 17 28 18 29 19 30 29 31 30 32 31 33
REMARK SMILES IDX 32 34 33 35 34 36 35 37 36 38 97 39 37 40 96 41 38 42 39 43
REMARK SMILES IDX 40 44 90 45 41 46 95 47 89 48 91 49 42 50 94 51 88 52 87 53
REMARK SMILES IDX 43 55 75 56 55 57 74 58 56 59 59 60 73 61 92 62 57 63 58 64
REMARK SMILES IDX 72 66 93 67 60 68 44 69 45 70 53 71 46 72 47 73 51 74 54 75
REMARK SMILES IDX 48 76 49 77 52 78 50 79 76 80 77 81 85 82 78 83 79 84 83 85
REMARK SMILES IDX 86 86 80 87 81 88 84 89 82 90 61 91 62 92 70 93 63 94 64 95
REMARK SMILES IDX 68 96 71 97 65 98 66 99 69 100 67 101
REMARK H PARENT 10 11 91 54 59 65
REMARK Flexibility Score: inf
ROOT
ATOM      1  C   UNL A   1      38.570  22.971  26.529  1.00  0.00     0.202 C 
ENDROOT
BRANCH   1   2
ATOM      2  C   UNL A   1      37.423  23.735  25.860  1.00  0.00     0.261 C 
BRANCH   2   3
ATOM      3  O   UNL A   1      36.163  23.606  26.555  1.00  0.00    -0.463 OA
BRANCH   3   4
ATOM      4  C   UNL A   1      35.070  23.987  25.837  1.00  0.00     0.310 C 
ATOM      5  O   UNL A   1      33.968  24.208  26.339  1.00  0.00    -0.252 OA
BRANCH   4   6
ATOM      6  C   UNL A   1      35.251  24.041  24.336  1.00  0.00     0.161 C 
BRANCH   6   7
ATOM      7  C   UNL A   1      34.159  23.523  23.435  1.00  0.00     0.000 A 
ATOM      8  C   UNL A   1      33.277  24.274  22.650  1.00  0.00     0.093 A 
ATOM      9  N   UNL A   1      32.462  23.368  22.000  1.00  0.00    -0.352 N 
ATOM     10  C   UNL A   1      32.588  22.118  22.561  1.00  0.00     0.046 A 
ATOM     11  H   UNL A   1      31.874  23.586  21.240  1.00  0.00     0.167 HD
ATOM     12  C   UNL A   1      33.660  22.181  23.445  1.00  0.00     0.008 A 
ATOM     13  C   UNL A   1      31.835  20.952  22.375  1.00  0.00     0.030 A 
ATOM     14  C   UNL A   1      33.981  21.029  24.192  1.00  0.00     0.057 A 
ATOM     15  C   UNL A   1      32.145  19.837  23.171  1.00  0.00     0.049 A 
ATOM     16  C   UNL A   1      33.194  19.874  24.087  1.00  0.00     0.130 A 
BRANCH   8  17
ATOM     17  C   UNL A   1      33.225  25.729  22.531  1.00  0.00     0.227 C 
ATOM     18  O   UNL A   1      33.656  26.306  21.534  1.00  0.00    -0.285 OA
BRANCH  17  19
ATOM     19  C   UNL A   1      32.707  26.592  23.637  1.00  0.00     0.113 A 
ATOM     20  C   UNL A   1      33.930  28.925  26.357  1.00  0.00     0.044 C 
ATOM     21  C   UNL A   1      33.044  28.165  25.416  1.00  0.00    -0.047 A 
ATOM     22  C   UNL A   1      31.685  28.482  25.329  1.00  0.00     0.023 A 
ATOM     23  C   UNL A   1      33.569  27.206  24.542  1.00  0.00     0.036 A 
ATOM     24  C   UNL A   1      30.899  27.804  24.413  1.00  0.00     0.112 A 
ATOM     25  N   UNL A   1      31.375  26.856  23.582  1.00  0.00    -0.253 NA
ENDBRANCH  17  19
ENDBRANCH   8  17
BRANCH  16  26
ATOM     26  O   UNL A   1      33.561  18.879  24.947  1.00  0.00    -0.406 OA
BRANCH  26  27
ATOM     27  C   UNL A   1      34.474  17.902  24.478  1.00  0.00     0.573 C 
ATOM     28  F   UNL A   1      34.256  17.598  23.181  1.00  0.00    -0.132 F 
ATOM     29  F   UNL A   1      35.747  18.322  24.635  1.00  0.00    -0.132 F 
ATOM     30  F   UNL A   1      34.310  16.774  25.205  1.00  0.00    -0.132 F 
ENDBRANCH  26  27
ENDBRANCH  16  26
ENDBRANCH   6   7
ENDBRANCH   4   6
ENDBRANCH   3   4
ENDBRANCH   2   3
ENDBRANCH   1   2
BRANCH   1  31
ATOM     31  O   UNL A   1      39.289  22.014  25.753  1.00  0.00    -0.374 OA
BRANCH  31  32
ATOM     32  C   UNL A   1      38.595  20.820  25.402  1.00  0.00     0.202 C 
BRANCH  32  33
ATOM     33  C   UNL A   1      39.411  19.519  25.380  1.00  0.00     0.261 C 
BRANCH  33  34
ATOM     34  O   UNL A   1      40.265  19.364  26.524  1.00  0.00    -0.460 OA
BRANCH  34  35
ATOM     35  C   UNL A   1      41.585  19.281  26.233  1.00  0.00     0.338 C 
ATOM     36  O   UNL A   1      42.188  18.339  25.736  1.00  0.00    -0.246 OA
BRANCH  35  37
ATOM     37  C   UNL A   1      42.217  20.590  26.453  1.00  0.00     0.060 A 
ATOM     38  C   UNL A   1      42.264  21.077  27.765  1.00  0.00     0.016 A 
ATOM     39  C   UNL A   1      42.719  21.343  25.391  1.00  0.00     0.016 A 
ATOM     40  C   UNL A   1      42.805  22.334  28.021  1.00  0.00     0.010 A 
ATOM     41  C   UNL A   1      43.248  22.610  25.647  1.00  0.00     0.010 A 
ATOM     42  C   UNL A   1      43.276  23.117  26.959  1.00  0.00    -0.014 A 
BRANCH  42  43
ATOM     43  C   UNL A   1      43.717  24.507  27.211  1.00  0.00     0.031 A 
ATOM     44  C   UNL A   1      42.713  25.515  27.691  1.00  0.00     0.074 A 
ATOM     45  C   UNL A   1      45.002  24.850  27.019  1.00  0.00     0.049 A 
ATOM     46  N   UNL A   1      42.866  26.792  27.923  1.00  0.00    -0.248 NA
ATOM     47  C   UNL A   1      41.352  25.015  27.943  1.00  0.00     0.031 C 
ATOM     48  C   UNL A   1      46.061  23.938  26.592  1.00  0.00     0.029 A 
ATOM     49  N   UNL A   1      45.632  26.062  27.149  1.00  0.00    -0.354 N 
ATOM     50  C   UNL A   1      41.623  27.251  28.337  1.00  0.00     0.074 A 
ATOM     51  C   UNL A   1      40.719  26.122  28.304  1.00  0.00     0.031 C 
ATOM     52  C   UNL A   1      47.212  24.625  26.485  1.00  0.00     0.029 A 
ATOM     53  C   UNL A   1      46.959  26.030  26.798  1.00  0.00     0.049 A 
ATOM     54  H   UNL A   1      45.176  26.876  27.464  1.00  0.00     0.167 HD
ATOM     55  C   UNL A   1      41.275  28.504  28.714  1.00  0.00     0.037 A 
ATOM     56  C   UNL A   1      47.855  27.031  26.712  1.00  0.00     0.037 A 
ATOM     57  C   UNL A   1      42.189  29.616  28.744  1.00  0.00     0.049 A 
ATOM     58  C   UNL A   1      47.416  28.431  27.060  1.00  0.00     0.074 A 
ATOM     59  C   UNL A   1      41.950  30.918  29.147  1.00  0.00     0.029 A 
ATOM     60  N   UNL A   1      43.515  29.558  28.342  1.00  0.00    -0.354 N 
ATOM     61  N   UNL A   1      46.252  28.851  27.493  1.00  0.00    -0.248 NA
ATOM     62  C   UNL A   1      48.416  29.497  26.902  1.00  0.00     0.031 C 
ATOM     63  C   UNL A   1      43.113  31.662  28.927  1.00  0.00     0.029 A 
ATOM     64  C   UNL A   1      44.096  30.811  28.445  1.00  0.00     0.049 A 
ATOM     65  H   UNL A   1      43.976  28.745  28.029  1.00  0.00     0.167 HD
ATOM     66  C   UNL A   1      46.384  30.220  27.681  1.00  0.00     0.074 A 
ATOM     67  C   UNL A   1      47.750  30.556  27.336  1.00  0.00     0.031 C 
ATOM     68  C   UNL A   1      45.459  31.122  28.096  1.00  0.00     0.037 A 
BRANCH  55  69
ATOM     69  C   UNL A   1      39.844  28.752  29.094  1.00  0.00     0.064 A 
ATOM     70  C   UNL A   1      39.381  28.570  30.405  1.00  0.00     0.173 A 
ATOM     71  C   UNL A   1      38.934  29.231  28.138  1.00  0.00     0.173 A 
ATOM     72  F   UNL A   1      40.207  28.101  31.354  1.00  0.00    -0.203 F 
ATOM     73  C   UNL A   1      38.057  28.841  30.742  1.00  0.00     0.198 A 
ATOM     74  C   UNL A   1      37.618  29.528  28.485  1.00  0.00     0.198 A 
ATOM     75  F   UNL A   1      39.324  29.424  26.870  1.00  0.00    -0.203 F 
ATOM     76  F   UNL A   1      37.627  28.623  31.993  1.00  0.00    -0.200 F 
ATOM     77  C   UNL A   1      37.180  29.327  29.785  1.00  0.00     0.200 A 
ATOM     78  F   UNL A   1      36.776  30.010  27.561  1.00  0.00    -0.200 F 
ATOM     79  F   UNL A   1      35.909  29.601  30.114  1.00  0.00    -0.200 F 
ENDBRANCH  55  69
BRANCH  56  80
ATOM     80  C   UNL A   1      49.246  26.759  26.257  1.00  0.00     0.064 A 
ATOM     81  C   UNL A   1      49.611  26.914  24.912  1.00  0.00     0.173 A 
ATOM     82  C   UNL A   1      50.229  26.308  27.150  1.00  0.00     0.173 A 
ATOM     83  F   UNL A   1      48.700  27.318  24.013  1.00  0.00    -0.203 F 
ATOM     84  C   UNL A   1      50.898  26.608  24.474  1.00  0.00     0.198 A 
ATOM     85  C   UNL A   1      51.525  26.034  26.717  1.00  0.00     0.198 A 
ATOM     86  F   UNL A   1      49.934  26.139  28.447  1.00  0.00    -0.203 F 
ATOM     87  F   UNL A   1      51.203  26.712  23.174  1.00  0.00    -0.200 F 
ATOM     88  C   UNL A   1      51.856  26.173  25.378  1.00  0.00     0.200 A 
ATOM     89  F   UNL A   1      52.450  25.625  27.597  1.00  0.00    -0.200 F 
ATOM     90  F   UNL A   1      53.093  25.877  24.957  1.00  0.00    -0.200 F 
ENDBRANCH  56  80
BRANCH  68  91
ATOM     91  C   UNL A   1      45.901  32.552  28.218  1.00  0.00     0.064 A 
ATOM     92  C   UNL A   1      46.493  33.039  29.392  1.00  0.00     0.173 A 
ATOM     93  C   UNL A   1      45.772  33.432  27.132  1.00  0.00     0.173 A 
ATOM     94  F   UNL A   1      46.625  32.243  30.463  1.00  0.00    -0.203 F 
ATOM     95  C   UNL A   1      46.916  34.363  29.484  1.00  0.00     0.198 A 
ATOM     96  C   UNL A   1      46.227  34.744  27.215  1.00  0.00     0.198 A 
ATOM     97  F   UNL A   1      45.220  33.012  25.982  1.00  0.00    -0.203 F 
ATOM     98  F   UNL A   1      47.433  34.821  30.632  1.00  0.00    -0.200 F 
ATOM     99  C   UNL A   1      46.791  35.210  28.393  1.00  0.00     0.200 A 
ATOM    100  F   UNL A   1      46.122  35.557  26.155  1.00  0.00    -0.200 F 
ATOM    101  F   UNL A   1      47.209  36.480  28.479  1.00  0.00    -0.200 F 
ENDBRANCH  68  91
ENDBRANCH  42  43
ENDBRANCH  35  37
ENDBRANCH  34  35
ENDBRANCH  33  34
ENDBRANCH  32  33
ENDBRANCH  31  32
ENDBRANCH   1  31
TORSDOF 19
ENDMDL
MODEL 2
REMARK VINA RESULT:     -11.4      3.455      9.418
REMARK SMILES Cc1ccnc(C(=O)c2[nH]c3ccc(OC(F)(F)F)cc3c2CC(=O)OCCOCCOC(=O)c2ccc(-c3c4nc(c(-c5c(F)c(F)c(F)c(F)c5F)c5ccc([nH]5)c(-c5c(F)c(F)c(F)c(F)c5F)c5nc(c(-c6c(F)c(F)c(F)c(F)c6F)c6ccc3[nH]6)C=C5)C=C4)cc2)c1
REMARK SMILES IDX 28 1 27 2 26 3 24 4 25 5 23 6 22 7 9 8 10 9 11 10 21 12
REMARK SMILES IDX 12 13 20 14 13 15 14 16 7 17 8 18 6 19 1 20 2 21 3 22 98 23
REMARK SMILES IDX 4 24 5 25 15 26 16 27 17 28 18 29 19 30 29 31 30 32 31 33
REMARK SMILES IDX 32 34 33 35 34 36 35 37 36 38 97 39 37 40 96 41 38 42 39 43
REMARK SMILES IDX 40 44 90 45 41 46 95 47 89 48 91 49 42 50 94 51 88 52 87 53
REMARK SMILES IDX 43 55 75 56 55 57 74 58 56 59 59 60 73 61 92 62 57 63 58 64
REMARK SMILES IDX 72 66 93 67 60 68 44 69 45 70 53 71 46 72 47 73 51 74 54 75
REMARK SMILES IDX 48 76 49 77 52 78 50 79 76 80 77 81 85 82 78 83 79 84 83 85
REMARK SMILES IDX 86 86 80 87 81 88 84 89 82 90 61 91 62 92 70 93 63 94 64 95
REMARK SMILES IDX 68 96 71 97 65 98 66 99 69 100 67 101
REMARK H PARENT 10 11 91 54 59 65
REMARK Flexibility Score: inf
ROOT
ATOM      1  C   UNL A   1      34.433  31.856  27.627  1.00  0.00     0.202 C 
ENDROOT
BRANCH   1   2
ATOM      2  C   UNL A   1      34.408  30.324  27.645  1.00  0.00     0.261 C 
BRANCH   2   3
ATOM      3  O   UNL A   1      33.802  29.744  26.468  1.00  0.00    -0.463 OA
BRANCH   3   4
ATOM      4  C   UNL A   1      32.750  28.915  26.713  1.00  0.00     0.310 C 
ATOM      5  O   UNL A   1      31.885  29.144  27.558  1.00  0.00    -0.252 OA
BRANCH   4   6
ATOM      6  C   UNL A   1      32.739  27.615  25.941  1.00  0.00     0.161 C 
BRANCH   6   7
ATOM      7  C   UNL A   1      31.424  27.017  25.509  1.00  0.00     0.000 A 
ATOM      8  C   UNL A   1      31.017  25.683  25.625  1.00  0.00     0.093 A 
ATOM      9  N   UNL A   1      29.743  25.613  25.099  1.00  0.00    -0.352 N 
ATOM     10  C   UNL A   1      29.452  26.758  24.392  1.00  0.00     0.046 A 
ATOM     11  H   UNL A   1      29.129  24.853  25.213  1.00  0.00     0.167 HD
ATOM     12  C   UNL A   1      30.475  27.663  24.652  1.00  0.00     0.008 A 
ATOM     13  C   UNL A   1      28.384  27.057  23.536  1.00  0.00     0.030 A 
ATOM     14  C   UNL A   1      30.440  28.917  24.011  1.00  0.00     0.057 A 
ATOM     15  C   UNL A   1      28.403  28.294  22.871  1.00  0.00     0.049 A 
ATOM     16  C   UNL A   1      29.429  29.213  23.086  1.00  0.00     0.130 A 
BRANCH   8  17
ATOM     17  C   UNL A   1      31.782  24.577  26.196  1.00  0.00     0.227 C 
ATOM     18  O   UNL A   1      31.578  24.182  27.343  1.00  0.00    -0.285 OA
BRANCH  17  19
ATOM     19  C   UNL A   1      32.890  23.912  25.442  1.00  0.00     0.113 A 
ATOM     20  C   UNL A   1      35.723  21.454  25.951  1.00  0.00     0.044 C 
ATOM     21  C   UNL A   1      34.725  22.373  25.315  1.00  0.00    -0.047 A 
ATOM     22  C   UNL A   1      34.590  22.401  23.923  1.00  0.00     0.023 A 
ATOM     23  C   UNL A   1      33.847  23.138  26.091  1.00  0.00     0.036 A 
ATOM     24  C   UNL A   1      33.623  23.218  23.363  1.00  0.00     0.112 A 
ATOM     25  N   UNL A   1      32.786  23.985  24.088  1.00  0.00    -0.253 NA
ENDBRANCH  17  19
ENDBRANCH   8  17
BRANCH  16  26
ATOM     26  O   UNL A   1      29.585  30.420  22.468  1.00  0.00    -0.406 OA
BRANCH  26  27
ATOM     27  C   UNL A   1      28.787  31.502  22.915  1.00  0.00     0.573 C 
ATOM     28  F   UNL A   1      29.152  32.664  22.332  1.00  0.00    -0.132 F 
ATOM     29  F   UNL A   1      27.481  31.266  22.670  1.00  0.00    -0.132 F 
ATOM     30  F   UNL A   1      28.949  31.635  24.251  1.00  0.00    -0.132 F 
ENDBRANCH  26  27
ENDBRANCH  16  26
ENDBRANCH   6   7
ENDBRANCH   4   6
ENDBRANCH   3   4
ENDBRANCH   2   3
ENDBRANCH   1   2
BRANCH   1  31
ATOM     31  O   UNL A   1      33.684  32.555  28.620  1.00  0.00    -0.374 OA
BRANCH  31  32
ATOM     32  C   UNL A   1      34.120  33.873  28.945  1.00  0.00     0.202 C 
BRANCH  32  33
ATOM     33  C   UNL A   1      34.280  34.207  30.435  1.00  0.00     0.261 C 
BRANCH  33  34
ATOM     34  O   UNL A   1      35.556  33.828  30.971  1.00  0.00    -0.460 OA
BRANCH  34  35
ATOM     35  C   UNL A   1      35.579  32.610  31.561  1.00  0.00     0.338 C 
ATOM     36  O   UNL A   1      34.732  32.110  32.289  1.00  0.00    -0.246 OA
BRANCH  35  37
ATOM     37  C   UNL A   1      36.738  31.850  31.070  1.00  0.00     0.060 A 
ATOM     38  C   UNL A   1      37.478  31.116  32.004  1.00  0.00     0.016 A 
ATOM     39  C   UNL A   1      37.116  31.887  29.726  1.00  0.00     0.016 A 
ATOM     40  C   UNL A   1      38.615  30.422  31.600  1.00  0.00     0.010 A 
ATOM     41  C   UNL A   1      38.265  31.203  29.325  1.00  0.00     0.010 A 
ATOM     42  C   UNL A   1      39.027  30.483  30.262  1.00  0.00    -0.014 A 
BRANCH  42  43
ATOM     43  C   UNL A   1      40.312  29.866  29.862  1.00  0.00     0.031 A 
ATOM     44  C   UNL A   1      41.568  30.686  29.931  1.00  0.00     0.074 A 
ATOM     45  C   UNL A   1      40.344  28.586  29.453  1.00  0.00     0.049 A 
ATOM     46  N   UNL A   1      42.786  30.368  29.580  1.00  0.00    -0.248 NA
ATOM     47  C   UNL A   1      41.432  32.050  30.466  1.00  0.00     0.031 C 
ATOM     48  C   UNL A   1      39.188  27.695  29.387  1.00  0.00     0.029 A 
ATOM     49  N   UNL A   1      41.389  27.818  29.005  1.00  0.00    -0.354 N 
ATOM     50  C   UNL A   1      43.559  31.491  29.842  1.00  0.00     0.074 A 
ATOM     51  C   UNL A   1      42.670  32.508  30.360  1.00  0.00     0.031 C 
ATOM     52  C   UNL A   1      39.585  26.500  28.916  1.00  0.00     0.029 A 
ATOM     53  C   UNL A   1      41.013  26.558  28.612  1.00  0.00     0.049 A 
ATOM     54  H   UNL A   1      42.319  28.139  28.971  1.00  0.00     0.167 HD
ATOM     55  C   UNL A   1      44.892  31.650  29.667  1.00  0.00     0.037 A 
ATOM     56  C   UNL A   1      41.738  25.577  28.042  1.00  0.00     0.037 A 
ATOM     57  C   UNL A   1      45.763  30.626  29.153  1.00  0.00     0.049 A 
ATOM     58  C   UNL A   1      43.205  25.814  27.784  1.00  0.00     0.074 A 
ATOM     59  C   UNL A   1      47.134  30.669  28.973  1.00  0.00     0.029 A 
ATOM     60  N   UNL A   1      45.341  29.375  28.724  1.00  0.00    -0.354 N 
ATOM     61  N   UNL A   1      43.938  26.862  28.074  1.00  0.00    -0.248 NA
ATOM     62  C   UNL A   1      43.943  24.733  27.116  1.00  0.00     0.031 C 
ATOM     63  C   UNL A   1      47.532  29.470  28.375  1.00  0.00     0.029 A 
ATOM     64  C   UNL A   1      46.419  28.654  28.238  1.00  0.00     0.049 A 
ATOM     65  H   UNL A   1      44.412  29.049  28.760  1.00  0.00     0.167 HD
ATOM     66  C   UNL A   1      45.224  26.559  27.646  1.00  0.00     0.074 A 
ATOM     67  C   UNL A   1      45.174  25.220  27.097  1.00  0.00     0.031 C 
ATOM     68  C   UNL A   1      46.346  27.321  27.697  1.00  0.00     0.037 A 
BRANCH  55  69
ATOM     69  C   UNL A   1      45.490  32.986  30.001  1.00  0.00     0.064 A 
ATOM     70  C   UNL A   1      45.572  34.020  29.057  1.00  0.00     0.173 A 
ATOM     71  C   UNL A   1      45.941  33.252  31.304  1.00  0.00     0.173 A 
ATOM     72  F   UNL A   1      45.167  33.815  27.794  1.00  0.00    -0.203 F 
ATOM     73  C   UNL A   1      46.099  35.263  29.400  1.00  0.00     0.198 A 
ATOM     74  C   UNL A   1      46.440  34.504  31.650  1.00  0.00     0.198 A 
ATOM     75  F   UNL A   1      45.884  32.299  32.246  1.00  0.00    -0.203 F 
ATOM     76  F   UNL A   1      46.202  36.225  28.471  1.00  0.00    -0.200 F 
ATOM     77  C   UNL A   1      46.524  35.507  30.697  1.00  0.00     0.200 A 
ATOM     78  F   UNL A   1      46.839  34.741  32.908  1.00  0.00    -0.200 F 
ATOM     79  F   UNL A   1      47.017  36.708  31.028  1.00  0.00    -0.200 F 
ENDBRANCH  55  69
BRANCH  56  80
ATOM     80  C   UNL A   1      41.093  24.293  27.653  1.00  0.00     0.064 A 
ATOM     81  C   UNL A   1      41.458  23.086  28.264  1.00  0.00     0.173 A 
ATOM     82  C   UNL A   1      40.123  24.243  26.641  1.00  0.00     0.173 A 
ATOM     83  F   UNL A   1      42.401  23.077  29.219  1.00  0.00    -0.203 F 
ATOM     84  C   UNL A   1      40.894  21.876  27.864  1.00  0.00     0.198 A 
ATOM     85  C   UNL A   1      39.535  23.036  26.265  1.00  0.00     0.198 A 
ATOM     86  F   UNL A   1      39.738  25.367  26.021  1.00  0.00    -0.203 F 
ATOM     87  F   UNL A   1      41.303  20.731  28.427  1.00  0.00    -0.200 F 
ATOM     88  C   UNL A   1      39.930  21.852  26.868  1.00  0.00     0.200 A 
ATOM     89  F   UNL A   1      38.595  23.021  25.310  1.00  0.00    -0.200 F 
ATOM     90  F   UNL A   1      39.389  20.689  26.482  1.00  0.00    -0.200 F 
ENDBRANCH  56  80
BRANCH  68  91
ATOM     91  C   UNL A   1      47.611  26.715  27.161  1.00  0.00     0.064 A 
ATOM     92  C   UNL A   1      48.047  26.965  25.852  1.00  0.00     0.173 A 
ATOM     93  C   UNL A   1      48.419  25.914  27.983  1.00  0.00     0.173 A 
ATOM     94  F   UNL A   1      47.303  27.711  25.023  1.00  0.00    -0.203 F 
ATOM     95  C   UNL A   1      49.234  26.412  25.375  1.00  0.00     0.198 A 
ATOM     96  C   UNL A   1      49.621  25.392  27.514  1.00  0.00     0.198 A 
ATOM     97  F   UNL A   1      48.052  25.652  29.246  1.00  0.00    -0.203 F 
ATOM     98  F   UNL A   1      49.605  26.622  24.105  1.00  0.00    -0.200 F 
ATOM     99  C   UNL A   1      50.023  25.635  26.209  1.00  0.00     0.200 A 
ATOM    100  F   UNL A   1      50.392  24.656  28.326  1.00  0.00    -0.200 F 
ATOM    101  F   UNL A   1      51.169  25.113  25.753  1.00  0.00    -0.200 F 
ENDBRANCH  68  91
ENDBRANCH  42  43
ENDBRANCH  35  37
ENDBRANCH  34  35
ENDBRANCH  33  34
ENDBRANCH  32  33
ENDBRANCH  31  32
ENDBRANCH   1  31
TORSDOF 19
ENDMDL
MODEL 3
REMARK VINA RESULT:     -11.4      0.831      7.135
REMARK SMILES Cc1ccnc(C(=O)c2[nH]c3ccc(OC(F)(F)F)cc3c2CC(=O)OCCOCCOC(=O)c2ccc(-c3c4nc(c(-c5c(F)c(F)c(F)c(F)c5F)c5ccc([nH]5)c(-c5c(F)c(F)c(F)c(F)c5F)c5nc(c(-c6c(F)c(F)c(F)c(F)c6F)c6ccc3[nH]6)C=C5)C=C4)cc2)c1
REMARK SMILES IDX 28 1 27 2 26 3 24 4 25 5 23 6 22 7 9 8 10 9 11 10 21 12
REMARK SMILES IDX 12 13 20 14 13 15 14 16 7 17 8 18 6 19 1 20 2 21 3 22 98 23
REMARK SMILES IDX 4 24 5 25 15 26 16 27 17 28 18 29 19 30 29 31 30 32 31 33
REMARK SMILES IDX 32 34 33 35 34 36 35 37 36 38 97 39 37 40 96 41 38 42 39 43
REMARK SMILES IDX 40 44 90 45 41 46 95 47 89 48 91 49 42 50 94 51 88 52 87 53
REMARK SMILES IDX 43 55 75 56 55 57 74 58 56 59 59 60 73 61 92 62 57 63 58 64
REMARK SMILES IDX 72 66 93 67 60 68 44 69 45 70 53 71 46 72 47 73 51 74 54 75
REMARK SMILES IDX 48 76 49 77 52 78 50 79 76 80 77 81 85 82 78 83 79 84 83 85
REMARK SMILES IDX 86 86 80 87 81 88 84 89 82 90 61 91 62 92 70 93 63 94 64 95
REMARK SMILES IDX 68 96 71 97 65 98 66 99 69 100 67 101
REMARK H PARENT 10 11 91 54 59 65
REMARK Flexibility Score: inf
ROOT
ATOM      1  C   UNL A   1      38.758  23.154  26.453  1.00  0.00     0.202 C 
ENDROOT
BRANCH   1   2
ATOM      2  C   UNL A   1      37.573  23.621  25.600  1.00  0.00     0.261 C 
BRANCH   2   3
ATOM      3  O   UNL A   1      36.411  23.984  26.378  1.00  0.00    -0.463 OA
BRANCH   3   4
ATOM      4  C   UNL A   1      35.262  24.127  25.661  1.00  0.00     0.310 C 
ATOM      5  O   UNL A   1      34.146  24.212  26.172  1.00  0.00    -0.252 OA
BRANCH   4   6
ATOM      6  C   UNL A   1      35.412  24.085  24.156  1.00  0.00     0.161 C 
BRANCH   6   7
ATOM      7  C   UNL A   1      34.278  23.567  23.309  1.00  0.00     0.000 A 
ATOM      8  C   UNL A   1      33.391  24.315  22.526  1.00  0.00     0.093 A 
ATOM      9  N   UNL A   1      32.532  23.410  21.934  1.00  0.00    -0.352 N 
ATOM     10  C   UNL A   1      32.644  22.177  22.534  1.00  0.00     0.046 A 
ATOM     11  H   UNL A   1      31.926  23.618  21.187  1.00  0.00     0.167 HD
ATOM     12  C   UNL A   1      33.745  22.240  23.381  1.00  0.00     0.008 A 
ATOM     13  C   UNL A   1      31.854  21.026  22.412  1.00  0.00     0.030 A 
ATOM     14  C   UNL A   1      34.060  21.106  24.157  1.00  0.00     0.057 A 
ATOM     15  C   UNL A   1      32.161  19.930  23.236  1.00  0.00     0.049 A 
ATOM     16  C   UNL A   1      33.240  19.970  24.117  1.00  0.00     0.130 A 
BRANCH   8  17
ATOM     17  C   UNL A   1      33.374  25.766  22.359  1.00  0.00     0.227 C 
ATOM     18  O   UNL A   1      33.649  26.289  21.280  1.00  0.00    -0.285 OA
BRANCH  17  19
ATOM     19  C   UNL A   1      33.084  26.688  23.501  1.00  0.00     0.113 A 
ATOM     20  C   UNL A   1      31.127  26.823  26.739  1.00  0.00     0.044 C 
ATOM     21  C   UNL A   1      32.065  27.161  25.620  1.00  0.00    -0.047 A 
ATOM     22  C   UNL A   1      32.958  28.228  25.757  1.00  0.00     0.023 A 
ATOM     23  C   UNL A   1      32.138  26.366  24.470  1.00  0.00     0.036 A 
ATOM     24  C   UNL A   1      33.851  28.486  24.731  1.00  0.00     0.112 A 
ATOM     25  N   UNL A   1      33.920  27.754  23.603  1.00  0.00    -0.253 NA
ENDBRANCH  17  19
ENDBRANCH   8  17
BRANCH  16  26
ATOM     26  O   UNL A   1      33.609  18.995  24.999  1.00  0.00    -0.406 OA
BRANCH  26  27
ATOM     27  C   UNL A   1      33.725  17.670  24.511  1.00  0.00     0.573 C 
ATOM     28  F   UNL A   1      32.549  17.010  24.576  1.00  0.00    -0.132 F 
ATOM     29  F   UNL A   1      34.174  17.666  23.238  1.00  0.00    -0.132 F 
ATOM     30  F   UNL A   1      34.620  17.005  25.275  1.00  0.00    -0.132 F 
ENDBRANCH  26  27
ENDBRANCH  16  26
ENDBRANCH   6   7
ENDBRANCH   4   6
ENDBRANCH   3   4
ENDBRANCH   2   3
ENDBRANCH   1   2
BRANCH   1  31
ATOM     31  O   UNL A   1      39.546  22.065  25.976  1.00  0.00    -0.374 OA
BRANCH  31  32
ATOM     32  C   UNL A   1      38.901  20.798  25.879  1.00  0.00     0.202 C 
BRANCH  32  33
ATOM     33  C   UNL A   1      39.784  19.589  25.542  1.00  0.00     0.261 C 
BRANCH  33  34
ATOM     34  O   UNL A   1      40.754  19.291  26.557  1.00  0.00    -0.460 OA
BRANCH  34  35
ATOM     35  C   UNL A   1      42.042  19.392  26.151  1.00  0.00     0.338 C 
ATOM     36  O   UNL A   1      42.702  18.568  25.533  1.00  0.00    -0.246 OA
BRANCH  35  37
ATOM     37  C   UNL A   1      42.534  20.751  26.421  1.00  0.00     0.060 A 
ATOM     38  C   UNL A   1      42.507  21.202  27.746  1.00  0.00     0.016 A 
ATOM     39  C   UNL A   1      42.978  21.582  25.391  1.00  0.00     0.016 A 
ATOM     40  C   UNL A   1      42.914  22.498  28.048  1.00  0.00     0.010 A 
ATOM     41  C   UNL A   1      43.371  22.887  25.693  1.00  0.00     0.010 A 
ATOM     42  C   UNL A   1      43.323  23.355  27.018  1.00  0.00    -0.014 A 
BRANCH  42  43
ATOM     43  C   UNL A   1      43.616  24.775  27.318  1.00  0.00     0.031 A 
ATOM     44  C   UNL A   1      45.024  25.276  27.176  1.00  0.00     0.074 A 
ATOM     45  C   UNL A   1      42.626  25.598  27.703  1.00  0.00     0.049 A 
ATOM     46  N   UNL A   1      45.514  26.459  27.437  1.00  0.00    -0.248 NA
ATOM     47  C   UNL A   1      46.015  24.310  26.674  1.00  0.00     0.031 C 
ATOM     48  C   UNL A   1      41.220  25.220  27.835  1.00  0.00     0.029 A 
ATOM     49  N   UNL A   1      42.655  26.922  28.065  1.00  0.00    -0.354 N 
ATOM     50  C   UNL A   1      46.867  26.380  27.140  1.00  0.00     0.074 A 
ATOM     51  C   UNL A   1      47.129  25.027  26.702  1.00  0.00     0.031 C 
ATOM     52  C   UNL A   1      40.519  26.286  28.258  1.00  0.00     0.029 A 
ATOM     53  C   UNL A   1      41.434  27.407  28.463  1.00  0.00     0.049 A 
ATOM     54  H   UNL A   1      43.471  27.470  28.040  1.00  0.00     0.167 HD
ATOM     55  C   UNL A   1      47.802  27.356  27.225  1.00  0.00     0.037 A 
ATOM     56  C   UNL A   1      41.104  28.612  28.965  1.00  0.00     0.037 A 
ATOM     57  C   UNL A   1      47.524  28.700  27.660  1.00  0.00     0.049 A 
ATOM     58  C   UNL A   1      42.183  29.653  29.124  1.00  0.00     0.074 A 
ATOM     59  C   UNL A   1      48.389  29.776  27.746  1.00  0.00     0.029 A 
ATOM     60  N   UNL A   1      46.284  29.146  28.097  1.00  0.00    -0.354 N 
ATOM     61  N   UNL A   1      43.453  29.586  28.801  1.00  0.00    -0.248 NA
ATOM     62  C   UNL A   1      41.784  30.935  29.722  1.00  0.00     0.031 C 
ATOM     63  C   UNL A   1      47.689  30.854  28.295  1.00  0.00     0.029 A 
ATOM     64  C   UNL A   1      46.372  30.469  28.495  1.00  0.00     0.049 A 
ATOM     65  H   UNL A   1      45.464  28.601  28.120  1.00  0.00     0.167 HD
ATOM     66  C   UNL A   1      43.997  30.819  29.134  1.00  0.00     0.074 A 
ATOM     67  C   UNL A   1      42.915  31.622  29.663  1.00  0.00     0.031 C 
ATOM     68  C   UNL A   1      45.279  31.249  29.019  1.00  0.00     0.037 A 
BRANCH  55  69
ATOM     69  C   UNL A   1      49.219  27.005  26.872  1.00  0.00     0.064 A 
ATOM     70  C   UNL A   1      50.150  26.609  27.843  1.00  0.00     0.173 A 
ATOM     71  C   UNL A   1      49.636  27.016  25.532  1.00  0.00     0.173 A 
ATOM     72  F   UNL A   1      49.807  26.593  29.141  1.00  0.00    -0.203 F 
ATOM     73  C   UNL A   1      51.449  26.254  27.489  1.00  0.00     0.198 A 
ATOM     74  C   UNL A   1      50.927  26.634  25.177  1.00  0.00     0.198 A 
ATOM     75  F   UNL A   1      48.786  27.386  24.562  1.00  0.00    -0.203 F 
ATOM     76  F   UNL A   1      52.333  25.914  28.438  1.00  0.00    -0.200 F 
ATOM     77  C   UNL A   1      51.833  26.258  26.156  1.00  0.00     0.200 A 
ATOM     78  F   UNL A   1      51.291  26.626  23.888  1.00  0.00    -0.200 F 
ATOM     79  F   UNL A   1      53.080  25.902  25.815  1.00  0.00    -0.200 F 
ENDBRANCH  55  69
BRANCH  56  80
ATOM     80  C   UNL A   1      39.703  28.898  29.376  1.00  0.00     0.064 A 
ATOM     81  C   UNL A   1      39.266  28.642  30.683  1.00  0.00     0.173 A 
ATOM     82  C   UNL A   1      38.764  29.403  28.464  1.00  0.00     0.173 A 
ATOM     83  F   UNL A   1      40.118  28.134  31.587  1.00  0.00    -0.203 F 
ATOM     84  C   UNL A   1      37.940  28.858  31.056  1.00  0.00     0.198 A 
ATOM     85  C   UNL A   1      37.447  29.651  28.846  1.00  0.00     0.198 A 
ATOM     86  F   UNL A   1      39.127  29.664  27.200  1.00  0.00    -0.203 F 
ATOM     87  F   UNL A   1      37.537  28.551  32.296  1.00  0.00    -0.200 F 
ATOM     88  C   UNL A   1      37.033  29.367  30.139  1.00  0.00     0.200 A 
ATOM     89  F   UNL A   1      36.578  30.154  27.959  1.00  0.00    -0.200 F 
ATOM     90  F   UNL A   1      35.758  29.573  30.496  1.00  0.00    -0.200 F 
ENDBRANCH  56  80
BRANCH  68  91
ATOM     91  C   UNL A   1      45.573  32.655  29.455  1.00  0.00     0.064 A 
ATOM     92  C   UNL A   1      45.427  33.741  28.579  1.00  0.00     0.173 A 
ATOM     93  C   UNL A   1      45.962  32.924  30.777  1.00  0.00     0.173 A 
ATOM     94  F   UNL A   1      45.072  33.536  27.302  1.00  0.00    -0.203 F 
ATOM     95  C   UNL A   1      45.683  35.043  29.003  1.00  0.00     0.198 A 
ATOM     96  C   UNL A   1      46.184  34.229  31.206  1.00  0.00     0.198 A 
ATOM     97  F   UNL A   1      46.108  31.922  31.657  1.00  0.00    -0.203 F 
ATOM     98  F   UNL A   1      45.586  36.059  28.136  1.00  0.00    -0.200 F 
ATOM     99  C   UNL A   1      46.053  35.285  30.318  1.00  0.00     0.200 A 
ATOM    100  F   UNL A   1      46.524  34.464  32.481  1.00  0.00    -0.200 F 
ATOM    101  F   UNL A   1      46.289  36.539  30.727  1.00  0.00    -0.200 F 
ENDBRANCH  68  91
ENDBRANCH  42  43
ENDBRANCH  35  37
ENDBRANCH  34  35
ENDBRANCH  33  34
ENDBRANCH  32  33
ENDBRANCH  31  32
ENDBRANCH   1  31
TORSDOF 19
ENDMDL
