MODEL 1
REMARK VINA RESULT:     -12.1      0.000      0.000
REMARK SMILES Cc1c(CC(=O)OCCOCCOC(=O)c2ccc(-c3c4nc(c(-c5c(F)c(F)c(F)c(F)c5F)c5ccc([nH]5)c(-c5c(F)c(F)c(F)c(F)c5F)c5nc(c(-c6c(F)c(F)c(F)c(F)c6F)c6ccc3[nH]6)C=C5)C=C4)cc2)c2ccccc2n1C(=O)c1ccc(Cl)cc1
REMARK SMILES IDX 9 1 8 2 7 3 5 4 6 5 4 6 3 7 1 8 2 9 85 10 79 11 84 12 80 13
REMARK SMILES IDX 83 14 81 15 82 16 86 17 87 18 88 19 89 20 94 21 90 22 93 23
REMARK SMILES IDX 91 24 92 25 10 26 11 27 12 28 13 29 14 30 15 31 16 32 17 33
REMARK SMILES IDX 78 34 18 35 77 36 19 37 20 38 21 39 71 40 22 41 76 42 70 43
REMARK SMILES IDX 72 44 23 45 75 46 69 47 68 48 24 50 56 51 36 52 55 53 37 54
REMARK SMILES IDX 40 55 54 56 73 57 38 58 39 59 53 61 74 62 41 63 25 64 26 65
REMARK SMILES IDX 34 66 27 67 28 68 32 69 35 70 29 71 30 72 33 73 31 74 57 75
REMARK SMILES IDX 58 76 66 77 59 78 60 79 64 80 67 81 61 82 62 83 65 84 63 85
REMARK SMILES IDX 42 86 43 87 51 88 44 89 45 90 49 91 52 92 46 93 47 94 50 95
REMARK SMILES IDX 48 96
REMARK H PARENT 72 49 40 60
REMARK Flexibility Score: inf
ROOT
ATOM      1  C   UNL A   1      45.457  20.471  24.663  1.00  0.00     0.202 C 
ENDROOT
BRANCH   1   2
ATOM      2  C   UNL A   1      44.260  19.521  24.836  1.00  0.00     0.261 C 
BRANCH   2   3
ATOM      3  O   UNL A   1      43.050  20.130  25.318  1.00  0.00    -0.463 OA
BRANCH   3   4
ATOM      4  C   UNL A   1      42.302  19.330  26.126  1.00  0.00     0.310 C 
ATOM      5  O   UNL A   1      42.296  18.101  26.055  1.00  0.00    -0.252 OA
BRANCH   4   6
ATOM      6  C   UNL A   1      41.438  20.036  27.147  1.00  0.00     0.160 C 
BRANCH   6   7
ATOM      7  C   UNL A   1      40.412  21.045  26.697  1.00  0.00    -0.008 A 
ATOM      8  C   UNL A   1      38.858  19.482  25.353  1.00  0.00     0.065 C 
ATOM      9  C   UNL A   1      39.283  20.803  25.922  1.00  0.00     0.028 A 
ATOM     10  N   UNL A   1      38.551  21.996  25.775  1.00  0.00    -0.280 N 
ATOM     11  C   UNL A   1      40.326  22.401  27.134  1.00  0.00     0.004 A 
ATOM     12  C   UNL A   1      39.215  22.990  26.520  1.00  0.00     0.056 A 
ATOM     13  C   UNL A   1      41.112  23.177  28.021  1.00  0.00     0.010 A 
ATOM     14  C   UNL A   1      38.944  24.361  26.742  1.00  0.00     0.027 A 
ATOM     15  C   UNL A   1      40.856  24.536  28.200  1.00  0.00     0.001 A 
ATOM     16  C   UNL A   1      39.788  25.124  27.552  1.00  0.00     0.002 A 
BRANCH  10  17
ATOM     17  C   UNL A   1      37.335  22.154  25.038  1.00  0.00     0.262 C 
ATOM     18  O   UNL A   1      37.322  21.905  23.834  1.00  0.00    -0.268 OA
BRANCH  17  19
ATOM     19  C   UNL A   1      36.047  22.587  25.602  1.00  0.00     0.040 A 
ATOM     20  C   UNL A   1      35.319  21.716  26.421  1.00  0.00     0.015 A 
ATOM     21  C   UNL A   1      35.559  23.863  25.300  1.00  0.00     0.015 A 
ATOM     22  C   UNL A   1      34.050  22.095  26.864  1.00  0.00     0.021 A 
ATOM     23  C   UNL A   1      34.295  24.242  25.760  1.00  0.00     0.021 A 
ATOM     24  C   UNL A   1      33.538  23.349  26.521  1.00  0.00     0.041 A 
ATOM     25  Cl  UNL A   1      31.952  23.786  27.020  1.00  0.00    -0.084 Cl
ENDBRANCH  17  19
ENDBRANCH  10  17
ENDBRANCH   6   7
ENDBRANCH   4   6
ENDBRANCH   3   4
ENDBRANCH   2   3
ENDBRANCH   1   2
BRANCH   1  26
ATOM     26  O   UNL A   1      45.940  21.244  25.753  1.00  0.00    -0.374 OA
BRANCH  26  27
ATOM     27  C   UNL A   1      45.990  22.660  25.589  1.00  0.00     0.202 C 
BRANCH  27  28
ATOM     28  C   UNL A   1      45.288  23.320  24.387  1.00  0.00     0.261 C 
BRANCH  28  29
ATOM     29  O   UNL A   1      44.785  24.620  24.696  1.00  0.00    -0.460 OA
BRANCH  29  30
ATOM     30  C   UNL A   1      43.482  24.640  25.075  1.00  0.00     0.338 C 
ATOM     31  O   UNL A   1      42.722  23.693  25.217  1.00  0.00    -0.246 OA
BRANCH  30  32
ATOM     32  C   UNL A   1      43.311  25.959  25.696  1.00  0.00     0.060 A 
ATOM     33  C   UNL A   1      43.923  26.232  26.921  1.00  0.00     0.016 A 
ATOM     34  C   UNL A   1      42.238  26.730  25.218  1.00  0.00     0.016 A 
ATOM     35  C   UNL A   1      43.385  27.231  27.716  1.00  0.00     0.010 A 
ATOM     36  C   UNL A   1      41.691  27.718  26.027  1.00  0.00     0.010 A 
ATOM     37  C   UNL A   1      42.245  27.943  27.287  1.00  0.00    -0.014 A 
BRANCH  37  38
ATOM     38  C   UNL A   1      41.864  29.109  28.081  1.00  0.00     0.031 A 
ATOM     39  C   UNL A   1      42.870  30.193  27.930  1.00  0.00     0.074 A 
ATOM     40  C   UNL A   1      40.721  29.304  28.769  1.00  0.00     0.049 A 
ATOM     41  N   UNL A   1      43.650  30.679  28.837  1.00  0.00    -0.248 NA
ATOM     42  C   UNL A   1      43.162  30.666  26.565  1.00  0.00     0.031 C 
ATOM     43  C   UNL A   1      39.509  28.486  28.753  1.00  0.00     0.029 A 
ATOM     44  N   UNL A   1      40.371  30.356  29.575  1.00  0.00    -0.354 N 
ATOM     45  C   UNL A   1      44.409  31.649  28.189  1.00  0.00     0.074 A 
ATOM     46  C   UNL A   1      44.194  31.480  26.779  1.00  0.00     0.031 C 
ATOM     47  C   UNL A   1      38.494  29.179  29.325  1.00  0.00     0.029 A 
ATOM     48  C   UNL A   1      39.014  30.424  29.870  1.00  0.00     0.049 A 
ATOM     49  H   UNL A   1      41.025  31.009  29.915  1.00  0.00     0.167 HD
ATOM     50  C   UNL A   1      44.930  32.696  28.883  1.00  0.00     0.037 A 
ATOM     51  C   UNL A   1      38.368  31.455  30.472  1.00  0.00     0.037 A 
ATOM     52  C   UNL A   1      44.927  32.442  30.297  1.00  0.00     0.049 A 
ATOM     53  C   UNL A   1      39.368  32.242  31.231  1.00  0.00     0.074 A 
ATOM     54  C   UNL A   1      45.716  31.774  31.204  1.00  0.00     0.029 A 
ATOM     55  N   UNL A   1      43.718  32.663  30.891  1.00  0.00    -0.354 N 
ATOM     56  N   UNL A   1      39.977  31.807  32.296  1.00  0.00    -0.248 NA
ATOM     57  C   UNL A   1      39.911  33.466  30.649  1.00  0.00     0.031 C 
ATOM     58  C   UNL A   1      44.886  31.496  32.333  1.00  0.00     0.029 A 
ATOM     59  C   UNL A   1      43.620  32.020  32.094  1.00  0.00     0.049 A 
ATOM     60  H   UNL A   1      43.003  33.217  30.501  1.00  0.00     0.167 HD
ATOM     61  C   UNL A   1      41.198  32.444  32.264  1.00  0.00     0.074 A 
ATOM     62  C   UNL A   1      41.033  33.574  31.365  1.00  0.00     0.031 C 
ATOM     63  C   UNL A   1      42.323  31.802  32.685  1.00  0.00     0.037 A 
BRANCH  50  64
ATOM     64  C   UNL A   1      44.969  34.108  28.348  1.00  0.00     0.064 A 
ATOM     65  C   UNL A   1      46.206  34.771  28.244  1.00  0.00     0.173 A 
ATOM     66  C   UNL A   1      43.825  34.932  28.236  1.00  0.00     0.173 A 
ATOM     67  F   UNL A   1      47.356  34.095  28.384  1.00  0.00    -0.203 F 
ATOM     68  C   UNL A   1      46.289  36.158  28.079  1.00  0.00     0.198 A 
ATOM     69  C   UNL A   1      43.911  36.305  28.015  1.00  0.00     0.198 A 
ATOM     70  F   UNL A   1      42.590  34.469  28.457  1.00  0.00    -0.203 F 
ATOM     71  F   UNL A   1      47.486  36.760  28.095  1.00  0.00    -0.200 F 
ATOM     72  C   UNL A   1      45.142  36.922  27.962  1.00  0.00     0.200 A 
ATOM     73  F   UNL A   1      42.787  37.030  27.938  1.00  0.00    -0.200 F 
ATOM     74  F   UNL A   1      45.217  38.255  27.849  1.00  0.00    -0.200 F 
ENDBRANCH  50  64
BRANCH  51  75
ATOM     75  C   UNL A   1      36.997  31.988  30.274  1.00  0.00     0.064 A 
ATOM     76  C   UNL A   1      36.039  31.893  31.303  1.00  0.00     0.173 A 
ATOM     77  C   UNL A   1      36.710  32.892  29.236  1.00  0.00     0.173 A 
ATOM     78  F   UNL A   1      36.241  31.069  32.342  1.00  0.00    -0.203 F 
ATOM     79  C   UNL A   1      34.908  32.715  31.334  1.00  0.00     0.198 A 
ATOM     80  C   UNL A   1      35.575  33.705  29.265  1.00  0.00     0.198 A 
ATOM     81  F   UNL A   1      37.580  33.084  28.235  1.00  0.00    -0.203 F 
ATOM     82  F   UNL A   1      34.074  32.664  32.383  1.00  0.00    -0.200 F 
ATOM     83  C   UNL A   1      34.688  33.635  30.325  1.00  0.00     0.200 A 
ATOM     84  F   UNL A   1      35.384  34.613  28.298  1.00  0.00    -0.200 F 
ATOM     85  F   UNL A   1      33.654  34.485  30.398  1.00  0.00    -0.200 F 
ENDBRANCH  51  75
BRANCH  63  86
ATOM     86  C   UNL A   1      42.157  30.698  33.675  1.00  0.00     0.064 A 
ATOM     87  C   UNL A   1      41.996  29.346  33.337  1.00  0.00     0.173 A 
ATOM     88  C   UNL A   1      42.229  31.029  35.034  1.00  0.00     0.173 A 
ATOM     89  F   UNL A   1      41.987  28.949  32.057  1.00  0.00    -0.203 F 
ATOM     90  C   UNL A   1      41.882  28.371  34.328  1.00  0.00     0.198 A 
ATOM     91  C   UNL A   1      42.151  30.052  36.018  1.00  0.00     0.198 A 
ATOM     92  F   UNL A   1      42.412  32.306  35.406  1.00  0.00    -0.203 F 
ATOM     93  F   UNL A   1      41.713  27.084  33.989  1.00  0.00    -0.200 F 
ATOM     94  C   UNL A   1      41.968  28.725  35.666  1.00  0.00     0.200 A 
ATOM     95  F   UNL A   1      42.274  30.394  37.307  1.00  0.00    -0.200 F 
ATOM     96  F   UNL A   1      41.897  27.783  36.617  1.00  0.00    -0.200 F 
ENDBRANCH  63  86
ENDBRANCH  37  38
ENDBRANCH  30  32
ENDBRANCH  29  30
ENDBRANCH  28  29
ENDBRANCH  27  28
ENDBRANCH  26  27
ENDBRANCH   1  26
TORSDOF 17
ENDMDL
MODEL 2
REMARK VINA RESULT:     -11.7      3.178      5.786
REMARK SMILES Cc1c(CC(=O)OCCOCCOC(=O)c2ccc(-c3c4nc(c(-c5c(F)c(F)c(F)c(F)c5F)c5ccc([nH]5)c(-c5c(F)c(F)c(F)c(F)c5F)c5nc(c(-c6c(F)c(F)c(F)c(F)c6F)c6ccc3[nH]6)C=C5)C=C4)cc2)c2ccccc2n1C(=O)c1ccc(Cl)cc1
REMARK SMILES IDX 9 1 8 2 7 3 5 4 6 5 4 6 3 7 1 8 2 9 85 10 79 11 84 12 80 13
REMARK SMILES IDX 83 14 81 15 82 16 86 17 87 18 88 19 89 20 94 21 90 22 93 23
REMARK SMILES IDX 91 24 92 25 10 26 11 27 12 28 13 29 14 30 15 31 16 32 17 33
REMARK SMILES IDX 78 34 18 35 77 36 19 37 20 38 21 39 71 40 22 41 76 42 70 43
REMARK SMILES IDX 72 44 23 45 75 46 69 47 68 48 24 50 56 51 36 52 55 53 37 54
REMARK SMILES IDX 40 55 54 56 73 57 38 58 39 59 53 61 74 62 41 63 25 64 26 65
REMARK SMILES IDX 34 66 27 67 28 68 32 69 35 70 29 71 30 72 33 73 31 74 57 75
REMARK SMILES IDX 58 76 66 77 59 78 60 79 64 80 67 81 61 82 62 83 65 84 63 85
REMARK SMILES IDX 42 86 43 87 51 88 44 89 45 90 49 91 52 92 46 93 47 94 50 95
REMARK SMILES IDX 48 96
REMARK H PARENT 72 49 40 60
REMARK Flexibility Score: inf
ROOT
ATOM      1  C   UNL A   1      35.856  22.949  23.512  1.00  0.00     0.202 C 
ENDROOT
BRANCH   1   2
ATOM      2  C   UNL A   1      34.338  23.100  23.314  1.00  0.00     0.261 C 
BRANCH   2   3
ATOM      3  O   UNL A   1      33.931  23.693  22.068  1.00  0.00    -0.463 OA
BRANCH   3   4
ATOM      4  C   UNL A   1      33.305  24.894  22.196  1.00  0.00     0.310 C 
ATOM      5  O   UNL A   1      33.657  25.914  21.606  1.00  0.00    -0.252 OA
BRANCH   4   6
ATOM      6  C   UNL A   1      32.122  24.931  23.137  1.00  0.00     0.160 C 
BRANCH   6   7
ATOM      7  C   UNL A   1      31.883  26.144  24.000  1.00  0.00    -0.008 A 
ATOM      8  C   UNL A   1      33.277  25.463  26.063  1.00  0.00     0.065 C 
ATOM      9  C   UNL A   1      32.393  26.380  25.272  1.00  0.00     0.028 A 
ATOM     10  N   UNL A   1      31.986  27.655  25.711  1.00  0.00    -0.280 N 
ATOM     11  C   UNL A   1      31.230  27.346  23.591  1.00  0.00     0.004 A 
ATOM     12  C   UNL A   1      31.250  28.244  24.665  1.00  0.00     0.056 A 
ATOM     13  C   UNL A   1      30.625  27.745  22.374  1.00  0.00     0.010 A 
ATOM     14  C   UNL A   1      30.605  29.496  24.535  1.00  0.00     0.027 A 
ATOM     15  C   UNL A   1      29.960  28.967  22.273  1.00  0.00     0.001 A 
ATOM     16  C   UNL A   1      29.940  29.828  23.352  1.00  0.00     0.002 A 
BRANCH  10  17
ATOM     17  C   UNL A   1      32.301  28.252  26.972  1.00  0.00     0.262 C 
ATOM     18  O   UNL A   1      31.729  27.859  27.987  1.00  0.00    -0.268 OA
BRANCH  17  19
ATOM     19  C   UNL A   1      33.290  29.321  27.185  1.00  0.00     0.040 A 
ATOM     20  C   UNL A   1      34.646  28.999  27.309  1.00  0.00     0.015 A 
ATOM     21  C   UNL A   1      32.857  30.649  27.273  1.00  0.00     0.015 A 
ATOM     22  C   UNL A   1      35.563  30.007  27.618  1.00  0.00     0.021 A 
ATOM     23  C   UNL A   1      33.783  31.655  27.566  1.00  0.00     0.021 A 
ATOM     24  C   UNL A   1      35.126  31.326  27.758  1.00  0.00     0.041 A 
ATOM     25  Cl  UNL A   1      36.250  32.553  28.194  1.00  0.00    -0.084 Cl
ENDBRANCH  17  19
ENDBRANCH  10  17
ENDBRANCH   6   7
ENDBRANCH   4   6
ENDBRANCH   3   4
ENDBRANCH   2   3
ENDBRANCH   1   2
BRANCH   1  26
ATOM     26  O   UNL A   1      36.403  22.693  24.797  1.00  0.00    -0.374 OA
BRANCH  26  27
ATOM     27  C   UNL A   1      37.113  21.470  24.982  1.00  0.00     0.202 C 
BRANCH  27  28
ATOM     28  C   UNL A   1      38.567  21.494  25.492  1.00  0.00     0.261 C 
BRANCH  28  29
ATOM     29  O   UNL A   1      38.923  22.750  26.069  1.00  0.00    -0.460 OA
BRANCH  29  30
ATOM     30  C   UNL A   1      40.198  22.813  26.529  1.00  0.00     0.338 C 
ATOM     31  O   UNL A   1      41.210  22.363  26.013  1.00  0.00    -0.246 OA
BRANCH  30  32
ATOM     32  C   UNL A   1      40.166  23.894  27.522  1.00  0.00     0.060 A 
ATOM     33  C   UNL A   1      39.083  24.776  27.550  1.00  0.00     0.016 A 
ATOM     34  C   UNL A   1      41.395  24.213  28.124  1.00  0.00     0.016 A 
ATOM     35  C   UNL A   1      39.272  26.030  28.108  1.00  0.00     0.010 A 
ATOM     36  C   UNL A   1      41.583  25.478  28.665  1.00  0.00     0.010 A 
ATOM     37  C   UNL A   1      40.532  26.395  28.625  1.00  0.00    -0.014 A 
BRANCH  37  38
ATOM     38  C   UNL A   1      40.595  27.647  29.375  1.00  0.00     0.031 A 
ATOM     39  C   UNL A   1      41.577  28.576  28.758  1.00  0.00     0.074 A 
ATOM     40  C   UNL A   1      39.817  28.034  30.406  1.00  0.00     0.049 A 
ATOM     41  N   UNL A   1      42.684  29.007  29.264  1.00  0.00    -0.248 NA
ATOM     42  C   UNL A   1      41.386  28.923  27.338  1.00  0.00     0.031 C 
ATOM     43  C   UNL A   1      38.609  27.385  30.916  1.00  0.00     0.029 A 
ATOM     44  N   UNL A   1      39.900  29.170  31.169  1.00  0.00    -0.354 N 
ATOM     45  C   UNL A   1      43.242  29.827  28.287  1.00  0.00     0.074 A 
ATOM     46  C   UNL A   1      42.501  29.604  27.077  1.00  0.00     0.031 C 
ATOM     47  C   UNL A   1      37.956  28.240  31.740  1.00  0.00     0.029 A 
ATOM     48  C   UNL A   1      38.766  29.435  31.926  1.00  0.00     0.049 A 
ATOM     49  H   UNL A   1      40.697  29.748  31.179  1.00  0.00     0.167 HD
ATOM     50  C   UNL A   1      44.086  30.835  28.631  1.00  0.00     0.037 A 
ATOM     51  C   UNL A   1      38.499  30.577  32.610  1.00  0.00     0.037 A 
ATOM     52  C   UNL A   1      44.584  30.669  29.968  1.00  0.00     0.049 A 
ATOM     53  C   UNL A   1      39.783  31.268  32.867  1.00  0.00     0.074 A 
ATOM     54  C   UNL A   1      45.582  29.958  30.593  1.00  0.00     0.029 A 
ATOM     55  N   UNL A   1      43.712  31.085  30.933  1.00  0.00    -0.354 N 
ATOM     56  N   UNL A   1      40.697  30.821  33.680  1.00  0.00    -0.248 NA
ATOM     57  C   UNL A   1      40.192  32.372  32.003  1.00  0.00     0.031 C 
ATOM     58  C   UNL A   1      45.209  29.861  31.969  1.00  0.00     0.029 A 
ATOM     59  C   UNL A   1      44.005  30.534  32.151  1.00  0.00     0.049 A 
ATOM     60  H   UNL A   1      42.964  31.704  30.773  1.00  0.00     0.167 HD
ATOM     61  C   UNL A   1      41.877  31.286  33.141  1.00  0.00     0.074 A 
ATOM     62  C   UNL A   1      41.505  32.373  32.248  1.00  0.00     0.031 C 
ATOM     63  C   UNL A   1      43.006  30.527  33.190  1.00  0.00     0.037 A 
BRANCH  50  64
ATOM     64  C   UNL A   1      44.067  32.194  27.974  1.00  0.00     0.064 A 
ATOM     65  C   UNL A   1      45.097  32.542  27.079  1.00  0.00     0.173 A 
ATOM     66  C   UNL A   1      43.264  33.268  28.423  1.00  0.00     0.173 A 
ATOM     67  F   UNL A   1      45.950  31.610  26.626  1.00  0.00    -0.203 F 
ATOM     68  C   UNL A   1      45.327  33.868  26.697  1.00  0.00     0.198 A 
ATOM     69  C   UNL A   1      43.460  34.579  27.997  1.00  0.00     0.198 A 
ATOM     70  F   UNL A   1      42.343  33.114  29.382  1.00  0.00    -0.203 F 
ATOM     71  F   UNL A   1      46.385  34.166  25.931  1.00  0.00    -0.200 F 
ATOM     72  C   UNL A   1      44.507  34.883  27.153  1.00  0.00     0.200 A 
ATOM     73  F   UNL A   1      42.674  35.552  28.477  1.00  0.00    -0.200 F 
ATOM     74  F   UNL A   1      44.752  36.159  26.825  1.00  0.00    -0.200 F 
ENDBRANCH  50  64
BRANCH  51  75
ATOM     75  C   UNL A   1      37.214  31.275  32.867  1.00  0.00     0.064 A 
ATOM     76  C   UNL A   1      37.066  32.106  33.996  1.00  0.00     0.173 A 
ATOM     77  C   UNL A   1      36.250  31.423  31.853  1.00  0.00     0.173 A 
ATOM     78  F   UNL A   1      37.951  32.044  35.001  1.00  0.00    -0.203 F 
ATOM     79  C   UNL A   1      36.067  33.081  34.067  1.00  0.00     0.198 A 
ATOM     80  C   UNL A   1      35.247  32.392  31.931  1.00  0.00     0.198 A 
ATOM     81  F   UNL A   1      36.330  30.709  30.722  1.00  0.00    -0.203 F 
ATOM     82  F   UNL A   1      36.023  33.918  35.113  1.00  0.00    -0.200 F 
ATOM     83  C   UNL A   1      35.172  33.238  33.024  1.00  0.00     0.200 A 
ATOM     84  F   UNL A   1      34.402  32.555  30.904  1.00  0.00    -0.200 F 
ATOM     85  F   UNL A   1      34.271  34.229  33.049  1.00  0.00    -0.200 F 
ENDBRANCH  51  75
BRANCH  63  86
ATOM     86  C   UNL A   1      43.109  29.516  34.283  1.00  0.00     0.064 A 
ATOM     87  C   UNL A   1      42.784  28.158  34.143  1.00  0.00     0.173 A 
ATOM     88  C   UNL A   1      43.624  29.942  35.514  1.00  0.00     0.173 A 
ATOM     89  F   UNL A   1      42.350  27.668  32.973  1.00  0.00    -0.203 F 
ATOM     90  C   UNL A   1      42.942  27.272  35.209  1.00  0.00     0.198 A 
ATOM     91  C   UNL A   1      43.815  29.050  36.563  1.00  0.00     0.198 A 
ATOM     92  F   UNL A   1      43.978  31.225  35.687  1.00  0.00    -0.203 F 
ATOM     93  F   UNL A   1      42.612  25.981  35.064  1.00  0.00    -0.200 F 
ATOM     94  C   UNL A   1      43.466  27.719  36.413  1.00  0.00     0.200 A 
ATOM     95  F   UNL A   1      44.357  29.479  37.710  1.00  0.00    -0.200 F 
ATOM     96  F   UNL A   1      43.654  26.859  37.424  1.00  0.00    -0.200 F 
ENDBRANCH  63  86
ENDBRANCH  37  38
ENDBRANCH  30  32
ENDBRANCH  29  30
ENDBRANCH  28  29
ENDBRANCH  27  28
ENDBRANCH  26  27
ENDBRANCH   1  26
TORSDOF 17
ENDMDL
MODEL 3
REMARK VINA RESULT:     -11.7      2.626      4.329
REMARK SMILES Cc1c(CC(=O)OCCOCCOC(=O)c2ccc(-c3c4nc(c(-c5c(F)c(F)c(F)c(F)c5F)c5ccc([nH]5)c(-c5c(F)c(F)c(F)c(F)c5F)c5nc(c(-c6c(F)c(F)c(F)c(F)c6F)c6ccc3[nH]6)C=C5)C=C4)cc2)c2ccccc2n1C(=O)c1ccc(Cl)cc1
REMARK SMILES IDX 9 1 8 2 7 3 5 4 6 5 4 6 3 7 1 8 2 9 85 10 79 11 84 12 80 13
REMARK SMILES IDX 83 14 81 15 82 16 86 17 87 18 88 19 89 20 94 21 90 22 93 23
REMARK SMILES IDX 91 24 92 25 10 26 11 27 12 28 13 29 14 30 15 31 16 32 17 33
REMARK SMILES IDX 78 34 18 35 77 36 19 37 20 38 21 39 71 40 22 41 76 42 70 43
REMARK SMILES IDX 72 44 23 45 75 46 69 47 68 48 24 50 56 51 36 52 55 53 37 54
REMARK SMILES IDX 40 55 54 56 73 57 38 58 39 59 53 61 74 62 41 63 25 64 26 65
REMARK SMILES IDX 34 66 27 67 28 68 32 69 35 70 29 71 30 72 33 73 31 74 57 75
REMARK SMILES IDX 58 76 66 77 59 78 60 79 64 80 67 81 61 82 62 83 65 84 63 85
REMARK SMILES IDX 42 86 43 87 51 88 44 89 45 90 49 91 52 92 46 93 47 94 50 95
REMARK SMILES IDX 48 96
REMARK H PARENT 72 49 40 60
REMARK Flexibility Score: inf
ROOT
ATOM      1  C   UNL A   1      41.386  20.480  27.062  1.00  0.00     0.202 C 
ENDROOT
BRANCH   1   2
ATOM      2  C   UNL A   1      40.420  21.674  27.153  1.00  0.00     0.261 C 
BRANCH   2   3
ATOM      3  O   UNL A   1      39.762  22.034  25.927  1.00  0.00    -0.463 OA
BRANCH   3   4
ATOM      4  C   UNL A   1      38.541  22.611  26.093  1.00  0.00     0.310 C 
ATOM      5  O   UNL A   1      38.378  23.759  26.507  1.00  0.00    -0.252 OA
BRANCH   4   6
ATOM      6  C   UNL A   1      37.345  21.752  25.748  1.00  0.00     0.160 C 
BRANCH   6   7
ATOM      7  C   UNL A   1      36.051  22.398  25.322  1.00  0.00    -0.008 A 
ATOM      8  C   UNL A   1      36.655  22.956  22.875  1.00  0.00     0.065 C 
ATOM      9  C   UNL A   1      35.747  22.915  24.068  1.00  0.00     0.028 A 
ATOM     10  N   UNL A   1      34.415  23.371  24.060  1.00  0.00    -0.280 N 
ATOM     11  C   UNL A   1      34.845  22.434  26.084  1.00  0.00     0.004 A 
ATOM     12  C   UNL A   1      33.865  23.082  25.324  1.00  0.00     0.056 A 
ATOM     13  C   UNL A   1      34.507  21.953  27.373  1.00  0.00     0.010 A 
ATOM     14  C   UNL A   1      32.586  23.305  25.885  1.00  0.00     0.027 A 
ATOM     15  C   UNL A   1      33.254  22.213  27.928  1.00  0.00     0.001 A 
ATOM     16  C   UNL A   1      32.307  22.898  27.191  1.00  0.00     0.002 A 
BRANCH  10  17
ATOM     17  C   UNL A   1      33.739  23.979  22.956  1.00  0.00     0.262 C 
ATOM     18  O   UNL A   1      33.605  23.349  21.908  1.00  0.00    -0.268 OA
BRANCH  17  19
ATOM     19  C   UNL A   1      33.152  25.328  22.955  1.00  0.00     0.040 A 
ATOM     20  C   UNL A   1      33.654  26.305  23.822  1.00  0.00     0.015 A 
ATOM     21  C   UNL A   1      32.087  25.613  22.093  1.00  0.00     0.015 A 
ATOM     22  C   UNL A   1      33.021  27.549  23.890  1.00  0.00     0.021 A 
ATOM     23  C   UNL A   1      31.469  26.865  22.155  1.00  0.00     0.021 A 
ATOM     24  C   UNL A   1      31.925  27.819  23.067  1.00  0.00     0.041 A 
ATOM     25  Cl  UNL A   1      31.115  29.330  23.197  1.00  0.00    -0.084 Cl
ENDBRANCH  17  19
ENDBRANCH  10  17
ENDBRANCH   6   7
ENDBRANCH   4   6
ENDBRANCH   3   4
ENDBRANCH   2   3
ENDBRANCH   1   2
BRANCH   1  26
ATOM     26  O   UNL A   1      41.780  19.954  25.802  1.00  0.00    -0.374 OA
BRANCH  26  27
ATOM     27  C   UNL A   1      42.757  18.915  25.796  1.00  0.00     0.202 C 
BRANCH  27  28
ATOM     28  C   UNL A   1      44.063  19.092  24.996  1.00  0.00     0.261 C 
BRANCH  28  29
ATOM     29  O   UNL A   1      44.145  20.367  24.360  1.00  0.00    -0.460 OA
BRANCH  29  30
ATOM     30  C   UNL A   1      45.183  21.134  24.779  1.00  0.00     0.338 C 
ATOM     31  O   UNL A   1      46.310  21.201  24.311  1.00  0.00    -0.246 OA
BRANCH  30  32
ATOM     32  C   UNL A   1      44.550  22.169  25.607  1.00  0.00     0.060 A 
ATOM     33  C   UNL A   1      43.515  22.942  25.077  1.00  0.00     0.016 A 
ATOM     34  C   UNL A   1      45.275  22.580  26.739  1.00  0.00     0.016 A 
ATOM     35  C   UNL A   1      43.271  24.185  25.636  1.00  0.00     0.010 A 
ATOM     36  C   UNL A   1      45.039  23.835  27.283  1.00  0.00     0.010 A 
ATOM     37  C   UNL A   1      44.061  24.648  26.709  1.00  0.00    -0.014 A 
BRANCH  37  38
ATOM     38  C   UNL A   1      43.614  25.871  27.372  1.00  0.00     0.031 A 
ATOM     39  C   UNL A   1      44.519  27.004  27.044  1.00  0.00     0.074 A 
ATOM     40  C   UNL A   1      42.485  26.061  28.085  1.00  0.00     0.049 A 
ATOM     41  N   UNL A   1      45.289  27.658  27.848  1.00  0.00    -0.248 NA
ATOM     42  C   UNL A   1      44.720  27.324  25.620  1.00  0.00     0.031 C 
ATOM     43  C   UNL A   1      41.345  25.155  28.225  1.00  0.00     0.029 A 
ATOM     44  N   UNL A   1      42.077  27.174  28.772  1.00  0.00    -0.354 N 
ATOM     45  C   UNL A   1      45.940  28.597  27.053  1.00  0.00     0.074 A 
ATOM     46  C   UNL A   1      45.688  28.237  25.685  1.00  0.00     0.031 C 
ATOM     47  C   UNL A   1      40.298  25.831  28.755  1.00  0.00     0.029 A 
ATOM     48  C   UNL A   1      40.732  27.172  29.120  1.00  0.00     0.049 A 
ATOM     49  H   UNL A   1      42.686  27.913  29.000  1.00  0.00     0.167 HD
ATOM     50  C   UNL A   1      46.396  29.759  27.589  1.00  0.00     0.037 A 
ATOM     51  C   UNL A   1      40.024  28.216  29.622  1.00  0.00     0.037 A 
ATOM     52  C   UNL A   1      46.467  29.685  29.022  1.00  0.00     0.049 A 
ATOM     53  C   UNL A   1      40.982  29.167  30.232  1.00  0.00     0.074 A 
ATOM     54  C   UNL A   1      47.342  29.199  29.966  1.00  0.00     0.029 A 
ATOM     55  N   UNL A   1      45.266  29.882  29.640  1.00  0.00    -0.354 N 
ATOM     56  N   UNL A   1      41.663  28.918  31.313  1.00  0.00    -0.248 NA
ATOM     57  C   UNL A   1      41.399  30.348  29.481  1.00  0.00     0.031 C 
ATOM     58  C   UNL A   1      46.580  29.000  31.158  1.00  0.00     0.029 A 
ATOM     59  C   UNL A   1      45.266  29.389  30.916  1.00  0.00     0.049 A 
ATOM     60  H   UNL A   1      44.493  30.325  29.221  1.00  0.00     0.167 HD
ATOM     61  C   UNL A   1      42.825  29.639  31.147  1.00  0.00     0.074 A 
ATOM     62  C   UNL A   1      42.534  30.633  30.125  1.00  0.00     0.031 C 
ATOM     63  C   UNL A   1      44.015  29.146  31.589  1.00  0.00     0.037 A 
BRANCH  50  64
ATOM     64  C   UNL A   1      46.297  31.092  26.886  1.00  0.00     0.064 A 
ATOM     65  C   UNL A   1      47.415  31.950  26.874  1.00  0.00     0.173 A 
ATOM     66  C   UNL A   1      45.072  31.685  26.505  1.00  0.00     0.173 A 
ATOM     67  F   UNL A   1      48.619  31.506  27.263  1.00  0.00    -0.203 F 
ATOM     68  C   UNL A   1      47.302  33.304  26.543  1.00  0.00     0.198 A 
ATOM     69  C   UNL A   1      44.973  33.020  26.121  1.00  0.00     0.198 A 
ATOM     70  F   UNL A   1      43.906  31.036  26.606  1.00  0.00    -0.203 F 
ATOM     71  F   UNL A   1      48.369  34.107  26.651  1.00  0.00    -0.200 F 
ATOM     72  C   UNL A   1      46.083  33.836  26.164  1.00  0.00     0.200 A 
ATOM     73  F   UNL A   1      43.776  33.523  25.790  1.00  0.00    -0.200 F 
ATOM     74  F   UNL A   1      45.963  35.143  25.890  1.00  0.00    -0.200 F 
ENDBRANCH  50  64
BRANCH  51  75
ATOM     75  C   UNL A   1      38.607  28.610  29.425  1.00  0.00     0.064 A 
ATOM     76  C   UNL A   1      37.776  28.866  30.534  1.00  0.00     0.173 A 
ATOM     77  C   UNL A   1      38.148  29.079  28.181  1.00  0.00     0.173 A 
ATOM     78  F   UNL A   1      38.145  28.470  31.762  1.00  0.00    -0.203 F 
ATOM     79  C   UNL A   1      36.603  29.617  30.419  1.00  0.00     0.198 A 
ATOM     80  C   UNL A   1      36.970  29.822  28.067  1.00  0.00     0.198 A 
ATOM     81  F   UNL A   1      38.888  28.924  27.075  1.00  0.00    -0.203 F 
ATOM     82  F   UNL A   1      35.894  29.923  31.514  1.00  0.00    -0.200 F 
ATOM     83  C   UNL A   1      36.213  30.113  29.188  1.00  0.00     0.200 A 
ATOM     84  F   UNL A   1      36.615  30.322  26.875  1.00  0.00    -0.200 F 
ATOM     85  F   UNL A   1      35.138  30.908  29.088  1.00  0.00    -0.200 F 
ENDBRANCH  51  75
BRANCH  63  86
ATOM     86  C   UNL A   1      43.978  28.164  32.712  1.00  0.00     0.064 A 
ATOM     87  C   UNL A   1      43.912  26.772  32.549  1.00  0.00     0.173 A 
ATOM     88  C   UNL A   1      44.079  28.666  34.016  1.00  0.00     0.173 A 
ATOM     89  F   UNL A   1      43.882  26.219  31.328  1.00  0.00    -0.203 F 
ATOM     90  C   UNL A   1      43.916  25.922  33.655  1.00  0.00     0.198 A 
ATOM     91  C   UNL A   1      44.119  27.816  35.114  1.00  0.00     0.198 A 
ATOM     92  F   UNL A   1      44.174  29.989  34.221  1.00  0.00    -0.203 F 
ATOM     93  F   UNL A   1      43.837  24.594  33.483  1.00  0.00    -0.200 F 
ATOM     94  C   UNL A   1      44.029  26.446  34.935  1.00  0.00     0.200 A 
ATOM     95  F   UNL A   1      44.266  28.324  36.344  1.00  0.00    -0.200 F 
ATOM     96  F   UNL A   1      44.072  25.627  35.995  1.00  0.00    -0.200 F 
ENDBRANCH  63  86
ENDBRANCH  37  38
ENDBRANCH  30  32
ENDBRANCH  29  30
ENDBRANCH  28  29
ENDBRANCH  27  28
ENDBRANCH  26  27
ENDBRANCH   1  26
TORSDOF 17
ENDMDL
