MODEL 1
REMARK VINA RESULT:     -11.4      0.000      0.000
REMARK SMILES CC(C)CCc1cc2c(cc1Cl)C=C(C(=O)OCCOCCOC(=O)c1ccc(-c3c4nc(c(-c5c(F)c(F)c(F)c(F)c5F)c5ccc([nH]5)c(-c5c(F)c(F)c(F)c(F)c5F)c5nc(c(-c6c(F)c(F)c(F)c(F)c6F)c6ccc3[nH]6)C=C5)C=C4)cc1)[C@@H](C(F)(F)F)O2
REMARK SMILES IDX 19 1 18 2 17 3 15 4 16 5 14 6 6 7 7 8 11 9 8 10 10 11 12 12
REMARK SMILES IDX 9 13 94 14 13 15 89 16 5 17 4 18 2 19 1 20 3 21 90 22 91 23
REMARK SMILES IDX 92 24 93 25 20 26 21 27 22 28 23 29 24 30 25 31 26 32 27 33
REMARK SMILES IDX 88 34 28 35 87 36 29 37 30 38 31 39 81 40 32 41 86 42 80 43
REMARK SMILES IDX 82 44 33 45 85 46 79 47 78 48 34 50 66 51 46 52 65 53 47 54
REMARK SMILES IDX 50 55 64 56 83 57 48 58 49 59 63 61 84 62 51 63 35 64 36 65
REMARK SMILES IDX 44 66 37 67 38 68 42 69 45 70 39 71 40 72 43 73 41 74 67 75
REMARK SMILES IDX 68 76 76 77 69 78 70 79 74 80 77 81 71 82 72 83 75 84 73 85
REMARK SMILES IDX 52 86 53 87 61 88 54 89 55 90 59 91 62 92 56 93 57 94 60 95
REMARK SMILES IDX 58 96
REMARK H PARENT 82 49 50 60
REMARK Flexibility Score: inf
ROOT
ATOM      1  C   UNL A   1      38.345  22.212  25.907  1.00  0.00     0.202 C 
ENDROOT
BRANCH   1   2
ATOM      2  C   UNL A   1      37.605  23.553  25.920  1.00  0.00     0.261 C 
BRANCH   2   3
ATOM      3  O   UNL A   1      36.526  23.576  24.976  1.00  0.00    -0.460 OA
BRANCH   3   4
ATOM      4  C   UNL A   1      35.293  23.608  25.537  1.00  0.00     0.338 C 
ATOM      5  O   UNL A   1      34.889  22.915  26.456  1.00  0.00    -0.246 OA
BRANCH   4   6
ATOM      6  C   UNL A   1      34.516  24.720  24.959  1.00  0.00     0.087 C 
ATOM      7  C   UNL A   1      31.523  28.706  24.496  1.00  0.00    -0.026 A 
ATOM      8  C   UNL A   1      31.968  27.702  23.614  1.00  0.00     0.052 A 
ATOM      9  C   UNL A   1      32.185  28.839  25.728  1.00  0.00     0.045 A 
ATOM     10  C   UNL A   1      32.918  26.761  24.014  1.00  0.00     0.128 A 
ATOM     11  C   UNL A   1      33.160  27.916  26.116  1.00  0.00     0.032 A 
ATOM     12  Cl  UNL A   1      31.827  30.113  26.839  1.00  0.00    -0.084 Cl
ATOM     13  C   UNL A   1      33.489  26.847  25.279  1.00  0.00     0.019 A 
ATOM     14  O   UNL A   1      33.220  25.782  23.112  1.00  0.00    -0.475 OA
ATOM     15  C   UNL A   1      34.361  25.790  25.749  1.00  0.00     0.027 C 
ATOM     16  C   UNL A   1      33.934  24.603  23.578  1.00  0.00     0.316 C 
BRANCH   7  17
ATOM     17  C   UNL A   1      30.360  29.600  24.111  1.00  0.00     0.037 C 
BRANCH  17  18
ATOM     18  C   UNL A   1      30.046  29.688  22.604  1.00  0.00     0.008 C 
BRANCH  18  19
ATOM     19  C   UNL A   1      29.148  30.873  22.179  1.00  0.00    -0.017 C 
ATOM     20  C   UNL A   1      28.021  30.445  21.241  1.00  0.00     0.007 C 
ATOM     21  C   UNL A   1      28.568  31.553  23.421  1.00  0.00     0.007 C 
ENDBRANCH  18  19
ENDBRANCH  17  18
ENDBRANCH   7  17
BRANCH  16  22
ATOM     22  C   UNL A   1      33.020  23.377  23.428  1.00  0.00     0.430 C 
ATOM     23  F   UNL A   1      32.288  23.171  24.548  1.00  0.00    -0.167 F 
ATOM     24  F   UNL A   1      32.137  23.533  22.413  1.00  0.00    -0.167 F 
ATOM     25  F   UNL A   1      33.722  22.247  23.186  1.00  0.00    -0.167 F 
ENDBRANCH  16  22
ENDBRANCH   4   6
ENDBRANCH   3   4
ENDBRANCH   2   3
ENDBRANCH   1   2
BRANCH   1  26
ATOM     26  O   UNL A   1      38.098  21.331  24.815  1.00  0.00    -0.374 OA
BRANCH  26  27
ATOM     27  C   UNL A   1      38.152  19.924  25.042  1.00  0.00     0.202 C 
BRANCH  27  28
ATOM     28  C   UNL A   1      39.358  19.353  25.798  1.00  0.00     0.261 C 
BRANCH  28  29
ATOM     29  O   UNL A   1      40.612  19.647  25.163  1.00  0.00    -0.460 OA
BRANCH  29  30
ATOM     30  C   UNL A   1      41.706  19.411  25.928  1.00  0.00     0.338 C 
ATOM     31  O   UNL A   1      42.253  18.338  26.128  1.00  0.00    -0.246 OA
BRANCH  30  32
ATOM     32  C   UNL A   1      42.284  20.695  26.364  1.00  0.00     0.060 A 
ATOM     33  C   UNL A   1      42.863  21.573  25.448  1.00  0.00     0.016 A 
ATOM     34  C   UNL A   1      42.199  21.034  27.721  1.00  0.00     0.016 A 
ATOM     35  C   UNL A   1      43.336  22.808  25.894  1.00  0.00     0.010 A 
ATOM     36  C   UNL A   1      42.666  22.272  28.163  1.00  0.00     0.010 A 
ATOM     37  C   UNL A   1      43.223  23.176  27.249  1.00  0.00    -0.014 A 
BRANCH  37  38
ATOM     38  C   UNL A   1      43.589  24.550  27.671  1.00  0.00     0.031 A 
ATOM     39  C   UNL A   1      45.018  25.001  27.713  1.00  0.00     0.074 A 
ATOM     40  C   UNL A   1      42.603  25.401  28.013  1.00  0.00     0.049 A 
ATOM     41  N   UNL A   1      45.496  26.196  27.955  1.00  0.00    -0.248 NA
ATOM     42  C   UNL A   1      46.046  23.982  27.457  1.00  0.00     0.031 C 
ATOM     43  C   UNL A   1      41.181  25.058  28.054  1.00  0.00     0.029 A 
ATOM     44  N   UNL A   1      42.639  26.725  28.371  1.00  0.00    -0.354 N 
ATOM     45  C   UNL A   1      46.875  26.080  27.856  1.00  0.00     0.074 A 
ATOM     46  C   UNL A   1      47.162  24.686  27.591  1.00  0.00     0.031 C 
ATOM     47  C   UNL A   1      40.475  26.155  28.370  1.00  0.00     0.029 A 
ATOM     48  C   UNL A   1      41.396  27.268  28.585  1.00  0.00     0.049 A 
ATOM     49  H   UNL A   1      43.475  27.236  28.466  1.00  0.00     0.167 HD
ATOM     50  C   UNL A   1      47.808  27.057  27.949  1.00  0.00     0.037 A 
ATOM     51  C   UNL A   1      41.036  28.525  28.909  1.00  0.00     0.037 A 
ATOM     52  C   UNL A   1      47.514  28.441  28.225  1.00  0.00     0.049 A 
ATOM     53  C   UNL A   1      42.100  29.578  29.057  1.00  0.00     0.074 A 
ATOM     54  C   UNL A   1      48.391  29.509  28.301  1.00  0.00     0.029 A 
ATOM     55  N   UNL A   1      46.248  28.947  28.486  1.00  0.00    -0.354 N 
ATOM     56  N   UNL A   1      43.393  29.478  28.870  1.00  0.00    -0.248 NA
ATOM     57  C   UNL A   1      41.653  30.921  29.456  1.00  0.00     0.031 C 
ATOM     58  C   UNL A   1      47.666  30.647  28.663  1.00  0.00     0.029 A 
ATOM     59  C   UNL A   1      46.328  30.304  28.758  1.00  0.00     0.049 A 
ATOM     60  H   UNL A   1      45.417  28.419  28.477  1.00  0.00     0.167 HD
ATOM     61  C   UNL A   1      43.913  30.742  29.114  1.00  0.00     0.074 A 
ATOM     62  C   UNL A   1      42.792  31.601  29.435  1.00  0.00     0.031 C 
ATOM     63  C   UNL A   1      45.205  31.150  29.079  1.00  0.00     0.037 A 
BRANCH  50  64
ATOM     64  C   UNL A   1      49.245  26.676  27.735  1.00  0.00     0.064 A 
ATOM     65  C   UNL A   1      50.108  26.449  28.819  1.00  0.00     0.173 A 
ATOM     66  C   UNL A   1      49.745  26.452  26.443  1.00  0.00     0.173 A 
ATOM     67  F   UNL A   1      49.682  26.652  30.075  1.00  0.00    -0.203 F 
ATOM     68  C   UNL A   1      51.420  26.028  28.617  1.00  0.00     0.198 A 
ATOM     69  C   UNL A   1      51.048  26.003  26.246  1.00  0.00     0.198 A 
ATOM     70  F   UNL A   1      48.961  26.644  25.372  1.00  0.00    -0.203 F 
ATOM     71  F   UNL A   1      52.233  25.848  29.667  1.00  0.00    -0.200 F 
ATOM     72  C   UNL A   1      51.885  25.796  27.332  1.00  0.00     0.200 A 
ATOM     73  F   UNL A   1      51.492  25.762  25.004  1.00  0.00    -0.200 F 
ATOM     74  F   UNL A   1      53.142  25.372  27.140  1.00  0.00    -0.200 F 
ENDBRANCH  50  64
BRANCH  51  75
ATOM     75  C   UNL A   1      39.597  28.858  29.075  1.00  0.00     0.064 A 
ATOM     76  C   UNL A   1      38.822  29.265  27.979  1.00  0.00     0.173 A 
ATOM     77  C   UNL A   1      38.962  28.758  30.321  1.00  0.00     0.173 A 
ATOM     78  F   UNL A   1      39.387  29.395  26.771  1.00  0.00    -0.203 F 
ATOM     79  C   UNL A   1      37.470  29.568  28.128  1.00  0.00     0.198 A 
ATOM     80  C   UNL A   1      37.604  29.031  30.463  1.00  0.00     0.198 A 
ATOM     81  F   UNL A   1      39.658  28.369  31.400  1.00  0.00    -0.203 F 
ATOM     82  F   UNL A   1      36.761  29.990  27.072  1.00  0.00    -0.200 F 
ATOM     83  C   UNL A   1      36.860  29.442  29.368  1.00  0.00     0.200 A 
ATOM     84  F   UNL A   1      37.015  28.891  31.658  1.00  0.00    -0.200 F 
ATOM     85  F   UNL A   1      35.557  29.721  29.507  1.00  0.00    -0.200 F 
ENDBRANCH  51  75
BRANCH  63  86
ATOM     86  C   UNL A   1      45.490  32.590  29.399  1.00  0.00     0.064 A 
ATOM     87  C   UNL A   1      45.448  33.581  28.407  1.00  0.00     0.173 A 
ATOM     88  C   UNL A   1      45.729  32.996  30.721  1.00  0.00     0.173 A 
ATOM     89  F   UNL A   1      45.238  33.245  27.126  1.00  0.00    -0.203 F 
ATOM     90  C   UNL A   1      45.645  34.923  28.725  1.00  0.00     0.198 A 
ATOM     91  C   UNL A   1      45.892  34.342  31.041  1.00  0.00     0.198 A 
ATOM     92  F   UNL A   1      45.772  32.090  31.710  1.00  0.00    -0.203 F 
ATOM     93  F   UNL A   1      45.635  35.847  27.755  1.00  0.00    -0.200 F 
ATOM     94  C   UNL A   1      45.854  35.303  30.042  1.00  0.00     0.200 A 
ATOM     95  F   UNL A   1      46.076  34.709  32.316  1.00  0.00    -0.200 F 
ATOM     96  F   UNL A   1      46.022  36.597  30.349  1.00  0.00    -0.200 F 
ENDBRANCH  63  86
ENDBRANCH  37  38
ENDBRANCH  30  32
ENDBRANCH  29  30
ENDBRANCH  28  29
ENDBRANCH  27  28
ENDBRANCH  26  27
ENDBRANCH   1  26
TORSDOF 18
ENDMDL
MODEL 2
REMARK VINA RESULT:     -11.4      0.641      1.788
REMARK SMILES CC(C)CCc1cc2c(cc1Cl)C=C(C(=O)OCCOCCOC(=O)c1ccc(-c3c4nc(c(-c5c(F)c(F)c(F)c(F)c5F)c5ccc([nH]5)c(-c5c(F)c(F)c(F)c(F)c5F)c5nc(c(-c6c(F)c(F)c(F)c(F)c6F)c6ccc3[nH]6)C=C5)C=C4)cc1)[C@@H](C(F)(F)F)O2
REMARK SMILES IDX 19 1 18 2 17 3 15 4 16 5 14 6 6 7 7 8 11 9 8 10 10 11 12 12
REMARK SMILES IDX 9 13 94 14 13 15 89 16 5 17 4 18 2 19 1 20 3 21 90 22 91 23
REMARK SMILES IDX 92 24 93 25 20 26 21 27 22 28 23 29 24 30 25 31 26 32 27 33
REMARK SMILES IDX 88 34 28 35 87 36 29 37 30 38 31 39 81 40 32 41 86 42 80 43
REMARK SMILES IDX 82 44 33 45 85 46 79 47 78 48 34 50 66 51 46 52 65 53 47 54
REMARK SMILES IDX 50 55 64 56 83 57 48 58 49 59 63 61 84 62 51 63 35 64 36 65
REMARK SMILES IDX 44 66 37 67 38 68 42 69 45 70 39 71 40 72 43 73 41 74 67 75
REMARK SMILES IDX 68 76 76 77 69 78 70 79 74 80 77 81 71 82 72 83 75 84 73 85
REMARK SMILES IDX 52 86 53 87 61 88 54 89 55 90 59 91 62 92 56 93 57 94 60 95
REMARK SMILES IDX 58 96
REMARK H PARENT 82 49 50 60
REMARK Flexibility Score: inf
ROOT
ATOM      1  C   UNL A   1      36.999  20.813  24.942  1.00  0.00     0.202 C 
ENDROOT
BRANCH   1   2
ATOM      2  C   UNL A   1      35.714  21.281  25.632  1.00  0.00     0.261 C 
BRANCH   2   3
ATOM      3  O   UNL A   1      35.611  22.711  25.652  1.00  0.00    -0.460 OA
BRANCH   3   4
ATOM      4  C   UNL A   1      34.446  23.181  26.161  1.00  0.00     0.338 C 
ATOM      5  O   UNL A   1      33.965  22.918  27.250  1.00  0.00    -0.246 OA
BRANCH   4   6
ATOM      6  C   UNL A   1      33.880  24.191  25.247  1.00  0.00     0.087 C 
ATOM      7  C   UNL A   1      31.504  28.237  23.501  1.00  0.00    -0.026 A 
ATOM      8  C   UNL A   1      31.885  27.001  22.942  1.00  0.00     0.052 A 
ATOM      9  C   UNL A   1      32.069  28.600  24.735  1.00  0.00     0.045 A 
ATOM     10  C   UNL A   1      32.661  26.093  23.663  1.00  0.00     0.128 A 
ATOM     11  C   UNL A   1      32.873  27.704  25.444  1.00  0.00     0.032 A 
ATOM     12  Cl  UNL A   1      31.790  30.144  25.461  1.00  0.00    -0.084 Cl
ATOM     13  C   UNL A   1      33.126  26.430  24.930  1.00  0.00     0.019 A 
ATOM     14  O   UNL A   1      32.905  24.891  23.061  1.00  0.00    -0.475 OA
ATOM     15  C   UNL A   1      33.803  25.435  25.736  1.00  0.00     0.027 C 
ATOM     16  C   UNL A   1      33.410  23.796  23.875  1.00  0.00     0.316 C 
BRANCH   7  17
ATOM     17  C   UNL A   1      30.511  29.127  22.780  1.00  0.00     0.037 C 
BRANCH  17  18
ATOM     18  C   UNL A   1      29.022  28.837  23.053  1.00  0.00     0.008 C 
BRANCH  18  19
ATOM     19  C   UNL A   1      28.030  29.902  22.532  1.00  0.00    -0.017 C 
ATOM     20  C   UNL A   1      27.711  30.967  23.580  1.00  0.00     0.007 C 
ATOM     21  C   UNL A   1      28.592  30.560  21.270  1.00  0.00     0.007 C 
ENDBRANCH  18  19
ENDBRANCH  17  18
ENDBRANCH   7  17
BRANCH  16  22
ATOM     22  C   UNL A   1      32.356  22.679  23.915  1.00  0.00     0.430 C 
ATOM     23  F   UNL A   1      31.554  22.721  22.824  1.00  0.00    -0.167 F 
ATOM     24  F   UNL A   1      32.929  21.452  23.925  1.00  0.00    -0.167 F 
ATOM     25  F   UNL A   1      31.564  22.767  25.007  1.00  0.00    -0.167 F 
ENDBRANCH  16  22
ENDBRANCH   4   6
ENDBRANCH   3   4
ENDBRANCH   2   3
ENDBRANCH   1   2
BRANCH   1  26
ATOM     26  O   UNL A   1      38.130  21.677  24.994  1.00  0.00    -0.374 OA
BRANCH  26  27
ATOM     27  C   UNL A   1      39.188  21.369  25.899  1.00  0.00     0.202 C 
BRANCH  27  28
ATOM     28  C   UNL A   1      39.630  19.906  26.033  1.00  0.00     0.261 C 
BRANCH  28  29
ATOM     29  O   UNL A   1      40.788  19.593  25.241  1.00  0.00    -0.460 OA
BRANCH  29  30
ATOM     30  C   UNL A   1      41.919  19.368  25.954  1.00  0.00     0.338 C 
ATOM     31  O   UNL A   1      42.497  18.304  26.111  1.00  0.00    -0.246 OA
BRANCH  30  32
ATOM     32  C   UNL A   1      42.487  20.657  26.387  1.00  0.00     0.060 A 
ATOM     33  C   UNL A   1      43.037  21.549  25.467  1.00  0.00     0.016 A 
ATOM     34  C   UNL A   1      42.423  20.986  27.749  1.00  0.00     0.016 A 
ATOM     35  C   UNL A   1      43.501  22.788  25.912  1.00  0.00     0.010 A 
ATOM     36  C   UNL A   1      42.881  22.228  28.190  1.00  0.00     0.010 A 
ATOM     37  C   UNL A   1      43.408  23.145  27.271  1.00  0.00    -0.014 A 
BRANCH  37  38
ATOM     38  C   UNL A   1      43.763  24.522  27.696  1.00  0.00     0.031 A 
ATOM     39  C   UNL A   1      45.189  24.981  27.749  1.00  0.00     0.074 A 
ATOM     40  C   UNL A   1      42.769  25.367  28.029  1.00  0.00     0.049 A 
ATOM     41  N   UNL A   1      45.658  26.178  27.994  1.00  0.00    -0.248 NA
ATOM     42  C   UNL A   1      46.224  23.967  27.502  1.00  0.00     0.031 C 
ATOM     43  C   UNL A   1      41.349  25.017  28.058  1.00  0.00     0.029 A 
ATOM     44  N   UNL A   1      42.795  26.691  28.387  1.00  0.00    -0.354 N 
ATOM     45  C   UNL A   1      47.039  26.070  27.906  1.00  0.00     0.074 A 
ATOM     46  C   UNL A   1      47.336  24.678  27.645  1.00  0.00     0.031 C 
ATOM     47  C   UNL A   1      40.635  26.110  28.368  1.00  0.00     0.029 A 
ATOM     48  C   UNL A   1      41.547  27.228  28.590  1.00  0.00     0.049 A 
ATOM     49  H   UNL A   1      43.627  27.208  28.488  1.00  0.00     0.167 HD
ATOM     50  C   UNL A   1      47.966  27.052  28.007  1.00  0.00     0.037 A 
ATOM     51  C   UNL A   1      41.177  28.483  28.910  1.00  0.00     0.037 A 
ATOM     52  C   UNL A   1      47.661  28.435  28.279  1.00  0.00     0.049 A 
ATOM     53  C   UNL A   1      42.234  29.542  29.066  1.00  0.00     0.074 A 
ATOM     54  C   UNL A   1      48.532  29.508  28.361  1.00  0.00     0.029 A 
ATOM     55  N   UNL A   1      46.391  28.934  28.529  1.00  0.00    -0.354 N 
ATOM     56  N   UNL A   1      43.530  29.449  28.890  1.00  0.00    -0.248 NA
ATOM     57  C   UNL A   1      41.777  30.883  29.460  1.00  0.00     0.031 C 
ATOM     58  C   UNL A   1      47.798  30.642  28.718  1.00  0.00     0.029 A 
ATOM     59  C   UNL A   1      46.460  30.292  28.801  1.00  0.00     0.049 A 
ATOM     60  H   UNL A   1      45.562  28.401  28.514  1.00  0.00     0.167 HD
ATOM     61  C   UNL A   1      44.040  30.717  29.137  1.00  0.00     0.074 A 
ATOM     62  C   UNL A   1      42.912  31.569  29.448  1.00  0.00     0.031 C 
ATOM     63  C   UNL A   1      45.331  31.131  29.113  1.00  0.00     0.037 A 
BRANCH  50  64
ATOM     64  C   UNL A   1      49.406  26.680  27.805  1.00  0.00     0.064 A 
ATOM     65  C   UNL A   1      49.980  26.653  26.524  1.00  0.00     0.173 A 
ATOM     66  C   UNL A   1      50.245  26.431  28.903  1.00  0.00     0.173 A 
ATOM     67  F   UNL A   1      49.221  26.880  25.441  1.00  0.00    -0.203 F 
ATOM     68  C   UNL A   1      51.333  26.376  26.348  1.00  0.00     0.198 A 
ATOM     69  C   UNL A   1      51.605  26.183  28.725  1.00  0.00     0.198 A 
ATOM     70  F   UNL A   1      49.752  26.454  30.150  1.00  0.00    -0.203 F 
ATOM     71  F   UNL A   1      51.850  26.325  25.112  1.00  0.00    -0.200 F 
ATOM     72  C   UNL A   1      52.145  26.151  27.448  1.00  0.00     0.200 A 
ATOM     73  F   UNL A   1      52.392  25.983  29.791  1.00  0.00    -0.200 F 
ATOM     74  F   UNL A   1      53.452  25.903  27.279  1.00  0.00    -0.200 F 
ENDBRANCH  50  64
BRANCH  51  75
ATOM     75  C   UNL A   1      39.736  28.808  29.063  1.00  0.00     0.064 A 
ATOM     76  C   UNL A   1      38.979  29.260  27.972  1.00  0.00     0.173 A 
ATOM     77  C   UNL A   1      39.079  28.656  30.293  1.00  0.00     0.173 A 
ATOM     78  F   UNL A   1      39.566  29.440  26.780  1.00  0.00    -0.203 F 
ATOM     79  C   UNL A   1      37.625  29.555  28.109  1.00  0.00     0.198 A 
ATOM     80  C   UNL A   1      37.718  28.922  30.422  1.00  0.00     0.198 A 
ATOM     81  F   UNL A   1      39.756  28.224  31.368  1.00  0.00    -0.203 F 
ATOM     82  F   UNL A   1      36.934  30.020  27.059  1.00  0.00    -0.200 F 
ATOM     83  C   UNL A   1      36.993  29.378  29.331  1.00  0.00     0.200 A 
ATOM     84  F   UNL A   1      37.108  28.733  31.600  1.00  0.00    -0.200 F 
ATOM     85  F   UNL A   1      35.687  29.650  29.459  1.00  0.00    -0.200 F 
ENDBRANCH  51  75
BRANCH  63  86
ATOM     86  C   UNL A   1      45.605  32.573  29.434  1.00  0.00     0.064 A 
ATOM     87  C   UNL A   1      45.861  32.994  30.747  1.00  0.00     0.173 A 
ATOM     88  C   UNL A   1      45.694  33.530  28.410  1.00  0.00     0.173 A 
ATOM     89  F   UNL A   1      45.775  32.123  31.764  1.00  0.00    -0.203 F 
ATOM     90  C   UNL A   1      46.183  34.320  31.025  1.00  0.00     0.198 A 
ATOM     91  C   UNL A   1      46.049  34.848  28.688  1.00  0.00     0.198 A 
ATOM     92  F   UNL A   1      45.466  33.180  27.135  1.00  0.00    -0.203 F 
ATOM     93  F   UNL A   1      46.388  34.706  32.292  1.00  0.00    -0.200 F 
ATOM     94  C   UNL A   1      46.289  35.242  29.996  1.00  0.00     0.200 A 
ATOM     95  F   UNL A   1      46.168  35.732  27.689  1.00  0.00    -0.200 F 
ATOM     96  F   UNL A   1      46.620  36.513  30.263  1.00  0.00    -0.200 F 
ENDBRANCH  63  86
ENDBRANCH  37  38
ENDBRANCH  30  32
ENDBRANCH  29  30
ENDBRANCH  28  29
ENDBRANCH  27  28
ENDBRANCH  26  27
ENDBRANCH   1  26
TORSDOF 18
ENDMDL
MODEL 3
REMARK VINA RESULT:     -11.3      5.453     10.795
REMARK SMILES CC(C)CCc1cc2c(cc1Cl)C=C(C(=O)OCCOCCOC(=O)c1ccc(-c3c4nc(c(-c5c(F)c(F)c(F)c(F)c5F)c5ccc([nH]5)c(-c5c(F)c(F)c(F)c(F)c5F)c5nc(c(-c6c(F)c(F)c(F)c(F)c6F)c6ccc3[nH]6)C=C5)C=C4)cc1)[C@@H](C(F)(F)F)O2
REMARK SMILES IDX 19 1 18 2 17 3 15 4 16 5 14 6 6 7 7 8 11 9 8 10 10 11 12 12
REMARK SMILES IDX 9 13 94 14 13 15 89 16 5 17 4 18 2 19 1 20 3 21 90 22 91 23
REMARK SMILES IDX 92 24 93 25 20 26 21 27 22 28 23 29 24 30 25 31 26 32 27 33
REMARK SMILES IDX 88 34 28 35 87 36 29 37 30 38 31 39 81 40 32 41 86 42 80 43
REMARK SMILES IDX 82 44 33 45 85 46 79 47 78 48 34 50 66 51 46 52 65 53 47 54
REMARK SMILES IDX 50 55 64 56 83 57 48 58 49 59 63 61 84 62 51 63 35 64 36 65
REMARK SMILES IDX 44 66 37 67 38 68 42 69 45 70 39 71 40 72 43 73 41 74 67 75
REMARK SMILES IDX 68 76 76 77 69 78 70 79 74 80 77 81 71 82 72 83 75 84 73 85
REMARK SMILES IDX 52 86 53 87 61 88 54 89 55 90 59 91 62 92 56 93 57 94 60 95
REMARK SMILES IDX 58 96
REMARK H PARENT 82 49 50 60
REMARK Flexibility Score: inf
ROOT
ATOM      1  C   UNL A   1      31.628  30.789  26.227  1.00  0.00     0.202 C 
ENDROOT
BRANCH   1   2
ATOM      2  C   UNL A   1      31.555  29.655  25.200  1.00  0.00     0.261 C 
BRANCH   2   3
ATOM      3  O   UNL A   1      32.097  28.432  25.718  1.00  0.00    -0.460 OA
BRANCH   3   4
ATOM      4  C   UNL A   1      32.998  27.831  24.904  1.00  0.00     0.338 C 
ATOM      5  O   UNL A   1      33.816  28.381  24.185  1.00  0.00    -0.246 OA
BRANCH   4   6
ATOM      6  C   UNL A   1      32.949  26.371  25.106  1.00  0.00     0.087 C 
ATOM      7  C   UNL A   1      34.130  21.507  25.017  1.00  0.00    -0.026 A 
ATOM      8  C   UNL A   1      32.934  22.225  25.208  1.00  0.00     0.052 A 
ATOM      9  C   UNL A   1      35.341  22.215  25.091  1.00  0.00     0.045 A 
ATOM     10  C   UNL A   1      32.937  23.618  25.297  1.00  0.00     0.128 A 
ATOM     11  C   UNL A   1      35.346  23.608  25.213  1.00  0.00     0.032 A 
ATOM     12  Cl  UNL A   1      36.879  21.431  25.010  1.00  0.00    -0.084 Cl
ATOM     13  C   UNL A   1      34.142  24.313  25.264  1.00  0.00     0.019 A 
ATOM     14  O   UNL A   1      31.716  24.223  25.399  1.00  0.00    -0.475 OA
ATOM     15  C   UNL A   1      34.136  25.760  25.207  1.00  0.00     0.027 C 
ATOM     16  C   UNL A   1      31.628  25.655  25.161  1.00  0.00     0.316 C 
BRANCH   7  17
ATOM     17  C   UNL A   1      34.089  20.017  24.736  1.00  0.00     0.037 C 
BRANCH  17  18
ATOM     18  C   UNL A   1      32.806  19.492  24.062  1.00  0.00     0.008 C 
BRANCH  18  19
ATOM     19  C   UNL A   1      32.596  17.962  24.132  1.00  0.00    -0.017 C 
ATOM     20  C   UNL A   1      33.605  17.192  23.282  1.00  0.00     0.007 C 
ATOM     21  C   UNL A   1      32.671  17.495  25.588  1.00  0.00     0.007 C 
ENDBRANCH  18  19
ENDBRANCH  17  18
ENDBRANCH   7  17
BRANCH  16  22
ATOM     22  C   UNL A   1      30.775  25.899  23.907  1.00  0.00     0.430 C 
ATOM     23  F   UNL A   1      29.696  26.668  24.188  1.00  0.00    -0.167 F 
ATOM     24  F   UNL A   1      31.474  26.552  22.948  1.00  0.00    -0.167 F 
ATOM     25  F   UNL A   1      30.324  24.745  23.366  1.00  0.00    -0.167 F 
ENDBRANCH  16  22
ENDBRANCH   4   6
ENDBRANCH   3   4
ENDBRANCH   2   3
ENDBRANCH   1   2
BRANCH   1  26
ATOM     26  O   UNL A   1      32.611  30.690  27.254  1.00  0.00    -0.374 OA
BRANCH  26  27
ATOM     27  C   UNL A   1      33.358  31.852  27.603  1.00  0.00     0.202 C 
BRANCH  27  28
ATOM     28  C   UNL A   1      32.753  33.228  27.296  1.00  0.00     0.261 C 
BRANCH  28  29
ATOM     29  O   UNL A   1      32.265  33.903  28.467  1.00  0.00    -0.460 OA
BRANCH  29  30
ATOM     30  C   UNL A   1      33.010  34.965  28.861  1.00  0.00     0.338 C 
ATOM     31  O   UNL A   1      32.704  36.146  28.808  1.00  0.00    -0.246 OA
BRANCH  30  32
ATOM     32  C   UNL A   1      34.216  34.484  29.558  1.00  0.00     0.060 A 
ATOM     33  C   UNL A   1      34.130  33.861  30.803  1.00  0.00     0.016 A 
ATOM     34  C   UNL A   1      35.455  34.628  28.917  1.00  0.00     0.016 A 
ATOM     35  C   UNL A   1      35.289  33.358  31.396  1.00  0.00     0.010 A 
ATOM     36  C   UNL A   1      36.611  34.119  29.509  1.00  0.00     0.010 A 
ATOM     37  C   UNL A   1      36.534  33.465  30.745  1.00  0.00    -0.014 A 
BRANCH  37  38
ATOM     38  C   UNL A   1      37.724  32.789  31.319  1.00  0.00     0.031 A 
ATOM     39  C   UNL A   1      38.287  33.192  32.648  1.00  0.00     0.074 A 
ATOM     40  C   UNL A   1      38.293  31.788  30.620  1.00  0.00     0.049 A 
ATOM     41  N   UNL A   1      39.252  32.634  33.335  1.00  0.00    -0.248 NA
ATOM     42  C   UNL A   1      37.699  34.377  33.289  1.00  0.00     0.031 C 
ATOM     43  C   UNL A   1      37.859  31.341  29.297  1.00  0.00     0.029 A 
ATOM     44  N   UNL A   1      39.339  30.956  30.928  1.00  0.00    -0.354 N 
ATOM     45  C   UNL A   1      39.370  33.380  34.499  1.00  0.00     0.074 A 
ATOM     46  C   UNL A   1      38.421  34.468  34.398  1.00  0.00     0.031 C 
ATOM     47  C   UNL A   1      38.600  30.286  28.925  1.00  0.00     0.029 A 
ATOM     48  C   UNL A   1      39.582  30.004  29.969  1.00  0.00     0.049 A 
ATOM     49  H   UNL A   1      39.866  31.034  31.756  1.00  0.00     0.167 HD
ATOM     50  C   UNL A   1      40.180  33.156  35.561  1.00  0.00     0.037 A 
ATOM     51  C   UNL A   1      40.487  29.007  29.937  1.00  0.00     0.037 A 
ATOM     52  C   UNL A   1      41.131  32.076  35.647  1.00  0.00     0.049 A 
ATOM     53  C   UNL A   1      41.408  28.813  31.111  1.00  0.00     0.074 A 
ATOM     54  C   UNL A   1      41.967  31.747  36.700  1.00  0.00     0.029 A 
ATOM     55  N   UNL A   1      41.385  31.160  34.636  1.00  0.00    -0.354 N 
ATOM     56  N   UNL A   1      41.449  29.469  32.245  1.00  0.00    -0.248 NA
ATOM     57  C   UNL A   1      42.405  27.739  31.002  1.00  0.00     0.031 C 
ATOM     58  C   UNL A   1      42.766  30.671  36.306  1.00  0.00     0.029 A 
ATOM     59  C   UNL A   1      42.390  30.289  35.028  1.00  0.00     0.049 A 
ATOM     60  H   UNL A   1      40.919  31.132  33.769  1.00  0.00     0.167 HD
ATOM     61  C   UNL A   1      42.463  28.879  32.989  1.00  0.00     0.074 A 
ATOM     62  C   UNL A   1      42.993  27.796  32.189  1.00  0.00     0.031 C 
ATOM     63  C   UNL A   1      42.914  29.214  34.223  1.00  0.00     0.037 A 
BRANCH  50  64
ATOM     64  C   UNL A   1      40.067  34.084  36.736  1.00  0.00     0.064 A 
ATOM     65  C   UNL A   1      39.224  33.789  37.819  1.00  0.00     0.173 A 
ATOM     66  C   UNL A   1      40.869  35.233  36.825  1.00  0.00     0.173 A 
ATOM     67  F   UNL A   1      38.433  32.706  37.783  1.00  0.00    -0.203 F 
ATOM     68  C   UNL A   1      39.175  34.618  38.938  1.00  0.00     0.198 A 
ATOM     69  C   UNL A   1      40.840  36.042  37.958  1.00  0.00     0.198 A 
ATOM     70  F   UNL A   1      41.700  35.556  35.823  1.00  0.00    -0.203 F 
ATOM     71  F   UNL A   1      38.338  34.331  39.945  1.00  0.00    -0.200 F 
ATOM     72  C   UNL A   1      39.990  35.736  39.010  1.00  0.00     0.200 A 
ATOM     73  F   UNL A   1      41.640  37.115  38.034  1.00  0.00    -0.200 F 
ATOM     74  F   UNL A   1      39.956  36.522  40.096  1.00  0.00    -0.200 F 
ENDBRANCH  50  64
BRANCH  51  75
ATOM     75  C   UNL A   1      40.534  28.093  28.766  1.00  0.00     0.064 A 
ATOM     76  C   UNL A   1      39.812  26.891  28.761  1.00  0.00     0.173 A 
ATOM     77  C   UNL A   1      41.281  28.409  27.621  1.00  0.00     0.173 A 
ATOM     78  F   UNL A   1      39.098  26.535  29.839  1.00  0.00    -0.203 F 
ATOM     79  C   UNL A   1      39.844  26.037  27.661  1.00  0.00     0.198 A 
ATOM     80  C   UNL A   1      41.288  27.570  26.510  1.00  0.00     0.198 A 
ATOM     81  F   UNL A   1      41.986  29.549  27.573  1.00  0.00    -0.203 F 
ATOM     82  F   UNL A   1      39.175  24.876  27.697  1.00  0.00    -0.200 F 
ATOM     83  C   UNL A   1      40.575  26.381  26.533  1.00  0.00     0.200 A 
ATOM     84  F   UNL A   1      41.981  27.914  25.416  1.00  0.00    -0.200 F 
ATOM     85  F   UNL A   1      40.595  25.565  25.470  1.00  0.00    -0.200 F 
ENDBRANCH  51  75
BRANCH  63  86
ATOM     86  C   UNL A   1      44.043  28.405  34.795  1.00  0.00     0.064 A 
ATOM     87  C   UNL A   1      43.808  27.206  35.484  1.00  0.00     0.173 A 
ATOM     88  C   UNL A   1      45.377  28.787  34.583  1.00  0.00     0.173 A 
ATOM     89  F   UNL A   1      42.552  26.802  35.727  1.00  0.00    -0.203 F 
ATOM     90  C   UNL A   1      44.865  26.427  35.950  1.00  0.00     0.198 A 
ATOM     91  C   UNL A   1      46.431  27.989  35.020  1.00  0.00     0.198 A 
ATOM     92  F   UNL A   1      45.659  29.921  33.923  1.00  0.00    -0.203 F 
ATOM     93  F   UNL A   1      44.614  25.304  36.637  1.00  0.00    -0.200 F 
ATOM     94  C   UNL A   1      46.174  26.812  35.707  1.00  0.00     0.200 A 
ATOM     95  F   UNL A   1      47.695  28.355  34.768  1.00  0.00    -0.200 F 
ATOM     96  F   UNL A   1      47.189  26.051  36.137  1.00  0.00    -0.200 F 
ENDBRANCH  63  86
ENDBRANCH  37  38
ENDBRANCH  30  32
ENDBRANCH  29  30
ENDBRANCH  28  29
ENDBRANCH  27  28
ENDBRANCH  26  27
ENDBRANCH   1  26
TORSDOF 18
ENDMDL
