MODEL 1
REMARK VINA RESULT:     -10.4      0.000      0.000
REMARK SMILES CN(CC(=O)NCC(=O)OCCOCCOC(=O)c1ccc(-c2c3nc(c(-c4c(F)c(F)c(F)c(F)c4F)c4ccc([nH]4)c(-c4c(F)c(F)c(F)c(F)c4F)c4nc(c(-c5c(F)c(F)c(F)c(F)c5F)c5ccc2[nH]5)C=C4)C=C3)cc1)c1ncccn1
REMARK SMILES IDX 12 1 11 2 10 3 8 4 9 5 7 6 6 7 4 8 5 9 3 11 2 12 1 13 82 14
REMARK SMILES IDX 83 15 87 16 84 17 86 18 85 19 13 20 14 21 15 22 16 23 17 24
REMARK SMILES IDX 18 25 19 26 20 27 81 28 21 29 80 30 22 31 23 32 24 33 74 34
REMARK SMILES IDX 25 35 79 36 73 37 75 38 26 39 78 40 72 41 71 42 27 44 59 45
REMARK SMILES IDX 39 46 58 47 40 48 43 49 57 50 76 51 41 52 42 53 56 55 77 56
REMARK SMILES IDX 44 57 28 58 29 59 37 60 30 61 31 62 35 63 38 64 32 65 33 66
REMARK SMILES IDX 36 67 34 68 60 69 61 70 69 71 62 72 63 73 67 74 70 75 64 76
REMARK SMILES IDX 65 77 68 78 66 79 45 80 46 81 54 82 47 83 48 84 52 85 55 86
REMARK SMILES IDX 49 87 50 88 53 89 51 90
REMARK H PARENT 6 10 75 43 43 54
REMARK Flexibility Score: inf
ROOT
ATOM      1  C   UNL A   1      32.832  28.960  26.813  1.00  0.00     0.202 C 
ENDROOT
BRANCH   1   2
ATOM      2  C   UNL A   1      31.917  27.829  26.340  1.00  0.00     0.261 C 
BRANCH   2   3
ATOM      3  O   UNL A   1      32.515  26.561  26.644  1.00  0.00    -0.462 OA
BRANCH   3   4
ATOM      4  C   UNL A   1      31.832  25.471  26.214  1.00  0.00     0.325 C 
ATOM      5  O   UNL A   1      31.427  24.565  26.936  1.00  0.00    -0.250 OA
BRANCH   4   6
ATOM      6  C   UNL A   1      31.465  25.557  24.734  1.00  0.00     0.238 C 
BRANCH   6   7
ATOM      7  N   UNL A   1      32.504  25.354  23.738  1.00  0.00    -0.344 N 
ATOM      8  C   UNL A   1      32.588  25.931  22.500  1.00  0.00     0.240 C 
ATOM      9  O   UNL A   1      33.645  25.813  21.875  1.00  0.00    -0.273 OA
ATOM     10  H   UNL A   1      33.227  24.732  23.981  1.00  0.00     0.164 HD
BRANCH   8  11
ATOM     11  C   UNL A   1      31.415  26.783  21.988  1.00  0.00     0.219 C 
BRANCH  11  12
ATOM     12  N   UNL A   1      31.357  28.105  22.616  1.00  0.00    -0.335 N 
ATOM     13  C   UNL A   1      32.565  28.886  22.778  1.00  0.00     0.147 C 
BRANCH  12  14
ATOM     14  C   UNL A   1      30.169  28.801  22.454  1.00  0.00     0.225 A 
ATOM     15  N   UNL A   1      29.059  28.310  23.023  1.00  0.00    -0.221 NA
ATOM     16  N   UNL A   1      30.154  29.914  21.701  1.00  0.00    -0.221 NA
ATOM     17  C   UNL A   1      27.894  28.939  22.799  1.00  0.00     0.117 A 
ATOM     18  C   UNL A   1      28.961  30.503  21.483  1.00  0.00     0.117 A 
ATOM     19  C   UNL A   1      27.781  30.050  22.011  1.00  0.00     0.040 A 
ENDBRANCH  12  14
ENDBRANCH  11  12
ENDBRANCH   8  11
ENDBRANCH   6   7
ENDBRANCH   4   6
ENDBRANCH   3   4
ENDBRANCH   2   3
ENDBRANCH   1   2
BRANCH   1  20
ATOM     20  O   UNL A   1      32.167  30.116  27.333  1.00  0.00    -0.374 OA
BRANCH  20  21
ATOM     21  C   UNL A   1      31.751  31.108  26.395  1.00  0.00     0.202 C 
BRANCH  21  22
ATOM     22  C   UNL A   1      31.779  32.564  26.877  1.00  0.00     0.261 C 
BRANCH  22  23
ATOM     23  O   UNL A   1      33.093  33.145  26.814  1.00  0.00    -0.460 OA
BRANCH  23  24
ATOM     24  C   UNL A   1      33.572  33.590  27.998  1.00  0.00     0.338 C 
ATOM     25  O   UNL A   1      33.044  34.386  28.762  1.00  0.00    -0.246 OA
BRANCH  24  26
ATOM     26  C   UNL A   1      34.800  32.861  28.363  1.00  0.00     0.060 A 
ATOM     27  C   UNL A   1      34.659  31.535  28.795  1.00  0.00     0.016 A 
ATOM     28  C   UNL A   1      36.051  33.480  28.379  1.00  0.00     0.016 A 
ATOM     29  C   UNL A   1      35.759  30.837  29.288  1.00  0.00     0.010 A 
ATOM     30  C   UNL A   1      37.154  32.780  28.882  1.00  0.00     0.010 A 
ATOM     31  C   UNL A   1      37.008  31.466  29.367  1.00  0.00    -0.014 A 
BRANCH  31  32
ATOM     32  C   UNL A   1      38.123  30.799  30.086  1.00  0.00     0.031 A 
ATOM     33  C   UNL A   1      38.389  31.162  31.521  1.00  0.00     0.074 A 
ATOM     34  C   UNL A   1      38.876  29.862  29.481  1.00  0.00     0.049 A 
ATOM     35  N   UNL A   1      39.324  30.727  32.329  1.00  0.00    -0.248 NA
ATOM     36  C   UNL A   1      37.475  32.140  32.131  1.00  0.00     0.031 C 
ATOM     37  C   UNL A   1      38.688  29.379  28.115  1.00  0.00     0.029 A 
ATOM     38  N   UNL A   1      39.962  29.158  29.940  1.00  0.00    -0.354 N 
ATOM     39  C   UNL A   1      39.109  31.375  33.538  1.00  0.00     0.074 A 
ATOM     40  C   UNL A   1      37.983  32.264  33.348  1.00  0.00     0.031 C 
ATOM     41  C   UNL A   1      39.649  28.484  27.831  1.00  0.00     0.029 A 
ATOM     42  C   UNL A   1      40.523  28.335  28.995  1.00  0.00     0.049 A 
ATOM     43  H   UNL A   1      40.305  29.236  30.859  1.00  0.00     0.167 HD
ATOM     44  C   UNL A   1      39.775  31.227  34.708  1.00  0.00     0.037 A 
ATOM     45  C   UNL A   1      41.623  27.560  29.058  1.00  0.00     0.037 A 
ATOM     46  C   UNL A   1      40.886  30.335  34.905  1.00  0.00     0.049 A 
ATOM     47  C   UNL A   1      42.397  27.474  30.347  1.00  0.00     0.074 A 
ATOM     48  C   UNL A   1      41.604  30.092  36.063  1.00  0.00     0.029 A 
ATOM     49  N   UNL A   1      41.446  29.543  33.915  1.00  0.00    -0.354 N 
ATOM     50  N   UNL A   1      42.161  28.061  31.495  1.00  0.00    -0.248 NA
ATOM     51  C   UNL A   1      43.581  26.602  30.353  1.00  0.00     0.031 C 
ATOM     52  C   UNL A   1      42.627  29.187  35.763  1.00  0.00     0.029 A 
ATOM     53  C   UNL A   1      42.517  28.830  34.428  1.00  0.00     0.049 A 
ATOM     54  H   UNL A   1      41.129  29.494  32.984  1.00  0.00     0.167 HD
ATOM     55  C   UNL A   1      43.142  27.604  32.367  1.00  0.00     0.074 A 
ATOM     56  C   UNL A   1      43.974  26.687  31.617  1.00  0.00     0.031 C 
ATOM     57  C   UNL A   1      43.332  27.913  33.673  1.00  0.00     0.037 A 
BRANCH  44  58
ATOM     58  C   UNL A   1      39.322  32.062  35.870  1.00  0.00     0.064 A 
ATOM     59  C   UNL A   1      38.355  31.598  36.775  1.00  0.00     0.173 A 
ATOM     60  C   UNL A   1      39.886  33.325  36.100  1.00  0.00     0.173 A 
ATOM     61  F   UNL A   1      37.778  30.402  36.592  1.00  0.00    -0.203 F 
ATOM     62  C   UNL A   1      37.952  32.381  37.853  1.00  0.00     0.198 A 
ATOM     63  C   UNL A   1      39.499  34.094  37.194  1.00  0.00     0.198 A 
ATOM     64  F   UNL A   1      40.818  33.810  35.265  1.00  0.00    -0.203 F 
ATOM     65  F   UNL A   1      36.996  31.938  38.681  1.00  0.00    -0.200 F 
ATOM     66  C   UNL A   1      38.528  33.625  38.066  1.00  0.00     0.200 A 
ATOM     67  F   UNL A   1      40.065  35.290  37.403  1.00  0.00    -0.200 F 
ATOM     68  F   UNL A   1      38.143  34.375  39.107  1.00  0.00    -0.200 F 
ENDBRANCH  44  58
BRANCH  45  69
ATOM     69  C   UNL A   1      42.063  26.802  27.859  1.00  0.00     0.064 A 
ATOM     70  C   UNL A   1      41.571  25.518  27.590  1.00  0.00     0.173 A 
ATOM     71  C   UNL A   1      43.002  27.342  26.968  1.00  0.00     0.173 A 
ATOM     72  F   UNL A   1      40.689  24.952  28.427  1.00  0.00    -0.203 F 
ATOM     73  C   UNL A   1      42.015  24.795  26.486  1.00  0.00     0.198 A 
ATOM     74  C   UNL A   1      43.428  26.627  25.851  1.00  0.00     0.198 A 
ATOM     75  F   UNL A   1      43.500  28.570  27.178  1.00  0.00    -0.203 F 
ATOM     76  F   UNL A   1      41.561  23.551  26.276  1.00  0.00    -0.200 F 
ATOM     77  C   UNL A   1      42.940  25.350  25.615  1.00  0.00     0.200 A 
ATOM     78  F   UNL A   1      44.313  27.172  25.006  1.00  0.00    -0.200 F 
ATOM     79  F   UNL A   1      43.367  24.654  24.552  1.00  0.00    -0.200 F 
ENDBRANCH  45  69
BRANCH  57  80
ATOM     80  C   UNL A   1      44.458  27.226  34.389  1.00  0.00     0.064 A 
ATOM     81  C   UNL A   1      44.286  25.979  35.008  1.00  0.00     0.173 A 
ATOM     82  C   UNL A   1      45.737  27.804  34.417  1.00  0.00     0.173 A 
ATOM     83  F   UNL A   1      43.079  25.393  35.020  1.00  0.00    -0.203 F 
ATOM     84  C   UNL A   1      45.348  25.346  35.647  1.00  0.00     0.198 A 
ATOM     85  C   UNL A   1      46.804  27.155  35.035  1.00  0.00     0.198 A 
ATOM     86  F   UNL A   1      45.956  28.993  33.835  1.00  0.00    -0.203 F 
ATOM     87  F   UNL A   1      45.151  24.175  36.270  1.00  0.00    -0.200 F 
ATOM     88  C   UNL A   1      46.607  25.931  35.654  1.00  0.00     0.200 A 
ATOM     89  F   UNL A   1      48.020  27.715  35.030  1.00  0.00    -0.200 F 
ATOM     90  F   UNL A   1      47.629  25.315  36.265  1.00  0.00    -0.200 F 
ENDBRANCH  57  80
ENDBRANCH  31  32
ENDBRANCH  24  26
ENDBRANCH  23  24
ENDBRANCH  22  23
ENDBRANCH  21  22
ENDBRANCH  20  21
ENDBRANCH   1  20
TORSDOF 18
ENDMDL
MODEL 2
REMARK VINA RESULT:     -10.3      1.741      8.023
REMARK SMILES CN(CC(=O)NCC(=O)OCCOCCOC(=O)c1ccc(-c2c3nc(c(-c4c(F)c(F)c(F)c(F)c4F)c4ccc([nH]4)c(-c4c(F)c(F)c(F)c(F)c4F)c4nc(c(-c5c(F)c(F)c(F)c(F)c5F)c5ccc2[nH]5)C=C4)C=C3)cc1)c1ncccn1
REMARK SMILES IDX 12 1 11 2 10 3 8 4 9 5 7 6 6 7 4 8 5 9 3 11 2 12 1 13 82 14
REMARK SMILES IDX 83 15 87 16 84 17 86 18 85 19 13 20 14 21 15 22 16 23 17 24
REMARK SMILES IDX 18 25 19 26 20 27 81 28 21 29 80 30 22 31 23 32 24 33 74 34
REMARK SMILES IDX 25 35 79 36 73 37 75 38 26 39 78 40 72 41 71 42 27 44 59 45
REMARK SMILES IDX 39 46 58 47 40 48 43 49 57 50 76 51 41 52 42 53 56 55 77 56
REMARK SMILES IDX 44 57 28 58 29 59 37 60 30 61 31 62 35 63 38 64 32 65 33 66
REMARK SMILES IDX 36 67 34 68 60 69 61 70 69 71 62 72 63 73 67 74 70 75 64 76
REMARK SMILES IDX 65 77 68 78 66 79 45 80 46 81 54 82 47 83 48 84 52 85 55 86
REMARK SMILES IDX 49 87 50 88 53 89 51 90
REMARK H PARENT 6 10 75 43 43 54
REMARK Flexibility Score: inf
ROOT
ATOM      1  C   UNL A   1      31.004  27.283  26.430  1.00  0.00     0.202 C 
ENDROOT
BRANCH   1   2
ATOM      2  C   UNL A   1      30.765  25.853  25.941  1.00  0.00     0.261 C 
BRANCH   2   3
ATOM      3  O   UNL A   1      31.770  24.982  26.480  1.00  0.00    -0.462 OA
BRANCH   3   4
ATOM      4  C   UNL A   1      31.333  23.765  26.890  1.00  0.00     0.325 C 
ATOM      5  O   UNL A   1      30.196  23.521  27.280  1.00  0.00    -0.250 OA
BRANCH   4   6
ATOM      6  C   UNL A   1      32.368  22.665  26.663  1.00  0.00     0.238 C 
BRANCH   6   7
ATOM      7  N   UNL A   1      31.925  21.372  26.171  1.00  0.00    -0.344 N 
ATOM      8  C   UNL A   1      32.495  20.624  25.177  1.00  0.00     0.240 C 
ATOM      9  O   UNL A   1      32.118  19.457  25.039  1.00  0.00    -0.273 OA
ATOM     10  H   UNL A   1      31.125  20.991  26.601  1.00  0.00     0.164 HD
BRANCH   8  11
ATOM     11  C   UNL A   1      33.645  21.224  24.352  1.00  0.00     0.219 C 
BRANCH  11  12
ATOM     12  N   UNL A   1      33.177  21.956  23.173  1.00  0.00    -0.335 N 
ATOM     13  C   UNL A   1      32.076  21.440  22.388  1.00  0.00     0.147 C 
BRANCH  12  14
ATOM     14  C   UNL A   1      33.341  23.332  23.210  1.00  0.00     0.225 A 
ATOM     15  N   UNL A   1      34.251  23.845  24.050  1.00  0.00    -0.221 NA
ATOM     16  N   UNL A   1      32.560  24.110  22.440  1.00  0.00    -0.221 NA
ATOM     17  C   UNL A   1      34.353  25.181  24.144  1.00  0.00     0.117 A 
ATOM     18  C   UNL A   1      32.679  25.446  22.580  1.00  0.00     0.117 A 
ATOM     19  C   UNL A   1      33.569  26.045  23.433  1.00  0.00     0.040 A 
ENDBRANCH  12  14
ENDBRANCH  11  12
ENDBRANCH   8  11
ENDBRANCH   6   7
ENDBRANCH   4   6
ENDBRANCH   3   4
ENDBRANCH   2   3
ENDBRANCH   1   2
BRANCH   1  20
ATOM     20  O   UNL A   1      32.051  27.996  25.764  1.00  0.00    -0.374 OA
BRANCH  20  21
ATOM     21  C   UNL A   1      31.675  29.134  24.988  1.00  0.00     0.202 C 
BRANCH  21  22
ATOM     22  C   UNL A   1      31.758  30.498  25.684  1.00  0.00     0.261 C 
BRANCH  22  23
ATOM     23  O   UNL A   1      32.493  30.449  26.919  1.00  0.00    -0.460 OA
BRANCH  23  24
ATOM     24  C   UNL A   1      33.182  31.575  27.213  1.00  0.00     0.338 C 
ATOM     25  O   UNL A   1      32.767  32.725  27.204  1.00  0.00    -0.246 OA
BRANCH  24  26
ATOM     26  C   UNL A   1      34.526  31.239  27.719  1.00  0.00     0.060 A 
ATOM     27  C   UNL A   1      34.774  29.899  28.049  1.00  0.00     0.016 A 
ATOM     28  C   UNL A   1      35.490  32.217  27.961  1.00  0.00     0.016 A 
ATOM     29  C   UNL A   1      35.971  29.539  28.664  1.00  0.00     0.010 A 
ATOM     30  C   UNL A   1      36.690  31.855  28.586  1.00  0.00     0.010 A 
ATOM     31  C   UNL A   1      36.924  30.520  28.968  1.00  0.00    -0.014 A 
BRANCH  31  32
ATOM     32  C   UNL A   1      38.097  30.170  29.809  1.00  0.00     0.031 A 
ATOM     33  C   UNL A   1      39.119  29.206  29.274  1.00  0.00     0.074 A 
ATOM     34  C   UNL A   1      38.267  30.721  31.025  1.00  0.00     0.049 A 
ATOM     35  N   UNL A   1      40.200  28.738  29.846  1.00  0.00    -0.248 NA
ATOM     36  C   UNL A   1      38.897  28.706  27.908  1.00  0.00     0.031 C 
ATOM     37  C   UNL A   1      37.382  31.710  31.637  1.00  0.00     0.029 A 
ATOM     38  N   UNL A   1      39.242  30.513  31.968  1.00  0.00    -0.354 N 
ATOM     39  C   UNL A   1      40.787  27.895  28.911  1.00  0.00     0.074 A 
ATOM     40  C   UNL A   1      39.921  27.880  27.752  1.00  0.00     0.031 C 
ATOM     41  C   UNL A   1      37.833  31.997  32.870  1.00  0.00     0.029 A 
ATOM     42  C   UNL A   1      39.036  31.208  33.135  1.00  0.00     0.049 A 
ATOM     43  H   UNL A   1      40.016  29.923  31.822  1.00  0.00     0.167 HD
ATOM     44  C   UNL A   1      41.953  27.212  29.001  1.00  0.00     0.037 A 
ATOM     45  C   UNL A   1      39.731  31.198  34.289  1.00  0.00     0.037 A 
ATOM     46  C   UNL A   1      42.823  27.234  30.147  1.00  0.00     0.049 A 
ATOM     47  C   UNL A   1      40.982  30.366  34.394  1.00  0.00     0.074 A 
ATOM     48  C   UNL A   1      44.042  26.601  30.317  1.00  0.00     0.029 A 
ATOM     49  N   UNL A   1      42.563  27.923  31.321  1.00  0.00    -0.354 N 
ATOM     50  N   UNL A   1      41.547  29.603  33.491  1.00  0.00    -0.248 NA
ATOM     51  C   UNL A   1      41.700  30.408  35.677  1.00  0.00     0.031 C 
ATOM     52  C   UNL A   1      44.497  26.870  31.613  1.00  0.00     0.029 A 
ATOM     53  C   UNL A   1      43.584  27.709  32.232  1.00  0.00     0.049 A 
ATOM     54  H   UNL A   1      41.769  28.482  31.484  1.00  0.00     0.167 HD
ATOM     55  C   UNL A   1      42.703  29.104  34.080  1.00  0.00     0.074 A 
ATOM     56  C   UNL A   1      42.761  29.654  35.418  1.00  0.00     0.031 C 
ATOM     57  C   UNL A   1      43.635  28.270  33.557  1.00  0.00     0.037 A 
BRANCH  44  58
ATOM     58  C   UNL A   1      42.351  26.369  27.825  1.00  0.00     0.064 A 
ATOM     59  C   UNL A   1      43.238  26.844  26.847  1.00  0.00     0.173 A 
ATOM     60  C   UNL A   1      41.867  25.059  27.694  1.00  0.00     0.173 A 
ATOM     61  F   UNL A   1      43.719  28.094  26.922  1.00  0.00    -0.203 F 
ATOM     62  C   UNL A   1      43.604  26.046  25.767  1.00  0.00     0.198 A 
ATOM     63  C   UNL A   1      42.256  24.256  26.626  1.00  0.00     0.198 A 
ATOM     64  F   UNL A   1      41.020  24.557  28.606  1.00  0.00    -0.203 F 
ATOM     65  F   UNL A   1      44.418  26.535  24.821  1.00  0.00    -0.200 F 
ATOM     66  C   UNL A   1      43.119  24.752  25.660  1.00  0.00     0.200 A 
ATOM     67  F   UNL A   1      41.795  23.001  26.531  1.00  0.00    -0.200 F 
ATOM     68  F   UNL A   1      43.478  23.983  24.622  1.00  0.00    -0.200 F 
ENDBRANCH  44  58
BRANCH  45  69
ATOM     69  C   UNL A   1      39.258  32.003  35.444  1.00  0.00     0.064 A 
ATOM     70  C   UNL A   1      39.657  33.336  35.612  1.00  0.00     0.173 A 
ATOM     71  C   UNL A   1      38.412  31.447  36.414  1.00  0.00     0.173 A 
ATOM     72  F   UNL A   1      40.484  33.903  34.722  1.00  0.00    -0.203 F 
ATOM     73  C   UNL A   1      39.243  34.076  36.717  1.00  0.00     0.198 A 
ATOM     74  C   UNL A   1      37.979  32.196  37.506  1.00  0.00     0.198 A 
ATOM     75  F   UNL A   1      37.997  30.176  36.296  1.00  0.00    -0.203 F 
ATOM     76  F   UNL A   1      39.674  35.336  36.876  1.00  0.00    -0.200 F 
ATOM     77  C   UNL A   1      38.401  33.508  37.661  1.00  0.00     0.200 A 
ATOM     78  F   UNL A   1      37.157  31.646  38.410  1.00  0.00    -0.200 F 
ATOM     79  F   UNL A   1      38.003  34.221  38.723  1.00  0.00    -0.200 F 
ENDBRANCH  45  69
BRANCH  57  80
ATOM     80  C   UNL A   1      44.818  27.930  34.416  1.00  0.00     0.064 A 
ATOM     81  C   UNL A   1      46.001  28.681  34.370  1.00  0.00     0.173 A 
ATOM     82  C   UNL A   1      44.748  26.864  35.328  1.00  0.00     0.173 A 
ATOM     83  F   UNL A   1      46.121  29.699  33.505  1.00  0.00    -0.203 F 
ATOM     84  C   UNL A   1      47.080  28.365  35.190  1.00  0.00     0.198 A 
ATOM     85  C   UNL A   1      45.821  26.568  36.167  1.00  0.00     0.198 A 
ATOM     86  F   UNL A   1      43.637  26.119  35.415  1.00  0.00    -0.203 F 
ATOM     87  F   UNL A   1      48.218  29.068  35.100  1.00  0.00    -0.200 F 
ATOM     88  C   UNL A   1      46.987  27.314  36.092  1.00  0.00     0.200 A 
ATOM     89  F   UNL A   1      45.724  25.562  37.045  1.00  0.00    -0.200 F 
ATOM     90  F   UNL A   1      48.026  27.017  36.886  1.00  0.00    -0.200 F 
ENDBRANCH  57  80
ENDBRANCH  31  32
ENDBRANCH  24  26
ENDBRANCH  23  24
ENDBRANCH  22  23
ENDBRANCH  21  22
ENDBRANCH  20  21
ENDBRANCH   1  20
TORSDOF 18
ENDMDL
MODEL 3
REMARK VINA RESULT:     -10.1      2.753      4.283
REMARK SMILES CN(CC(=O)NCC(=O)OCCOCCOC(=O)c1ccc(-c2c3nc(c(-c4c(F)c(F)c(F)c(F)c4F)c4ccc([nH]4)c(-c4c(F)c(F)c(F)c(F)c4F)c4nc(c(-c5c(F)c(F)c(F)c(F)c5F)c5ccc2[nH]5)C=C4)C=C3)cc1)c1ncccn1
REMARK SMILES IDX 12 1 11 2 10 3 8 4 9 5 7 6 6 7 4 8 5 9 3 11 2 12 1 13 82 14
REMARK SMILES IDX 83 15 87 16 84 17 86 18 85 19 13 20 14 21 15 22 16 23 17 24
REMARK SMILES IDX 18 25 19 26 20 27 81 28 21 29 80 30 22 31 23 32 24 33 74 34
REMARK SMILES IDX 25 35 79 36 73 37 75 38 26 39 78 40 72 41 71 42 27 44 59 45
REMARK SMILES IDX 39 46 58 47 40 48 43 49 57 50 76 51 41 52 42 53 56 55 77 56
REMARK SMILES IDX 44 57 28 58 29 59 37 60 30 61 31 62 35 63 38 64 32 65 33 66
REMARK SMILES IDX 36 67 34 68 60 69 61 70 69 71 62 72 63 73 67 74 70 75 64 76
REMARK SMILES IDX 65 77 68 78 66 79 45 80 46 81 54 82 47 83 48 84 52 85 55 86
REMARK SMILES IDX 49 87 50 88 53 89 51 90
REMARK H PARENT 6 10 75 43 43 54
REMARK Flexibility Score: inf
ROOT
ATOM      1  C   UNL A   1      32.282  27.868  23.497  1.00  0.00     0.202 C 
ENDROOT
BRANCH   1   2
ATOM      2  C   UNL A   1      32.224  26.341  23.416  1.00  0.00     0.261 C 
BRANCH   2   3
ATOM      3  O   UNL A   1      33.495  25.787  23.782  1.00  0.00    -0.462 OA
BRANCH   3   4
ATOM      4  C   UNL A   1      33.759  24.549  23.295  1.00  0.00     0.325 C 
ATOM      5  O   UNL A   1      34.859  24.165  22.910  1.00  0.00    -0.250 OA
BRANCH   4   6
ATOM      6  C   UNL A   1      32.567  23.603  23.423  1.00  0.00     0.238 C 
BRANCH   6   7
ATOM      7  N   UNL A   1      32.379  22.568  22.421  1.00  0.00    -0.344 N 
ATOM      8  C   UNL A   1      32.123  21.241  22.640  1.00  0.00     0.240 C 
ATOM      9  O   UNL A   1      31.778  20.551  21.677  1.00  0.00    -0.273 OA
ATOM     10  H   UNL A   1      32.442  22.852  21.481  1.00  0.00     0.164 HD
BRANCH   8  11
ATOM     11  C   UNL A   1      32.171  20.695  24.075  1.00  0.00     0.219 C 
BRANCH  11  12
ATOM     12  N   UNL A   1      33.441  20.035  24.390  1.00  0.00    -0.335 N 
ATOM     13  C   UNL A   1      34.487  20.762  25.076  1.00  0.00     0.147 C 
BRANCH  12  14
ATOM     14  C   UNL A   1      33.376  18.666  24.601  1.00  0.00     0.225 A 
ATOM     15  N   UNL A   1      33.996  17.856  23.732  1.00  0.00    -0.221 NA
ATOM     16  N   UNL A   1      32.663  18.192  25.637  1.00  0.00    -0.221 NA
ATOM     17  C   UNL A   1      33.866  16.528  23.890  1.00  0.00     0.117 A 
ATOM     18  C   UNL A   1      32.539  16.854  25.748  1.00  0.00     0.117 A 
ATOM     19  C   UNL A   1      33.123  15.962  24.889  1.00  0.00     0.040 A 
ENDBRANCH  12  14
ENDBRANCH  11  12
ENDBRANCH   8  11
ENDBRANCH   6   7
ENDBRANCH   4   6
ENDBRANCH   3   4
ENDBRANCH   2   3
ENDBRANCH   1   2
BRANCH   1  20
ATOM     20  O   UNL A   1      31.974  28.430  24.777  1.00  0.00    -0.374 OA
BRANCH  20  21
ATOM     21  C   UNL A   1      32.837  29.457  25.264  1.00  0.00     0.202 C 
BRANCH  21  22
ATOM     22  C   UNL A   1      32.179  30.576  26.082  1.00  0.00     0.261 C 
BRANCH  22  23
ATOM     23  O   UNL A   1      32.719  30.685  27.410  1.00  0.00    -0.460 OA
BRANCH  23  24
ATOM     24  C   UNL A   1      33.564  31.726  27.594  1.00  0.00     0.338 C 
ATOM     25  O   UNL A   1      33.293  32.918  27.565  1.00  0.00    -0.246 OA
BRANCH  24  26
ATOM     26  C   UNL A   1      34.895  31.242  28.003  1.00  0.00     0.060 A 
ATOM     27  C   UNL A   1      35.020  29.880  28.309  1.00  0.00     0.016 A 
ATOM     28  C   UNL A   1      35.974  32.108  28.180  1.00  0.00     0.016 A 
ATOM     29  C   UNL A   1      36.211  29.387  28.837  1.00  0.00     0.010 A 
ATOM     30  C   UNL A   1      37.168  31.612  28.718  1.00  0.00     0.010 A 
ATOM     31  C   UNL A   1      37.283  30.256  29.078  1.00  0.00    -0.014 A 
BRANCH  31  32
ATOM     32  C   UNL A   1      38.466  29.772  29.833  1.00  0.00     0.031 A 
ATOM     33  C   UNL A   1      38.724  30.313  31.213  1.00  0.00     0.074 A 
ATOM     34  C   UNL A   1      39.290  28.845  29.312  1.00  0.00     0.049 A 
ATOM     35  N   UNL A   1      39.708  30.054  32.037  1.00  0.00    -0.248 NA
ATOM     36  C   UNL A   1      37.735  31.268  31.738  1.00  0.00     0.031 C 
ATOM     37  C   UNL A   1      39.122  28.200  28.012  1.00  0.00     0.029 A 
ATOM     38  N   UNL A   1      40.443  28.294  29.815  1.00  0.00    -0.354 N 
ATOM     39  C   UNL A   1      39.456  30.810  33.175  1.00  0.00     0.074 A 
ATOM     40  C   UNL A   1      38.251  31.570  32.920  1.00  0.00     0.031 C 
ATOM     41  C   UNL A   1      40.156  27.367  27.801  1.00  0.00     0.029 A 
ATOM     42  C   UNL A   1      41.059  27.425  28.949  1.00  0.00     0.049 A 
ATOM     43  H   UNL A   1      40.794  28.503  30.710  1.00  0.00     0.167 HD
ATOM     44  C   UNL A   1      40.154  30.851  34.335  1.00  0.00     0.037 A 
ATOM     45  C   UNL A   1      42.226  26.762  29.065  1.00  0.00     0.037 A 
ATOM     46  C   UNL A   1      41.345  30.087  34.596  1.00  0.00     0.049 A 
ATOM     47  C   UNL A   1      43.027  26.886  30.334  1.00  0.00     0.074 A 
ATOM     48  C   UNL A   1      42.101  30.037  35.754  1.00  0.00     0.029 A 
ATOM     49  N   UNL A   1      41.956  29.243  33.683  1.00  0.00    -0.354 N 
ATOM     50  N   UNL A   1      42.760  27.573  31.418  1.00  0.00    -0.248 NA
ATOM     51  C   UNL A   1      44.286  26.128  30.402  1.00  0.00     0.031 C 
ATOM     52  C   UNL A   1      43.197  29.198  35.525  1.00  0.00     0.029 A 
ATOM     53  C   UNL A   1      43.097  28.689  34.240  1.00  0.00     0.049 A 
ATOM     54  H   UNL A   1      41.629  29.064  32.772  1.00  0.00     0.167 HD
ATOM     55  C   UNL A   1      43.793  27.303  32.307  1.00  0.00     0.074 A 
ATOM     56  C   UNL A   1      44.692  26.386  31.638  1.00  0.00     0.031 C 
ATOM     57  C   UNL A   1      43.978  27.769  33.566  1.00  0.00     0.037 A 
BRANCH  44  58
ATOM     58  C   UNL A   1      39.648  31.765  35.412  1.00  0.00     0.064 A 
ATOM     59  C   UNL A   1      40.115  33.082  35.538  1.00  0.00     0.173 A 
ATOM     60  C   UNL A   1      38.660  31.329  36.307  1.00  0.00     0.173 A 
ATOM     61  F   UNL A   1      41.068  33.542  34.714  1.00  0.00    -0.203 F 
ATOM     62  C   UNL A   1      39.628  33.920  36.538  1.00  0.00     0.198 A 
ATOM     63  C   UNL A   1      38.157  32.178  37.288  1.00  0.00     0.198 A 
ATOM     64  F   UNL A   1      38.178  30.079  36.224  1.00  0.00    -0.203 F 
ATOM     65  F   UNL A   1      40.119  35.160  36.668  1.00  0.00    -0.200 F 
ATOM     66  C   UNL A   1      38.646  33.470  37.407  1.00  0.00     0.200 A 
ATOM     67  F   UNL A   1      37.200  31.745  38.121  1.00  0.00    -0.200 F 
ATOM     68  F   UNL A   1      38.175  34.281  38.365  1.00  0.00    -0.200 F 
ENDBRANCH  44  58
BRANCH  45  69
ATOM     69  C   UNL A   1      42.712  25.918  27.943  1.00  0.00     0.064 A 
ATOM     70  C   UNL A   1      42.337  24.573  27.831  1.00  0.00     0.173 A 
ATOM     71  C   UNL A   1      43.579  26.438  26.971  1.00  0.00     0.173 A 
ATOM     72  F   UNL A   1      41.528  24.026  28.749  1.00  0.00    -0.203 F 
ATOM     73  C   UNL A   1      42.826  23.775  26.799  1.00  0.00     0.198 A 
ATOM     74  C   UNL A   1      44.049  25.645  25.927  1.00  0.00     0.198 A 
ATOM     75  F   UNL A   1      43.964  27.723  27.032  1.00  0.00    -0.203 F 
ATOM     76  F   UNL A   1      42.485  22.479  26.739  1.00  0.00    -0.200 F 
ATOM     77  C   UNL A   1      43.677  24.312  25.846  1.00  0.00     0.200 A 
ATOM     78  F   UNL A   1      44.862  26.172  25.002  1.00  0.00    -0.200 F 
ATOM     79  F   UNL A   1      44.147  23.543  24.853  1.00  0.00    -0.200 F 
ENDBRANCH  45  69
BRANCH  57  80
ATOM     80  C   UNL A   1      45.174  27.268  34.321  1.00  0.00     0.064 A 
ATOM     81  C   UNL A   1      45.123  26.093  35.085  1.00  0.00     0.173 A 
ATOM     82  C   UNL A   1      46.399  27.949  34.241  1.00  0.00     0.173 A 
ATOM     83  F   UNL A   1      43.972  25.415  35.204  1.00  0.00    -0.203 F 
ATOM     84  C   UNL A   1      46.250  25.630  35.760  1.00  0.00     0.198 A 
ATOM     85  C   UNL A   1      47.531  27.468  34.896  1.00  0.00     0.198 A 
ATOM     86  F   UNL A   1      46.503  29.074  33.518  1.00  0.00    -0.203 F 
ATOM     87  F   UNL A   1      46.168  24.529  36.520  1.00  0.00    -0.200 F 
ATOM     88  C   UNL A   1      47.453  26.313  35.659  1.00  0.00     0.200 A 
ATOM     89  F   UNL A   1      48.695  28.122  34.787  1.00  0.00    -0.200 F 
ATOM     90  F   UNL A   1      48.538  25.861  36.305  1.00  0.00    -0.200 F 
ENDBRANCH  57  80
ENDBRANCH  31  32
ENDBRANCH  24  26
ENDBRANCH  23  24
ENDBRANCH  22  23
ENDBRANCH  21  22
ENDBRANCH  20  21
ENDBRANCH   1  20
TORSDOF 18
ENDMDL
