MODEL 1
REMARK VINA RESULT:     -12.0      0.000      0.000
REMARK SMILES C[C@@H]1CCCN(C(=O)c2ccncc2/C=C/C(=O)OCCOCCOC(=O)c2ccc(-c3c4nc(c(-c5c(F)c(F)c(F)c(F)c5F)c5ccc([nH]5)c(-c5c(F)c(F)c(F)c(F)c5F)c5nc(c(-c6c(F)c(F)c(F)c(F)c6F)c6ccc3[nH]6)C=C5)C=C4)cc2)[C@@H]1C
REMARK SMILES IDX 21 1 20 2 19 3 17 4 18 5 16 6 15 7 14 8 9 9 10 10 11 11
REMARK SMILES IDX 13 12 12 13 7 14 8 15 6 16 1 17 2 18 3 19 91 20 4 21 92 22
REMARK SMILES IDX 5 23 22 24 23 25 24 26 25 27 26 28 27 29 28 30 29 31 90 32
REMARK SMILES IDX 30 33 89 34 31 35 32 36 33 37 83 38 34 39 88 40 82 41 84 42
REMARK SMILES IDX 35 43 87 44 81 45 80 46 36 48 68 49 48 50 67 51 49 52 52 53
REMARK SMILES IDX 66 54 85 55 50 56 51 57 65 59 86 60 53 61 37 62 38 63 46 64
REMARK SMILES IDX 39 65 40 66 44 67 47 68 41 69 42 70 45 71 43 72 69 73 70 74
REMARK SMILES IDX 78 75 71 76 72 77 76 78 79 79 73 80 74 81 77 82 75 83 54 84
REMARK SMILES IDX 55 85 63 86 56 87 57 88 61 89 64 90 58 91 59 92 62 93 60 94
REMARK H PARENT 84 47 52 58
REMARK Flexibility Score: inf
ROOT
ATOM      1  C   UNL A   1      41.013  20.683  27.126  1.00  0.00     0.202 C 
ENDROOT
BRANCH   1   2
ATOM      2  C   UNL A   1      40.134  21.707  26.408  1.00  0.00     0.261 C 
BRANCH   2   3
ATOM      3  O   UNL A   1      39.021  21.068  25.759  1.00  0.00    -0.460 OA
BRANCH   3   4
ATOM      4  C   UNL A   1      37.923  21.845  25.609  1.00  0.00     0.330 C 
ATOM      5  O   UNL A   1      37.860  23.055  25.775  1.00  0.00    -0.247 OA
BRANCH   4   6
ATOM      6  C   UNL A   1      36.747  21.089  25.131  1.00  0.00     0.094 C 
ATOM      7  C   UNL A   1      35.473  21.205  25.543  1.00  0.00     0.018 C 
BRANCH   7   8
ATOM      8  C   UNL A   1      34.391  20.400  24.937  1.00  0.00     0.006 A 
ATOM      9  C   UNL A   1      33.146  20.922  24.552  1.00  0.00     0.050 A 
ATOM     10  C   UNL A   1      32.235  20.142  23.828  1.00  0.00     0.034 A 
ATOM     11  C   UNL A   1      32.538  18.812  23.623  1.00  0.00     0.112 A 
ATOM     12  C   UNL A   1      34.560  19.035  24.704  1.00  0.00     0.119 A 
ATOM     13  N   UNL A   1      33.666  18.233  24.075  1.00  0.00    -0.264 NA
BRANCH   9  14
ATOM     14  C   UNL A   1      32.785  22.327  24.843  1.00  0.00     0.254 C 
ATOM     15  O   UNL A   1      32.834  22.651  26.026  1.00  0.00    -0.269 OA
BRANCH  14  16
ATOM     16  N   UNL A   1      32.403  23.168  23.789  1.00  0.00    -0.336 N 
ATOM     17  C   UNL A   1      33.476  26.041  24.222  1.00  0.00     0.010 C 
ATOM     18  C   UNL A   1      33.155  25.358  22.887  1.00  0.00     0.008 C 
ATOM     19  C   UNL A   1      31.714  25.667  22.449  1.00  0.00     0.007 C 
ATOM     20  C   UNL A   1      33.391  23.827  22.902  1.00  0.00     0.085 C 
ATOM     21  C   UNL A   1      30.691  24.926  23.304  1.00  0.00     0.022 C 
ATOM     22  C   UNL A   1      34.880  23.506  23.092  1.00  0.00     0.031 C 
ATOM     23  C   UNL A   1      31.004  23.437  23.411  1.00  0.00     0.120 C 
ENDBRANCH  14  16
ENDBRANCH   9  14
ENDBRANCH   7   8
ENDBRANCH   4   6
ENDBRANCH   3   4
ENDBRANCH   2   3
ENDBRANCH   1   2
BRANCH   1  24
ATOM     24  O   UNL A   1      42.419  20.907  27.034  1.00  0.00    -0.374 OA
BRANCH  24  25
ATOM     25  C   UNL A   1      43.044  20.567  25.795  1.00  0.00     0.202 C 
BRANCH  25  26
ATOM     26  C   UNL A   1      43.926  21.661  25.179  1.00  0.00     0.261 C 
BRANCH  26  27
ATOM     27  O   UNL A   1      43.177  22.856  24.890  1.00  0.00    -0.460 OA
BRANCH  27  28
ATOM     28  C   UNL A   1      43.872  24.012  25.003  1.00  0.00     0.338 C 
ATOM     29  O   UNL A   1      44.850  24.360  24.355  1.00  0.00    -0.246 OA
BRANCH  28  30
ATOM     30  C   UNL A   1      43.188  24.918  25.943  1.00  0.00     0.060 A 
ATOM     31  C   UNL A   1      43.651  26.236  26.043  1.00  0.00     0.016 A 
ATOM     32  C   UNL A   1      42.150  24.471  26.761  1.00  0.00     0.016 A 
ATOM     33  C   UNL A   1      43.099  27.103  26.986  1.00  0.00     0.010 A 
ATOM     34  C   UNL A   1      41.601  25.341  27.709  1.00  0.00     0.010 A 
ATOM     35  C   UNL A   1      42.089  26.652  27.847  1.00  0.00    -0.014 A 
BRANCH  35  36
ATOM     36  C   UNL A   1      41.650  27.493  28.988  1.00  0.00     0.031 A 
ATOM     37  C   UNL A   1      42.414  27.416  30.282  1.00  0.00     0.074 A 
ATOM     38  C   UNL A   1      40.597  28.322  28.877  1.00  0.00     0.049 A 
ATOM     39  N   UNL A   1      42.192  28.027  31.418  1.00  0.00    -0.248 NA
ATOM     40  C   UNL A   1      43.583  26.522  30.298  1.00  0.00     0.031 C 
ATOM     41  C   UNL A   1      39.786  28.501  27.675  1.00  0.00     0.029 A 
ATOM     42  N   UNL A   1      40.027  29.166  29.797  1.00  0.00    -0.354 N 
ATOM     43  C   UNL A   1      43.189  27.588  32.282  1.00  0.00     0.074 A 
ATOM     44  C   UNL A   1      43.991  26.630  31.553  1.00  0.00     0.031 C 
ATOM     45  C   UNL A   1      38.821  29.401  27.931  1.00  0.00     0.029 A 
ATOM     46  C   UNL A   1      38.928  29.839  29.321  1.00  0.00     0.049 A 
ATOM     47  H   UNL A   1      40.372  29.279  30.711  1.00  0.00     0.167 HD
ATOM     48  C   UNL A   1      43.425  27.964  33.561  1.00  0.00     0.037 A 
ATOM     49  C   UNL A   1      38.098  30.698  29.944  1.00  0.00     0.037 A 
ATOM     50  C   UNL A   1      42.634  28.924  34.284  1.00  0.00     0.049 A 
ATOM     51  C   UNL A   1      38.349  31.057  31.387  1.00  0.00     0.074 A 
ATOM     52  C   UNL A   1      42.805  29.384  35.578  1.00  0.00     0.029 A 
ATOM     53  N   UNL A   1      41.518  29.569  33.774  1.00  0.00    -0.354 N 
ATOM     54  N   UNL A   1      39.310  30.661  32.186  1.00  0.00    -0.248 NA
ATOM     55  C   UNL A   1      37.398  31.988  32.013  1.00  0.00     0.031 C 
ATOM     56  C   UNL A   1      41.766  30.275  35.866  1.00  0.00     0.029 A 
ATOM     57  C   UNL A   1      40.977  30.408  34.735  1.00  0.00     0.049 A 
ATOM     58  H   UNL A   1      41.163  29.450  32.863  1.00  0.00     0.167 HD
ATOM     59  C   UNL A   1      39.099  31.314  33.393  1.00  0.00     0.074 A 
ATOM     60  C   UNL A   1      37.924  32.142  33.220  1.00  0.00     0.031 C 
ATOM     61  C   UNL A   1      39.814  31.236  34.542  1.00  0.00     0.037 A 
BRANCH  48  62
ATOM     62  C   UNL A   1      44.584  27.322  34.265  1.00  0.00     0.064 A 
ATOM     63  C   UNL A   1      45.853  27.918  34.288  1.00  0.00     0.173 A 
ATOM     64  C   UNL A   1      44.416  26.107  34.947  1.00  0.00     0.173 A 
ATOM     65  F   UNL A   1      46.069  29.071  33.637  1.00  0.00    -0.203 F 
ATOM     66  C   UNL A   1      46.919  27.310  34.946  1.00  0.00     0.198 A 
ATOM     67  C   UNL A   1      45.476  25.516  35.628  1.00  0.00     0.198 A 
ATOM     68  F   UNL A   1      43.222  25.496  34.957  1.00  0.00    -0.203 F 
ATOM     69  F   UNL A   1      48.133  27.874  34.916  1.00  0.00    -0.200 F 
ATOM     70  C   UNL A   1      46.727  26.114  35.621  1.00  0.00     0.200 A 
ATOM     71  F   UNL A   1      45.288  24.365  36.289  1.00  0.00    -0.200 F 
ATOM     72  F   UNL A   1      47.752  25.531  36.259  1.00  0.00    -0.200 F 
ENDBRANCH  48  62
BRANCH  49  73
ATOM     73  C   UNL A   1      36.946  31.286  29.211  1.00  0.00     0.064 A 
ATOM     74  C   UNL A   1      36.938  32.639  28.842  1.00  0.00     0.173 A 
ATOM     75  C   UNL A   1      35.818  30.516  28.891  1.00  0.00     0.173 A 
ATOM     76  F   UNL A   1      37.981  33.423  29.153  1.00  0.00    -0.203 F 
ATOM     77  C   UNL A   1      35.839  33.203  28.199  1.00  0.00     0.198 A 
ATOM     78  C   UNL A   1      34.731  31.075  28.222  1.00  0.00     0.198 A 
ATOM     79  F   UNL A   1      35.774  29.218  29.227  1.00  0.00    -0.203 F 
ATOM     80  F   UNL A   1      35.837  34.511  27.903  1.00  0.00    -0.200 F 
ATOM     81  C   UNL A   1      34.739  32.420  27.885  1.00  0.00     0.200 A 
ATOM     82  F   UNL A   1      33.673  30.313  27.915  1.00  0.00    -0.200 F 
ATOM     83  F   UNL A   1      33.681  32.964  27.267  1.00  0.00    -0.200 F 
ENDBRANCH  49  73
BRANCH  61  84
ATOM     84  C   UNL A   1      39.374  32.098  35.690  1.00  0.00     0.064 A 
ATOM     85  C   UNL A   1      39.831  33.414  35.841  1.00  0.00     0.173 A 
ATOM     86  C   UNL A   1      38.448  31.611  36.627  1.00  0.00     0.173 A 
ATOM     87  F   UNL A   1      40.727  33.921  34.981  1.00  0.00    -0.203 F 
ATOM     88  C   UNL A   1      39.397  34.206  36.902  1.00  0.00     0.198 A 
ATOM     89  C   UNL A   1      37.994  32.415  37.669  1.00  0.00     0.198 A 
ATOM     90  F   UNL A   1      37.972  30.362  36.521  1.00  0.00    -0.203 F 
ATOM     91  F   UNL A   1      39.882  35.446  37.053  1.00  0.00    -0.200 F 
ATOM     92  C   UNL A   1      38.473  33.708  37.810  1.00  0.00     0.200 A 
ATOM     93  F   UNL A   1      37.090  31.937  38.536  1.00  0.00    -0.200 F 
ATOM     94  F   UNL A   1      38.051  34.473  38.826  1.00  0.00    -0.200 F 
ENDBRANCH  61  84
ENDBRANCH  35  36
ENDBRANCH  28  30
ENDBRANCH  27  28
ENDBRANCH  26  27
ENDBRANCH  25  26
ENDBRANCH  24  25
ENDBRANCH   1  24
TORSDOF 17
ENDMDL
MODEL 2
REMARK VINA RESULT:     -11.7      3.371      8.634
REMARK SMILES C[C@@H]1CCCN(C(=O)c2ccncc2/C=C/C(=O)OCCOCCOC(=O)c2ccc(-c3c4nc(c(-c5c(F)c(F)c(F)c(F)c5F)c5ccc([nH]5)c(-c5c(F)c(F)c(F)c(F)c5F)c5nc(c(-c6c(F)c(F)c(F)c(F)c6F)c6ccc3[nH]6)C=C5)C=C4)cc2)[C@@H]1C
REMARK SMILES IDX 21 1 20 2 19 3 17 4 18 5 16 6 15 7 14 8 9 9 10 10 11 11
REMARK SMILES IDX 13 12 12 13 7 14 8 15 6 16 1 17 2 18 3 19 91 20 4 21 92 22
REMARK SMILES IDX 5 23 22 24 23 25 24 26 25 27 26 28 27 29 28 30 29 31 90 32
REMARK SMILES IDX 30 33 89 34 31 35 32 36 33 37 83 38 34 39 88 40 82 41 84 42
REMARK SMILES IDX 35 43 87 44 81 45 80 46 36 48 68 49 48 50 67 51 49 52 52 53
REMARK SMILES IDX 66 54 85 55 50 56 51 57 65 59 86 60 53 61 37 62 38 63 46 64
REMARK SMILES IDX 39 65 40 66 44 67 47 68 41 69 42 70 45 71 43 72 69 73 70 74
REMARK SMILES IDX 78 75 71 76 72 77 76 78 79 79 73 80 74 81 77 82 75 83 54 84
REMARK SMILES IDX 55 85 63 86 56 87 57 88 61 89 64 90 58 91 59 92 62 93 60 94
REMARK H PARENT 84 47 52 58
REMARK Flexibility Score: inf
ROOT
ATOM      1  C   UNL A   1      34.663  30.529  27.286  1.00  0.00     0.202 C 
ENDROOT
BRANCH   1   2
ATOM      2  C   UNL A   1      33.675  29.552  26.647  1.00  0.00     0.261 C 
BRANCH   2   3
ATOM      3  O   UNL A   1      34.343  28.359  26.202  1.00  0.00    -0.460 OA
BRANCH   3   4
ATOM      4  C   UNL A   1      33.745  27.721  25.169  1.00  0.00     0.330 C 
ATOM      5  O   UNL A   1      33.888  27.968  23.981  1.00  0.00    -0.247 OA
BRANCH   4   6
ATOM      6  C   UNL A   1      32.907  26.585  25.606  1.00  0.00     0.094 C 
ATOM      7  C   UNL A   1      32.203  25.739  24.833  1.00  0.00     0.018 C 
BRANCH   7   8
ATOM      8  C   UNL A   1      31.438  24.618  25.419  1.00  0.00     0.006 A 
ATOM      9  C   UNL A   1      31.625  23.272  25.067  1.00  0.00     0.050 A 
ATOM     10  C   UNL A   1      30.990  22.249  25.783  1.00  0.00     0.034 A 
ATOM     11  C   UNL A   1      30.074  22.605  26.752  1.00  0.00     0.112 A 
ATOM     12  C   UNL A   1      30.460  24.847  26.388  1.00  0.00     0.119 A 
ATOM     13  N   UNL A   1      29.770  23.883  27.046  1.00  0.00    -0.264 NA
BRANCH   9  14
ATOM     14  C   UNL A   1      32.546  22.891  23.973  1.00  0.00     0.254 C 
ATOM     15  O   UNL A   1      32.018  22.695  22.883  1.00  0.00    -0.269 OA
BRANCH  14  16
ATOM     16  N   UNL A   1      33.915  22.760  24.245  1.00  0.00    -0.336 N 
ATOM     17  C   UNL A   1      34.381  21.934  27.194  1.00  0.00     0.010 C 
ATOM     18  C   UNL A   1      35.291  21.652  25.993  1.00  0.00     0.008 C 
ATOM     19  C   UNL A   1      36.355  22.751  25.844  1.00  0.00     0.007 C 
ATOM     20  C   UNL A   1      34.521  21.473  24.661  1.00  0.00     0.085 C 
ATOM     21  C   UNL A   1      35.754  24.058  25.336  1.00  0.00     0.022 C 
ATOM     22  C   UNL A   1      33.633  20.222  24.708  1.00  0.00     0.031 C 
ATOM     23  C   UNL A   1      34.896  23.848  24.092  1.00  0.00     0.120 C 
ENDBRANCH  14  16
ENDBRANCH   9  14
ENDBRANCH   7   8
ENDBRANCH   4   6
ENDBRANCH   3   4
ENDBRANCH   2   3
ENDBRANCH   1   2
BRANCH   1  24
ATOM     24  O   UNL A   1      34.078  31.594  28.033  1.00  0.00    -0.374 OA
BRANCH  24  25
ATOM     25  C   UNL A   1      32.804  32.064  27.592  1.00  0.00     0.202 C 
BRANCH  25  26
ATOM     26  C   UNL A   1      32.718  33.569  27.303  1.00  0.00     0.261 C 
BRANCH  26  27
ATOM     27  O   UNL A   1      32.308  34.316  28.463  1.00  0.00    -0.460 OA
BRANCH  27  28
ATOM     28  C   UNL A   1      33.145  35.314  28.828  1.00  0.00     0.338 C 
ATOM     29  O   UNL A   1      32.970  36.518  28.701  1.00  0.00    -0.246 OA
BRANCH  28  30
ATOM     30  C   UNL A   1      34.287  34.761  29.578  1.00  0.00     0.060 A 
ATOM     31  C   UNL A   1      35.549  34.788  28.972  1.00  0.00     0.016 A 
ATOM     32  C   UNL A   1      34.118  34.164  30.828  1.00  0.00     0.016 A 
ATOM     33  C   UNL A   1      36.642  34.189  29.600  1.00  0.00     0.010 A 
ATOM     34  C   UNL A   1      35.214  33.561  31.454  1.00  0.00     0.010 A 
ATOM     35  C   UNL A   1      36.476  33.546  30.833  1.00  0.00    -0.014 A 
BRANCH  35  36
ATOM     36  C   UNL A   1      37.574  32.726  31.402  1.00  0.00     0.031 A 
ATOM     37  C   UNL A   1      38.086  33.053  32.778  1.00  0.00     0.074 A 
ATOM     38  C   UNL A   1      38.103  31.699  30.714  1.00  0.00     0.049 A 
ATOM     39  N   UNL A   1      39.058  32.501  33.460  1.00  0.00    -0.248 NA
ATOM     40  C   UNL A   1      37.415  34.160  33.479  1.00  0.00     0.031 C 
ATOM     41  C   UNL A   1      37.685  31.269  29.382  1.00  0.00     0.029 A 
ATOM     42  N   UNL A   1      39.115  30.832  31.045  1.00  0.00    -0.354 N 
ATOM     43  C   UNL A   1      39.115  33.194  34.662  1.00  0.00     0.074 A 
ATOM     44  C   UNL A   1      38.111  34.233  34.603  1.00  0.00     0.031 C 
ATOM     45  C   UNL A   1      38.435  30.218  29.007  1.00  0.00     0.029 A 
ATOM     46  C   UNL A   1      39.404  29.919  30.060  1.00  0.00     0.049 A 
ATOM     47  H   UNL A   1      39.589  30.862  31.907  1.00  0.00     0.167 HD
ATOM     48  C   UNL A   1      39.922  32.973  35.728  1.00  0.00     0.037 A 
ATOM     49  C   UNL A   1      40.353  28.964  30.012  1.00  0.00     0.037 A 
ATOM     50  C   UNL A   1      40.915  31.935  35.793  1.00  0.00     0.049 A 
ATOM     51  C   UNL A   1      41.276  28.775  31.189  1.00  0.00     0.074 A 
ATOM     52  C   UNL A   1      41.768  31.620  36.836  1.00  0.00     0.029 A 
ATOM     53  N   UNL A   1      41.190  31.043  34.767  1.00  0.00    -0.354 N 
ATOM     54  N   UNL A   1      41.304  29.415  32.333  1.00  0.00    -0.248 NA
ATOM     55  C   UNL A   1      42.299  27.726  31.068  1.00  0.00     0.031 C 
ATOM     56  C   UNL A   1      42.590  30.566  36.425  1.00  0.00     0.029 A 
ATOM     57  C   UNL A   1      42.215  30.192  35.145  1.00  0.00     0.049 A 
ATOM     58  H   UNL A   1      40.726  31.019  33.899  1.00  0.00     0.167 HD
ATOM     59  C   UNL A   1      42.320  28.829  33.076  1.00  0.00     0.074 A 
ATOM     60  C   UNL A   1      42.879  27.773  32.258  1.00  0.00     0.031 C 
ATOM     61  C   UNL A   1      42.752  29.136  34.324  1.00  0.00     0.037 A 
BRANCH  48  62
ATOM     62  C   UNL A   1      39.767  33.886  36.909  1.00  0.00     0.064 A 
ATOM     63  C   UNL A   1      38.977  33.533  38.012  1.00  0.00     0.173 A 
ATOM     64  C   UNL A   1      40.439  35.117  36.948  1.00  0.00     0.173 A 
ATOM     65  F   UNL A   1      38.301  32.374  38.016  1.00  0.00    -0.203 F 
ATOM     66  C   UNL A   1      38.844  34.390  39.102  1.00  0.00     0.198 A 
ATOM     67  C   UNL A   1      40.327  35.959  38.051  1.00  0.00     0.198 A 
ATOM     68  F   UNL A   1      41.209  35.501  35.919  1.00  0.00    -0.203 F 
ATOM     69  F   UNL A   1      38.047  34.054  40.125  1.00  0.00    -0.200 F 
ATOM     70  C   UNL A   1      39.525  35.598  39.123  1.00  0.00     0.200 A 
ATOM     71  F   UNL A   1      40.994  37.122  38.074  1.00  0.00    -0.200 F 
ATOM     72  F   UNL A   1      39.401  36.421  40.174  1.00  0.00    -0.200 F 
ENDBRANCH  48  62
BRANCH  49  73
ATOM     73  C   UNL A   1      40.484  28.104  28.806  1.00  0.00     0.064 A 
ATOM     74  C   UNL A   1      41.281  28.496  27.722  1.00  0.00     0.173 A 
ATOM     75  C   UNL A   1      39.793  26.888  28.701  1.00  0.00     0.173 A 
ATOM     76  F   UNL A   1      41.938  29.666  27.763  1.00  0.00    -0.203 F 
ATOM     77  C   UNL A   1      41.367  27.716  26.572  1.00  0.00     0.198 A 
ATOM     78  C   UNL A   1      39.902  26.094  27.561  1.00  0.00     0.198 A 
ATOM     79  F   UNL A   1      39.012  26.470  29.709  1.00  0.00    -0.203 F 
ATOM     80  F   UNL A   1      42.096  28.140  25.529  1.00  0.00    -0.200 F 
ATOM     81  C   UNL A   1      40.681  26.513  26.494  1.00  0.00     0.200 A 
ATOM     82  F   UNL A   1      39.242  24.930  27.493  1.00  0.00    -0.200 F 
ATOM     83  F   UNL A   1      40.763  25.764  25.386  1.00  0.00    -0.200 F 
ENDBRANCH  49  73
BRANCH  61  84
ATOM     84  C   UNL A   1      43.855  28.297  34.900  1.00  0.00     0.064 A 
ATOM     85  C   UNL A   1      43.590  27.109  35.596  1.00  0.00     0.173 A 
ATOM     86  C   UNL A   1      45.197  28.665  34.714  1.00  0.00     0.173 A 
ATOM     87  F   UNL A   1      42.324  26.720  35.811  1.00  0.00    -0.203 F 
ATOM     88  C   UNL A   1      44.627  26.332  36.107  1.00  0.00     0.198 A 
ATOM     89  C   UNL A   1      46.232  27.871  35.201  1.00  0.00     0.198 A 
ATOM     90  F   UNL A   1      45.504  29.787  34.048  1.00  0.00    -0.203 F 
ATOM     91  F   UNL A   1      44.350  25.224  36.808  1.00  0.00    -0.200 F 
ATOM     92  C   UNL A   1      45.946  26.709  35.903  1.00  0.00     0.200 A 
ATOM     93  F   UNL A   1      47.506  28.230  34.990  1.00  0.00    -0.200 F 
ATOM     94  F   UNL A   1      46.943  25.958  36.389  1.00  0.00    -0.200 F 
ENDBRANCH  61  84
ENDBRANCH  35  36
ENDBRANCH  28  30
ENDBRANCH  27  28
ENDBRANCH  26  27
ENDBRANCH  25  26
ENDBRANCH  24  25
ENDBRANCH   1  24
TORSDOF 17
ENDMDL
MODEL 3
REMARK VINA RESULT:     -11.7      3.289      8.577
REMARK SMILES C[C@@H]1CCCN(C(=O)c2ccncc2/C=C/C(=O)OCCOCCOC(=O)c2ccc(-c3c4nc(c(-c5c(F)c(F)c(F)c(F)c5F)c5ccc([nH]5)c(-c5c(F)c(F)c(F)c(F)c5F)c5nc(c(-c6c(F)c(F)c(F)c(F)c6F)c6ccc3[nH]6)C=C5)C=C4)cc2)[C@@H]1C
REMARK SMILES IDX 21 1 20 2 19 3 17 4 18 5 16 6 15 7 14 8 9 9 10 10 11 11
REMARK SMILES IDX 13 12 12 13 7 14 8 15 6 16 1 17 2 18 3 19 91 20 4 21 92 22
REMARK SMILES IDX 5 23 22 24 23 25 24 26 25 27 26 28 27 29 28 30 29 31 90 32
REMARK SMILES IDX 30 33 89 34 31 35 32 36 33 37 83 38 34 39 88 40 82 41 84 42
REMARK SMILES IDX 35 43 87 44 81 45 80 46 36 48 68 49 48 50 67 51 49 52 52 53
REMARK SMILES IDX 66 54 85 55 50 56 51 57 65 59 86 60 53 61 37 62 38 63 46 64
REMARK SMILES IDX 39 65 40 66 44 67 47 68 41 69 42 70 45 71 43 72 69 73 70 74
REMARK SMILES IDX 78 75 71 76 72 77 76 78 79 79 73 80 74 81 77 82 75 83 54 84
REMARK SMILES IDX 55 85 63 86 56 87 57 88 61 89 64 90 58 91 59 92 62 93 60 94
REMARK H PARENT 84 47 52 58
REMARK Flexibility Score: inf
ROOT
ATOM      1  C   UNL A   1      33.264  28.486  24.239  1.00  0.00     0.202 C 
ENDROOT
BRANCH   1   2
ATOM      2  C   UNL A   1      33.017  28.426  22.731  1.00  0.00     0.261 C 
BRANCH   2   3
ATOM      3  O   UNL A   1      33.825  27.409  22.115  1.00  0.00    -0.460 OA
BRANCH   3   4
ATOM      4  C   UNL A   1      33.134  26.367  21.595  1.00  0.00     0.330 C 
ATOM      5  O   UNL A   1      33.161  25.984  20.434  1.00  0.00    -0.247 OA
BRANCH   4   6
ATOM      6  C   UNL A   1      32.349  25.636  22.611  1.00  0.00     0.094 C 
ATOM      7  C   UNL A   1      32.803  25.042  23.728  1.00  0.00     0.018 C 
BRANCH   7   8
ATOM      8  C   UNL A   1      31.881  24.378  24.675  1.00  0.00     0.006 A 
ATOM      9  C   UNL A   1      31.757  22.986  24.804  1.00  0.00     0.050 A 
ATOM     10  C   UNL A   1      30.994  22.428  25.838  1.00  0.00     0.034 A 
ATOM     11  C   UNL A   1      30.261  23.280  26.638  1.00  0.00     0.112 A 
ATOM     12  C   UNL A   1      31.063  25.128  25.521  1.00  0.00     0.119 A 
ATOM     13  N   UNL A   1      30.252  24.616  26.480  1.00  0.00    -0.264 NA
BRANCH   9  14
ATOM     14  C   UNL A   1      32.478  22.069  23.894  1.00  0.00     0.254 C 
ATOM     15  O   UNL A   1      31.803  21.582  22.992  1.00  0.00    -0.269 OA
BRANCH  14  16
ATOM     16  N   UNL A   1      33.836  21.804  24.124  1.00  0.00    -0.336 N 
ATOM     17  C   UNL A   1      34.504  21.996  27.142  1.00  0.00     0.010 C 
ATOM     18  C   UNL A   1      35.224  21.156  26.081  1.00  0.00     0.008 C 
ATOM     19  C   UNL A   1      36.412  21.929  25.487  1.00  0.00     0.007 C 
ATOM     20  C   UNL A   1      34.291  20.659  24.948  1.00  0.00     0.085 C 
ATOM     21  C   UNL A   1      35.953  23.058  24.570  1.00  0.00     0.022 C 
ATOM     22  C   UNL A   1      33.242  19.681  25.494  1.00  0.00     0.031 C 
ATOM     23  C   UNL A   1      34.941  22.579  23.534  1.00  0.00     0.120 C 
ENDBRANCH  14  16
ENDBRANCH   9  14
ENDBRANCH   7   8
ENDBRANCH   4   6
ENDBRANCH   3   4
ENDBRANCH   2   3
ENDBRANCH   1   2
BRANCH   1  24
ATOM     24  O   UNL A   1      33.068  29.763  24.844  1.00  0.00    -0.374 OA
BRANCH  24  25
ATOM     25  C   UNL A   1      31.771  30.026  25.383  1.00  0.00     0.202 C 
BRANCH  25  26
ATOM     26  C   UNL A   1      31.707  31.138  26.439  1.00  0.00     0.261 C 
BRANCH  26  27
ATOM     27  O   UNL A   1      32.696  30.958  27.469  1.00  0.00    -0.460 OA
BRANCH  27  28
ATOM     28  C   UNL A   1      33.555  31.992  27.627  1.00  0.00     0.338 C 
ATOM     29  O   UNL A   1      33.302  33.187  27.568  1.00  0.00    -0.246 OA
BRANCH  28  30
ATOM     30  C   UNL A   1      34.873  31.487  28.055  1.00  0.00     0.060 A 
ATOM     31  C   UNL A   1      34.980  30.135  28.401  1.00  0.00     0.016 A 
ATOM     32  C   UNL A   1      35.973  32.337  28.180  1.00  0.00     0.016 A 
ATOM     33  C   UNL A   1      36.181  29.633  28.903  1.00  0.00     0.010 A 
ATOM     34  C   UNL A   1      37.174  31.832  28.689  1.00  0.00     0.010 A 
ATOM     35  C   UNL A   1      37.278  30.485  29.079  1.00  0.00    -0.014 A 
BRANCH  35  36
ATOM     36  C   UNL A   1      38.481  30.013  29.809  1.00  0.00     0.031 A 
ATOM     37  C   UNL A   1      38.725  30.515  31.206  1.00  0.00     0.074 A 
ATOM     38  C   UNL A   1      39.340  29.144  29.247  1.00  0.00     0.049 A 
ATOM     39  N   UNL A   1      39.722  30.271  32.018  1.00  0.00    -0.248 NA
ATOM     40  C   UNL A   1      37.707  31.423  31.761  1.00  0.00     0.031 C 
ATOM     41  C   UNL A   1      39.208  28.571  27.910  1.00  0.00     0.029 A 
ATOM     42  N   UNL A   1      40.500  28.596  29.736  1.00  0.00    -0.354 N 
ATOM     43  C   UNL A   1      39.454  30.995  33.173  1.00  0.00     0.074 A 
ATOM     44  C   UNL A   1      38.224  31.721  32.943  1.00  0.00     0.031 C 
ATOM     45  C   UNL A   1      40.248  27.750  27.683  1.00  0.00     0.029 A 
ATOM     46  C   UNL A   1      41.132  27.761  28.847  1.00  0.00     0.049 A 
ATOM     47  H   UNL A   1      40.845  28.783  30.638  1.00  0.00     0.167 HD
ATOM     48  C   UNL A   1      40.160  31.039  34.327  1.00  0.00     0.037 A 
ATOM     49  C   UNL A   1      42.299  27.098  28.958  1.00  0.00     0.037 A 
ATOM     50  C   UNL A   1      41.379  30.311  34.561  1.00  0.00     0.049 A 
ATOM     51  C   UNL A   1      43.096  27.207  30.233  1.00  0.00     0.074 A 
ATOM     52  C   UNL A   1      42.158  30.275  35.704  1.00  0.00     0.029 A 
ATOM     53  N   UNL A   1      41.998  29.492  33.629  1.00  0.00    -0.354 N 
ATOM     54  N   UNL A   1      42.821  27.871  31.330  1.00  0.00    -0.248 NA
ATOM     55  C   UNL A   1      44.368  26.470  30.286  1.00  0.00     0.031 C 
ATOM     56  C   UNL A   1      43.272  29.469  35.449  1.00  0.00     0.029 A 
ATOM     57  C   UNL A   1      43.161  28.963  34.164  1.00  0.00     0.049 A 
ATOM     58  H   UNL A   1      41.660  29.312  32.721  1.00  0.00     0.167 HD
ATOM     59  C   UNL A   1      43.863  27.608  32.210  1.00  0.00     0.074 A 
ATOM     60  C   UNL A   1      44.772  26.714  31.524  1.00  0.00     0.031 C 
ATOM     61  C   UNL A   1      44.050  28.064  33.472  1.00  0.00     0.037 A 
BRANCH  48  62
ATOM     62  C   UNL A   1      39.634  31.916  35.425  1.00  0.00     0.064 A 
ATOM     63  C   UNL A   1      38.684  31.451  36.345  1.00  0.00     0.173 A 
ATOM     64  C   UNL A   1      40.105  33.229  35.572  1.00  0.00     0.173 A 
ATOM     65  F   UNL A   1      38.190  30.209  36.237  1.00  0.00    -0.203 F 
ATOM     66  C   UNL A   1      38.205  32.278  37.359  1.00  0.00     0.198 A 
ATOM     67  C   UNL A   1      39.645  34.043  36.603  1.00  0.00     0.198 A 
ATOM     68  F   UNL A   1      41.015  33.722  34.718  1.00  0.00    -0.203 F 
ATOM     69  F   UNL A   1      37.264  31.829  38.200  1.00  0.00    -0.200 F 
ATOM     70  C   UNL A   1      38.692  33.570  37.491  1.00  0.00     0.200 A 
ATOM     71  F   UNL A   1      40.124  35.289  36.736  1.00  0.00    -0.200 F 
ATOM     72  F   UNL A   1      38.235  34.363  38.470  1.00  0.00    -0.200 F 
ENDBRANCH  48  62
BRANCH  49  73
ATOM     73  C   UNL A   1      42.793  26.263  27.831  1.00  0.00     0.064 A 
ATOM     74  C   UNL A   1      43.644  26.799  26.854  1.00  0.00     0.173 A 
ATOM     75  C   UNL A   1      42.400  24.924  27.690  1.00  0.00     0.173 A 
ATOM     76  F   UNL A   1      44.024  28.084  26.929  1.00  0.00    -0.203 F 
ATOM     77  C   UNL A   1      44.069  26.034  25.771  1.00  0.00     0.198 A 
ATOM     78  C   UNL A   1      42.848  24.151  26.621  1.00  0.00     0.198 A 
ATOM     79  F   UNL A   1      41.581  24.366  28.594  1.00  0.00    -0.203 F 
ATOM     80  F   UNL A   1      44.841  26.585  24.824  1.00  0.00    -0.200 F 
ATOM     81  C   UNL A   1      43.674  24.709  25.657  1.00  0.00     0.200 A 
ATOM     82  F   UNL A   1      42.469  22.870  26.519  1.00  0.00    -0.200 F 
ATOM     83  F   UNL A   1      44.081  23.974  24.613  1.00  0.00    -0.200 F 
ENDBRANCH  49  73
BRANCH  61  84
ATOM     84  C   UNL A   1      45.261  27.575  34.212  1.00  0.00     0.064 A 
ATOM     85  C   UNL A   1      45.228  26.411  34.993  1.00  0.00     0.173 A 
ATOM     86  C   UNL A   1      46.483  28.257  34.100  1.00  0.00     0.173 A 
ATOM     87  F   UNL A   1      44.081  25.731  35.142  1.00  0.00    -0.203 F 
ATOM     88  C   UNL A   1      46.366  25.961  35.657  1.00  0.00     0.198 A 
ATOM     89  C   UNL A   1      47.627  27.788  34.742  1.00  0.00     0.198 A 
ATOM     90  F   UNL A   1      46.570  29.370  33.357  1.00  0.00    -0.203 F 
ATOM     91  F   UNL A   1      46.301  24.873  36.435  1.00  0.00    -0.200 F 
ATOM     92  C   UNL A   1      47.566  26.645  35.524  1.00  0.00     0.200 A 
ATOM     93  F   UNL A   1      48.787  28.443  34.600  1.00  0.00    -0.200 F 
ATOM     94  F   UNL A   1      48.663  26.208  36.158  1.00  0.00    -0.200 F 
ENDBRANCH  61  84
ENDBRANCH  35  36
ENDBRANCH  28  30
ENDBRANCH  27  28
ENDBRANCH  26  27
ENDBRANCH  25  26
ENDBRANCH  24  25
ENDBRANCH   1  24
TORSDOF 17
ENDMDL
