MODEL 1
REMARK VINA RESULT:     -11.8      0.000      0.000
REMARK SMILES N#Cc1ccc(C[N@H+]2CCCC[C@H]2C(=O)OCCOCCOC(=O)c2ccc(-c3c4nc(c(-c5c(F)c(F)c(F)c(F)c5F)c5ccc([nH]5)c(-c5c(F)c(F)c(F)c(F)c5F)c5nc(c(-c6c(F)c(F)c(F)c(F)c6F)c6ccc3[nH]6)C=C5)C=C4)cc2)c(F)c1
REMARK SMILES IDX 18 1 17 2 16 3 14 4 15 5 13 6 8 7 9 8 10 10 12 11 11 12 7 13
REMARK SMILES IDX 6 14 3 15 4 16 90 17 5 18 88 19 89 20 2 21 1 22 19 23 20 24
REMARK SMILES IDX 21 25 22 26 23 27 24 28 25 29 26 30 87 31 27 32 86 33 28 34
REMARK SMILES IDX 29 35 30 36 80 37 31 38 85 39 79 40 81 41 32 42 84 43 78 44
REMARK SMILES IDX 77 45 33 47 65 48 45 49 64 50 46 51 49 52 63 53 82 54 47 55
REMARK SMILES IDX 48 56 62 58 83 59 50 60 34 61 35 62 43 63 36 64 37 65 41 66
REMARK SMILES IDX 44 67 38 68 39 69 42 70 40 71 66 72 67 73 75 74 68 75 69 76
REMARK SMILES IDX 73 77 76 78 70 79 71 80 74 81 72 82 51 83 52 84 60 85 53 86
REMARK SMILES IDX 54 87 58 88 61 89 55 90 56 91 59 92 57 93
REMARK H PARENT 8 9 81 46 49 57
REMARK Flexibility Score: inf
ROOT
ATOM      1  C   UNL A   1      31.186  28.856  23.013  1.00  0.00     0.202 C 
ENDROOT
BRANCH   1   2
ATOM      2  C   UNL A   1      32.565  28.173  22.784  1.00  0.00     0.261 C 
BRANCH   2   3
ATOM      3  O   UNL A   1      32.642  26.820  22.307  1.00  0.00    -0.459 OA
BRANCH   3   4
ATOM      4  C   UNL A   1      32.719  25.975  23.361  1.00  0.00     0.364 C 
ATOM      5  O   UNL A   1      33.571  26.155  24.217  1.00  0.00    -0.245 OA
BRANCH   4   6
ATOM      6  C   UNL A   1      31.735  24.803  23.399  1.00  0.00     0.295 C 
ATOM      7  N   UNL A   1      32.094  23.806  24.455  1.00  0.00    -0.319 N 
ATOM      8  C   UNL A   1      32.021  24.360  25.810  1.00  0.00     0.263 C 
ATOM      9  H   UNL A   1      31.344  23.118  24.395  1.00  0.00     0.349 HD
ATOM     10  C   UNL A   1      30.660  25.009  26.121  1.00  0.00     0.062 C 
ATOM     11  C   UNL A   1      30.288  25.264  23.625  1.00  0.00     0.078 C 
ATOM     12  C   UNL A   1      30.077  25.874  25.006  1.00  0.00     0.013 C 
BRANCH   7  13
ATOM     13  C   UNL A   1      33.280  22.940  24.191  1.00  0.00     0.302 C 
BRANCH  13  14
ATOM     14  C   UNL A   1      33.156  21.422  24.244  1.00  0.00     0.042 A 
ATOM     15  C   UNL A   1      33.429  18.642  23.808  1.00  0.00     0.055 A 
ATOM     16  C   UNL A   1      34.125  19.265  24.854  1.00  0.00     0.020 A 
ATOM     17  C   UNL A   1      32.494  19.374  23.073  1.00  0.00     0.059 A 
ATOM     18  C   UNL A   1      33.983  20.645  25.078  1.00  0.00     0.014 A 
ATOM     19  C   UNL A   1      32.354  20.746  23.305  1.00  0.00     0.133 A 
ATOM     20  F   UNL A   1      31.583  21.450  22.462  1.00  0.00    -0.206 F 
BRANCH  15  21
ATOM     21  C   UNL A   1      33.756  17.303  23.414  1.00  0.00     0.099 C 
ATOM     22  N   UNL A   1      34.027  16.205  23.136  1.00  0.00    -0.192 NA
ENDBRANCH  15  21
ENDBRANCH  13  14
ENDBRANCH   7  13
ENDBRANCH   4   6
ENDBRANCH   3   4
ENDBRANCH   2   3
ENDBRANCH   1   2
BRANCH   1  23
ATOM     23  O   UNL A   1      30.766  29.554  24.176  1.00  0.00    -0.374 OA
BRANCH  23  24
ATOM     24  C   UNL A   1      31.555  29.602  25.356  1.00  0.00     0.202 C 
BRANCH  24  25
ATOM     25  C   UNL A   1      31.769  30.906  26.119  1.00  0.00     0.261 C 
BRANCH  25  26
ATOM     26  O   UNL A   1      32.622  30.751  27.253  1.00  0.00    -0.460 OA
BRANCH  26  27
ATOM     27  C   UNL A   1      33.386  31.845  27.484  1.00  0.00     0.338 C 
ATOM     28  O   UNL A   1      33.024  33.008  27.550  1.00  0.00    -0.246 OA
BRANCH  27  29
ATOM     29  C   UNL A   1      34.736  31.430  27.883  1.00  0.00     0.060 A 
ATOM     30  C   UNL A   1      34.923  30.065  28.150  1.00  0.00     0.016 A 
ATOM     31  C   UNL A   1      35.761  32.353  28.070  1.00  0.00     0.016 A 
ATOM     32  C   UNL A   1      36.122  29.622  28.674  1.00  0.00     0.010 A 
ATOM     33  C   UNL A   1      36.957  31.913  28.634  1.00  0.00     0.010 A 
ATOM     34  C   UNL A   1      37.114  30.558  28.983  1.00  0.00    -0.014 A 
BRANCH  34  35
ATOM     35  C   UNL A   1      38.208  30.132  29.873  1.00  0.00     0.031 A 
ATOM     36  C   UNL A   1      39.242  29.190  29.328  1.00  0.00     0.074 A 
ATOM     37  C   UNL A   1      38.318  30.651  31.105  1.00  0.00     0.049 A 
ATOM     38  N   UNL A   1      40.282  28.667  29.921  1.00  0.00    -0.248 NA
ATOM     39  C   UNL A   1      39.081  28.784  27.922  1.00  0.00     0.031 C 
ATOM     40  C   UNL A   1      37.410  31.637  31.687  1.00  0.00     0.029 A 
ATOM     41  N   UNL A   1      39.248  30.422  32.081  1.00  0.00    -0.354 N 
ATOM     42  C   UNL A   1      40.891  27.862  28.966  1.00  0.00     0.074 A 
ATOM     43  C   UNL A   1      40.084  27.934  27.769  1.00  0.00     0.031 C 
ATOM     44  C   UNL A   1      37.829  31.929  32.930  1.00  0.00     0.029 A 
ATOM     45  C   UNL A   1      39.002  31.116  33.238  1.00  0.00     0.049 A 
ATOM     46  H   UNL A   1      40.018  29.820  31.965  1.00  0.00     0.167 HD
ATOM     47  C   UNL A   1      42.029  27.137  29.082  1.00  0.00     0.037 A 
ATOM     48  C   UNL A   1      39.646  31.070  34.418  1.00  0.00     0.037 A 
ATOM     49  C   UNL A   1      42.812  27.075  30.287  1.00  0.00     0.049 A 
ATOM     50  C   UNL A   1      40.844  30.167  34.556  1.00  0.00     0.074 A 
ATOM     51  C   UNL A   1      43.980  26.372  30.523  1.00  0.00     0.029 A 
ATOM     52  N   UNL A   1      42.498  27.737  31.467  1.00  0.00    -0.354 N 
ATOM     53  N   UNL A   1      41.422  29.409  33.655  1.00  0.00    -0.248 NA
ATOM     54  C   UNL A   1      41.481  30.116  35.878  1.00  0.00     0.031 C 
ATOM     55  C   UNL A   1      44.329  26.549  31.866  1.00  0.00     0.029 A 
ATOM     56  C   UNL A   1      43.429  27.429  32.446  1.00  0.00     0.049 A 
ATOM     57  H   UNL A   1      41.727  28.337  31.590  1.00  0.00     0.167 HD
ATOM     58  C   UNL A   1      42.510  28.822  34.287  1.00  0.00     0.074 A 
ATOM     59  C   UNL A   1      42.518  29.325  35.646  1.00  0.00     0.031 C 
ATOM     60  C   UNL A   1      43.422  27.948  33.792  1.00  0.00     0.037 A 
BRANCH  47  61
ATOM     61  C   UNL A   1      42.456  26.322  27.895  1.00  0.00     0.064 A 
ATOM     62  C   UNL A   1      43.399  26.792  26.967  1.00  0.00     0.173 A 
ATOM     63  C   UNL A   1      41.917  25.042  27.686  1.00  0.00     0.173 A 
ATOM     64  F   UNL A   1      43.936  28.013  27.109  1.00  0.00    -0.203 F 
ATOM     65  C   UNL A   1      43.755  26.029  25.857  1.00  0.00     0.198 A 
ATOM     66  C   UNL A   1      42.306  24.268  26.597  1.00  0.00     0.198 A 
ATOM     67  F   UNL A   1      41.013  24.540  28.540  1.00  0.00    -0.203 F 
ATOM     68  F   UNL A   1      44.608  26.527  24.950  1.00  0.00    -0.200 F 
ATOM     69  C   UNL A   1      43.215  24.766  25.676  1.00  0.00     0.200 A 
ATOM     70  F   UNL A   1      41.793  23.039  26.435  1.00  0.00    -0.200 F 
ATOM     71  F   UNL A   1      43.561  24.032  24.610  1.00  0.00    -0.200 F 
ENDBRANCH  47  61
BRANCH  48  72
ATOM     72  C   UNL A   1      39.166  31.892  35.558  1.00  0.00     0.064 A 
ATOM     73  C   UNL A   1      39.560  33.229  35.699  1.00  0.00     0.173 A 
ATOM     74  C   UNL A   1      38.318  31.355  36.540  1.00  0.00     0.173 A 
ATOM     75  F   UNL A   1      40.384  33.783  34.798  1.00  0.00    -0.203 F 
ATOM     76  C   UNL A   1      39.144  33.991  36.789  1.00  0.00     0.198 A 
ATOM     77  C   UNL A   1      37.875  32.129  37.610  1.00  0.00     0.198 A 
ATOM     78  F   UNL A   1      37.908  30.081  36.451  1.00  0.00    -0.203 F 
ATOM     79  F   UNL A   1      39.582  35.250  36.928  1.00  0.00    -0.200 F 
ATOM     80  C   UNL A   1      38.297  33.442  37.740  1.00  0.00     0.200 A 
ATOM     81  F   UNL A   1      37.041  31.598  38.515  1.00  0.00    -0.200 F 
ATOM     82  F   UNL A   1      37.896  34.175  38.788  1.00  0.00    -0.200 F 
ENDBRANCH  48  72
BRANCH  60  83
ATOM     83  C   UNL A   1      44.536  27.522  34.707  1.00  0.00     0.064 A 
ATOM     84  C   UNL A   1      44.444  26.373  35.506  1.00  0.00     0.173 A 
ATOM     85  C   UNL A   1      45.730  28.259  34.757  1.00  0.00     0.173 A 
ATOM     86  F   UNL A   1      43.320  25.639  35.506  1.00  0.00    -0.203 F 
ATOM     87  C   UNL A   1      45.489  25.999  36.347  1.00  0.00     0.198 A 
ATOM     88  C   UNL A   1      46.789  27.859  35.566  1.00  0.00     0.198 A 
ATOM     89  F   UNL A   1      45.877  29.362  34.007  1.00  0.00    -0.203 F 
ATOM     90  F   UNL A   1      45.352  24.934  37.149  1.00  0.00    -0.200 F 
ATOM     91  C   UNL A   1      46.663  26.737  36.370  1.00  0.00     0.200 A 
ATOM     92  F   UNL A   1      47.930  28.561  35.570  1.00  0.00    -0.200 F 
ATOM     93  F   UNL A   1      47.671  26.370  37.172  1.00  0.00    -0.200 F 
ENDBRANCH  60  83
ENDBRANCH  34  35
ENDBRANCH  27  29
ENDBRANCH  26  27
ENDBRANCH  25  26
ENDBRANCH  24  25
ENDBRANCH  23  24
ENDBRANCH   1  23
TORSDOF 17
ENDMDL
MODEL 2
REMARK VINA RESULT:     -11.6      0.853      7.283
REMARK SMILES N#Cc1ccc(C[N@H+]2CCCC[C@H]2C(=O)OCCOCCOC(=O)c2ccc(-c3c4nc(c(-c5c(F)c(F)c(F)c(F)c5F)c5ccc([nH]5)c(-c5c(F)c(F)c(F)c(F)c5F)c5nc(c(-c6c(F)c(F)c(F)c(F)c6F)c6ccc3[nH]6)C=C5)C=C4)cc2)c(F)c1
REMARK SMILES IDX 18 1 17 2 16 3 14 4 15 5 13 6 8 7 9 8 10 10 12 11 11 12 7 13
REMARK SMILES IDX 6 14 3 15 4 16 90 17 5 18 88 19 89 20 2 21 1 22 19 23 20 24
REMARK SMILES IDX 21 25 22 26 23 27 24 28 25 29 26 30 87 31 27 32 86 33 28 34
REMARK SMILES IDX 29 35 30 36 80 37 31 38 85 39 79 40 81 41 32 42 84 43 78 44
REMARK SMILES IDX 77 45 33 47 65 48 45 49 64 50 46 51 49 52 63 53 82 54 47 55
REMARK SMILES IDX 48 56 62 58 83 59 50 60 34 61 35 62 43 63 36 64 37 65 41 66
REMARK SMILES IDX 44 67 38 68 39 69 42 70 40 71 66 72 67 73 75 74 68 75 69 76
REMARK SMILES IDX 73 77 76 78 70 79 71 80 74 81 72 82 51 83 52 84 60 85 53 86
REMARK SMILES IDX 54 87 58 88 61 89 55 90 56 91 59 92 57 93
REMARK H PARENT 8 9 81 46 49 57
REMARK Flexibility Score: inf
ROOT
ATOM      1  C   UNL A   1      30.594  28.659  23.379  1.00  0.00     0.202 C 
ENDROOT
BRANCH   1   2
ATOM      2  C   UNL A   1      30.019  27.217  23.475  1.00  0.00     0.261 C 
BRANCH   2   3
ATOM      3  O   UNL A   1      30.445  26.326  24.518  1.00  0.00    -0.459 OA
BRANCH   3   4
ATOM      4  C   UNL A   1      31.061  25.253  23.971  1.00  0.00     0.364 C 
ATOM      5  O   UNL A   1      31.110  25.142  22.755  1.00  0.00    -0.245 OA
BRANCH   4   6
ATOM      6  C   UNL A   1      31.638  24.206  24.926  1.00  0.00     0.295 C 
ATOM      7  N   UNL A   1      32.806  23.487  24.328  1.00  0.00    -0.319 N 
ATOM      8  C   UNL A   1      33.943  24.371  24.059  1.00  0.00     0.263 C 
ATOM      9  H   UNL A   1      33.108  22.864  25.077  1.00  0.00     0.349 HD
ATOM     10  C   UNL A   1      34.382  25.177  25.295  1.00  0.00     0.062 C 
ATOM     11  C   UNL A   1      32.068  24.817  26.268  1.00  0.00     0.078 C 
ATOM     12  C   UNL A   1      33.247  25.772  26.126  1.00  0.00     0.013 C 
BRANCH   7  13
ATOM     13  C   UNL A   1      32.509  22.495  23.252  1.00  0.00     0.302 C 
BRANCH  13  14
ATOM     14  C   UNL A   1      32.378  21.014  23.581  1.00  0.00     0.042 A 
ATOM     15  C   UNL A   1      32.838  18.252  23.976  1.00  0.00     0.055 A 
ATOM     16  C   UNL A   1      32.918  19.143  25.056  1.00  0.00     0.020 A 
ATOM     17  C   UNL A   1      32.393  18.713  22.735  1.00  0.00     0.059 A 
ATOM     18  C   UNL A   1      32.681  20.515  24.863  1.00  0.00     0.014 A 
ATOM     19  C   UNL A   1      32.153  20.079  22.552  1.00  0.00     0.133 A 
ATOM     20  F   UNL A   1      31.904  20.511  21.306  1.00  0.00    -0.206 F 
BRANCH  15  21
ATOM     21  C   UNL A   1      33.321  16.909  24.106  1.00  0.00     0.099 C 
ATOM     22  N   UNL A   1      33.731  15.828  24.250  1.00  0.00    -0.192 NA
ENDBRANCH  15  21
ENDBRANCH  13  14
ENDBRANCH   7  13
ENDBRANCH   4   6
ENDBRANCH   3   4
ENDBRANCH   2   3
ENDBRANCH   1   2
BRANCH   1  23
ATOM     23  O   UNL A   1      31.616  29.223  24.189  1.00  0.00    -0.374 OA
BRANCH  23  24
ATOM     24  C   UNL A   1      31.406  29.545  25.556  1.00  0.00     0.202 C 
BRANCH  24  25
ATOM     25  C   UNL A   1      31.955  30.830  26.166  1.00  0.00     0.261 C 
BRANCH  25  26
ATOM     26  O   UNL A   1      32.851  30.591  27.252  1.00  0.00    -0.460 OA
BRANCH  26  27
ATOM     27  C   UNL A   1      33.599  31.676  27.560  1.00  0.00     0.338 C 
ATOM     28  O   UNL A   1      33.213  32.817  27.755  1.00  0.00    -0.246 OA
BRANCH  27  29
ATOM     29  C   UNL A   1      34.973  31.260  27.862  1.00  0.00     0.060 A 
ATOM     30  C   UNL A   1      35.194  29.884  28.022  1.00  0.00     0.016 A 
ATOM     31  C   UNL A   1      35.992  32.188  28.065  1.00  0.00     0.016 A 
ATOM     32  C   UNL A   1      36.426  29.429  28.455  1.00  0.00     0.010 A 
ATOM     33  C   UNL A   1      37.221  31.732  28.538  1.00  0.00     0.010 A 
ATOM     34  C   UNL A   1      37.416  30.360  28.781  1.00  0.00    -0.014 A 
BRANCH  34  35
ATOM     35  C   UNL A   1      38.560  29.893  29.584  1.00  0.00     0.031 A 
ATOM     36  C   UNL A   1      38.703  30.411  30.986  1.00  0.00     0.074 A 
ATOM     37  C   UNL A   1      39.392  28.960  29.098  1.00  0.00     0.049 A 
ATOM     38  N   UNL A   1      39.628  30.159  31.874  1.00  0.00    -0.248 NA
ATOM     39  C   UNL A   1      37.659  31.340  31.450  1.00  0.00     0.031 C 
ATOM     40  C   UNL A   1      39.279  28.337  27.781  1.00  0.00     0.029 A 
ATOM     41  N   UNL A   1      40.489  28.372  29.663  1.00  0.00    -0.354 N 
ATOM     42  C   UNL A   1      39.285  30.906  32.994  1.00  0.00     0.074 A 
ATOM     43  C   UNL A   1      38.091  31.650  32.662  1.00  0.00     0.031 C 
ATOM     44  C   UNL A   1      40.277  27.449  27.637  1.00  0.00     0.029 A 
ATOM     45  C   UNL A   1      41.117  27.481  28.831  1.00  0.00     0.049 A 
ATOM     46  H   UNL A   1      40.798  28.569  30.577  1.00  0.00     0.167 HD
ATOM     47  C   UNL A   1      39.911  30.953  34.193  1.00  0.00     0.037 A 
ATOM     48  C   UNL A   1      42.258  26.794  29.016  1.00  0.00     0.037 A 
ATOM     49  C   UNL A   1      41.104  30.208  34.498  1.00  0.00     0.049 A 
ATOM     50  C   UNL A   1      42.997  26.952  30.319  1.00  0.00     0.074 A 
ATOM     51  C   UNL A   1      41.826  30.180  35.677  1.00  0.00     0.029 A 
ATOM     52  N   UNL A   1      41.756  29.364  33.609  1.00  0.00    -0.354 N 
ATOM     53  N   UNL A   1      42.674  27.654  31.379  1.00  0.00    -0.248 NA
ATOM     54  C   UNL A   1      44.263  26.219  30.451  1.00  0.00     0.031 C 
ATOM     55  C   UNL A   1      42.956  29.379  35.475  1.00  0.00     0.029 A 
ATOM     56  C   UNL A   1      42.894  28.840  34.200  1.00  0.00     0.049 A 
ATOM     57  H   UNL A   1      41.453  29.168  32.692  1.00  0.00     0.167 HD
ATOM     58  C   UNL A   1      43.671  27.418  32.315  1.00  0.00     0.074 A 
ATOM     59  C   UNL A   1      44.604  26.495  31.701  1.00  0.00     0.031 C 
ATOM     60  C   UNL A   1      43.805  27.915  33.571  1.00  0.00     0.037 A 
BRANCH  47  61
ATOM     61  C   UNL A   1      39.345  31.875  35.235  1.00  0.00     0.064 A 
ATOM     62  C   UNL A   1      39.646  33.247  35.262  1.00  0.00     0.173 A 
ATOM     63  C   UNL A   1      38.479  31.379  36.223  1.00  0.00     0.173 A 
ATOM     64  F   UNL A   1      40.479  33.773  34.352  1.00  0.00    -0.203 F 
ATOM     65  C   UNL A   1      39.133  34.075  36.257  1.00  0.00     0.198 A 
ATOM     66  C   UNL A   1      37.937  32.219  37.192  1.00  0.00     0.198 A 
ATOM     67  F   UNL A   1      38.154  30.078  36.247  1.00  0.00    -0.203 F 
ATOM     68  F   UNL A   1      39.488  35.367  36.300  1.00  0.00    -0.200 F 
ATOM     69  C   UNL A   1      38.274  33.563  37.217  1.00  0.00     0.200 A 
ATOM     70  F   UNL A   1      37.094  31.722  38.109  1.00  0.00    -0.200 F 
ATOM     71  F   UNL A   1      37.779  34.362  38.172  1.00  0.00    -0.200 F 
ENDBRANCH  47  61
BRANCH  48  72
ATOM     72  C   UNL A   1      42.773  25.907  27.941  1.00  0.00     0.064 A 
ATOM     73  C   UNL A   1      43.665  26.390  26.974  1.00  0.00     0.173 A 
ATOM     74  C   UNL A   1      42.374  24.565  27.848  1.00  0.00     0.173 A 
ATOM     75  F   UNL A   1      44.062  27.670  27.008  1.00  0.00    -0.203 F 
ATOM     76  C   UNL A   1      44.117  25.571  25.940  1.00  0.00     0.198 A 
ATOM     77  C   UNL A   1      42.854  23.739  26.836  1.00  0.00     0.198 A 
ATOM     78  F   UNL A   1      41.525  24.051  28.751  1.00  0.00    -0.203 F 
ATOM     79  F   UNL A   1      44.924  26.074  24.997  1.00  0.00    -0.200 F 
ATOM     80  C   UNL A   1      43.717  24.245  25.876  1.00  0.00     0.200 A 
ATOM     81  F   UNL A   1      42.479  22.453  26.790  1.00  0.00    -0.200 F 
ATOM     82  F   UNL A   1      44.153  23.458  24.884  1.00  0.00    -0.200 F 
ENDBRANCH  48  72
BRANCH  60  83
ATOM     83  C   UNL A   1      44.974  27.431  34.383  1.00  0.00     0.064 A 
ATOM     84  C   UNL A   1      44.894  26.288  35.193  1.00  0.00     0.173 A 
ATOM     85  C   UNL A   1      46.204  28.104  34.321  1.00  0.00     0.173 A 
ATOM     86  F   UNL A   1      43.738  25.614  35.299  1.00  0.00    -0.203 F 
ATOM     87  C   UNL A   1      45.990  25.860  35.937  1.00  0.00     0.198 A 
ATOM     88  C   UNL A   1      47.310  27.648  35.032  1.00  0.00     0.198 A 
ATOM     89  F   UNL A   1      46.341  29.197  33.555  1.00  0.00    -0.203 F 
ATOM     90  F   UNL A   1      45.871  24.804  36.753  1.00  0.00    -0.200 F 
ATOM     91  C   UNL A   1      47.198  26.534  35.849  1.00  0.00     0.200 A 
ATOM     92  F   UNL A   1      48.482  28.289  34.929  1.00  0.00    -0.200 F 
ATOM     93  F   UNL A   1      48.255  26.114  36.559  1.00  0.00    -0.200 F 
ENDBRANCH  60  83
ENDBRANCH  34  35
ENDBRANCH  27  29
ENDBRANCH  26  27
ENDBRANCH  25  26
ENDBRANCH  24  25
ENDBRANCH  23  24
ENDBRANCH   1  23
TORSDOF 17
ENDMDL
MODEL 3
REMARK VINA RESULT:     -11.4      4.563      7.304
REMARK SMILES N#Cc1ccc(C[N@H+]2CCCC[C@H]2C(=O)OCCOCCOC(=O)c2ccc(-c3c4nc(c(-c5c(F)c(F)c(F)c(F)c5F)c5ccc([nH]5)c(-c5c(F)c(F)c(F)c(F)c5F)c5nc(c(-c6c(F)c(F)c(F)c(F)c6F)c6ccc3[nH]6)C=C5)C=C4)cc2)c(F)c1
REMARK SMILES IDX 18 1 17 2 16 3 14 4 15 5 13 6 8 7 9 8 10 10 12 11 11 12 7 13
REMARK SMILES IDX 6 14 3 15 4 16 90 17 5 18 88 19 89 20 2 21 1 22 19 23 20 24
REMARK SMILES IDX 21 25 22 26 23 27 24 28 25 29 26 30 87 31 27 32 86 33 28 34
REMARK SMILES IDX 29 35 30 36 80 37 31 38 85 39 79 40 81 41 32 42 84 43 78 44
REMARK SMILES IDX 77 45 33 47 65 48 45 49 64 50 46 51 49 52 63 53 82 54 47 55
REMARK SMILES IDX 48 56 62 58 83 59 50 60 34 61 35 62 43 63 36 64 37 65 41 66
REMARK SMILES IDX 44 67 38 68 39 69 42 70 40 71 66 72 67 73 75 74 68 75 69 76
REMARK SMILES IDX 73 77 76 78 70 79 71 80 74 81 72 82 51 83 52 84 60 85 53 86
REMARK SMILES IDX 54 87 58 88 61 89 55 90 56 91 59 92 57 93
REMARK H PARENT 8 9 81 46 49 57
REMARK Flexibility Score: inf
ROOT
ATOM      1  C   UNL A   1      37.256  23.192  25.000  1.00  0.00     0.202 C 
ENDROOT
BRANCH   1   2
ATOM      2  C   UNL A   1      35.982  23.983  24.585  1.00  0.00     0.261 C 
BRANCH   2   3
ATOM      3  O   UNL A   1      35.090  23.464  23.587  1.00  0.00    -0.459 OA
BRANCH   3   4
ATOM      4  C   UNL A   1      33.815  23.770  23.920  1.00  0.00     0.364 C 
ATOM      5  O   UNL A   1      33.554  24.884  24.347  1.00  0.00    -0.245 OA
BRANCH   4   6
ATOM      6  C   UNL A   1      32.762  22.668  23.774  1.00  0.00     0.295 C 
ATOM      7  N   UNL A   1      32.876  21.640  24.854  1.00  0.00    -0.319 N 
ATOM      8  C   UNL A   1      32.617  22.186  26.189  1.00  0.00     0.263 C 
ATOM      9  H   UNL A   1      32.102  21.005  24.658  1.00  0.00     0.349 HD
ATOM     10  C   UNL A   1      31.270  22.924  26.286  1.00  0.00     0.062 C 
ATOM     11  C   UNL A   1      31.332  23.226  23.769  1.00  0.00     0.078 C 
ATOM     12  C   UNL A   1      30.938  23.837  25.108  1.00  0.00     0.013 C 
BRANCH   7  13
ATOM     13  C   UNL A   1      34.029  20.696  24.770  1.00  0.00     0.302 C 
BRANCH  13  14
ATOM     14  C   UNL A   1      33.795  19.208  24.544  1.00  0.00     0.042 A 
ATOM     15  C   UNL A   1      33.419  16.423  24.855  1.00  0.00     0.055 A 
ATOM     16  C   UNL A   1      32.314  17.273  24.716  1.00  0.00     0.020 A 
ATOM     17  C   UNL A   1      34.708  16.938  24.698  1.00  0.00     0.059 A 
ATOM     18  C   UNL A   1      32.499  18.657  24.552  1.00  0.00     0.014 A 
ATOM     19  C   UNL A   1      34.884  18.316  24.529  1.00  0.00     0.133 A 
ATOM     20  F   UNL A   1      36.137  18.797  24.564  1.00  0.00    -0.206 F 
BRANCH  15  21
ATOM     21  C   UNL A   1      33.241  15.063  25.273  1.00  0.00     0.099 C 
ATOM     22  N   UNL A   1      33.079  13.950  25.574  1.00  0.00    -0.192 NA
ENDBRANCH  15  21
ENDBRANCH  13  14
ENDBRANCH   7  13
ENDBRANCH   4   6
ENDBRANCH   3   4
ENDBRANCH   2   3
ENDBRANCH   1   2
BRANCH   1  23
ATOM     23  O   UNL A   1      37.583  21.857  24.640  1.00  0.00    -0.374 OA
BRANCH  23  24
ATOM     24  C   UNL A   1      37.935  20.878  25.607  1.00  0.00     0.202 C 
BRANCH  24  25
ATOM     25  C   UNL A   1      39.259  20.124  25.531  1.00  0.00     0.261 C 
BRANCH  25  26
ATOM     26  O   UNL A   1      40.390  20.960  25.779  1.00  0.00    -0.460 OA
BRANCH  26  27
ATOM     27  C   UNL A   1      40.850  20.853  27.047  1.00  0.00     0.338 C 
ATOM     28  O   UNL A   1      41.244  19.849  27.616  1.00  0.00    -0.246 OA
BRANCH  27  29
ATOM     29  C   UNL A   1      41.033  22.192  27.620  1.00  0.00     0.060 A 
ATOM     30  C   UNL A   1      40.239  23.219  27.089  1.00  0.00     0.016 A 
ATOM     31  C   UNL A   1      42.006  22.450  28.583  1.00  0.00     0.016 A 
ATOM     32  C   UNL A   1      40.460  24.529  27.470  1.00  0.00     0.010 A 
ATOM     33  C   UNL A   1      42.254  23.774  28.938  1.00  0.00     0.010 A 
ATOM     34  C   UNL A   1      41.516  24.813  28.341  1.00  0.00    -0.014 A 
BRANCH  34  35
ATOM     35  C   UNL A   1      41.972  26.211  28.436  1.00  0.00     0.031 A 
ATOM     36  C   UNL A   1      43.285  26.574  27.805  1.00  0.00     0.074 A 
ATOM     37  C   UNL A   1      41.184  27.143  28.991  1.00  0.00     0.049 A 
ATOM     38  N   UNL A   1      43.899  27.728  27.772  1.00  0.00    -0.248 NA
ATOM     39  C   UNL A   1      44.005  25.488  27.119  1.00  0.00     0.031 C 
ATOM     40  C   UNL A   1      39.857  26.898  29.550  1.00  0.00     0.029 A 
ATOM     41  N   UNL A   1      41.388  28.484  29.166  1.00  0.00    -0.354 N 
ATOM     42  C   UNL A   1      45.078  27.503  27.073  1.00  0.00     0.074 A 
ATOM     43  C   UNL A   1      45.115  26.098  26.735  1.00  0.00     0.031 C 
ATOM     44  C   UNL A   1      39.362  28.058  30.013  1.00  0.00     0.029 A 
ATOM     45  C   UNL A   1      40.358  29.108  29.821  1.00  0.00     0.049 A 
ATOM     46  H   UNL A   1      42.194  28.954  28.852  1.00  0.00     0.167 HD
ATOM     47  C   UNL A   1      46.037  28.399  26.738  1.00  0.00     0.037 A 
ATOM     48  C   UNL A   1      40.256  30.383  30.238  1.00  0.00     0.037 A 
ATOM     49  C   UNL A   1      45.982  29.792  27.091  1.00  0.00     0.049 A 
ATOM     50  C   UNL A   1      41.388  31.333  29.951  1.00  0.00     0.074 A 
ATOM     51  C   UNL A   1      46.896  30.791  26.809  1.00  0.00     0.029 A 
ATOM     52  N   UNL A   1      44.955  30.383  27.816  1.00  0.00    -0.354 N 
ATOM     53  N   UNL A   1      42.502  31.125  29.289  1.00  0.00    -0.248 NA
ATOM     54  C   UNL A   1      41.248  32.700  30.470  1.00  0.00     0.031 C 
ATOM     55  C   UNL A   1      46.459  31.967  27.429  1.00  0.00     0.029 A 
ATOM     56  C   UNL A   1      45.232  31.724  28.025  1.00  0.00     0.049 A 
ATOM     57  H   UNL A   1      44.149  29.915  28.137  1.00  0.00     0.167 HD
ATOM     58  C   UNL A   1      43.175  32.339  29.278  1.00  0.00     0.074 A 
ATOM     59  C   UNL A   1      42.337  33.282  29.988  1.00  0.00     0.031 C 
ATOM     60  C   UNL A   1      44.377  32.649  28.729  1.00  0.00     0.037 A 
BRANCH  47  61
ATOM     61  C   UNL A   1      47.239  27.884  25.999  1.00  0.00     0.064 A 
ATOM     62  C   UNL A   1      48.414  27.494  26.664  1.00  0.00     0.173 A 
ATOM     63  C   UNL A   1      47.215  27.771  24.600  1.00  0.00     0.173 A 
ATOM     64  F   UNL A   1      48.499  27.594  27.999  1.00  0.00    -0.203 F 
ATOM     65  C   UNL A   1      49.527  27.050  25.954  1.00  0.00     0.198 A 
ATOM     66  C   UNL A   1      48.316  27.289  23.898  1.00  0.00     0.198 A 
ATOM     67  F   UNL A   1      46.120  28.126  23.911  1.00  0.00    -0.203 F 
ATOM     68  F   UNL A   1      50.658  26.747  26.606  1.00  0.00    -0.200 F 
ATOM     69  C   UNL A   1      49.475  26.941  24.573  1.00  0.00     0.200 A 
ATOM     70  F   UNL A   1      48.256  27.169  22.564  1.00  0.00    -0.200 F 
ATOM     71  F   UNL A   1      50.545  26.509  23.892  1.00  0.00    -0.200 F 
ENDBRANCH  47  61
BRANCH  48  72
ATOM     72  C   UNL A   1      39.045  30.828  30.975  1.00  0.00     0.064 A 
ATOM     73  C   UNL A   1      38.960  30.697  32.367  1.00  0.00     0.173 A 
ATOM     74  C   UNL A   1      37.942  31.379  30.303  1.00  0.00     0.173 A 
ATOM     75  F   UNL A   1      39.979  30.160  33.053  1.00  0.00    -0.203 F 
ATOM     76  C   UNL A   1      37.809  31.075  33.057  1.00  0.00     0.198 A 
ATOM     77  C   UNL A   1      36.808  31.789  30.998  1.00  0.00     0.198 A 
ATOM     78  F   UNL A   1      37.973  31.531  28.971  1.00  0.00    -0.203 F 
ATOM     79  F   UNL A   1      37.734  30.886  34.381  1.00  0.00    -0.200 F 
ATOM     80  C   UNL A   1      36.737  31.627  32.372  1.00  0.00     0.200 A 
ATOM     81  F   UNL A   1      35.782  32.340  30.333  1.00  0.00    -0.200 F 
ATOM     82  F   UNL A   1      35.632  31.993  33.035  1.00  0.00    -0.200 F 
ENDBRANCH  48  72
BRANCH  60  83
ATOM     83  C   UNL A   1      44.832  34.078  28.828  1.00  0.00     0.064 A 
ATOM     84  C   UNL A   1      45.674  34.521  29.860  1.00  0.00     0.173 A 
ATOM     85  C   UNL A   1      44.446  35.011  27.853  1.00  0.00     0.173 A 
ATOM     86  F   UNL A   1      46.063  33.673  30.825  1.00  0.00    -0.203 F 
ATOM     87  C   UNL A   1      46.081  35.850  29.931  1.00  0.00     0.198 A 
ATOM     88  C   UNL A   1      44.889  36.329  27.903  1.00  0.00     0.198 A 
ATOM     89  F   UNL A   1      43.650  34.641  26.838  1.00  0.00    -0.203 F 
ATOM     90  F   UNL A   1      46.831  36.265  30.961  1.00  0.00    -0.200 F 
ATOM     91  C   UNL A   1      45.696  36.750  28.949  1.00  0.00     0.200 A 
ATOM     92  F   UNL A   1      44.534  37.191  26.941  1.00  0.00    -0.200 F 
ATOM     93  F   UNL A   1      46.097  38.027  29.013  1.00  0.00    -0.200 F 
ENDBRANCH  60  83
ENDBRANCH  34  35
ENDBRANCH  27  29
ENDBRANCH  26  27
ENDBRANCH  25  26
ENDBRANCH  24  25
ENDBRANCH  23  24
ENDBRANCH   1  23
TORSDOF 17
ENDMDL
