MODEL 1
REMARK VINA RESULT:     -11.0      0.000      0.000
REMARK SMILES CCCCCCNC(=O)Oc1cccc(-c2ccc([C@@H](C)C(=O)OCCOCCOC(=O)c3ccc(-c4c5nc(c(-c6c(F)c(F)c(F)c(F)c6F)c6ccc([nH]6)c(-c6c(F)c(F)c(F)c(F)c6F)c6nc(c(-c7c(F)c(F)c(F)c(F)c7F)c7ccc4[nH]7)C=C6)C=C5)cc3)cc2)c1
REMARK SMILES IDX 22 1 23 2 20 3 21 4 19 5 16 6 17 7 97 8 18 9 96 10 15 11
REMARK SMILES IDX 11 12 12 13 98 14 13 15 14 16 10 17 8 18 7 19 9 21 6 22 5 23
REMARK SMILES IDX 4 24 3 25 2 26 1 27 24 28 25 29 26 30 27 31 28 32 29 33
REMARK SMILES IDX 30 34 31 35 32 36 33 37 34 38 95 39 35 40 94 41 36 42 37 43
REMARK SMILES IDX 38 44 88 45 39 46 93 47 87 48 89 49 40 50 92 51 86 52 85 53
REMARK SMILES IDX 41 55 73 56 53 57 72 58 54 59 57 60 71 61 90 62 55 63 56 64
REMARK SMILES IDX 70 66 91 67 58 68 42 69 43 70 51 71 44 72 45 73 49 74 52 75
REMARK SMILES IDX 46 76 47 77 50 78 48 79 74 80 75 81 83 82 76 83 77 84 81 85
REMARK SMILES IDX 84 86 78 87 79 88 82 89 80 90 59 91 60 92 68 93 61 94 62 95
REMARK SMILES IDX 66 96 69 97 63 98 64 99 67 100 65 101
REMARK H PARENT 7 20 89 54 57 65
REMARK Flexibility Score: inf
ROOT
ATOM      1  C   UNL A   1      32.143  28.554  23.076  1.00  0.00     0.313 C 
ATOM      2  O   UNL A   1      33.219  28.876  22.581  1.00  0.00    -0.252 OA
ENDROOT
BRANCH   1   3
ATOM      3  C   UNL A   1      31.175  27.632  22.351  1.00  0.00     0.126 C 
ATOM      4  C   UNL A   1      29.748  27.967  22.782  1.00  0.00     0.025 C 
BRANCH   3   5
ATOM      5  C   UNL A   1      31.444  26.132  22.394  1.00  0.00    -0.034 A 
ATOM      6  C   UNL A   1      31.987  23.352  22.740  1.00  0.00    -0.018 A 
ATOM      7  C   UNL A   1      32.876  24.189  22.045  1.00  0.00     0.009 A 
ATOM      8  C   UNL A   1      30.800  23.925  23.217  1.00  0.00     0.009 A 
ATOM      9  C   UNL A   1      32.611  25.556  21.875  1.00  0.00     0.005 A 
ATOM     10  C   UNL A   1      30.531  25.288  23.048  1.00  0.00     0.005 A 
BRANCH   6  11
ATOM     11  C   UNL A   1      32.309  21.940  23.015  1.00  0.00    -0.015 A 
ATOM     12  C   UNL A   1      33.490  20.229  24.275  1.00  0.00     0.133 A 
ATOM     13  C   UNL A   1      33.003  19.230  23.436  1.00  0.00     0.047 A 
ATOM     14  C   UNL A   1      33.163  21.573  24.069  1.00  0.00     0.056 A 
ATOM     15  C   UNL A   1      32.152  19.577  22.391  1.00  0.00     0.004 A 
ATOM     16  C   UNL A   1      31.809  20.917  22.186  1.00  0.00     0.009 A 
BRANCH  12  17
ATOM     17  O   UNL A   1      34.420  19.836  25.254  1.00  0.00    -0.410 OA
BRANCH  17  18
ATOM     18  C   UNL A   1      35.461  20.700  25.549  1.00  0.00     0.412 C 
ATOM     19  N   UNL A   1      35.248  21.448  26.670  1.00  0.00    -0.321 N 
ATOM     20  H   UNL A   1      35.968  22.068  26.928  1.00  0.00     0.167 HD
ATOM     21  O   UNL A   1      36.498  20.829  24.895  1.00  0.00    -0.224 OA
BRANCH  19  22
ATOM     22  C   UNL A   1      34.075  21.428  27.525  1.00  0.00     0.119 C 
BRANCH  22  23
ATOM     23  C   UNL A   1      33.527  22.832  27.785  1.00  0.00     0.021 C 
BRANCH  23  24
ATOM     24  C   UNL A   1      33.295  23.680  26.527  1.00  0.00     0.002 C 
BRANCH  24  25
ATOM     25  C   UNL A   1      32.140  24.686  26.607  1.00  0.00    -0.000 C 
BRANCH  25  26
ATOM     26  C   UNL A   1      32.404  26.044  25.951  1.00  0.00    -0.003 C 
ATOM     27  C   UNL A   1      33.814  26.184  25.398  1.00  0.00     0.004 C 
ENDBRANCH  25  26
ENDBRANCH  24  25
ENDBRANCH  23  24
ENDBRANCH  22  23
ENDBRANCH  19  22
ENDBRANCH  17  18
ENDBRANCH  12  17
ENDBRANCH   6  11
ENDBRANCH   3   5
ENDBRANCH   1   3
BRANCH   1  28
ATOM     28  O   UNL A   1      31.686  29.004  24.272  1.00  0.00    -0.463 OA
BRANCH  28  29
ATOM     29  C   UNL A   1      32.650  29.678  25.102  1.00  0.00     0.261 C 
BRANCH  29  30
ATOM     30  C   UNL A   1      32.142  29.810  26.539  1.00  0.00     0.202 C 
BRANCH  30  31
ATOM     31  O   UNL A   1      32.604  30.951  27.261  1.00  0.00    -0.374 OA
BRANCH  31  32
ATOM     32  C   UNL A   1      31.880  32.170  27.093  1.00  0.00     0.202 C 
BRANCH  32  33
ATOM     33  C   UNL A   1      32.669  33.465  27.311  1.00  0.00     0.261 C 
BRANCH  33  34
ATOM     34  O   UNL A   1      32.266  34.151  28.509  1.00  0.00    -0.460 OA
BRANCH  34  35
ATOM     35  C   UNL A   1      33.040  35.205  28.852  1.00  0.00     0.338 C 
ATOM     36  O   UNL A   1      32.795  36.391  28.695  1.00  0.00    -0.246 OA
BRANCH  35  37
ATOM     37  C   UNL A   1      34.199  34.744  29.640  1.00  0.00     0.060 A 
ATOM     38  C   UNL A   1      35.433  34.658  28.982  1.00  0.00     0.016 A 
ATOM     39  C   UNL A   1      34.070  34.323  30.966  1.00  0.00     0.016 A 
ATOM     40  C   UNL A   1      36.531  34.089  29.624  1.00  0.00     0.010 A 
ATOM     41  C   UNL A   1      35.171  33.743  31.606  1.00  0.00     0.010 A 
ATOM     42  C   UNL A   1      36.392  33.585  30.923  1.00  0.00    -0.014 A 
BRANCH  42  43
ATOM     43  C   UNL A   1      37.458  32.724  31.491  1.00  0.00     0.031 A 
ATOM     44  C   UNL A   1      37.968  33.029  32.872  1.00  0.00     0.074 A 
ATOM     45  C   UNL A   1      37.945  31.674  30.809  1.00  0.00     0.049 A 
ATOM     46  N   UNL A   1      38.938  32.466  33.547  1.00  0.00    -0.248 NA
ATOM     47  C   UNL A   1      37.290  34.121  33.592  1.00  0.00     0.031 C 
ATOM     48  C   UNL A   1      37.491  31.239  29.490  1.00  0.00     0.029 A 
ATOM     49  N   UNL A   1      38.940  30.785  31.134  1.00  0.00    -0.354 N 
ATOM     50  C   UNL A   1      38.995  33.141  34.759  1.00  0.00     0.074 A 
ATOM     51  C   UNL A   1      37.977  34.169  34.723  1.00  0.00     0.031 C 
ATOM     52  C   UNL A   1      38.219  30.175  29.109  1.00  0.00     0.029 A 
ATOM     53  C   UNL A   1      39.212  29.877  30.142  1.00  0.00     0.049 A 
ATOM     54  H   UNL A   1      39.413  30.798  31.998  1.00  0.00     0.167 HD
ATOM     55  C   UNL A   1      39.819  32.920  35.810  1.00  0.00     0.037 A 
ATOM     56  C   UNL A   1      40.170  28.934  30.067  1.00  0.00     0.037 A 
ATOM     57  C   UNL A   1      40.826  31.893  35.848  1.00  0.00     0.049 A 
ATOM     58  C   UNL A   1      41.124  28.754  31.221  1.00  0.00     0.074 A 
ATOM     59  C   UNL A   1      41.709  31.587  36.868  1.00  0.00     0.029 A 
ATOM     60  N   UNL A   1      41.085  31.008  34.813  1.00  0.00    -0.354 N 
ATOM     61  N   UNL A   1      41.170  29.391  32.365  1.00  0.00    -0.248 NA
ATOM     62  C   UNL A   1      42.161  27.721  31.071  1.00  0.00     0.031 C 
ATOM     63  C   UNL A   1      42.532  30.543  36.434  1.00  0.00     0.029 A 
ATOM     64  C   UNL A   1      42.127  30.166  35.163  1.00  0.00     0.049 A 
ATOM     65  H   UNL A   1      40.600  30.981  33.956  1.00  0.00     0.167 HD
ATOM     66  C   UNL A   1      42.209  28.815  33.084  1.00  0.00     0.074 A 
ATOM     67  C   UNL A   1      42.770  27.775  32.248  1.00  0.00     0.031 C 
ATOM     68  C   UNL A   1      42.656  29.118  34.327  1.00  0.00     0.037 A 
BRANCH  55  69
ATOM     69  C   UNL A   1      39.686  33.828  36.997  1.00  0.00     0.064 A 
ATOM     70  C   UNL A   1      40.295  35.090  37.032  1.00  0.00     0.173 A 
ATOM     71  C   UNL A   1      38.912  33.440  38.100  1.00  0.00     0.173 A 
ATOM     72  F   UNL A   1      41.057  35.501  36.007  1.00  0.00    -0.203 F 
ATOM     73  C   UNL A   1      40.152  35.923  38.139  1.00  0.00     0.198 A 
ATOM     74  C   UNL A   1      38.748  34.286  39.194  1.00  0.00     0.198 A 
ATOM     75  F   UNL A   1      38.305  32.243  38.115  1.00  0.00    -0.203 F 
ATOM     76  F   UNL A   1      40.777  37.109  38.170  1.00  0.00    -0.200 F 
ATOM     77  C   UNL A   1      39.373  35.523  39.215  1.00  0.00     0.200 A 
ATOM     78  F   UNL A   1      37.986  33.903  40.228  1.00  0.00    -0.200 F 
ATOM     79  F   UNL A   1      39.230  36.329  40.277  1.00  0.00    -0.200 F 
ENDBRANCH  55  69
BRANCH  56  80
ATOM     80  C   UNL A   1      40.292  28.093  28.847  1.00  0.00     0.064 A 
ATOM     81  C   UNL A   1      39.655  26.848  28.759  1.00  0.00     0.173 A 
ATOM     82  C   UNL A   1      41.063  28.511  27.752  1.00  0.00     0.173 A 
ATOM     83  F   UNL A   1      38.929  26.393  29.791  1.00  0.00    -0.203 F 
ATOM     84  C   UNL A   1      39.798  26.044  27.630  1.00  0.00     0.198 A 
ATOM     85  C   UNL A   1      41.183  27.718  26.613  1.00  0.00     0.198 A 
ATOM     86  F   UNL A   1      41.695  29.693  27.787  1.00  0.00    -0.203 F 
ATOM     87  F   UNL A   1      39.216  24.838  27.590  1.00  0.00    -0.200 F 
ATOM     88  C   UNL A   1      40.557  26.483  26.555  1.00  0.00     0.200 A 
ATOM     89  F   UNL A   1      41.910  28.151  25.573  1.00  0.00    -0.200 F 
ATOM     90  F   UNL A   1      40.694  25.711  25.469  1.00  0.00    -0.200 F 
ENDBRANCH  56  80
BRANCH  68  91
ATOM     91  C   UNL A   1      43.767  28.281  34.893  1.00  0.00     0.064 A 
ATOM     92  C   UNL A   1      43.514  27.094  35.592  1.00  0.00     0.173 A 
ATOM     93  C   UNL A   1      45.104  28.643  34.670  1.00  0.00     0.173 A 
ATOM     94  F   UNL A   1      42.253  26.713  35.842  1.00  0.00    -0.203 F 
ATOM     95  C   UNL A   1      44.562  26.306  36.062  1.00  0.00     0.198 A 
ATOM     96  C   UNL A   1      46.148  27.839  35.117  1.00  0.00     0.198 A 
ATOM     97  F   UNL A   1      45.398  29.768  33.998  1.00  0.00    -0.203 F 
ATOM     98  F   UNL A   1      44.299  25.191  36.758  1.00  0.00    -0.200 F 
ATOM     99  C   UNL A   1      45.877  26.673  35.816  1.00  0.00     0.200 A 
ATOM    100  F   UNL A   1      47.417  28.190  34.866  1.00  0.00    -0.200 F 
ATOM    101  F   UNL A   1      46.883  25.906  36.257  1.00  0.00    -0.200 F 
ENDBRANCH  68  91
ENDBRANCH  42  43
ENDBRANCH  35  37
ENDBRANCH  34  35
ENDBRANCH  33  34
ENDBRANCH  32  33
ENDBRANCH  31  32
ENDBRANCH  30  31
ENDBRANCH  29  30
ENDBRANCH  28  29
ENDBRANCH   1  28
TORSDOF 23
ENDMDL
MODEL 2
REMARK VINA RESULT:     -10.9      3.402      9.041
REMARK SMILES CCCCCCNC(=O)Oc1cccc(-c2ccc([C@@H](C)C(=O)OCCOCCOC(=O)c3ccc(-c4c5nc(c(-c6c(F)c(F)c(F)c(F)c6F)c6ccc([nH]6)c(-c6c(F)c(F)c(F)c(F)c6F)c6nc(c(-c7c(F)c(F)c(F)c(F)c7F)c7ccc4[nH]7)C=C6)C=C5)cc3)cc2)c1
REMARK SMILES IDX 22 1 23 2 20 3 21 4 19 5 16 6 17 7 97 8 18 9 96 10 15 11
REMARK SMILES IDX 11 12 12 13 98 14 13 15 14 16 10 17 8 18 7 19 9 21 6 22 5 23
REMARK SMILES IDX 4 24 3 25 2 26 1 27 24 28 25 29 26 30 27 31 28 32 29 33
REMARK SMILES IDX 30 34 31 35 32 36 33 37 34 38 95 39 35 40 94 41 36 42 37 43
REMARK SMILES IDX 38 44 88 45 39 46 93 47 87 48 89 49 40 50 92 51 86 52 85 53
REMARK SMILES IDX 41 55 73 56 53 57 72 58 54 59 57 60 71 61 90 62 55 63 56 64
REMARK SMILES IDX 70 66 91 67 58 68 42 69 43 70 51 71 44 72 45 73 49 74 52 75
REMARK SMILES IDX 46 76 47 77 50 78 48 79 74 80 75 81 83 82 76 83 77 84 81 85
REMARK SMILES IDX 84 86 78 87 79 88 82 89 80 90 59 91 60 92 68 93 61 94 62 95
REMARK SMILES IDX 66 96 69 97 63 98 64 99 67 100 65 101
REMARK H PARENT 7 20 89 54 57 65
REMARK Flexibility Score: inf
ROOT
ATOM      1  C   UNL A   1      41.135  20.027  26.132  1.00  0.00     0.313 C 
ATOM      2  O   UNL A   1      40.312  19.235  25.681  1.00  0.00    -0.252 OA
ENDROOT
BRANCH   1   3
ATOM      3  C   UNL A   1      40.769  21.471  26.436  1.00  0.00     0.126 C 
ATOM      4  C   UNL A   1      41.239  21.819  27.847  1.00  0.00     0.025 C 
BRANCH   3   5
ATOM      5  C   UNL A   1      39.331  21.914  26.191  1.00  0.00    -0.034 A 
ATOM      6  C   UNL A   1      36.705  22.770  25.473  1.00  0.00    -0.018 A 
ATOM      7  C   UNL A   1      37.548  23.576  26.255  1.00  0.00     0.009 A 
ATOM      8  C   UNL A   1      37.186  21.508  25.096  1.00  0.00     0.009 A 
ATOM      9  C   UNL A   1      38.839  23.158  26.608  1.00  0.00     0.005 A 
ATOM     10  C   UNL A   1      38.474  21.086  25.448  1.00  0.00     0.005 A 
BRANCH   6  11
ATOM     11  C   UNL A   1      35.390  23.247  25.008  1.00  0.00    -0.015 A 
ATOM     12  C   UNL A   1      33.359  24.545  25.326  1.00  0.00     0.133 A 
ATOM     13  C   UNL A   1      32.816  24.043  24.146  1.00  0.00     0.047 A 
ATOM     14  C   UNL A   1      34.625  24.148  25.768  1.00  0.00     0.056 A 
ATOM     15  C   UNL A   1      33.563  23.153  23.380  1.00  0.00     0.004 A 
ATOM     16  C   UNL A   1      34.836  22.762  23.807  1.00  0.00     0.009 A 
BRANCH  12  17
ATOM     17  O   UNL A   1      32.526  25.363  26.108  1.00  0.00    -0.410 OA
BRANCH  17  18
ATOM     18  C   UNL A   1      31.216  24.962  26.307  1.00  0.00     0.412 C 
ATOM     19  N   UNL A   1      30.300  25.767  25.693  1.00  0.00    -0.321 N 
ATOM     20  H   UNL A   1      29.354  25.513  25.795  1.00  0.00     0.167 HD
ATOM     21  O   UNL A   1      30.852  23.989  26.970  1.00  0.00    -0.224 OA
BRANCH  19  22
ATOM     22  C   UNL A   1      30.569  26.956  24.905  1.00  0.00     0.119 C 
BRANCH  22  23
ATOM     23  C   UNL A   1      29.989  26.856  23.493  1.00  0.00     0.021 C 
BRANCH  23  24
ATOM     24  C   UNL A   1      30.997  27.085  22.360  1.00  0.00     0.002 C 
BRANCH  24  25
ATOM     25  C   UNL A   1      32.441  27.356  22.799  1.00  0.00    -0.000 C 
BRANCH  25  26
ATOM     26  C   UNL A   1      32.792  28.826  23.042  1.00  0.00    -0.003 C 
ATOM     27  C   UNL A   1      33.433  29.078  24.398  1.00  0.00     0.004 C 
ENDBRANCH  25  26
ENDBRANCH  24  25
ENDBRANCH  23  24
ENDBRANCH  22  23
ENDBRANCH  19  22
ENDBRANCH  17  18
ENDBRANCH  12  17
ENDBRANCH   6  11
ENDBRANCH   3   5
ENDBRANCH   1   3
BRANCH   1  28
ATOM     28  O   UNL A   1      42.439  19.727  26.362  1.00  0.00    -0.463 OA
BRANCH  28  29
ATOM     29  C   UNL A   1      43.059  18.840  25.413  1.00  0.00     0.261 C 
BRANCH  29  30
ATOM     30  C   UNL A   1      44.416  19.380  24.959  1.00  0.00     0.202 C 
BRANCH  30  31
ATOM     31  O   UNL A   1      44.543  20.801  24.929  1.00  0.00    -0.374 OA
BRANCH  31  32
ATOM     32  C   UNL A   1      45.748  21.362  25.450  1.00  0.00     0.202 C 
BRANCH  32  33
ATOM     33  C   UNL A   1      45.613  22.702  26.182  1.00  0.00     0.261 C 
BRANCH  33  34
ATOM     34  O   UNL A   1      44.240  23.101  26.333  1.00  0.00    -0.460 OA
BRANCH  34  35
ATOM     35  C   UNL A   1      43.851  24.123  25.538  1.00  0.00     0.338 C 
ATOM     36  O   UNL A   1      43.919  24.185  24.319  1.00  0.00    -0.246 OA
BRANCH  35  37
ATOM     37  C   UNL A   1      43.132  25.136  26.333  1.00  0.00     0.060 A 
ATOM     38  C   UNL A   1      43.822  26.312  26.654  1.00  0.00     0.016 A 
ATOM     39  C   UNL A   1      41.846  24.909  26.829  1.00  0.00     0.016 A 
ATOM     40  C   UNL A   1      43.257  27.240  27.526  1.00  0.00     0.010 A 
ATOM     41  C   UNL A   1      41.283  25.837  27.712  1.00  0.00     0.010 A 
ATOM     42  C   UNL A   1      42.004  26.983  28.098  1.00  0.00    -0.014 A 
BRANCH  42  43
ATOM     43  C   UNL A   1      41.538  27.809  29.238  1.00  0.00     0.031 A 
ATOM     44  C   UNL A   1      42.271  27.706  30.547  1.00  0.00     0.074 A 
ATOM     45  C   UNL A   1      40.504  28.657  29.109  1.00  0.00     0.049 A 
ATOM     46  N   UNL A   1      42.008  28.271  31.697  1.00  0.00    -0.248 NA
ATOM     47  C   UNL A   1      43.466  26.845  30.560  1.00  0.00     0.031 C 
ATOM     48  C   UNL A   1      39.752  28.893  27.879  1.00  0.00     0.029 A 
ATOM     49  N   UNL A   1      39.903  29.475  30.034  1.00  0.00    -0.354 N 
ATOM     50  C   UNL A   1      42.992  27.825  32.570  1.00  0.00     0.074 A 
ATOM     51  C   UNL A   1      43.847  26.927  31.825  1.00  0.00     0.031 C 
ATOM     52  C   UNL A   1      38.776  29.783  28.129  1.00  0.00     0.029 A 
ATOM     53  C   UNL A   1      38.814  30.151  29.545  1.00  0.00     0.049 A 
ATOM     54  H   UNL A   1      40.223  29.567  30.961  1.00  0.00     0.167 HD
ATOM     55  C   UNL A   1      43.169  28.141  33.874  1.00  0.00     0.037 A 
ATOM     56  C   UNL A   1      37.934  30.953  30.175  1.00  0.00     0.037 A 
ATOM     57  C   UNL A   1      42.323  29.040  34.612  1.00  0.00     0.049 A 
ATOM     58  C   UNL A   1      38.110  31.233  31.647  1.00  0.00     0.074 A 
ATOM     59  C   UNL A   1      42.421  29.427  35.937  1.00  0.00     0.029 A 
ATOM     60  N   UNL A   1      41.216  29.688  34.086  1.00  0.00    -0.354 N 
ATOM     61  N   UNL A   1      39.045  30.813  32.464  1.00  0.00    -0.248 NA
ATOM     62  C   UNL A   1      37.106  32.100  32.283  1.00  0.00     0.031 C 
ATOM     63  C   UNL A   1      41.348  30.277  36.224  1.00  0.00     0.029 A 
ATOM     64  C   UNL A   1      40.612  30.459  35.065  1.00  0.00     0.049 A 
ATOM     65  H   UNL A   1      40.905  29.612  33.154  1.00  0.00     0.167 HD
ATOM     66  C   UNL A   1      38.766  31.392  33.695  1.00  0.00     0.074 A 
ATOM     67  C   UNL A   1      37.573  32.194  33.520  1.00  0.00     0.031 C 
ATOM     68  C   UNL A   1      39.439  31.273  34.865  1.00  0.00     0.037 A 
BRANCH  55  69
ATOM     69  C   UNL A   1      44.308  27.485  34.597  1.00  0.00     0.064 A 
ATOM     70  C   UNL A   1      45.570  28.091  34.688  1.00  0.00     0.173 A 
ATOM     71  C   UNL A   1      44.125  26.249  35.233  1.00  0.00     0.173 A 
ATOM     72  F   UNL A   1      45.800  29.267  34.085  1.00  0.00    -0.203 F 
ATOM     73  C   UNL A   1      46.613  27.471  35.372  1.00  0.00     0.198 A 
ATOM     74  C   UNL A   1      45.162  25.645  35.940  1.00  0.00     0.198 A 
ATOM     75  F   UNL A   1      42.935  25.630  35.179  1.00  0.00    -0.203 F 
ATOM     76  F   UNL A   1      47.823  28.048  35.413  1.00  0.00    -0.200 F 
ATOM     77  C   UNL A   1      46.406  26.253  36.003  1.00  0.00     0.200 A 
ATOM     78  F   UNL A   1      44.957  24.474  36.558  1.00  0.00    -0.200 F 
ATOM     79  F   UNL A   1      47.409  25.662  36.668  1.00  0.00    -0.200 F 
ENDBRANCH  55  69
BRANCH  56  80
ATOM     80  C   UNL A   1      36.793  31.539  29.425  1.00  0.00     0.064 A 
ATOM     81  C   UNL A   1      35.717  30.745  29.005  1.00  0.00     0.173 A 
ATOM     82  C   UNL A   1      36.765  32.903  29.096  1.00  0.00     0.173 A 
ATOM     83  F   UNL A   1      35.712  29.431  29.271  1.00  0.00    -0.203 F 
ATOM     84  C   UNL A   1      34.665  31.288  28.269  1.00  0.00     0.198 A 
ATOM     85  C   UNL A   1      35.700  33.450  28.384  1.00  0.00     0.198 A 
ATOM     86  F   UNL A   1      37.771  33.705  29.472  1.00  0.00    -0.203 F 
ATOM     87  F   UNL A   1      33.672  30.498  27.841  1.00  0.00    -0.200 F 
ATOM     88  C   UNL A   1      34.654  32.641  27.965  1.00  0.00     0.200 A 
ATOM     89  F   UNL A   1      35.689  34.760  28.101  1.00  0.00    -0.200 F 
ATOM     90  F   UNL A   1      33.642  33.164  27.260  1.00  0.00    -0.200 F 
ENDBRANCH  56  80
BRANCH  68  91
ATOM     91  C   UNL A   1      38.947  32.070  36.038  1.00  0.00     0.064 A 
ATOM     92  C   UNL A   1      38.131  31.503  37.026  1.00  0.00     0.173 A 
ATOM     93  C   UNL A   1      39.357  33.401  36.207  1.00  0.00     0.173 A 
ATOM     94  F   UNL A   1      37.702  30.238  36.903  1.00  0.00    -0.203 F 
ATOM     95  C   UNL A   1      37.729  32.246  38.133  1.00  0.00     0.198 A 
ATOM     96  C   UNL A   1      38.977  34.132  37.328  1.00  0.00     0.198 A 
ATOM     97  F   UNL A   1      40.146  33.987  35.292  1.00  0.00    -0.203 F 
ATOM     98  F   UNL A   1      36.920  31.695  39.050  1.00  0.00    -0.200 F 
ATOM     99  C   UNL A   1      38.160  33.556  38.288  1.00  0.00     0.200 A 
ATOM    100  F   UNL A   1      39.405  35.393  37.482  1.00  0.00    -0.200 F 
ATOM    101  F   UNL A   1      37.783  34.264  39.362  1.00  0.00    -0.200 F 
ENDBRANCH  68  91
ENDBRANCH  42  43
ENDBRANCH  35  37
ENDBRANCH  34  35
ENDBRANCH  33  34
ENDBRANCH  32  33
ENDBRANCH  31  32
ENDBRANCH  30  31
ENDBRANCH  29  30
ENDBRANCH  28  29
ENDBRANCH   1  28
TORSDOF 23
ENDMDL
MODEL 3
REMARK VINA RESULT:     -10.8      0.664      7.163
REMARK SMILES CCCCCCNC(=O)Oc1cccc(-c2ccc([C@@H](C)C(=O)OCCOCCOC(=O)c3ccc(-c4c5nc(c(-c6c(F)c(F)c(F)c(F)c6F)c6ccc([nH]6)c(-c6c(F)c(F)c(F)c(F)c6F)c6nc(c(-c7c(F)c(F)c(F)c(F)c7F)c7ccc4[nH]7)C=C6)C=C5)cc3)cc2)c1
REMARK SMILES IDX 22 1 23 2 20 3 21 4 19 5 16 6 17 7 97 8 18 9 96 10 15 11
REMARK SMILES IDX 11 12 12 13 98 14 13 15 14 16 10 17 8 18 7 19 9 21 6 22 5 23
REMARK SMILES IDX 4 24 3 25 2 26 1 27 24 28 25 29 26 30 27 31 28 32 29 33
REMARK SMILES IDX 30 34 31 35 32 36 33 37 34 38 95 39 35 40 94 41 36 42 37 43
REMARK SMILES IDX 38 44 88 45 39 46 93 47 87 48 89 49 40 50 92 51 86 52 85 53
REMARK SMILES IDX 41 55 73 56 53 57 72 58 54 59 57 60 71 61 90 62 55 63 56 64
REMARK SMILES IDX 70 66 91 67 58 68 42 69 43 70 51 71 44 72 45 73 49 74 52 75
REMARK SMILES IDX 46 76 47 77 50 78 48 79 74 80 75 81 83 82 76 83 77 84 81 85
REMARK SMILES IDX 84 86 78 87 79 88 82 89 80 90 59 91 60 92 68 93 61 94 62 95
REMARK SMILES IDX 66 96 69 97 63 98 64 99 67 100 65 101
REMARK H PARENT 7 20 89 54 57 65
REMARK Flexibility Score: inf
ROOT
ATOM      1  C   UNL A   1      31.988  28.582  23.177  1.00  0.00     0.313 C 
ATOM      2  O   UNL A   1      33.020  28.948  22.620  1.00  0.00    -0.252 OA
ENDROOT
BRANCH   1   3
ATOM      3  C   UNL A   1      31.001  27.648  22.495  1.00  0.00     0.126 C 
ATOM      4  C   UNL A   1      29.594  27.948  23.007  1.00  0.00     0.025 C 
BRANCH   3   5
ATOM      5  C   UNL A   1      31.303  26.153  22.507  1.00  0.00    -0.034 A 
ATOM      6  C   UNL A   1      31.890  23.376  22.796  1.00  0.00    -0.018 A 
ATOM      7  C   UNL A   1      32.799  24.254  22.183  1.00  0.00     0.009 A 
ATOM      8  C   UNL A   1      30.664  23.907  23.220  1.00  0.00     0.009 A 
ATOM      9  C   UNL A   1      32.512  25.620  22.041  1.00  0.00     0.005 A 
ATOM     10  C   UNL A   1      30.373  25.269  23.078  1.00  0.00     0.005 A 
BRANCH   6  11
ATOM     11  C   UNL A   1      32.229  21.963  23.046  1.00  0.00    -0.015 A 
ATOM     12  C   UNL A   1      33.399  20.240  24.300  1.00  0.00     0.133 A 
ATOM     13  C   UNL A   1      32.958  19.256  23.419  1.00  0.00     0.047 A 
ATOM     14  C   UNL A   1      33.055  21.583  24.117  1.00  0.00     0.056 A 
ATOM     15  C   UNL A   1      32.136  19.615  22.356  1.00  0.00     0.004 A 
ATOM     16  C   UNL A   1      31.775  20.954  22.174  1.00  0.00     0.009 A 
BRANCH  12  17
ATOM     17  O   UNL A   1      34.303  19.838  25.299  1.00  0.00    -0.410 OA
BRANCH  17  18
ATOM     18  C   UNL A   1      35.416  20.629  25.529  1.00  0.00     0.412 C 
ATOM     19  N   UNL A   1      35.303  21.417  26.637  1.00  0.00    -0.321 N 
ATOM     20  H   UNL A   1      36.077  21.989  26.849  1.00  0.00     0.167 HD
ATOM     21  O   UNL A   1      36.431  20.666  24.832  1.00  0.00    -0.224 OA
BRANCH  19  22
ATOM     22  C   UNL A   1      34.168  21.505  27.537  1.00  0.00     0.119 C 
BRANCH  22  23
ATOM     23  C   UNL A   1      33.745  22.953  27.792  1.00  0.00     0.021 C 
BRANCH  23  24
ATOM     24  C   UNL A   1      33.393  23.756  26.534  1.00  0.00     0.002 C 
BRANCH  24  25
ATOM     25  C   UNL A   1      32.136  24.629  26.632  1.00  0.00    -0.000 C 
BRANCH  25  26
ATOM     26  C   UNL A   1      32.231  25.999  25.956  1.00  0.00    -0.003 C 
ATOM     27  C   UNL A   1      33.654  26.526  25.857  1.00  0.00     0.004 C 
ENDBRANCH  25  26
ENDBRANCH  24  25
ENDBRANCH  23  24
ENDBRANCH  22  23
ENDBRANCH  19  22
ENDBRANCH  17  18
ENDBRANCH  12  17
ENDBRANCH   6  11
ENDBRANCH   3   5
ENDBRANCH   1   3
BRANCH   1  28
ATOM     28  O   UNL A   1      31.599  28.991  24.412  1.00  0.00    -0.463 OA
BRANCH  28  29
ATOM     29  C   UNL A   1      32.573  29.737  25.165  1.00  0.00     0.261 C 
BRANCH  29  30
ATOM     30  C   UNL A   1      32.094  29.978  26.597  1.00  0.00     0.202 C 
BRANCH  30  31
ATOM     31  O   UNL A   1      32.581  31.162  27.227  1.00  0.00    -0.374 OA
BRANCH  31  32
ATOM     32  C   UNL A   1      31.780  32.339  27.119  1.00  0.00     0.202 C 
BRANCH  32  33
ATOM     33  C   UNL A   1      32.525  33.677  27.183  1.00  0.00     0.261 C 
BRANCH  33  34
ATOM     34  O   UNL A   1      32.342  34.339  28.447  1.00  0.00    -0.460 OA
BRANCH  34  35
ATOM     35  C   UNL A   1      33.383  35.103  28.848  1.00  0.00     0.338 C 
ATOM     36  O   UNL A   1      33.389  36.309  29.044  1.00  0.00    -0.246 OA
BRANCH  35  37
ATOM     37  C   UNL A   1      34.527  34.246  29.212  1.00  0.00     0.060 A 
ATOM     38  C   UNL A   1      34.297  33.225  30.143  1.00  0.00     0.016 A 
ATOM     39  C   UNL A   1      35.814  34.486  28.724  1.00  0.00     0.016 A 
ATOM     40  C   UNL A   1      35.363  32.479  30.642  1.00  0.00     0.010 A 
ATOM     41  C   UNL A   1      36.884  33.743  29.233  1.00  0.00     0.010 A 
ATOM     42  C   UNL A   1      36.669  32.768  30.225  1.00  0.00    -0.014 A 
BRANCH  42  43
ATOM     43  C   UNL A   1      37.817  32.189  30.964  1.00  0.00     0.031 A 
ATOM     44  C   UNL A   1      38.620  31.102  30.305  1.00  0.00     0.074 A 
ATOM     45  C   UNL A   1      38.160  32.637  32.184  1.00  0.00     0.049 A 
ATOM     46  N   UNL A   1      39.616  30.398  30.778  1.00  0.00    -0.248 NA
ATOM     47  C   UNL A   1      38.248  30.762  28.921  1.00  0.00     0.031 C 
ATOM     48  C   UNL A   1      37.499  33.724  32.901  1.00  0.00     0.029 A 
ATOM     49  N   UNL A   1      39.151  32.220  33.038  1.00  0.00    -0.354 N 
ATOM     50  C   UNL A   1      39.979  29.526  29.759  1.00  0.00     0.074 A 
ATOM     51  C   UNL A   1      39.085  29.773  28.649  1.00  0.00     0.031 C 
ATOM     52  C   UNL A   1      38.093  33.879  34.098  1.00  0.00     0.029 A 
ATOM     53  C   UNL A   1      39.150  32.878  34.242  1.00  0.00     0.049 A 
ATOM     54  H   UNL A   1      39.801  31.517  32.808  1.00  0.00     0.167 HD
ATOM     55  C   UNL A   1      40.972  28.606  29.749  1.00  0.00     0.037 A 
ATOM     56  C   UNL A   1      39.900  32.675  35.343  1.00  0.00     0.037 A 
ATOM     57  C   UNL A   1      41.865  28.366  30.851  1.00  0.00     0.049 A 
ATOM     58  C   UNL A   1      40.952  31.595  35.334  1.00  0.00     0.074 A 
ATOM     59  C   UNL A   1      42.905  27.458  30.937  1.00  0.00     0.029 A 
ATOM     60  N   UNL A   1      41.817  29.038  32.063  1.00  0.00    -0.354 N 
ATOM     61  N   UNL A   1      41.293  30.779  34.367  1.00  0.00    -0.248 NA
ATOM     62  C   UNL A   1      41.724  31.409  36.572  1.00  0.00     0.031 C 
ATOM     63  C   UNL A   1      43.461  27.551  32.218  1.00  0.00     0.029 A 
ATOM     64  C   UNL A   1      42.799  28.552  32.910  1.00  0.00     0.049 A 
ATOM     65  H   UNL A   1      41.180  29.755  32.288  1.00  0.00     0.167 HD
ATOM     66  C   UNL A   1      42.339  30.012  34.863  1.00  0.00     0.074 A 
ATOM     67  C   UNL A   1      42.579  30.458  36.219  1.00  0.00     0.031 C 
ATOM     68  C   UNL A   1      43.040  29.028  34.249  1.00  0.00     0.037 A 
BRANCH  55  69
ATOM     69  C   UNL A   1      41.126  27.767  28.515  1.00  0.00     0.064 A 
ATOM     70  C   UNL A   1      40.403  26.579  28.336  1.00  0.00     0.173 A 
ATOM     71  C   UNL A   1      41.985  28.176  27.485  1.00  0.00     0.173 A 
ATOM     72  F   UNL A   1      39.578  26.139  29.299  1.00  0.00    -0.203 F 
ATOM     73  C   UNL A   1      40.552  25.819  27.179  1.00  0.00     0.198 A 
ATOM     74  C   UNL A   1      42.112  27.428  26.318  1.00  0.00     0.198 A 
ATOM     75  F   UNL A   1      42.697  29.307  27.605  1.00  0.00    -0.203 F 
ATOM     76  F   UNL A   1      39.883  24.665  27.046  1.00  0.00    -0.200 F 
ATOM     77  C   UNL A   1      41.400  26.247  26.168  1.00  0.00     0.200 A 
ATOM     78  F   UNL A   1      42.922  27.849  25.338  1.00  0.00    -0.200 F 
ATOM     79  F   UNL A   1      41.536  25.518  25.052  1.00  0.00    -0.200 F 
ENDBRANCH  55  69
BRANCH  56  80
ATOM     80  C   UNL A   1      39.674  33.501  36.558  1.00  0.00     0.064 A 
ATOM     81  C   UNL A   1      40.433  34.653  36.803  1.00  0.00     0.173 A 
ATOM     82  C   UNL A   1      38.707  33.143  37.509  1.00  0.00     0.173 A 
ATOM     83  F   UNL A   1      41.388  35.021  35.936  1.00  0.00    -0.203 F 
ATOM     84  C   UNL A   1      40.246  35.407  37.959  1.00  0.00     0.198 A 
ATOM     85  C   UNL A   1      38.502  33.912  38.652  1.00  0.00     0.198 A 
ATOM     86  F   UNL A   1      37.956  32.047  37.324  1.00  0.00    -0.203 F 
ATOM     87  F   UNL A   1      41.017  36.478  38.191  1.00  0.00    -0.200 F 
ATOM     88  C   UNL A   1      39.276  35.039  38.880  1.00  0.00     0.200 A 
ATOM     89  F   UNL A   1      37.557  33.558  39.534  1.00  0.00    -0.200 F 
ATOM     90  F   UNL A   1      39.095  35.765  39.992  1.00  0.00    -0.200 F 
ENDBRANCH  56  80
BRANCH  68  91
ATOM     91  C   UNL A   1      44.176  28.403  35.006  1.00  0.00     0.064 A 
ATOM     92  C   UNL A   1      45.462  28.958  34.999  1.00  0.00     0.173 A 
ATOM     93  C   UNL A   1      43.951  27.271  35.805  1.00  0.00     0.173 A 
ATOM     94  F   UNL A   1      45.730  30.032  34.242  1.00  0.00    -0.203 F 
ATOM     95  C   UNL A   1      46.488  28.391  35.752  1.00  0.00     0.198 A 
ATOM     96  C   UNL A   1      44.971  26.724  36.576  1.00  0.00     0.198 A 
ATOM     97  F   UNL A   1      42.733  26.707  35.851  1.00  0.00    -0.203 F 
ATOM     98  F   UNL A   1      47.720  28.917  35.705  1.00  0.00    -0.200 F 
ATOM     99  C   UNL A   1      46.240  27.281  36.547  1.00  0.00     0.200 A 
ATOM    100  F   UNL A   1      44.725  25.660  37.354  1.00  0.00    -0.200 F 
ATOM    101  F   UNL A   1      47.225  26.747  37.281  1.00  0.00    -0.200 F 
ENDBRANCH  68  91
ENDBRANCH  42  43
ENDBRANCH  35  37
ENDBRANCH  34  35
ENDBRANCH  33  34
ENDBRANCH  32  33
ENDBRANCH  31  32
ENDBRANCH  30  31
ENDBRANCH  29  30
ENDBRANCH  28  29
ENDBRANCH   1  28
TORSDOF 23
ENDMDL
