MODEL 1
REMARK VINA RESULT:     -11.2      0.000      0.000
REMARK SMILES Cn1ncc(C(=O)OCCOCCOC(=O)c2ccc(-c3c4nc(c(-c5c(F)c(F)c(F)c(F)c5F)c5ccc([nH]5)c(-c5c(F)c(F)c(F)c(F)c5F)c5nc(c(-c6c(F)c(F)c(F)c(F)c6F)c6ccc3[nH]6)C=C5)C=C4)cc2)c1C(=O)Nc1ccccn1
REMARK SMILES IDX 11 1 10 2 9 3 8 4 6 5 7 6 5 7 1 8 2 9 3 10 80 11 4 12 81 13
REMARK SMILES IDX 82 14 83 15 84 17 85 18 89 19 86 20 88 21 87 22 12 23 13 24
REMARK SMILES IDX 14 25 15 26 16 27 17 28 18 29 79 30 19 31 78 32 20 33 21 34
REMARK SMILES IDX 22 35 72 36 23 37 77 38 71 39 73 40 24 41 76 42 70 43 69 44
REMARK SMILES IDX 25 46 57 47 37 48 56 49 38 50 41 51 55 52 74 53 39 54 40 55
REMARK SMILES IDX 54 57 75 58 42 59 26 60 27 61 35 62 28 63 29 64 33 65 36 66
REMARK SMILES IDX 30 67 31 68 34 69 32 70 58 71 59 72 67 73 60 74 61 75 65 76
REMARK SMILES IDX 68 77 62 78 63 79 66 80 64 81 43 82 44 83 52 84 45 85 46 86
REMARK SMILES IDX 50 87 53 88 47 89 48 90 51 91 49 92
REMARK H PARENT 83 16 73 45 41 56
REMARK Flexibility Score: inf
ROOT
ATOM      1  O   UNL A   1      36.957  21.702  24.102  1.00  0.00    -0.374 OA
ENDROOT
BRANCH   1   2
ATOM      2  C   UNL A   1      36.647  23.033  24.525  1.00  0.00     0.202 C 
BRANCH   2   3
ATOM      3  C   UNL A   1      36.264  23.159  25.999  1.00  0.00     0.261 C 
BRANCH   3   4
ATOM      4  O   UNL A   1      34.893  23.572  26.100  1.00  0.00    -0.460 OA
BRANCH   4   5
ATOM      5  C   UNL A   1      33.998  22.565  26.258  1.00  0.00     0.342 C 
ATOM      6  O   UNL A   1      34.005  21.763  27.185  1.00  0.00    -0.246 OA
BRANCH   5   7
ATOM      7  C   UNL A   1      32.890  22.617  25.325  1.00  0.00     0.111 A 
ATOM      8  C   UNL A   1      30.698  24.365  23.294  1.00  0.00     0.174 C 
ATOM      9  N   UNL A   1      31.266  23.281  24.067  1.00  0.00    -0.262 N 
ATOM     10  N   UNL A   1      31.827  22.285  23.350  1.00  0.00    -0.180 NA
ATOM     11  C   UNL A   1      31.649  23.270  25.397  1.00  0.00     0.140 A 
ATOM     12  C   UNL A   1      32.911  21.993  24.061  1.00  0.00     0.151 A 
BRANCH  11  13
ATOM     13  C   UNL A   1      31.097  23.969  26.545  1.00  0.00     0.275 C 
ATOM     14  O   UNL A   1      30.414  23.371  27.381  1.00  0.00    -0.267 OA
ATOM     15  N   UNL A   1      31.351  25.279  26.852  1.00  0.00    -0.305 N 
ATOM     16  H   UNL A   1      31.048  25.516  27.758  1.00  0.00     0.171 HD
BRANCH  15  17
ATOM     17  C   UNL A   1      31.930  26.350  26.195  1.00  0.00     0.132 A 
ATOM     18  C   UNL A   1      33.294  26.534  26.043  1.00  0.00     0.047 A 
ATOM     19  N   UNL A   1      31.019  27.232  25.735  1.00  0.00    -0.239 NA
ATOM     20  C   UNL A   1      33.738  27.730  25.473  1.00  0.00     0.005 A 
ATOM     21  C   UNL A   1      31.470  28.394  25.221  1.00  0.00     0.113 A 
ATOM     22  C   UNL A   1      32.812  28.693  25.084  1.00  0.00     0.020 A 
ENDBRANCH  15  17
ENDBRANCH  11  13
ENDBRANCH   5   7
ENDBRANCH   4   5
ENDBRANCH   3   4
ENDBRANCH   2   3
ENDBRANCH   1   2
BRANCH   1  23
ATOM     23  C   UNL A   1      36.999  20.696  25.117  1.00  0.00     0.202 C 
BRANCH  23  24
ATOM     24  C   UNL A   1      38.355  20.009  25.305  1.00  0.00     0.261 C 
BRANCH  24  25
ATOM     25  O   UNL A   1      39.411  20.977  25.447  1.00  0.00    -0.460 OA
BRANCH  25  26
ATOM     26  C   UNL A   1      40.154  20.853  26.572  1.00  0.00     0.338 C 
ATOM     27  O   UNL A   1      40.632  19.830  27.034  1.00  0.00    -0.246 OA
BRANCH  26  28
ATOM     28  C   UNL A   1      40.477  22.189  27.111  1.00  0.00     0.060 A 
ATOM     29  C   UNL A   1      39.809  23.284  26.547  1.00  0.00     0.016 A 
ATOM     30  C   UNL A   1      41.446  22.381  28.098  1.00  0.00     0.016 A 
ATOM     31  C   UNL A   1      40.146  24.580  26.931  1.00  0.00     0.010 A 
ATOM     32  C   UNL A   1      41.792  23.683  28.473  1.00  0.00     0.010 A 
ATOM     33  C   UNL A   1      41.168  24.788  27.866  1.00  0.00    -0.014 A 
BRANCH  33  34
ATOM     34  C   UNL A   1      41.680  26.162  28.085  1.00  0.00     0.031 A 
ATOM     35  C   UNL A   1      43.051  26.515  27.582  1.00  0.00     0.074 A 
ATOM     36  C   UNL A   1      40.920  27.093  28.689  1.00  0.00     0.049 A 
ATOM     37  N   UNL A   1      43.701  27.649  27.664  1.00  0.00    -0.248 NA
ATOM     38  C   UNL A   1      43.788  25.448  26.887  1.00  0.00     0.031 C 
ATOM     39  C   UNL A   1      39.564  26.880  29.188  1.00  0.00     0.029 A 
ATOM     40  N   UNL A   1      41.190  28.405  28.985  1.00  0.00    -0.354 N 
ATOM     41  C   UNL A   1      44.918  27.430  27.034  1.00  0.00     0.074 A 
ATOM     42  C   UNL A   1      44.932  26.051  26.599  1.00  0.00     0.031 C 
ATOM     43  C   UNL A   1      39.121  28.024  29.740  1.00  0.00     0.029 A 
ATOM     44  C   UNL A   1      40.171  29.038  29.652  1.00  0.00     0.049 A 
ATOM     45  H   UNL A   1      42.034  28.850  28.742  1.00  0.00     0.167 HD
ATOM     46  C   UNL A   1      45.932  28.306  26.829  1.00  0.00     0.037 A 
ATOM     47  C   UNL A   1      40.105  30.287  30.150  1.00  0.00     0.037 A 
ATOM     48  C   UNL A   1      45.921  29.678  27.261  1.00  0.00     0.049 A 
ATOM     49  C   UNL A   1      41.273  31.220  29.969  1.00  0.00     0.074 A 
ATOM     50  C   UNL A   1      46.891  30.647  27.082  1.00  0.00     0.029 A 
ATOM     51  N   UNL A   1      44.885  30.272  27.967  1.00  0.00    -0.354 N 
ATOM     52  N   UNL A   1      42.410  31.016  29.348  1.00  0.00    -0.248 NA
ATOM     53  C   UNL A   1      41.149  32.562  30.559  1.00  0.00     0.031 C 
ATOM     54  C   UNL A   1      46.461  31.818  27.716  1.00  0.00     0.029 A 
ATOM     55  C   UNL A   1      45.205  31.589  28.254  1.00  0.00     0.049 A 
ATOM     56  H   UNL A   1      44.047  29.824  28.226  1.00  0.00     0.167 HD
ATOM     57  C   UNL A   1      43.123  32.203  29.451  1.00  0.00     0.074 A 
ATOM     58  C   UNL A   1      42.287  33.130  30.184  1.00  0.00     0.031 C 
ATOM     59  C   UNL A   1      44.359  32.499  28.981  1.00  0.00     0.037 A 
BRANCH  46  60
ATOM     60  C   UNL A   1      47.150  27.798  26.119  1.00  0.00     0.064 A 
ATOM     61  C   UNL A   1      48.258  27.306  26.824  1.00  0.00     0.173 A 
ATOM     62  C   UNL A   1      47.195  27.769  24.717  1.00  0.00     0.173 A 
ATOM     63  F   UNL A   1      48.268  27.327  28.166  1.00  0.00    -0.203 F 
ATOM     64  C   UNL A   1      49.376  26.820  26.151  1.00  0.00     0.198 A 
ATOM     65  C   UNL A   1      48.304  27.263  24.047  1.00  0.00     0.198 A 
ATOM     66  F   UNL A   1      46.159  28.227  23.998  1.00  0.00    -0.203 F 
ATOM     67  F   UNL A   1      50.439  26.389  26.843  1.00  0.00    -0.200 F 
ATOM     68  C   UNL A   1      49.396  26.793  24.763  1.00  0.00     0.200 A 
ATOM     69  F   UNL A   1      48.318  27.228  22.708  1.00  0.00    -0.200 F 
ATOM     70  F   UNL A   1      50.470  26.320  24.117  1.00  0.00    -0.200 F 
ENDBRANCH  46  60
BRANCH  47  71
ATOM     71  C   UNL A   1      38.892  30.730  30.884  1.00  0.00     0.064 A 
ATOM     72  C   UNL A   1      38.802  30.602  32.277  1.00  0.00     0.173 A 
ATOM     73  C   UNL A   1      37.791  31.270  30.204  1.00  0.00     0.173 A 
ATOM     74  F   UNL A   1      39.818  30.064  32.966  1.00  0.00    -0.203 F 
ATOM     75  C   UNL A   1      37.648  30.982  32.960  1.00  0.00     0.198 A 
ATOM     76  C   UNL A   1      36.648  31.672  30.890  1.00  0.00     0.198 A 
ATOM     77  F   UNL A   1      37.826  31.406  28.870  1.00  0.00    -0.203 F 
ATOM     78  F   UNL A   1      37.569  30.805  34.286  1.00  0.00    -0.200 F 
ATOM     79  C   UNL A   1      36.575  31.522  32.267  1.00  0.00     0.200 A 
ATOM     80  F   UNL A   1      35.615  32.199  30.218  1.00  0.00    -0.200 F 
ATOM     81  F   UNL A   1      35.465  31.885  32.924  1.00  0.00    -0.200 F 
ENDBRANCH  47  71
BRANCH  59  82
ATOM     82  C   UNL A   1      44.874  33.888  29.223  1.00  0.00     0.064 A 
ATOM     83  C   UNL A   1      45.630  34.201  30.362  1.00  0.00     0.173 A 
ATOM     84  C   UNL A   1      44.649  34.903  28.282  1.00  0.00     0.173 A 
ATOM     85  F   UNL A   1      45.858  33.267  31.297  1.00  0.00    -0.203 F 
ATOM     86  C   UNL A   1      46.124  35.487  30.560  1.00  0.00     0.198 A 
ATOM     87  C   UNL A   1      45.167  36.181  28.471  1.00  0.00     0.198 A 
ATOM     88  F   UNL A   1      43.939  34.652  27.172  1.00  0.00    -0.203 F 
ATOM     89  F   UNL A   1      46.810  35.775  31.675  1.00  0.00    -0.200 F 
ATOM     90  C   UNL A   1      45.898  36.474  29.612  1.00  0.00     0.200 A 
ATOM     91  F   UNL A   1      44.957  37.131  27.547  1.00  0.00    -0.200 F 
ATOM     92  F   UNL A   1      46.382  37.709  29.800  1.00  0.00    -0.200 F 
ENDBRANCH  59  82
ENDBRANCH  33  34
ENDBRANCH  26  28
ENDBRANCH  25  26
ENDBRANCH  24  25
ENDBRANCH  23  24
ENDBRANCH   1  23
TORSDOF 16
ENDMDL
MODEL 2
REMARK VINA RESULT:     -11.1      1.431      3.445
REMARK SMILES Cn1ncc(C(=O)OCCOCCOC(=O)c2ccc(-c3c4nc(c(-c5c(F)c(F)c(F)c(F)c5F)c5ccc([nH]5)c(-c5c(F)c(F)c(F)c(F)c5F)c5nc(c(-c6c(F)c(F)c(F)c(F)c6F)c6ccc3[nH]6)C=C5)C=C4)cc2)c1C(=O)Nc1ccccn1
REMARK SMILES IDX 11 1 10 2 9 3 8 4 6 5 7 6 5 7 1 8 2 9 3 10 80 11 4 12 81 13
REMARK SMILES IDX 82 14 83 15 84 17 85 18 89 19 86 20 88 21 87 22 12 23 13 24
REMARK SMILES IDX 14 25 15 26 16 27 17 28 18 29 79 30 19 31 78 32 20 33 21 34
REMARK SMILES IDX 22 35 72 36 23 37 77 38 71 39 73 40 24 41 76 42 70 43 69 44
REMARK SMILES IDX 25 46 57 47 37 48 56 49 38 50 41 51 55 52 74 53 39 54 40 55
REMARK SMILES IDX 54 57 75 58 42 59 26 60 27 61 35 62 28 63 29 64 33 65 36 66
REMARK SMILES IDX 30 67 31 68 34 69 32 70 58 71 59 72 67 73 60 74 61 75 65 76
REMARK SMILES IDX 68 77 62 78 63 79 66 80 64 81 43 82 44 83 52 84 45 85 46 86
REMARK SMILES IDX 50 87 53 88 47 89 48 90 51 91 49 92
REMARK H PARENT 83 16 73 45 41 56
REMARK Flexibility Score: inf
ROOT
ATOM      1  O   UNL A   1      37.843  21.242  24.948  1.00  0.00    -0.374 OA
ENDROOT
BRANCH   1   2
ATOM      2  C   UNL A   1      36.626  21.574  24.272  1.00  0.00     0.202 C 
BRANCH   2   3
ATOM      3  C   UNL A   1      36.675  22.880  23.478  1.00  0.00     0.261 C 
BRANCH   3   4
ATOM      4  O   UNL A   1      35.336  23.339  23.239  1.00  0.00    -0.460 OA
BRANCH   4   5
ATOM      5  C   UNL A   1      34.684  23.808  24.333  1.00  0.00     0.342 C 
ATOM      6  O   UNL A   1      35.106  24.689  25.074  1.00  0.00    -0.246 OA
BRANCH   5   7
ATOM      7  C   UNL A   1      33.330  23.307  24.465  1.00  0.00     0.111 A 
ATOM      8  C   UNL A   1      30.487  22.667  26.334  1.00  0.00     0.174 C 
ATOM      9  N   UNL A   1      31.441  22.615  25.246  1.00  0.00    -0.262 N 
ATOM     10  N   UNL A   1      31.087  23.285  24.129  1.00  0.00    -0.180 NA
ATOM     11  C   UNL A   1      32.789  22.306  25.287  1.00  0.00     0.140 A 
ATOM     12  C   UNL A   1      32.236  23.833  23.747  1.00  0.00     0.151 A 
BRANCH  11  13
ATOM     13  C   UNL A   1      33.523  21.391  26.143  1.00  0.00     0.275 C 
ATOM     14  O   UNL A   1      33.949  21.758  27.243  1.00  0.00    -0.267 OA
ATOM     15  N   UNL A   1      33.720  20.063  25.874  1.00  0.00    -0.305 N 
ATOM     16  H   UNL A   1      34.068  19.571  26.652  1.00  0.00     0.171 HD
BRANCH  15  17
ATOM     17  C   UNL A   1      33.548  19.246  24.770  1.00  0.00     0.132 A 
ATOM     18  C   UNL A   1      32.510  19.364  23.861  1.00  0.00     0.047 A 
ATOM     19  N   UNL A   1      34.490  18.285  24.683  1.00  0.00    -0.239 NA
ATOM     20  C   UNL A   1      32.389  18.386  22.870  1.00  0.00     0.005 A 
ATOM     21  C   UNL A   1      34.333  17.333  23.741  1.00  0.00     0.113 A 
ATOM     22  C   UNL A   1      33.297  17.332  22.827  1.00  0.00     0.020 A 
ENDBRANCH  15  17
ENDBRANCH  11  13
ENDBRANCH   5   7
ENDBRANCH   4   5
ENDBRANCH   3   4
ENDBRANCH   2   3
ENDBRANCH   1   2
BRANCH   1  23
ATOM     23  C   UNL A   1      38.235  19.867  24.931  1.00  0.00     0.202 C 
BRANCH  23  24
ATOM     24  C   UNL A   1      39.491  19.533  25.742  1.00  0.00     0.261 C 
BRANCH  24  25
ATOM     25  O   UNL A   1      39.650  20.440  26.849  1.00  0.00    -0.460 OA
BRANCH  25  26
ATOM     26  C   UNL A   1      40.916  20.558  27.315  1.00  0.00     0.338 C 
ATOM     27  O   UNL A   1      41.797  19.716  27.285  1.00  0.00    -0.246 OA
BRANCH  26  28
ATOM     28  C   UNL A   1      41.170  21.952  27.730  1.00  0.00     0.060 A 
ATOM     29  C   UNL A   1      40.394  22.951  27.128  1.00  0.00     0.016 A 
ATOM     30  C   UNL A   1      42.176  22.288  28.639  1.00  0.00     0.016 A 
ATOM     31  C   UNL A   1      40.656  24.293  27.392  1.00  0.00     0.010 A 
ATOM     32  C   UNL A   1      42.447  23.636  28.894  1.00  0.00     0.010 A 
ATOM     33  C   UNL A   1      41.711  24.644  28.244  1.00  0.00    -0.014 A 
BRANCH  33  34
ATOM     34  C   UNL A   1      42.133  26.063  28.328  1.00  0.00     0.031 A 
ATOM     35  C   UNL A   1      43.437  26.470  27.704  1.00  0.00     0.074 A 
ATOM     36  C   UNL A   1      41.348  26.982  28.917  1.00  0.00     0.049 A 
ATOM     37  N   UNL A   1      44.006  27.649  27.658  1.00  0.00    -0.248 NA
ATOM     38  C   UNL A   1      44.205  25.407  27.036  1.00  0.00     0.031 C 
ATOM     39  C   UNL A   1      40.048  26.715  29.526  1.00  0.00     0.029 A 
ATOM     40  N   UNL A   1      41.538  28.328  29.099  1.00  0.00    -0.354 N 
ATOM     41  C   UNL A   1      45.192  27.468  26.960  1.00  0.00     0.074 A 
ATOM     42  C   UNL A   1      45.279  26.064  26.625  1.00  0.00     0.031 C 
ATOM     43  C   UNL A   1      39.558  27.864  30.025  1.00  0.00     0.029 A 
ATOM     44  C   UNL A   1      40.522  28.938  29.790  1.00  0.00     0.049 A 
ATOM     45  H   UNL A   1      42.329  28.811  28.765  1.00  0.00     0.167 HD
ATOM     46  C   UNL A   1      46.121  28.393  26.621  1.00  0.00     0.037 A 
ATOM     47  C   UNL A   1      40.396  30.214  30.202  1.00  0.00     0.037 A 
ATOM     48  C   UNL A   1      46.037  29.790  26.954  1.00  0.00     0.049 A 
ATOM     49  C   UNL A   1      41.478  31.210  29.871  1.00  0.00     0.074 A 
ATOM     50  C   UNL A   1      46.919  30.808  26.637  1.00  0.00     0.029 A 
ATOM     51  N   UNL A   1      45.009  30.363  27.688  1.00  0.00    -0.354 N 
ATOM     52  N   UNL A   1      42.583  31.037  29.186  1.00  0.00    -0.248 NA
ATOM     53  C   UNL A   1      41.293  32.580  30.372  1.00  0.00     0.031 C 
ATOM     54  C   UNL A   1      46.446  31.991  27.216  1.00  0.00     0.029 A 
ATOM     55  C   UNL A   1      45.249  31.717  27.857  1.00  0.00     0.049 A 
ATOM     56  H   UNL A   1      44.226  29.879  28.038  1.00  0.00     0.167 HD
ATOM     57  C   UNL A   1      43.210  32.275  29.154  1.00  0.00     0.074 A 
ATOM     58  C   UNL A   1      42.358  33.196  29.877  1.00  0.00     0.031 C 
ATOM     59  C   UNL A   1      44.387  32.620  28.576  1.00  0.00     0.037 A 
BRANCH  46  60
ATOM     60  C   UNL A   1      47.324  27.918  25.864  1.00  0.00     0.064 A 
ATOM     61  C   UNL A   1      47.307  27.789  24.466  1.00  0.00     0.173 A 
ATOM     62  C   UNL A   1      48.518  27.624  26.538  1.00  0.00     0.173 A 
ATOM     63  F   UNL A   1      46.183  28.045  23.779  1.00  0.00    -0.203 F 
ATOM     64  C   UNL A   1      48.437  27.363  23.774  1.00  0.00     0.198 A 
ATOM     65  C   UNL A   1      49.653  27.220  25.841  1.00  0.00     0.198 A 
ATOM     66  F   UNL A   1      48.585  27.734  27.873  1.00  0.00    -0.203 F 
ATOM     67  F   UNL A   1      48.389  27.211  22.444  1.00  0.00    -0.200 F 
ATOM     68  C   UNL A   1      49.611  27.085  24.461  1.00  0.00     0.200 A 
ATOM     69  F   UNL A   1      50.788  26.962  26.504  1.00  0.00    -0.200 F 
ATOM     70  F   UNL A   1      50.700  26.682  23.792  1.00  0.00    -0.200 F 
ENDBRANCH  46  60
BRANCH  47  71
ATOM     71  C   UNL A   1      39.205  30.627  30.987  1.00  0.00     0.064 A 
ATOM     72  C   UNL A   1      38.085  31.189  30.361  1.00  0.00     0.173 A 
ATOM     73  C   UNL A   1      39.174  30.488  32.382  1.00  0.00     0.173 A 
ATOM     74  F   UNL A   1      38.081  31.369  29.032  1.00  0.00    -0.203 F 
ATOM     75  C   UNL A   1      36.984  31.612  31.103  1.00  0.00     0.198 A 
ATOM     76  C   UNL A   1      38.063  30.888  33.121  1.00  0.00     0.198 A 
ATOM     77  F   UNL A   1      40.225  29.962  33.028  1.00  0.00    -0.203 F 
ATOM     78  F   UNL A   1      35.944  32.190  30.485  1.00  0.00    -0.200 F 
ATOM     79  C   UNL A   1      36.972  31.455  32.481  1.00  0.00     0.200 A 
ATOM     80  F   UNL A   1      38.053  30.730  34.451  1.00  0.00    -0.200 F 
ATOM     81  F   UNL A   1      35.914  31.865  33.195  1.00  0.00    -0.200 F 
ENDBRANCH  47  71
BRANCH  59  82
ATOM     82  C   UNL A   1      44.813  34.055  28.681  1.00  0.00     0.064 A 
ATOM     83  C   UNL A   1      44.402  35.011  27.742  1.00  0.00     0.173 A 
ATOM     84  C   UNL A   1      45.603  34.485  29.757  1.00  0.00     0.173 A 
ATOM     85  F   UNL A   1      43.659  34.645  26.687  1.00  0.00    -0.203 F 
ATOM     86  C   UNL A   1      44.783  36.345  27.866  1.00  0.00     0.198 A 
ATOM     87  C   UNL A   1      45.961  35.823  29.892  1.00  0.00     0.198 A 
ATOM     88  F   UNL A   1      46.016  33.610  30.686  1.00  0.00    -0.203 F 
ATOM     89  F   UNL A   1      44.412  37.235  26.936  1.00  0.00    -0.200 F 
ATOM     90  C   UNL A   1      45.556  36.750  28.944  1.00  0.00     0.200 A 
ATOM     91  F   UNL A   1      46.698  36.216  30.941  1.00  0.00    -0.200 F 
ATOM     92  F   UNL A   1      45.915  38.036  29.066  1.00  0.00    -0.200 F 
ENDBRANCH  59  82
ENDBRANCH  33  34
ENDBRANCH  26  28
ENDBRANCH  25  26
ENDBRANCH  24  25
ENDBRANCH  23  24
ENDBRANCH   1  23
TORSDOF 16
ENDMDL
MODEL 3
REMARK VINA RESULT:     -11.0      4.826     10.132
REMARK SMILES Cn1ncc(C(=O)OCCOCCOC(=O)c2ccc(-c3c4nc(c(-c5c(F)c(F)c(F)c(F)c5F)c5ccc([nH]5)c(-c5c(F)c(F)c(F)c(F)c5F)c5nc(c(-c6c(F)c(F)c(F)c(F)c6F)c6ccc3[nH]6)C=C5)C=C4)cc2)c1C(=O)Nc1ccccn1
REMARK SMILES IDX 11 1 10 2 9 3 8 4 6 5 7 6 5 7 1 8 2 9 3 10 80 11 4 12 81 13
REMARK SMILES IDX 82 14 83 15 84 17 85 18 89 19 86 20 88 21 87 22 12 23 13 24
REMARK SMILES IDX 14 25 15 26 16 27 17 28 18 29 79 30 19 31 78 32 20 33 21 34
REMARK SMILES IDX 22 35 72 36 23 37 77 38 71 39 73 40 24 41 76 42 70 43 69 44
REMARK SMILES IDX 25 46 57 47 37 48 56 49 38 50 41 51 55 52 74 53 39 54 40 55
REMARK SMILES IDX 54 57 75 58 42 59 26 60 27 61 35 62 28 63 29 64 33 65 36 66
REMARK SMILES IDX 30 67 31 68 34 69 32 70 58 71 59 72 67 73 60 74 61 75 65 76
REMARK SMILES IDX 68 77 62 78 63 79 66 80 64 81 43 82 44 83 52 84 45 85 46 86
REMARK SMILES IDX 50 87 53 88 47 89 48 90 51 91 49 92
REMARK H PARENT 83 16 73 45 41 56
REMARK Flexibility Score: inf
ROOT
ATOM      1  O   UNL A   1      32.135  30.878  27.231  1.00  0.00    -0.374 OA
ENDROOT
BRANCH   1   2
ATOM      2  C   UNL A   1      33.238  30.285  26.539  1.00  0.00     0.202 C 
BRANCH   2   3
ATOM      3  C   UNL A   1      33.088  28.789  26.266  1.00  0.00     0.261 C 
BRANCH   3   4
ATOM      4  O   UNL A   1      31.813  28.545  25.653  1.00  0.00    -0.460 OA
BRANCH   4   5
ATOM      5  C   UNL A   1      31.351  27.274  25.771  1.00  0.00     0.342 C 
ATOM      6  O   UNL A   1      30.948  26.772  26.815  1.00  0.00    -0.246 OA
BRANCH   5   7
ATOM      7  C   UNL A   1      31.190  26.591  24.503  1.00  0.00     0.111 A 
ATOM      8  C   UNL A   1      32.480  25.205  21.604  1.00  0.00     0.174 C 
ATOM      9  N   UNL A   1      31.522  25.749  22.543  1.00  0.00    -0.262 N 
ATOM     10  N   UNL A   1      30.710  24.847  23.135  1.00  0.00    -0.180 NA
ATOM     11  C   UNL A   1      31.541  26.969  23.197  1.00  0.00     0.140 A 
ATOM     12  C   UNL A   1      30.642  25.298  24.383  1.00  0.00     0.151 A 
BRANCH  11  13
ATOM     13  C   UNL A   1      32.049  28.261  22.770  1.00  0.00     0.275 C 
ATOM     14  O   UNL A   1      33.251  28.423  22.539  1.00  0.00    -0.267 OA
ATOM     15  N   UNL A   1      31.267  29.351  22.497  1.00  0.00    -0.305 N 
ATOM     16  H   UNL A   1      31.768  30.066  22.043  1.00  0.00     0.171 HD
BRANCH  15  17
ATOM     17  C   UNL A   1      29.942  29.690  22.708  1.00  0.00     0.132 A 
ATOM     18  C   UNL A   1      29.514  30.901  23.225  1.00  0.00     0.047 A 
ATOM     19  N   UNL A   1      29.093  28.693  22.384  1.00  0.00    -0.239 NA
ATOM     20  C   UNL A   1      28.153  31.052  23.507  1.00  0.00     0.005 A 
ATOM     21  C   UNL A   1      27.791  28.847  22.697  1.00  0.00     0.113 A 
ATOM     22  C   UNL A   1      27.279  29.995  23.270  1.00  0.00     0.020 A 
ENDBRANCH  15  17
ENDBRANCH  11  13
ENDBRANCH   5   7
ENDBRANCH   4   5
ENDBRANCH   3   4
ENDBRANCH   2   3
ENDBRANCH   1   2
BRANCH   1  23
ATOM     23  C   UNL A   1      31.467  31.959  26.574  1.00  0.00     0.202 C 
BRANCH  23  24
ATOM     24  C   UNL A   1      32.023  33.353  26.875  1.00  0.00     0.261 C 
BRANCH  24  25
ATOM     25  O   UNL A   1      32.739  33.368  28.124  1.00  0.00    -0.460 OA
BRANCH  25  26
ATOM     26  C   UNL A   1      33.855  34.136  28.135  1.00  0.00     0.338 C 
ATOM     27  O   UNL A   1      33.920  35.348  28.016  1.00  0.00    -0.246 OA
BRANCH  26  28
ATOM     28  C   UNL A   1      35.026  33.314  28.495  1.00  0.00     0.060 A 
ATOM     29  C   UNL A   1      34.776  32.054  29.056  1.00  0.00     0.016 A 
ATOM     30  C   UNL A   1      36.336  33.776  28.347  1.00  0.00     0.016 A 
ATOM     31  C   UNL A   1      35.833  31.274  29.519  1.00  0.00     0.010 A 
ATOM     32  C   UNL A   1      37.395  32.997  28.824  1.00  0.00     0.010 A 
ATOM     33  C   UNL A   1      37.145  31.759  29.444  1.00  0.00    -0.014 A 
BRANCH  33  34
ATOM     34  C   UNL A   1      38.227  31.035  30.152  1.00  0.00     0.031 A 
ATOM     35  C   UNL A   1      38.477  31.340  31.602  1.00  0.00     0.074 A 
ATOM     36  C   UNL A   1      38.951  30.091  29.524  1.00  0.00     0.049 A 
ATOM     37  N   UNL A   1      39.368  30.834  32.417  1.00  0.00    -0.248 NA
ATOM     38  C   UNL A   1      37.602  32.349  32.219  1.00  0.00     0.031 C 
ATOM     39  C   UNL A   1      38.778  29.683  28.133  1.00  0.00     0.029 A 
ATOM     40  N   UNL A   1      39.979  29.308  29.983  1.00  0.00    -0.354 N 
ATOM     41  C   UNL A   1      39.161  31.461  33.637  1.00  0.00     0.074 A 
ATOM     42  C   UNL A   1      38.081  32.405  33.453  1.00  0.00     0.031 C 
ATOM     43  C   UNL A   1      39.680  28.727  27.845  1.00  0.00     0.029 A 
ATOM     44  C   UNL A   1      40.505  28.476  29.027  1.00  0.00     0.049 A 
ATOM     45  H   UNL A   1      40.309  29.339  30.911  1.00  0.00     0.167 HD
ATOM     46  C   UNL A   1      39.808  31.260  34.810  1.00  0.00     0.037 A 
ATOM     47  C   UNL A   1      41.546  27.625  29.094  1.00  0.00     0.037 A 
ATOM     48  C   UNL A   1      40.882  30.322  34.996  1.00  0.00     0.049 A 
ATOM     49  C   UNL A   1      42.294  27.471  30.393  1.00  0.00     0.074 A 
ATOM     50  C   UNL A   1      41.587  30.034  36.151  1.00  0.00     0.029 A 
ATOM     51  N   UNL A   1      41.412  29.525  33.993  1.00  0.00    -0.354 N 
ATOM     52  N   UNL A   1      42.074  28.047  31.550  1.00  0.00    -0.248 NA
ATOM     53  C   UNL A   1      43.438  26.546  30.394  1.00  0.00     0.031 C 
ATOM     54  C   UNL A   1      42.572  29.091  35.838  1.00  0.00     0.029 A 
ATOM     55  C   UNL A   1      42.453  28.762  34.497  1.00  0.00     0.049 A 
ATOM     56  H   UNL A   1      41.096  29.504  33.060  1.00  0.00     0.167 HD
ATOM     57  C   UNL A   1      43.031  27.539  32.419  1.00  0.00     0.074 A 
ATOM     58  C   UNL A   1      43.828  26.598  31.661  1.00  0.00     0.031 C 
ATOM     59  C   UNL A   1      43.232  27.827  33.729  1.00  0.00     0.037 A 
BRANCH  46  60
ATOM     60  C   UNL A   1      39.381  32.088  35.984  1.00  0.00     0.064 A 
ATOM     61  C   UNL A   1      39.956  33.342  36.246  1.00  0.00     0.173 A 
ATOM     62  C   UNL A   1      38.362  31.641  36.837  1.00  0.00     0.173 A 
ATOM     63  F   UNL A   1      40.945  33.806  35.467  1.00  0.00    -0.203 F 
ATOM     64  C   UNL A   1      39.537  34.108  37.330  1.00  0.00     0.198 A 
ATOM     65  C   UNL A   1      37.930  32.419  37.907  1.00  0.00     0.198 A 
ATOM     66  F   UNL A   1      37.780  30.450  36.628  1.00  0.00    -0.203 F 
ATOM     67  F   UNL A   1      40.125  35.285  37.584  1.00  0.00    -0.200 F 
ATOM     68  C   UNL A   1      38.520  33.649  38.156  1.00  0.00     0.200 A 
ATOM     69  F   UNL A   1      36.942  31.979  38.697  1.00  0.00    -0.200 F 
ATOM     70  F   UNL A   1      38.114  34.390  39.195  1.00  0.00    -0.200 F 
ENDBRANCH  46  60
BRANCH  47  71
ATOM     71  C   UNL A   1      41.958  26.858  27.891  1.00  0.00     0.064 A 
ATOM     72  C   UNL A   1      41.447  25.578  27.640  1.00  0.00     0.173 A 
ATOM     73  C   UNL A   1      42.887  27.382  26.981  1.00  0.00     0.173 A 
ATOM     74  F   UNL A   1      40.578  25.024  28.497  1.00  0.00    -0.203 F 
ATOM     75  C   UNL A   1      41.864  24.843  26.531  1.00  0.00     0.198 A 
ATOM     76  C   UNL A   1      43.284  26.657  25.860  1.00  0.00     0.198 A 
ATOM     77  F   UNL A   1      43.410  28.601  27.182  1.00  0.00    -0.203 F 
ATOM     78  F   UNL A   1      41.396  23.602  26.338  1.00  0.00    -0.200 F 
ATOM     79  C   UNL A   1      42.777  25.386  25.640  1.00  0.00     0.200 A 
ATOM     80  F   UNL A   1      44.163  27.188  24.998  1.00  0.00    -0.200 F 
ATOM     81  F   UNL A   1      43.179  24.678  24.575  1.00  0.00    -0.200 F 
ENDBRANCH  47  71
BRANCH  59  82
ATOM     82  C   UNL A   1      44.341  27.100  34.432  1.00  0.00     0.064 A 
ATOM     83  C   UNL A   1      44.137  25.840  35.014  1.00  0.00     0.173 A 
ATOM     84  C   UNL A   1      45.630  27.649  34.484  1.00  0.00     0.173 A 
ATOM     85  F   UNL A   1      42.918  25.281  35.002  1.00  0.00    -0.203 F 
ATOM     86  C   UNL A   1      45.182  25.165  35.640  1.00  0.00     0.198 A 
ATOM     87  C   UNL A   1      46.678  26.960  35.089  1.00  0.00     0.198 A 
ATOM     88  F   UNL A   1      45.877  28.848  33.937  1.00  0.00    -0.203 F 
ATOM     89  F   UNL A   1      44.957  23.980  36.223  1.00  0.00    -0.200 F 
ATOM     90  C   UNL A   1      46.452  25.722  35.671  1.00  0.00     0.200 A 
ATOM     91  F   UNL A   1      47.907  27.495  35.108  1.00  0.00    -0.200 F 
ATOM     92  F   UNL A   1      47.457  25.068  36.267  1.00  0.00    -0.200 F 
ENDBRANCH  59  82
ENDBRANCH  33  34
ENDBRANCH  26  28
ENDBRANCH  25  26
ENDBRANCH  24  25
ENDBRANCH  23  24
ENDBRANCH   1  23
TORSDOF 16
ENDMDL
