MODEL 1
REMARK VINA RESULT:     -12.7      0.000      0.000
REMARK SMILES Cc1ncc(CO)c([C@H]2[NH2+][C@@H](C(=O)OCCOCCOC(=O)c3ccc(-c4c5nc(c(-c6c(F)c(F)c(F)c(F)c6F)c6ccc([nH]6)c(-c6c(F)c(F)c(F)c(F)c6F)c6nc(c(-c7c(F)c(F)c(F)c(F)c7F)c7ccc4[nH]7)C=C6)C=C5)cc3)Cc3[nH]cnc32)c1O
REMARK SMILES IDX 16 1 15 2 14 3 12 4 13 5 11 6 9 7 10 8 91 9 87 12 90 13
REMARK SMILES IDX 86 14 88 15 89 16 8 18 1 19 2 20 3 21 92 22 4 23 5 24 93 25
REMARK SMILES IDX 6 27 7 28 17 30 18 31 19 32 20 33 21 34 22 35 23 36 24 37
REMARK SMILES IDX 85 38 25 39 84 40 26 41 27 42 28 43 78 44 29 45 83 46 77 47
REMARK SMILES IDX 79 48 30 49 82 50 76 51 75 52 31 54 63 55 43 56 62 57 44 58
REMARK SMILES IDX 47 59 61 60 80 61 45 62 46 63 60 65 81 66 48 67 32 68 33 69
REMARK SMILES IDX 41 70 34 71 35 72 39 73 42 74 36 75 37 76 40 77 38 78 64 79
REMARK SMILES IDX 65 80 73 81 66 82 67 83 71 84 74 85 68 86 69 87 72 88 70 89
REMARK SMILES IDX 49 90 50 91 58 92 51 93 52 94 56 95 59 96 53 97 54 98 57 99
REMARK SMILES IDX 55 100
REMARK H PARENT 10 10 10 11 88 17 93 26 7 29 79 53 47 64
REMARK Flexibility Score: inf
ROOT
ATOM      1  C   UNL A   1      39.556  21.696  26.442  1.00  0.00     0.202 C 
ENDROOT
BRANCH   1   2
ATOM      2  C   UNL A   1      38.426  22.136  25.511  1.00  0.00     0.261 C 
BRANCH   2   3
ATOM      3  O   UNL A   1      37.119  21.843  26.039  1.00  0.00    -0.459 OA
BRANCH   3   4
ATOM      4  C   UNL A   1      36.241  22.894  26.026  1.00  0.00     0.365 C 
ATOM      5  O   UNL A   1      36.535  24.047  25.744  1.00  0.00    -0.245 OA
BRANCH   4   6
ATOM      6  C   UNL A   1      34.829  22.409  26.368  1.00  0.00     0.300 C 
ATOM      7  C   UNL A   1      32.961  20.996  25.632  1.00  0.00     0.270 C 
ATOM      8  N   UNL A   1      34.284  21.567  25.261  1.00  0.00    -0.323 N 
ATOM      9  C   UNL A   1      32.022  22.122  25.928  1.00  0.00     0.124 A 
ATOM     10  H   UNL A   1      34.177  22.142  24.426  1.00  0.00     0.347 HD
ATOM     11  H   UNL A   1      34.933  20.799  25.086  1.00  0.00     0.347 HD
ATOM     12  C   UNL A   1      32.508  23.295  26.487  1.00  0.00     0.051 A 
ATOM     13  N   UNL A   1      30.655  22.098  26.032  1.00  0.00    -0.235 NA
ATOM     14  C   UNL A   1      33.941  23.644  26.681  1.00  0.00     0.133 C 
ATOM     15  N   UNL A   1      31.425  24.018  26.875  1.00  0.00    -0.348 N 
ATOM     16  C   UNL A   1      30.327  23.255  26.578  1.00  0.00     0.197 A 
ATOM     17  H   UNL A   1      31.428  24.912  27.288  1.00  0.00     0.167 HD
BRANCH   7  18
ATOM     18  C   UNL A   1      32.608  19.871  24.678  1.00  0.00     0.066 A 
ATOM     19  C   UNL A   1      32.865  16.036  25.003  1.00  0.00     0.071 C 
ATOM     20  C   UNL A   1      32.610  17.408  24.447  1.00  0.00     0.079 A 
ATOM     21  N   UNL A   1      32.303  17.475  23.141  1.00  0.00    -0.257 NA
ATOM     22  C   UNL A   1      32.734  18.557  25.234  1.00  0.00     0.146 A 
ATOM     23  C   UNL A   1      32.155  18.712  22.614  1.00  0.00     0.118 A 
ATOM     24  C   UNL A   1      32.329  19.932  23.296  1.00  0.00     0.009 A 
BRANCH  22  25
ATOM     25  O   UNL A   1      33.044  18.329  26.557  1.00  0.00    -0.505 OA
ATOM     26  H   UNL A   1      33.196  17.455  26.859  1.00  0.00     0.293 HD
ENDBRANCH  22  25
BRANCH  24  27
ATOM     27  C   UNL A   1      32.165  21.170  22.457  1.00  0.00     0.194 C 
BRANCH  27  28
ATOM     28  O   UNL A   1      31.440  20.859  21.264  1.00  0.00    -0.392 OA
ATOM     29  H   UNL A   1      31.395  21.646  20.699  1.00  0.00     0.211 HD
ENDBRANCH  27  28
ENDBRANCH  24  27
ENDBRANCH   7  18
ENDBRANCH   4   6
ENDBRANCH   3   4
ENDBRANCH   2   3
ENDBRANCH   1   2
BRANCH   1  30
ATOM     30  O   UNL A   1      40.225  20.469  26.161  1.00  0.00    -0.374 OA
BRANCH  30  31
ATOM     31  C   UNL A   1      41.593  20.310  26.515  1.00  0.00     0.202 C 
BRANCH  31  32
ATOM     32  C   UNL A   1      42.443  19.360  25.681  1.00  0.00     0.261 C 
BRANCH  32  33
ATOM     33  O   UNL A   1      43.826  19.682  25.732  1.00  0.00    -0.460 OA
BRANCH  33  34
ATOM     34  C   UNL A   1      44.280  20.235  24.579  1.00  0.00     0.338 C 
ATOM     35  O   UNL A   1      44.540  19.665  23.540  1.00  0.00    -0.246 OA
BRANCH  34  36
ATOM     36  C   UNL A   1      44.583  21.650  24.816  1.00  0.00     0.060 A 
ATOM     37  C   UNL A   1      45.472  21.908  25.861  1.00  0.00     0.016 A 
ATOM     38  C   UNL A   1      43.752  22.641  24.280  1.00  0.00     0.016 A 
ATOM     39  C   UNL A   1      45.332  23.087  26.548  1.00  0.00     0.010 A 
ATOM     40  C   UNL A   1      43.601  23.814  24.975  1.00  0.00     0.010 A 
ATOM     41  C   UNL A   1      44.324  23.973  26.153  1.00  0.00    -0.014 A 
BRANCH  41  42
ATOM     42  C   UNL A   1      44.125  25.158  26.952  1.00  0.00     0.031 A 
ATOM     43  C   UNL A   1      45.218  26.131  26.755  1.00  0.00     0.074 A 
ATOM     44  C   UNL A   1      43.025  25.341  27.705  1.00  0.00     0.049 A 
ATOM     45  N   UNL A   1      46.132  26.464  27.602  1.00  0.00    -0.248 NA
ATOM     46  C   UNL A   1      45.456  26.617  25.385  1.00  0.00     0.031 C 
ATOM     47  C   UNL A   1      41.804  24.533  27.742  1.00  0.00     0.029 A 
ATOM     48  N   UNL A   1      42.735  26.370  28.546  1.00  0.00    -0.354 N 
ATOM     49  C   UNL A   1      46.937  27.375  26.929  1.00  0.00     0.074 A 
ATOM     50  C   UNL A   1      46.621  27.249  25.533  1.00  0.00     0.031 C 
ATOM     51  C   UNL A   1      40.830  25.223  28.380  1.00  0.00     0.029 A 
ATOM     52  C   UNL A   1      41.394  26.455  28.904  1.00  0.00     0.049 A 
ATOM     53  H   UNL A   1      43.417  27.000  28.874  1.00  0.00     0.167 HD
ATOM     54  C   UNL A   1      47.562  28.368  27.613  1.00  0.00     0.037 A 
ATOM     55  C   UNL A   1      40.807  27.521  29.506  1.00  0.00     0.037 A 
ATOM     56  C   UNL A   1      47.657  28.043  29.015  1.00  0.00     0.049 A 
ATOM     57  C   UNL A   1      41.892  28.334  30.120  1.00  0.00     0.074 A 
ATOM     58  C   UNL A   1      48.265  27.033  29.735  1.00  0.00     0.029 A 
ATOM     59  N   UNL A   1      46.732  28.605  29.858  1.00  0.00    -0.354 N 
ATOM     60  N   UNL A   1      42.607  27.932  31.134  1.00  0.00    -0.248 NA
ATOM     61  C   UNL A   1      42.503  29.370  29.299  1.00  0.00     0.031 C 
ATOM     62  C   UNL A   1      47.367  26.746  30.805  1.00  0.00     0.029 A 
ATOM     63  C   UNL A   1      46.297  27.640  30.725  1.00  0.00     0.049 A 
ATOM     64  H   UNL A   1      46.431  29.542  29.841  1.00  0.00     0.167 HD
ATOM     65  C   UNL A   1      43.903  28.327  30.831  1.00  0.00     0.074 A 
ATOM     66  C   UNL A   1      43.765  29.272  29.726  1.00  0.00     0.031 C 
ATOM     67  C   UNL A   1      44.974  27.625  31.305  1.00  0.00     0.037 A 
BRANCH  54  68
ATOM     68  C   UNL A   1      47.671  29.787  27.101  1.00  0.00     0.064 A 
ATOM     69  C   UNL A   1      48.907  30.450  27.223  1.00  0.00     0.173 A 
ATOM     70  C   UNL A   1      46.568  30.616  26.793  1.00  0.00     0.173 A 
ATOM     71  F   UNL A   1      50.023  29.767  27.522  1.00  0.00    -0.203 F 
ATOM     72  C   UNL A   1      49.010  31.841  27.145  1.00  0.00     0.198 A 
ATOM     73  C   UNL A   1      46.684  31.998  26.662  1.00  0.00     0.198 A 
ATOM     74  F   UNL A   1      45.315  30.159  26.715  1.00  0.00    -0.203 F 
ATOM     75  F   UNL A   1      50.181  32.435  27.406  1.00  0.00    -0.200 F 
ATOM     76  C   UNL A   1      47.896  32.614  26.875  1.00  0.00     0.200 A 
ATOM     77  F   UNL A   1      45.587  32.727  26.414  1.00  0.00    -0.200 F 
ATOM     78  F   UNL A   1      47.977  33.950  26.865  1.00  0.00    -0.200 F 
ENDBRANCH  54  68
BRANCH  55  79
ATOM     79  C   UNL A   1      39.447  28.065  29.270  1.00  0.00     0.064 A 
ATOM     80  C   UNL A   1      38.528  28.217  30.322  1.00  0.00     0.173 A 
ATOM     81  C   UNL A   1      39.118  28.703  28.058  1.00  0.00     0.173 A 
ATOM     82  F   UNL A   1      38.792  27.693  31.528  1.00  0.00    -0.203 F 
ATOM     83  C   UNL A   1      37.359  28.973  30.172  1.00  0.00     0.198 A 
ATOM     84  C   UNL A   1      37.949  29.451  27.907  1.00  0.00     0.198 A 
ATOM     85  F   UNL A   1      39.974  28.699  27.025  1.00  0.00    -0.203 F 
ATOM     86  F   UNL A   1      36.534  29.144  31.215  1.00  0.00    -0.200 F 
ATOM     87  C   UNL A   1      37.074  29.594  28.967  1.00  0.00     0.200 A 
ATOM     88  F   UNL A   1      37.710  30.085  26.751  1.00  0.00    -0.200 F 
ATOM     89  F   UNL A   1      35.986  30.364  28.840  1.00  0.00    -0.200 F 
ENDBRANCH  55  79
BRANCH  67  90
ATOM     90  C   UNL A   1      44.720  26.602  32.377  1.00  0.00     0.064 A 
ATOM     91  C   UNL A   1      44.475  25.239  32.129  1.00  0.00     0.173 A 
ATOM     92  C   UNL A   1      44.883  26.995  33.711  1.00  0.00     0.173 A 
ATOM     93  F   UNL A   1      44.404  24.769  30.876  1.00  0.00    -0.203 F 
ATOM     94  C   UNL A   1      44.359  24.325  33.175  1.00  0.00     0.198 A 
ATOM     95  C   UNL A   1      44.806  26.075  34.751  1.00  0.00     0.198 A 
ATOM     96  F   UNL A   1      45.173  28.272  34.003  1.00  0.00    -0.203 F 
ATOM     97  F   UNL A   1      44.115  23.032  32.915  1.00  0.00    -0.200 F 
ATOM     98  C   UNL A   1      44.534  24.742  34.485  1.00  0.00     0.200 A 
ATOM     99  F   UNL A   1      45.027  26.475  36.010  1.00  0.00    -0.200 F 
ATOM    100  F   UNL A   1      44.469  23.857  35.489  1.00  0.00    -0.200 F 
ENDBRANCH  67  90
ENDBRANCH  41  42
ENDBRANCH  34  36
ENDBRANCH  33  34
ENDBRANCH  32  33
ENDBRANCH  31  32
ENDBRANCH  30  31
ENDBRANCH   1  30
TORSDOF 18
ENDMDL
MODEL 2
REMARK VINA RESULT:     -12.6      1.359      2.762
REMARK SMILES Cc1ncc(CO)c([C@H]2[NH2+][C@@H](C(=O)OCCOCCOC(=O)c3ccc(-c4c5nc(c(-c6c(F)c(F)c(F)c(F)c6F)c6ccc([nH]6)c(-c6c(F)c(F)c(F)c(F)c6F)c6nc(c(-c7c(F)c(F)c(F)c(F)c7F)c7ccc4[nH]7)C=C6)C=C5)cc3)Cc3[nH]cnc32)c1O
REMARK SMILES IDX 16 1 15 2 14 3 12 4 13 5 11 6 9 7 10 8 91 9 87 12 90 13
REMARK SMILES IDX 86 14 88 15 89 16 8 18 1 19 2 20 3 21 92 22 4 23 5 24 93 25
REMARK SMILES IDX 6 27 7 28 17 30 18 31 19 32 20 33 21 34 22 35 23 36 24 37
REMARK SMILES IDX 85 38 25 39 84 40 26 41 27 42 28 43 78 44 29 45 83 46 77 47
REMARK SMILES IDX 79 48 30 49 82 50 76 51 75 52 31 54 63 55 43 56 62 57 44 58
REMARK SMILES IDX 47 59 61 60 80 61 45 62 46 63 60 65 81 66 48 67 32 68 33 69
REMARK SMILES IDX 41 70 34 71 35 72 39 73 42 74 36 75 37 76 40 77 38 78 64 79
REMARK SMILES IDX 65 80 73 81 66 82 67 83 71 84 74 85 68 86 69 87 72 88 70 89
REMARK SMILES IDX 49 90 50 91 58 92 51 93 52 94 56 95 59 96 53 97 54 98 57 99
REMARK SMILES IDX 55 100
REMARK H PARENT 10 10 10 11 88 17 93 26 7 29 79 53 47 64
REMARK Flexibility Score: inf
ROOT
ATOM      1  C   UNL A   1      40.097  20.637  26.247  1.00  0.00     0.202 C 
ENDROOT
BRANCH   1   2
ATOM      2  C   UNL A   1      39.249  21.897  26.080  1.00  0.00     0.261 C 
BRANCH   2   3
ATOM      3  O   UNL A   1      37.847  21.611  25.913  1.00  0.00    -0.459 OA
BRANCH   3   4
ATOM      4  C   UNL A   1      37.153  22.532  25.175  1.00  0.00     0.365 C 
ATOM      5  O   UNL A   1      37.486  23.699  25.020  1.00  0.00    -0.245 OA
BRANCH   4   6
ATOM      6  C   UNL A   1      35.927  21.878  24.531  1.00  0.00     0.300 C 
ATOM      7  C   UNL A   1      33.538  22.150  24.033  1.00  0.00     0.270 C 
ATOM      8  N   UNL A   1      34.711  22.717  24.751  1.00  0.00    -0.323 N 
ATOM      9  C   UNL A   1      33.299  20.761  24.533  1.00  0.00     0.124 A 
ATOM     10  H   UNL A   1      34.506  22.752  25.750  1.00  0.00     0.347 HD
ATOM     11  H   UNL A   1      34.892  23.654  24.391  1.00  0.00     0.347 HD
ATOM     12  C   UNL A   1      34.372  19.980  24.936  1.00  0.00     0.051 A 
ATOM     13  N   UNL A   1      32.191  19.969  24.378  1.00  0.00    -0.235 NA
ATOM     14  C   UNL A   1      35.778  20.438  25.095  1.00  0.00     0.133 C 
ATOM     15  N   UNL A   1      33.896  18.716  25.089  1.00  0.00    -0.348 N 
ATOM     16  C   UNL A   1      32.572  18.759  24.743  1.00  0.00     0.197 A 
ATOM     17  H   UNL A   1      34.403  17.927  25.390  1.00  0.00     0.167 HD
BRANCH   7  18
ATOM     18  C   UNL A   1      32.437  23.190  23.958  1.00  0.00     0.066 A 
ATOM     19  C   UNL A   1      31.755  26.054  21.466  1.00  0.00     0.071 C 
ATOM     20  C   UNL A   1      31.634  25.121  22.637  1.00  0.00     0.079 A 
ATOM     21  N   UNL A   1      30.711  25.439  23.560  1.00  0.00    -0.257 NA
ATOM     22  C   UNL A   1      32.470  24.010  22.784  1.00  0.00     0.146 A 
ATOM     23  C   UNL A   1      30.654  24.652  24.659  1.00  0.00     0.118 A 
ATOM     24  C   UNL A   1      31.494  23.558  24.942  1.00  0.00     0.009 A 
BRANCH  22  25
ATOM     25  O   UNL A   1      33.361  23.807  21.752  1.00  0.00    -0.505 OA
ATOM     26  H   UNL A   1      33.468  24.461  21.091  1.00  0.00     0.293 HD
ENDBRANCH  22  25
BRANCH  24  27
ATOM     27  C   UNL A   1      31.258  22.888  26.268  1.00  0.00     0.194 C 
BRANCH  27  28
ATOM     28  O   UNL A   1      30.392  21.762  26.099  1.00  0.00    -0.392 OA
ATOM     29  H   UNL A   1      29.658  21.821  26.730  1.00  0.00     0.211 HD
ENDBRANCH  27  28
ENDBRANCH  24  27
ENDBRANCH   7  18
ENDBRANCH   4   6
ENDBRANCH   3   4
ENDBRANCH   2   3
ENDBRANCH   1   2
BRANCH   1  30
ATOM     30  O   UNL A   1      41.510  20.746  26.085  1.00  0.00    -0.374 OA
BRANCH  30  31
ATOM     31  C   UNL A   1      42.365  19.746  26.623  1.00  0.00     0.202 C 
BRANCH  31  32
ATOM     32  C   UNL A   1      43.182  18.904  25.651  1.00  0.00     0.261 C 
BRANCH  32  33
ATOM     33  O   UNL A   1      44.482  19.433  25.434  1.00  0.00    -0.460 OA
BRANCH  33  34
ATOM     34  C   UNL A   1      44.588  20.103  24.260  1.00  0.00     0.338 C 
ATOM     35  O   UNL A   1      44.576  19.636  23.139  1.00  0.00    -0.246 OA
BRANCH  34  36
ATOM     36  C   UNL A   1      44.898  21.509  24.538  1.00  0.00     0.060 A 
ATOM     37  C   UNL A   1      45.783  21.732  25.593  1.00  0.00     0.016 A 
ATOM     38  C   UNL A   1      44.073  22.520  24.028  1.00  0.00     0.016 A 
ATOM     39  C   UNL A   1      45.647  22.892  26.314  1.00  0.00     0.010 A 
ATOM     40  C   UNL A   1      43.924  23.672  24.757  1.00  0.00     0.010 A 
ATOM     41  C   UNL A   1      44.644  23.793  25.941  1.00  0.00    -0.014 A 
BRANCH  41  42
ATOM     42  C   UNL A   1      44.447  24.956  26.774  1.00  0.00     0.031 A 
ATOM     43  C   UNL A   1      45.554  25.921  26.621  1.00  0.00     0.074 A 
ATOM     44  C   UNL A   1      43.339  25.129  27.517  1.00  0.00     0.049 A 
ATOM     45  N   UNL A   1      46.460  26.217  27.490  1.00  0.00    -0.248 NA
ATOM     46  C   UNL A   1      45.817  26.447  25.270  1.00  0.00     0.031 C 
ATOM     47  C   UNL A   1      42.108  24.335  27.512  1.00  0.00     0.029 A 
ATOM     48  N   UNL A   1      43.050  26.135  28.385  1.00  0.00    -0.354 N 
ATOM     49  C   UNL A   1      47.285  27.139  26.857  1.00  0.00     0.074 A 
ATOM     50  C   UNL A   1      46.986  27.060  25.454  1.00  0.00     0.031 C 
ATOM     51  C   UNL A   1      41.134  25.016  28.159  1.00  0.00     0.029 A 
ATOM     52  C   UNL A   1      41.705  26.224  28.728  1.00  0.00     0.049 A 
ATOM     53  H   UNL A   1      43.734  26.746  28.741  1.00  0.00     0.167 HD
ATOM     54  C   UNL A   1      47.912  28.104  27.579  1.00  0.00     0.037 A 
ATOM     55  C   UNL A   1      41.122  27.279  29.354  1.00  0.00     0.037 A 
ATOM     56  C   UNL A   1      47.983  27.734  28.971  1.00  0.00     0.049 A 
ATOM     57  C   UNL A   1      42.207  28.060  30.007  1.00  0.00     0.074 A 
ATOM     58  C   UNL A   1      48.570  26.696  29.668  1.00  0.00     0.029 A 
ATOM     59  N   UNL A   1      47.053  28.282  29.819  1.00  0.00    -0.354 N 
ATOM     60  N   UNL A   1      42.904  27.618  31.018  1.00  0.00    -0.248 NA
ATOM     61  C   UNL A   1      42.841  29.113  29.227  1.00  0.00     0.031 C 
ATOM     62  C   UNL A   1      47.654  26.387  30.717  1.00  0.00     0.029 A 
ATOM     63  C   UNL A   1      46.596  27.295  30.650  1.00  0.00     0.049 A 
ATOM     64  H   UNL A   1      46.763  29.222  29.827  1.00  0.00     0.167 HD
ATOM     65  C   UNL A   1      44.209  28.007  30.745  1.00  0.00     0.074 A 
ATOM     66  C   UNL A   1      44.096  28.987  29.667  1.00  0.00     0.031 C 
ATOM     67  C   UNL A   1      45.265  27.279  31.212  1.00  0.00     0.037 A 
BRANCH  54  68
ATOM     68  C   UNL A   1      48.044  29.536  27.113  1.00  0.00     0.064 A 
ATOM     69  C   UNL A   1      49.307  30.153  27.195  1.00  0.00     0.173 A 
ATOM     70  C   UNL A   1      46.956  30.412  26.891  1.00  0.00     0.173 A 
ATOM     71  F   UNL A   1      50.411  29.423  27.412  1.00  0.00    -0.203 F 
ATOM     72  C   UNL A   1      49.453  31.542  27.160  1.00  0.00     0.198 A 
ATOM     73  C   UNL A   1      47.113  31.793  26.803  1.00  0.00     0.198 A 
ATOM     74  F   UNL A   1      45.686  29.999  26.861  1.00  0.00    -0.203 F 
ATOM     75  F   UNL A   1      50.656  32.087  27.382  1.00  0.00    -0.200 F 
ATOM     76  C   UNL A   1      48.355  32.360  26.974  1.00  0.00     0.200 A 
ATOM     77  F   UNL A   1      46.031  32.566  26.637  1.00  0.00    -0.200 F 
ATOM     78  F   UNL A   1      48.481  33.693  27.008  1.00  0.00    -0.200 F 
ENDBRANCH  54  68
BRANCH  55  79
ATOM     79  C   UNL A   1      39.772  27.846  29.116  1.00  0.00     0.064 A 
ATOM     80  C   UNL A   1      38.844  27.987  30.162  1.00  0.00     0.173 A 
ATOM     81  C   UNL A   1      39.463  28.515  27.916  1.00  0.00     0.173 A 
ATOM     82  F   UNL A   1      39.089  27.433  31.359  1.00  0.00    -0.203 F 
ATOM     83  C   UNL A   1      37.686  28.761  30.017  1.00  0.00     0.198 A 
ATOM     84  C   UNL A   1      38.306  29.280  27.769  1.00  0.00     0.198 A 
ATOM     85  F   UNL A   1      40.329  28.521  26.891  1.00  0.00    -0.203 F 
ATOM     86  F   UNL A   1      36.853  28.921  31.055  1.00  0.00    -0.200 F 
ATOM     87  C   UNL A   1      37.422  29.413  28.824  1.00  0.00     0.200 A 
ATOM     88  F   UNL A   1      38.087  29.943  26.625  1.00  0.00    -0.200 F 
ATOM     89  F   UNL A   1      36.345  30.199  28.703  1.00  0.00    -0.200 F 
ENDBRANCH  55  79
BRANCH  67  90
ATOM     90  C   UNL A   1      44.984  26.226  32.248  1.00  0.00     0.064 A 
ATOM     91  C   UNL A   1      44.903  26.476  33.629  1.00  0.00     0.173 A 
ATOM     92  C   UNL A   1      44.635  24.945  31.803  1.00  0.00     0.173 A 
ATOM     93  F   UNL A   1      45.126  27.702  34.122  1.00  0.00    -0.203 F 
ATOM     94  C   UNL A   1      44.529  25.473  34.523  1.00  0.00     0.198 A 
ATOM     95  C   UNL A   1      44.224  23.957  32.692  1.00  0.00     0.198 A 
ATOM     96  F   UNL A   1      44.642  24.666  30.490  1.00  0.00    -0.203 F 
ATOM     97  F   UNL A   1      44.467  25.732  35.838  1.00  0.00    -0.200 F 
ATOM     98  C   UNL A   1      44.180  24.218  34.052  1.00  0.00     0.200 A 
ATOM     99  F   UNL A   1      43.839  22.762  32.225  1.00  0.00    -0.200 F 
ATOM    100  F   UNL A   1      43.775  23.266  34.904  1.00  0.00    -0.200 F 
ENDBRANCH  67  90
ENDBRANCH  41  42
ENDBRANCH  34  36
ENDBRANCH  33  34
ENDBRANCH  32  33
ENDBRANCH  31  32
ENDBRANCH  30  31
ENDBRANCH   1  30
TORSDOF 18
ENDMDL
MODEL 3
REMARK VINA RESULT:     -12.4      5.381     10.448
REMARK SMILES Cc1ncc(CO)c([C@H]2[NH2+][C@@H](C(=O)OCCOCCOC(=O)c3ccc(-c4c5nc(c(-c6c(F)c(F)c(F)c(F)c6F)c6ccc([nH]6)c(-c6c(F)c(F)c(F)c(F)c6F)c6nc(c(-c7c(F)c(F)c(F)c(F)c7F)c7ccc4[nH]7)C=C6)C=C5)cc3)Cc3[nH]cnc32)c1O
REMARK SMILES IDX 16 1 15 2 14 3 12 4 13 5 11 6 9 7 10 8 91 9 87 12 90 13
REMARK SMILES IDX 86 14 88 15 89 16 8 18 1 19 2 20 3 21 92 22 4 23 5 24 93 25
REMARK SMILES IDX 6 27 7 28 17 30 18 31 19 32 20 33 21 34 22 35 23 36 24 37
REMARK SMILES IDX 85 38 25 39 84 40 26 41 27 42 28 43 78 44 29 45 83 46 77 47
REMARK SMILES IDX 79 48 30 49 82 50 76 51 75 52 31 54 63 55 43 56 62 57 44 58
REMARK SMILES IDX 47 59 61 60 80 61 45 62 46 63 60 65 81 66 48 67 32 68 33 69
REMARK SMILES IDX 41 70 34 71 35 72 39 73 42 74 36 75 37 76 40 77 38 78 64 79
REMARK SMILES IDX 65 80 73 81 66 82 67 83 71 84 74 85 68 86 69 87 72 88 70 89
REMARK SMILES IDX 49 90 50 91 58 92 51 93 52 94 56 95 59 96 53 97 54 98 57 99
REMARK SMILES IDX 55 100
REMARK H PARENT 10 10 10 11 88 17 93 26 7 29 79 53 47 64
REMARK Flexibility Score: inf
ROOT
ATOM      1  C   UNL A   1      33.975  32.058  28.145  1.00  0.00     0.202 C 
ENDROOT
BRANCH   1   2
ATOM      2  C   UNL A   1      34.457  30.749  27.521  1.00  0.00     0.261 C 
BRANCH   2   3
ATOM      3  O   UNL A   1      33.652  30.332  26.402  1.00  0.00    -0.459 OA
BRANCH   3   4
ATOM      4  C   UNL A   1      33.369  28.993  26.360  1.00  0.00     0.365 C 
ATOM      5  O   UNL A   1      33.284  28.265  27.340  1.00  0.00    -0.245 OA
BRANCH   4   6
ATOM      6  C   UNL A   1      33.125  28.548  24.915  1.00  0.00     0.300 C 
ATOM      7  C   UNL A   1      31.414  28.163  23.197  1.00  0.00     0.270 C 
ATOM      8  N   UNL A   1      31.661  28.480  24.629  1.00  0.00    -0.323 N 
ATOM      9  C   UNL A   1      32.058  26.850  22.883  1.00  0.00     0.124 A 
ATOM     10  H   UNL A   1      31.241  27.755  25.209  1.00  0.00     0.347 HD
ATOM     11  H   UNL A   1      31.246  29.389  24.837  1.00  0.00     0.347 HD
ATOM     12  C   UNL A   1      33.226  26.481  23.536  1.00  0.00     0.051 A 
ATOM     13  N   UNL A   1      31.864  26.033  21.799  1.00  0.00    -0.235 NA
ATOM     14  C   UNL A   1      33.850  27.194  24.683  1.00  0.00     0.133 C 
ATOM     15  N   UNL A   1      33.710  25.393  22.881  1.00  0.00    -0.348 N 
ATOM     16  C   UNL A   1      32.852  25.158  21.840  1.00  0.00     0.197 A 
ATOM     17  H   UNL A   1      34.516  24.876  23.110  1.00  0.00     0.167 HD
BRANCH   7  18
ATOM     18  C   UNL A   1      29.969  28.464  22.851  1.00  0.00     0.066 A 
ATOM     19  C   UNL A   1      28.312  31.459  21.072  1.00  0.00     0.071 C 
ATOM     20  C   UNL A   1      28.506  30.156  21.794  1.00  0.00     0.079 A 
ATOM     21  N   UNL A   1      27.391  29.534  22.213  1.00  0.00    -0.257 NA
ATOM     22  C   UNL A   1      29.779  29.643  22.060  1.00  0.00     0.146 A 
ATOM     23  C   UNL A   1      27.561  28.404  22.937  1.00  0.00     0.118 A 
ATOM     24  C   UNL A   1      28.794  27.842  23.323  1.00  0.00     0.009 A 
BRANCH  22  25
ATOM     25  O   UNL A   1      30.826  30.387  21.559  1.00  0.00    -0.505 OA
ATOM     26  H   UNL A   1      31.647  30.401  22.010  1.00  0.00     0.293 HD
ENDBRANCH  22  25
BRANCH  24  27
ATOM     27  C   UNL A   1      28.702  26.611  24.183  1.00  0.00     0.194 C 
BRANCH  27  28
ATOM     28  O   UNL A   1      27.408  26.015  24.045  1.00  0.00    -0.392 OA
ATOM     29  H   UNL A   1      26.733  26.711  24.012  1.00  0.00     0.211 HD
ENDBRANCH  27  28
ENDBRANCH  24  27
ENDBRANCH   7  18
ENDBRANCH   4   6
ENDBRANCH   3   4
ENDBRANCH   2   3
ENDBRANCH   1   2
BRANCH   1  30
ATOM     30  O   UNL A   1      34.644  33.265  27.785  1.00  0.00    -0.374 OA
BRANCH  30  31
ATOM     31  C   UNL A   1      34.752  34.325  28.727  1.00  0.00     0.202 C 
BRANCH  31  32
ATOM     32  C   UNL A   1      33.488  34.769  29.453  1.00  0.00     0.261 C 
BRANCH  32  33
ATOM     33  O   UNL A   1      33.767  35.601  30.569  1.00  0.00    -0.460 OA
BRANCH  33  34
ATOM     34  C   UNL A   1      33.398  35.041  31.748  1.00  0.00     0.338 C 
ATOM     35  O   UNL A   1      32.364  35.221  32.358  1.00  0.00    -0.246 OA
BRANCH  34  36
ATOM     36  C   UNL A   1      34.530  34.286  32.294  1.00  0.00     0.060 A 
ATOM     37  C   UNL A   1      35.714  35.007  32.450  1.00  0.00     0.016 A 
ATOM     38  C   UNL A   1      34.502  32.886  32.289  1.00  0.00     0.016 A 
ATOM     39  C   UNL A   1      36.901  34.329  32.328  1.00  0.00     0.010 A 
ATOM     40  C   UNL A   1      35.687  32.209  32.151  1.00  0.00     0.010 A 
ATOM     41  C   UNL A   1      36.859  32.954  32.075  1.00  0.00    -0.014 A 
BRANCH  41  42
ATOM     42  C   UNL A   1      38.114  32.278  31.846  1.00  0.00     0.031 A 
ATOM     43  C   UNL A   1      38.905  32.175  33.088  1.00  0.00     0.074 A 
ATOM     44  C   UNL A   1      38.441  31.755  30.650  1.00  0.00     0.049 A 
ATOM     45  N   UNL A   1      40.000  32.795  33.373  1.00  0.00    -0.248 NA
ATOM     46  C   UNL A   1      38.289  31.480  34.231  1.00  0.00     0.031 C 
ATOM     47  C   UNL A   1      37.597  31.606  29.462  1.00  0.00     0.029 A 
ATOM     48  N   UNL A   1      39.601  31.151  30.278  1.00  0.00    -0.354 N 
ATOM     49  C   UNL A   1      40.322  32.391  34.663  1.00  0.00     0.074 A 
ATOM     50  C   UNL A   1      39.139  31.787  35.211  1.00  0.00     0.031 C 
ATOM     51  C   UNL A   1      38.195  30.757  28.594  1.00  0.00     0.029 A 
ATOM     52  C   UNL A   1      39.509  30.410  29.105  1.00  0.00     0.049 A 
ATOM     53  H   UNL A   1      40.435  31.232  30.795  1.00  0.00     0.167 HD
ATOM     54  C   UNL A   1      41.622  32.307  35.047  1.00  0.00     0.037 A 
ATOM     55  C   UNL A   1      40.430  29.513  28.667  1.00  0.00     0.037 A 
ATOM     56  C   UNL A   1      42.462  33.101  34.184  1.00  0.00     0.049 A 
ATOM     57  C   UNL A   1      41.706  29.811  29.373  1.00  0.00     0.074 A 
ATOM     58  C   UNL A   1      42.539  34.445  33.877  1.00  0.00     0.029 A 
ATOM     59  N   UNL A   1      43.143  32.446  33.189  1.00  0.00    -0.354 N 
ATOM     60  N   UNL A   1      42.405  30.894  29.171  1.00  0.00    -0.248 NA
ATOM     61  C   UNL A   1      41.941  29.148  30.648  1.00  0.00     0.031 C 
ATOM     62  C   UNL A   1      42.863  34.492  32.489  1.00  0.00     0.029 A 
ATOM     63  C   UNL A   1      43.039  33.182  32.040  1.00  0.00     0.049 A 
ATOM     64  H   UNL A   1      43.623  31.591  33.284  1.00  0.00     0.167 HD
ATOM     65  C   UNL A   1      42.822  31.286  30.436  1.00  0.00     0.074 A 
ATOM     66  C   UNL A   1      42.568  30.133  31.295  1.00  0.00     0.031 C 
ATOM     67  C   UNL A   1      43.051  32.603  30.717  1.00  0.00     0.037 A 
BRANCH  54  68
ATOM     68  C   UNL A   1      42.167  31.180  35.895  1.00  0.00     0.064 A 
ATOM     69  C   UNL A   1      43.031  31.499  36.960  1.00  0.00     0.173 A 
ATOM     70  C   UNL A   1      42.137  29.814  35.529  1.00  0.00     0.173 A 
ATOM     71  F   UNL A   1      43.148  32.765  37.388  1.00  0.00    -0.203 F 
ATOM     72  C   UNL A   1      43.870  30.545  37.541  1.00  0.00     0.198 A 
ATOM     73  C   UNL A   1      42.937  28.857  36.148  1.00  0.00     0.198 A 
ATOM     74  F   UNL A   1      41.429  29.354  34.494  1.00  0.00    -0.203 F 
ATOM     75  F   UNL A   1      44.773  30.926  38.454  1.00  0.00    -0.200 F 
ATOM     76  C   UNL A   1      43.829  29.228  37.127  1.00  0.00     0.200 A 
ATOM     77  F   UNL A   1      42.890  27.587  35.719  1.00  0.00    -0.200 F 
ATOM     78  F   UNL A   1      44.679  28.325  37.634  1.00  0.00    -0.200 F 
ENDBRANCH  54  68
BRANCH  55  79
ATOM     79  C   UNL A   1      40.188  28.221  27.981  1.00  0.00     0.064 A 
ATOM     80  C   UNL A   1      40.840  27.898  26.779  1.00  0.00     0.173 A 
ATOM     81  C   UNL A   1      39.524  27.163  28.633  1.00  0.00     0.173 A 
ATOM     82  F   UNL A   1      41.547  28.831  26.124  1.00  0.00    -0.203 F 
ATOM     83  C   UNL A   1      40.837  26.594  26.269  1.00  0.00     0.198 A 
ATOM     84  C   UNL A   1      39.515  25.865  28.121  1.00  0.00     0.198 A 
ATOM     85  F   UNL A   1      38.953  27.346  29.833  1.00  0.00    -0.203 F 
ATOM     86  F   UNL A   1      41.518  26.311  25.150  1.00  0.00    -0.200 F 
ATOM     87  C   UNL A   1      40.181  25.578  26.944  1.00  0.00     0.200 A 
ATOM     88  F   UNL A   1      38.916  24.883  28.809  1.00  0.00    -0.200 F 
ATOM     89  F   UNL A   1      40.226  24.319  26.488  1.00  0.00    -0.200 F 
ENDBRANCH  55  79
BRANCH  67  90
ATOM     90  C   UNL A   1      43.113  33.563  29.562  1.00  0.00     0.064 A 
ATOM     91  C   UNL A   1      42.031  34.347  29.124  1.00  0.00     0.173 A 
ATOM     92  C   UNL A   1      44.362  33.804  28.976  1.00  0.00     0.173 A 
ATOM     93  F   UNL A   1      40.827  34.244  29.703  1.00  0.00    -0.203 F 
ATOM     94  C   UNL A   1      42.190  35.300  28.118  1.00  0.00     0.198 A 
ATOM     95  C   UNL A   1      44.527  34.782  28.000  1.00  0.00     0.198 A 
ATOM     96  F   UNL A   1      45.441  33.123  29.393  1.00  0.00    -0.203 F 
ATOM     97  F   UNL A   1      41.142  36.030  27.710  1.00  0.00    -0.200 F 
ATOM     98  C   UNL A   1      43.440  35.522  27.564  1.00  0.00     0.200 A 
ATOM     99  F   UNL A   1      45.748  35.027  27.506  1.00  0.00    -0.200 F 
ATOM    100  F   UNL A   1      43.605  36.468  26.630  1.00  0.00    -0.200 F 
ENDBRANCH  67  90
ENDBRANCH  41  42
ENDBRANCH  34  36
ENDBRANCH  33  34
ENDBRANCH  32  33
ENDBRANCH  31  32
ENDBRANCH  30  31
ENDBRANCH   1  30
TORSDOF 18
ENDMDL
