MODEL 1
REMARK VINA RESULT:     -11.5      0.000      0.000
REMARK SMILES O=C(OCCOCCOC(=O)c1cn(C[C@@H]2CCS(=O)(=O)C2)c(=O)[nH]c1=O)c1ccc(-c2c3nc(c(-c4c(F)c(F)c(F)c(F)c4F)c4ccc([nH]4)c(-c4c(F)c(F)c(F)c(F)c4F)c4nc(c(-c5c(F)c(F)c(F)c(F)c5F)c5ccc2[nH]5)C=C4)C=C3)cc1
REMARK SMILES IDX 6 1 5 2 4 3 3 4 2 5 1 6 28 7 29 8 90 9 30 10 89 11 31 12
REMARK SMILES IDX 32 13 33 14 83 15 34 16 88 17 82 18 84 19 35 20 87 21 81 22
REMARK SMILES IDX 80 23 36 25 68 26 48 27 67 28 49 29 52 30 66 31 85 32 50 33
REMARK SMILES IDX 51 34 65 36 86 37 53 38 37 39 38 40 46 41 39 42 40 43 44 44
REMARK SMILES IDX 47 45 41 46 42 47 45 48 43 49 69 50 70 51 78 52 71 53 72 54
REMARK SMILES IDX 76 55 79 56 73 57 74 58 77 59 75 60 54 61 55 62 63 63 56 64
REMARK SMILES IDX 57 65 61 66 64 67 58 68 59 69 62 70 60 71 7 72 8 73 9 74
REMARK SMILES IDX 10 75 11 76 12 77 13 78 26 79 14 80 25 81 27 82 23 83 24 85
REMARK SMILES IDX 15 86 16 87 17 88 22 89 18 90 19 91 20 92 21 93
REMARK H PARENT 84 24 52 35 25 84
REMARK Flexibility Score: inf
ROOT
ATOM      1  O   UNL A   1      31.636  29.982  27.124  1.00  0.00    -0.374 OA
ENDROOT
BRANCH   1   2
ATOM      2  C   UNL A   1      32.282  31.190  26.725  1.00  0.00     0.202 C 
BRANCH   2   3
ATOM      3  C   UNL A   1      31.453  32.456  26.919  1.00  0.00     0.261 C 
BRANCH   3   4
ATOM      4  O   UNL A   1      32.292  33.613  26.976  1.00  0.00    -0.460 OA
BRANCH   4   5
ATOM      5  C   UNL A   1      32.964  34.111  28.036  1.00  0.00     0.338 C 
ATOM      6  O   UNL A   1      32.527  35.143  28.545  1.00  0.00    -0.246 OA
BRANCH   5   7
ATOM      7  C   UNL A   1      34.223  33.531  28.624  1.00  0.00     0.060 A 
ATOM      8  C   UNL A   1      34.039  32.517  29.584  1.00  0.00     0.016 A 
ATOM      9  C   UNL A   1      35.535  33.950  28.383  1.00  0.00     0.016 A 
ATOM     10  C   UNL A   1      35.116  31.980  30.295  1.00  0.00     0.010 A 
ATOM     11  C   UNL A   1      36.611  33.444  29.100  1.00  0.00     0.010 A 
ATOM     12  C   UNL A   1      36.405  32.456  30.057  1.00  0.00    -0.014 A 
BRANCH  12  13
ATOM     13  C   UNL A   1      37.596  31.840  30.658  1.00  0.00     0.031 A 
ATOM     14  C   UNL A   1      38.332  30.744  29.957  1.00  0.00     0.074 A 
ATOM     15  C   UNL A   1      37.879  32.202  31.920  1.00  0.00     0.049 A 
ATOM     16  N   UNL A   1      39.380  30.076  30.361  1.00  0.00    -0.248 NA
ATOM     17  C   UNL A   1      37.818  30.327  28.643  1.00  0.00     0.031 C 
ATOM     18  C   UNL A   1      37.124  33.191  32.696  1.00  0.00     0.029 A 
ATOM     19  N   UNL A   1      38.841  31.761  32.786  1.00  0.00    -0.354 N 
ATOM     20  C   UNL A   1      39.676  29.186  29.339  1.00  0.00     0.074 A 
ATOM     21  C   UNL A   1      38.663  29.353  28.320  1.00  0.00     0.031 C 
ATOM     22  C   UNL A   1      37.647  33.276  33.927  1.00  0.00     0.029 A 
ATOM     23  C   UNL A   1      38.768  32.350  34.022  1.00  0.00     0.049 A 
ATOM     24  H   UNL A   1      39.517  31.087  32.545  1.00  0.00     0.167 HD
ATOM     25  C   UNL A   1      40.722  28.329  29.267  1.00  0.00     0.037 A 
ATOM     26  C   UNL A   1      39.541  32.166  35.106  1.00  0.00     0.037 A 
ATOM     27  C   UNL A   1      41.686  28.168  30.328  1.00  0.00     0.049 A 
ATOM     28  C   UNL A   1      40.697  31.216  34.992  1.00  0.00     0.074 A 
ATOM     29  C   UNL A   1      42.809  27.360  30.362  1.00  0.00     0.029 A 
ATOM     30  N   UNL A   1      41.627  28.823  31.552  1.00  0.00    -0.354 N 
ATOM     31  N   UNL A   1      41.043  30.460  33.978  1.00  0.00    -0.248 NA
ATOM     32  C   UNL A   1      41.586  31.118  36.152  1.00  0.00     0.031 C 
ATOM     33  C   UNL A   1      43.407  27.500  31.617  1.00  0.00     0.029 A 
ATOM     34  C   UNL A   1      42.690  28.435  32.348  1.00  0.00     0.049 A 
ATOM     35  H   UNL A   1      40.930  29.468  31.814  1.00  0.00     0.167 HD
ATOM     36  C   UNL A   1      42.215  29.825  34.360  1.00  0.00     0.074 A 
ATOM     37  C   UNL A   1      42.522  30.297  35.697  1.00  0.00     0.031 C 
ATOM     38  C   UNL A   1      42.970  28.937  33.670  1.00  0.00     0.037 A 
BRANCH  25  39
ATOM     39  C   UNL A   1      40.922  27.542  28.006  1.00  0.00     0.064 A 
ATOM     40  C   UNL A   1      41.669  28.071  26.940  1.00  0.00     0.173 A 
ATOM     41  C   UNL A   1      40.494  26.210  27.903  1.00  0.00     0.173 A 
ATOM     42  F   UNL A   1      42.101  29.340  26.982  1.00  0.00    -0.203 F 
ATOM     43  C   UNL A   1      41.985  27.295  25.828  1.00  0.00     0.198 A 
ATOM     44  C   UNL A   1      40.832  25.429  26.800  1.00  0.00     0.198 A 
ATOM     45  F   UNL A   1      39.783  25.651  28.894  1.00  0.00    -0.203 F 
ATOM     46  F   UNL A   1      42.696  27.825  24.822  1.00  0.00    -0.200 F 
ATOM     47  C   UNL A   1      41.580  25.970  25.764  1.00  0.00     0.200 A 
ATOM     48  F   UNL A   1      40.454  24.144  26.747  1.00  0.00    -0.200 F 
ATOM     49  F   UNL A   1      41.916  25.215  24.710  1.00  0.00    -0.200 F 
ENDBRANCH  25  39
BRANCH  26  50
ATOM     50  C   UNL A   1      39.297  32.976  36.325  1.00  0.00     0.064 A 
ATOM     51  C   UNL A   1      39.883  34.242  36.462  1.00  0.00     0.173 A 
ATOM     52  C   UNL A   1      38.436  32.539  37.341  1.00  0.00     0.173 A 
ATOM     53  F   UNL A   1      40.712  34.702  35.515  1.00  0.00    -0.203 F 
ATOM     54  C   UNL A   1      39.633  35.032  37.581  1.00  0.00     0.198 A 
ATOM     55  C   UNL A   1      38.165  33.342  38.447  1.00  0.00     0.198 A 
ATOM     56  F   UNL A   1      37.831  31.347  37.243  1.00  0.00    -0.203 F 
ATOM     57  F   UNL A   1      40.233  36.224  37.703  1.00  0.00    -0.200 F 
ATOM     58  C   UNL A   1      38.769  34.584  38.570  1.00  0.00     0.200 A 
ATOM     59  F   UNL A   1      37.310  32.919  39.388  1.00  0.00    -0.200 F 
ATOM     60  F   UNL A   1      38.519  35.351  39.640  1.00  0.00    -0.200 F 
ENDBRANCH  26  50
BRANCH  38  61
ATOM     61  C   UNL A   1      44.222  28.452  34.336  1.00  0.00     0.064 A 
ATOM     62  C   UNL A   1      44.237  27.284  35.111  1.00  0.00     0.173 A 
ATOM     63  C   UNL A   1      45.428  29.148  34.162  1.00  0.00     0.173 A 
ATOM     64  F   UNL A   1      43.105  26.595  35.317  1.00  0.00    -0.203 F 
ATOM     65  C   UNL A   1      45.412  26.846  35.713  1.00  0.00     0.198 A 
ATOM     66  C   UNL A   1      46.607  28.688  34.738  1.00  0.00     0.198 A 
ATOM     67  F   UNL A   1      45.463  30.266  33.421  1.00  0.00    -0.203 F 
ATOM     68  F   UNL A   1      45.395  25.755  36.492  1.00  0.00    -0.200 F 
ATOM     69  C   UNL A   1      46.596  27.542  35.519  1.00  0.00     0.200 A 
ATOM     70  F   UNL A   1      47.752  29.352  34.536  1.00  0.00    -0.200 F 
ATOM     71  F   UNL A   1      47.729  27.112  36.093  1.00  0.00    -0.200 F 
ENDBRANCH  38  61
ENDBRANCH  12  13
ENDBRANCH   5   7
ENDBRANCH   4   5
ENDBRANCH   3   4
ENDBRANCH   2   3
ENDBRANCH   1   2
BRANCH   1  72
ATOM     72  C   UNL A   1      31.757  28.864  26.244  1.00  0.00     0.202 C 
BRANCH  72  73
ATOM     73  C   UNL A   1      31.411  27.583  27.011  1.00  0.00     0.261 C 
BRANCH  73  74
ATOM     74  O   UNL A   1      31.728  26.460  26.176  1.00  0.00    -0.459 OA
BRANCH  74  75
ATOM     75  C   UNL A   1      30.655  25.729  25.751  1.00  0.00     0.345 C 
ATOM     76  O   UNL A   1      29.612  26.181  25.312  1.00  0.00    -0.246 OA
BRANCH  75  77
ATOM     77  C   UNL A   1      31.073  24.315  25.735  1.00  0.00     0.141 A 
ATOM     78  C   UNL A   1      32.074  23.931  24.931  1.00  0.00     0.112 A 
ATOM     79  C   UNL A   1      30.405  23.266  26.531  1.00  0.00     0.268 A 
ATOM     80  N   UNL A   1      32.457  22.611  24.802  1.00  0.00    -0.299 N 
ATOM     81  N   UNL A   1      30.655  21.979  26.131  1.00  0.00    -0.273 N 
ATOM     82  O   UNL A   1      29.615  23.486  27.441  1.00  0.00    -0.268 OA
ATOM     83  C   UNL A   1      31.675  21.581  25.312  1.00  0.00     0.328 A 
ATOM     84  H   UNL A   1      30.047  21.279  26.463  1.00  0.00     0.175 HD
ATOM     85  O   UNL A   1      31.904  20.389  25.130  1.00  0.00    -0.248 OA
BRANCH  80  86
ATOM     86  C   UNL A   1      33.707  22.298  24.125  1.00  0.00     0.131 C 
BRANCH  86  87
ATOM     87  C   UNL A   1      34.949  23.020  24.700  1.00  0.00     0.025 C 
ATOM     88  C   UNL A   1      36.028  23.384  23.664  1.00  0.00     0.022 C 
ATOM     89  C   UNL A   1      35.672  22.291  25.841  1.00  0.00     0.142 C 
ATOM     90  C   UNL A   1      37.026  22.242  23.534  1.00  0.00     0.137 C 
ATOM     91  S   UNL A   1      37.102  21.481  25.138  1.00  0.00     0.150 S 
ATOM     92  O   UNL A   1      36.820  20.068  24.997  1.00  0.00    -0.229 OA
ATOM     93  O   UNL A   1      38.282  21.960  25.825  1.00  0.00    -0.229 OA
ENDBRANCH  86  87
ENDBRANCH  80  86
ENDBRANCH  75  77
ENDBRANCH  74  75
ENDBRANCH  73  74
ENDBRANCH  72  73
ENDBRANCH   1  72
TORSDOF 16
ENDMDL
MODEL 2
REMARK VINA RESULT:     -11.4      1.495      2.000
REMARK SMILES O=C(OCCOCCOC(=O)c1cn(C[C@@H]2CCS(=O)(=O)C2)c(=O)[nH]c1=O)c1ccc(-c2c3nc(c(-c4c(F)c(F)c(F)c(F)c4F)c4ccc([nH]4)c(-c4c(F)c(F)c(F)c(F)c4F)c4nc(c(-c5c(F)c(F)c(F)c(F)c5F)c5ccc2[nH]5)C=C4)C=C3)cc1
REMARK SMILES IDX 6 1 5 2 4 3 3 4 2 5 1 6 28 7 29 8 90 9 30 10 89 11 31 12
REMARK SMILES IDX 32 13 33 14 83 15 34 16 88 17 82 18 84 19 35 20 87 21 81 22
REMARK SMILES IDX 80 23 36 25 68 26 48 27 67 28 49 29 52 30 66 31 85 32 50 33
REMARK SMILES IDX 51 34 65 36 86 37 53 38 37 39 38 40 46 41 39 42 40 43 44 44
REMARK SMILES IDX 47 45 41 46 42 47 45 48 43 49 69 50 70 51 78 52 71 53 72 54
REMARK SMILES IDX 76 55 79 56 73 57 74 58 77 59 75 60 54 61 55 62 63 63 56 64
REMARK SMILES IDX 57 65 61 66 64 67 58 68 59 69 62 70 60 71 7 72 8 73 9 74
REMARK SMILES IDX 10 75 11 76 12 77 13 78 26 79 14 80 25 81 27 82 23 83 24 85
REMARK SMILES IDX 15 86 16 87 17 88 22 89 18 90 19 91 20 92 21 93
REMARK H PARENT 84 24 52 35 25 84
REMARK Flexibility Score: inf
ROOT
ATOM      1  O   UNL A   1      33.134  30.561  27.634  1.00  0.00    -0.374 OA
ENDROOT
BRANCH   1   2
ATOM      2  C   UNL A   1      32.648  31.477  26.655  1.00  0.00     0.202 C 
BRANCH   2   3
ATOM      3  C   UNL A   1      31.778  32.604  27.205  1.00  0.00     0.261 C 
BRANCH   3   4
ATOM      4  O   UNL A   1      32.522  33.822  27.306  1.00  0.00    -0.460 OA
BRANCH   4   5
ATOM      5  C   UNL A   1      33.211  34.298  28.365  1.00  0.00     0.338 C 
ATOM      6  O   UNL A   1      32.889  35.406  28.794  1.00  0.00    -0.246 OA
BRANCH   5   7
ATOM      7  C   UNL A   1      34.364  33.607  29.041  1.00  0.00     0.060 A 
ATOM      8  C   UNL A   1      35.632  33.830  28.469  1.00  0.00     0.016 A 
ATOM      9  C   UNL A   1      34.297  32.709  30.111  1.00  0.00     0.016 A 
ATOM     10  C   UNL A   1      36.768  33.154  28.923  1.00  0.00     0.010 A 
ATOM     11  C   UNL A   1      35.413  32.011  30.555  1.00  0.00     0.010 A 
ATOM     12  C   UNL A   1      36.652  32.232  29.964  1.00  0.00    -0.014 A 
BRANCH  12  13
ATOM     13  C   UNL A   1      37.820  31.596  30.587  1.00  0.00     0.031 A 
ATOM     14  C   UNL A   1      38.572  30.512  29.884  1.00  0.00     0.074 A 
ATOM     15  C   UNL A   1      38.068  31.928  31.865  1.00  0.00     0.049 A 
ATOM     16  N   UNL A   1      39.603  29.829  30.305  1.00  0.00    -0.248 NA
ATOM     17  C   UNL A   1      38.096  30.126  28.546  1.00  0.00     0.031 C 
ATOM     18  C   UNL A   1      37.294  32.904  32.639  1.00  0.00     0.029 A 
ATOM     19  N   UNL A   1      39.000  31.462  32.749  1.00  0.00    -0.354 N 
ATOM     20  C   UNL A   1      39.926  28.959  29.273  1.00  0.00     0.074 A 
ATOM     21  C   UNL A   1      38.945  29.155  28.227  1.00  0.00     0.031 C 
ATOM     22  C   UNL A   1      37.780  32.959  33.887  1.00  0.00     0.029 A 
ATOM     23  C   UNL A   1      38.893  32.025  33.995  1.00  0.00     0.049 A 
ATOM     24  H   UNL A   1      39.679  30.790  32.514  1.00  0.00     0.167 HD
ATOM     25  C   UNL A   1      40.969  28.099  29.214  1.00  0.00     0.037 A 
ATOM     26  C   UNL A   1      39.631  31.813  35.098  1.00  0.00     0.037 A 
ATOM     27  C   UNL A   1      41.899  27.908  30.299  1.00  0.00     0.049 A 
ATOM     28  C   UNL A   1      40.785  30.859  34.997  1.00  0.00     0.074 A 
ATOM     29  C   UNL A   1      43.017  27.093  30.349  1.00  0.00     0.029 A 
ATOM     30  N   UNL A   1      41.807  28.536  31.535  1.00  0.00    -0.354 N 
ATOM     31  N   UNL A   1      41.158  30.123  33.978  1.00  0.00    -0.248 NA
ATOM     32  C   UNL A   1      41.638  30.730  36.182  1.00  0.00     0.031 C 
ATOM     33  C   UNL A   1      43.578  27.202  31.625  1.00  0.00     0.029 A 
ATOM     34  C   UNL A   1      42.843  28.125  32.354  1.00  0.00     0.049 A 
ATOM     35  H   UNL A   1      41.106  29.179  31.790  1.00  0.00     0.167 HD
ATOM     36  C   UNL A   1      42.314  29.473  34.381  1.00  0.00     0.074 A 
ATOM     37  C   UNL A   1      42.583  29.913  35.737  1.00  0.00     0.031 C 
ATOM     38  C   UNL A   1      43.085  28.595  33.695  1.00  0.00     0.037 A 
BRANCH  25  39
ATOM     39  C   UNL A   1      41.204  27.339  27.941  1.00  0.00     0.064 A 
ATOM     40  C   UNL A   1      41.966  27.895  26.902  1.00  0.00     0.173 A 
ATOM     41  C   UNL A   1      40.792  26.004  27.804  1.00  0.00     0.173 A 
ATOM     42  F   UNL A   1      42.383  29.168  26.977  1.00  0.00    -0.203 F 
ATOM     43  C   UNL A   1      42.313  27.145  25.781  1.00  0.00     0.198 A 
ATOM     44  C   UNL A   1      41.161  25.248  26.693  1.00  0.00     0.198 A 
ATOM     45  F   UNL A   1      40.067  25.418  28.770  1.00  0.00    -0.203 F 
ATOM     46  F   UNL A   1      43.039  27.702  24.802  1.00  0.00    -0.200 F 
ATOM     47  C   UNL A   1      41.924  25.818  25.684  1.00  0.00     0.200 A 
ATOM     48  F   UNL A   1      40.798  23.961  26.608  1.00  0.00    -0.200 F 
ATOM     49  F   UNL A   1      42.289  25.086  24.623  1.00  0.00    -0.200 F 
ENDBRANCH  25  39
BRANCH  26  50
ATOM     50  C   UNL A   1      39.355  32.597  36.326  1.00  0.00     0.064 A 
ATOM     51  C   UNL A   1      39.975  33.837  36.529  1.00  0.00     0.173 A 
ATOM     52  C   UNL A   1      38.429  32.163  37.286  1.00  0.00     0.173 A 
ATOM     53  F   UNL A   1      40.866  34.293  35.638  1.00  0.00    -0.203 F 
ATOM     54  C   UNL A   1      39.697  34.603  37.658  1.00  0.00     0.198 A 
ATOM     55  C   UNL A   1      38.132  32.944  38.401  1.00  0.00     0.198 A 
ATOM     56  F   UNL A   1      37.790  30.995  37.124  1.00  0.00    -0.203 F 
ATOM     57  F   UNL A   1      40.331  35.770  37.843  1.00  0.00    -0.200 F 
ATOM     58  C   UNL A   1      38.771  34.160  38.589  1.00  0.00     0.200 A 
ATOM     59  F   UNL A   1      37.217  32.525  39.286  1.00  0.00    -0.200 F 
ATOM     60  F   UNL A   1      38.494  34.906  39.668  1.00  0.00    -0.200 F 
ENDBRANCH  26  50
BRANCH  38  61
ATOM     61  C   UNL A   1      44.314  28.089  34.388  1.00  0.00     0.064 A 
ATOM     62  C   UNL A   1      44.300  26.903  35.135  1.00  0.00     0.173 A 
ATOM     63  C   UNL A   1      45.528  28.782  34.267  1.00  0.00     0.173 A 
ATOM     64  F   UNL A   1      43.159  26.215  35.289  1.00  0.00    -0.203 F 
ATOM     65  C   UNL A   1      45.454  26.444  35.761  1.00  0.00     0.198 A 
ATOM     66  C   UNL A   1      46.686  28.303  34.868  1.00  0.00     0.198 A 
ATOM     67  F   UNL A   1      45.591  29.918  33.555  1.00  0.00    -0.203 F 
ATOM     68  F   UNL A   1      45.408  25.336  36.514  1.00  0.00    -0.200 F 
ATOM     69  C   UNL A   1      46.647  27.139  35.621  1.00  0.00     0.200 A 
ATOM     70  F   UNL A   1      47.840  28.966  34.718  1.00  0.00    -0.200 F 
ATOM     71  F   UNL A   1      47.759  26.690  36.219  1.00  0.00    -0.200 F 
ENDBRANCH  38  61
ENDBRANCH  12  13
ENDBRANCH   5   7
ENDBRANCH   4   5
ENDBRANCH   3   4
ENDBRANCH   2   3
ENDBRANCH   1   2
BRANCH   1  72
ATOM     72  C   UNL A   1      33.200  29.186  27.257  1.00  0.00     0.202 C 
BRANCH  72  73
ATOM     73  C   UNL A   1      31.778  28.656  27.041  1.00  0.00     0.261 C 
BRANCH  73  74
ATOM     74  O   UNL A   1      31.799  27.761  25.920  1.00  0.00    -0.459 OA
BRANCH  74  75
ATOM     75  C   UNL A   1      31.385  28.302  24.735  1.00  0.00     0.345 C 
ATOM     76  O   UNL A   1      30.954  29.430  24.578  1.00  0.00    -0.246 OA
BRANCH  75  77
ATOM     77  C   UNL A   1      31.747  27.346  23.673  1.00  0.00     0.141 A 
ATOM     78  C   UNL A   1      32.676  26.410  23.914  1.00  0.00     0.112 A 
ATOM     79  C   UNL A   1      31.172  27.393  22.314  1.00  0.00     0.268 A 
ATOM     80  N   UNL A   1      33.125  25.541  22.939  1.00  0.00    -0.299 N 
ATOM     81  N   UNL A   1      31.869  26.698  21.358  1.00  0.00    -0.273 N 
ATOM     82  O   UNL A   1      30.190  28.054  22.000  1.00  0.00    -0.268 OA
ATOM     83  C   UNL A   1      32.816  25.742  21.599  1.00  0.00     0.328 A 
ATOM     84  H   UNL A   1      31.669  26.905  20.417  1.00  0.00     0.175 HD
ATOM     85  O   UNL A   1      33.278  25.072  20.680  1.00  0.00    -0.248 OA
BRANCH  80  86
ATOM     86  C   UNL A   1      33.929  24.392  23.329  1.00  0.00     0.131 C 
BRANCH  86  87
ATOM     87  C   UNL A   1      34.150  24.249  24.853  1.00  0.00     0.025 C 
ATOM     88  C   UNL A   1      35.612  24.022  25.280  1.00  0.00     0.022 C 
ATOM     89  C   UNL A   1      33.322  23.157  25.544  1.00  0.00     0.142 C 
ATOM     90  C   UNL A   1      35.913  22.529  25.319  1.00  0.00     0.137 C 
ATOM     91  S   UNL A   1      34.387  21.739  25.773  1.00  0.00     0.150 S 
ATOM     92  O   UNL A   1      34.063  20.744  24.774  1.00  0.00    -0.229 OA
ATOM     93  O   UNL A   1      34.429  21.422  27.184  1.00  0.00    -0.229 OA
ENDBRANCH  86  87
ENDBRANCH  80  86
ENDBRANCH  75  77
ENDBRANCH  74  75
ENDBRANCH  73  74
ENDBRANCH  72  73
ENDBRANCH   1  72
TORSDOF 16
ENDMDL
MODEL 3
REMARK VINA RESULT:     -11.3      1.492      2.231
REMARK SMILES O=C(OCCOCCOC(=O)c1cn(C[C@@H]2CCS(=O)(=O)C2)c(=O)[nH]c1=O)c1ccc(-c2c3nc(c(-c4c(F)c(F)c(F)c(F)c4F)c4ccc([nH]4)c(-c4c(F)c(F)c(F)c(F)c4F)c4nc(c(-c5c(F)c(F)c(F)c(F)c5F)c5ccc2[nH]5)C=C4)C=C3)cc1
REMARK SMILES IDX 6 1 5 2 4 3 3 4 2 5 1 6 28 7 29 8 90 9 30 10 89 11 31 12
REMARK SMILES IDX 32 13 33 14 83 15 34 16 88 17 82 18 84 19 35 20 87 21 81 22
REMARK SMILES IDX 80 23 36 25 68 26 48 27 67 28 49 29 52 30 66 31 85 32 50 33
REMARK SMILES IDX 51 34 65 36 86 37 53 38 37 39 38 40 46 41 39 42 40 43 44 44
REMARK SMILES IDX 47 45 41 46 42 47 45 48 43 49 69 50 70 51 78 52 71 53 72 54
REMARK SMILES IDX 76 55 79 56 73 57 74 58 77 59 75 60 54 61 55 62 63 63 56 64
REMARK SMILES IDX 57 65 61 66 64 67 58 68 59 69 62 70 60 71 7 72 8 73 9 74
REMARK SMILES IDX 10 75 11 76 12 77 13 78 26 79 14 80 25 81 27 82 23 83 24 85
REMARK SMILES IDX 15 86 16 87 17 88 22 89 18 90 19 91 20 92 21 93
REMARK H PARENT 84 24 52 35 25 84
REMARK Flexibility Score: inf
ROOT
ATOM      1  O   UNL A   1      32.880  30.299  27.413  1.00  0.00    -0.374 OA
ENDROOT
BRANCH   1   2
ATOM      2  C   UNL A   1      32.152  31.049  26.442  1.00  0.00     0.202 C 
BRANCH   2   3
ATOM      3  C   UNL A   1      31.410  32.263  26.993  1.00  0.00     0.261 C 
BRANCH   3   4
ATOM      4  O   UNL A   1      32.238  33.429  26.959  1.00  0.00    -0.460 OA
BRANCH   4   5
ATOM      5  C   UNL A   1      32.961  33.974  27.961  1.00  0.00     0.338 C 
ATOM      6  O   UNL A   1      32.581  35.057  28.404  1.00  0.00    -0.246 OA
BRANCH   5   7
ATOM      7  C   UNL A   1      34.213  33.386  28.556  1.00  0.00     0.060 A 
ATOM      8  C   UNL A   1      34.022  32.527  29.656  1.00  0.00     0.016 A 
ATOM      9  C   UNL A   1      35.532  33.671  28.191  1.00  0.00     0.016 A 
ATOM     10  C   UNL A   1      35.103  32.011  30.376  1.00  0.00     0.010 A 
ATOM     11  C   UNL A   1      36.615  33.186  28.913  1.00  0.00     0.010 A 
ATOM     12  C   UNL A   1      36.404  32.354  30.007  1.00  0.00    -0.014 A 
BRANCH  12  13
ATOM     13  C   UNL A   1      37.586  31.737  30.624  1.00  0.00     0.031 A 
ATOM     14  C   UNL A   1      38.341  30.652  29.925  1.00  0.00     0.074 A 
ATOM     15  C   UNL A   1      37.844  32.086  31.895  1.00  0.00     0.049 A 
ATOM     16  N   UNL A   1      39.384  29.985  30.341  1.00  0.00    -0.248 NA
ATOM     17  C   UNL A   1      37.854  30.246  28.597  1.00  0.00     0.031 C 
ATOM     18  C   UNL A   1      37.069  33.064  32.667  1.00  0.00     0.029 A 
ATOM     19  N   UNL A   1      38.791  31.641  32.774  1.00  0.00    -0.354 N 
ATOM     20  C   UNL A   1      39.703  29.107  29.316  1.00  0.00     0.074 A 
ATOM     21  C   UNL A   1      38.709  29.280  28.279  1.00  0.00     0.031 C 
ATOM     22  C   UNL A   1      37.569  33.138  33.908  1.00  0.00     0.029 A 
ATOM     23  C   UNL A   1      38.693  32.217  34.014  1.00  0.00     0.049 A 
ATOM     24  H   UNL A   1      39.475  30.973  32.539  1.00  0.00     0.167 HD
ATOM     25  C   UNL A   1      40.755  28.256  29.255  1.00  0.00     0.037 A 
ATOM     26  C   UNL A   1      39.446  32.025  35.110  1.00  0.00     0.037 A 
ATOM     27  C   UNL A   1      41.700  28.088  30.332  1.00  0.00     0.049 A 
ATOM     28  C   UNL A   1      40.608  31.082  35.008  1.00  0.00     0.074 A 
ATOM     29  C   UNL A   1      42.826  27.286  30.378  1.00  0.00     0.029 A 
ATOM     30  N   UNL A   1      41.614  28.730  31.561  1.00  0.00    -0.354 N 
ATOM     31  N   UNL A   1      40.978  30.338  33.993  1.00  0.00    -0.248 NA
ATOM     32  C   UNL A   1      41.477  30.976  36.183  1.00  0.00     0.031 C 
ATOM     33  C   UNL A   1      43.400  27.415  31.646  1.00  0.00     0.029 A 
ATOM     34  C   UNL A   1      42.665  28.339  32.372  1.00  0.00     0.049 A 
ATOM     35  H   UNL A   1      40.910  29.369  31.817  1.00  0.00     0.167 HD
ATOM     36  C   UNL A   1      42.145  29.705  34.390  1.00  0.00     0.074 A 
ATOM     37  C   UNL A   1      42.425  30.164  35.737  1.00  0.00     0.031 C 
ATOM     38  C   UNL A   1      42.917  28.828  33.705  1.00  0.00     0.037 A 
BRANCH  25  39
ATOM     39  C   UNL A   1      40.983  27.484  27.989  1.00  0.00     0.064 A 
ATOM     40  C   UNL A   1      41.845  27.973  26.994  1.00  0.00     0.173 A 
ATOM     41  C   UNL A   1      40.458  26.193  27.819  1.00  0.00     0.173 A 
ATOM     42  F   UNL A   1      42.372  29.202  27.101  1.00  0.00    -0.203 F 
ATOM     43  C   UNL A   1      42.177  27.199  25.885  1.00  0.00     0.198 A 
ATOM     44  C   UNL A   1      40.812  25.412  26.721  1.00  0.00     0.198 A 
ATOM     45  F   UNL A   1      39.635  25.672  28.742  1.00  0.00    -0.203 F 
ATOM     46  F   UNL A   1      43.000  27.692  24.948  1.00  0.00    -0.200 F 
ATOM     47  C   UNL A   1      41.674  25.914  25.756  1.00  0.00     0.200 A 
ATOM     48  F   UNL A   1      40.338  24.164  26.606  1.00  0.00    -0.200 F 
ATOM     49  F   UNL A   1      42.024  25.157  24.708  1.00  0.00    -0.200 F 
ENDBRANCH  25  39
BRANCH  26  50
ATOM     50  C   UNL A   1      39.176  32.821  36.333  1.00  0.00     0.064 A 
ATOM     51  C   UNL A   1      38.369  32.299  37.353  1.00  0.00     0.173 A 
ATOM     52  C   UNL A   1      39.759  34.079  36.538  1.00  0.00     0.173 A 
ATOM     53  F   UNL A   1      37.791  31.099  37.202  1.00  0.00    -0.203 F 
ATOM     54  C   UNL A   1      38.138  33.016  38.524  1.00  0.00     0.198 A 
ATOM     55  C   UNL A   1      39.548  34.783  37.722  1.00  0.00     0.198 A 
ATOM     56  F   UNL A   1      40.559  34.610  35.602  1.00  0.00    -0.203 F 
ATOM     57  F   UNL A   1      37.335  32.507  39.469  1.00  0.00    -0.200 F 
ATOM     58  C   UNL A   1      38.733  34.254  38.711  1.00  0.00     0.200 A 
ATOM     59  F   UNL A   1      40.146  35.968  37.911  1.00  0.00    -0.200 F 
ATOM     60  F   UNL A   1      38.520  34.937  39.844  1.00  0.00    -0.200 F 
ENDBRANCH  26  50
BRANCH  38  61
ATOM     61  C   UNL A   1      44.159  28.342  34.389  1.00  0.00     0.064 A 
ATOM     62  C   UNL A   1      44.161  27.176  35.167  1.00  0.00     0.173 A 
ATOM     63  C   UNL A   1      45.369  29.035  34.230  1.00  0.00     0.173 A 
ATOM     64  F   UNL A   1      43.025  26.489  35.359  1.00  0.00    -0.203 F 
ATOM     65  C   UNL A   1      45.327  26.736  35.785  1.00  0.00     0.198 A 
ATOM     66  C   UNL A   1      46.538  28.573  34.823  1.00  0.00     0.198 A 
ATOM     67  F   UNL A   1      45.417  30.152  33.487  1.00  0.00    -0.203 F 
ATOM     68  F   UNL A   1      45.297  25.648  36.567  1.00  0.00    -0.200 F 
ATOM     69  C   UNL A   1      46.515  27.429  35.606  1.00  0.00     0.200 A 
ATOM     70  F   UNL A   1      47.688  29.235  34.636  1.00  0.00    -0.200 F 
ATOM     71  F   UNL A   1      47.639  26.999  36.197  1.00  0.00    -0.200 F 
ENDBRANCH  38  61
ENDBRANCH  12  13
ENDBRANCH   5   7
ENDBRANCH   4   5
ENDBRANCH   3   4
ENDBRANCH   2   3
ENDBRANCH   1   2
BRANCH   1  72
ATOM     72  C   UNL A   1      34.134  29.755  27.001  1.00  0.00     0.202 C 
BRANCH  72  73
ATOM     73  C   UNL A   1      33.894  28.726  25.890  1.00  0.00     0.261 C 
BRANCH  73  74
ATOM     74  O   UNL A   1      33.670  27.448  26.503  1.00  0.00    -0.459 OA
BRANCH  74  75
ATOM     75  C   UNL A   1      32.441  26.898  26.273  1.00  0.00     0.345 C 
ATOM     76  O   UNL A   1      31.445  27.067  26.954  1.00  0.00    -0.246 OA
BRANCH  75  77
ATOM     77  C   UNL A   1      32.500  26.243  24.954  1.00  0.00     0.141 A 
ATOM     78  C   UNL A   1      33.148  25.076  24.824  1.00  0.00     0.112 A 
ATOM     79  C   UNL A   1      31.921  26.834  23.731  1.00  0.00     0.268 A 
ATOM     80  N   UNL A   1      33.317  24.453  23.604  1.00  0.00    -0.299 N 
ATOM     81  N   UNL A   1      32.377  26.304  22.551  1.00  0.00    -0.273 N 
ATOM     82  O   UNL A   1      31.147  27.783  23.721  1.00  0.00    -0.268 OA
ATOM     83  C   UNL A   1      33.036  25.114  22.413  1.00  0.00     0.328 A 
ATOM     84  H   UNL A   1      32.214  26.825  21.731  1.00  0.00     0.175 HD
ATOM     85  O   UNL A   1      33.273  24.654  21.300  1.00  0.00    -0.248 OA
BRANCH  80  86
ATOM     86  C   UNL A   1      33.791  23.077  23.569  1.00  0.00     0.131 C 
BRANCH  86  87
ATOM     87  C   UNL A   1      33.448  22.247  24.830  1.00  0.00     0.025 C 
ATOM     88  C   UNL A   1      34.567  21.306  25.312  1.00  0.00     0.022 C 
ATOM     89  C   UNL A   1      32.174  21.396  24.737  1.00  0.00     0.142 C 
ATOM     90  C   UNL A   1      34.420  19.945  24.645  1.00  0.00     0.137 C 
ATOM     91  S   UNL A   1      32.676  19.715  24.392  1.00  0.00     0.150 S 
ATOM     92  O   UNL A   1      32.443  19.435  22.991  1.00  0.00    -0.229 OA
ATOM     93  O   UNL A   1      32.162  18.860  25.439  1.00  0.00    -0.229 OA
ENDBRANCH  86  87
ENDBRANCH  80  86
ENDBRANCH  75  77
ENDBRANCH  74  75
ENDBRANCH  73  74
ENDBRANCH  72  73
ENDBRANCH   1  72
TORSDOF 16
ENDMDL
