MODEL 1
REMARK VINA RESULT:     -10.7      0.000      0.000
REMARK SMILES C[NH2+]C[C@H](C)C(=O)N1CC[C@@](C(=O)OCCOCCOC(=O)c2ccc(-c3c4nc(c(-c5c(F)c(F)c(F)c(F)c5F)c5ccc([nH]5)c(-c5c(F)c(F)c(F)c(F)c5F)c5nc(c(-c6c(F)c(F)c(F)c(F)c6F)c6ccc3[nH]6)C=C5)C=C4)cc2)(C(F)(F)F)C1
REMARK SMILES IDX 16 1 15 2 14 3 12 4 13 5 11 6 8 7 9 8 90 9 10 10 6 11 7 12
REMARK SMILES IDX 4 13 5 14 3 15 2 16 1 17 86 20 87 21 88 22 89 23 17 24 18 25
REMARK SMILES IDX 19 26 20 27 21 28 22 29 23 30 24 31 85 32 25 33 84 34 26 35
REMARK SMILES IDX 27 36 28 37 78 38 29 39 83 40 77 41 79 42 30 43 82 44 76 45
REMARK SMILES IDX 75 46 31 48 63 49 43 50 62 51 44 52 47 53 61 54 80 55 45 56
REMARK SMILES IDX 46 57 60 59 81 60 48 61 32 62 33 63 41 64 34 65 35 66 39 67
REMARK SMILES IDX 42 68 36 69 37 70 40 71 38 72 64 73 65 74 73 75 66 76 67 77
REMARK SMILES IDX 71 78 74 79 68 80 69 81 72 82 70 83 49 84 50 85 58 86 51 87
REMARK SMILES IDX 52 88 56 89 59 90 53 91 54 92 57 93 55 94
REMARK H PARENT 2 18 2 19 79 47 47 58
REMARK Flexibility Score: inf
ROOT
ATOM      1  C   UNL A   1      36.194  21.092  25.395  1.00  0.00     0.202 C 
ENDROOT
BRANCH   1   2
ATOM      2  C   UNL A   1      34.947  20.454  24.779  1.00  0.00     0.261 C 
BRANCH   2   3
ATOM      3  O   UNL A   1      33.950  21.465  24.544  1.00  0.00    -0.463 OA
BRANCH   3   4
ATOM      4  C   UNL A   1      32.897  21.506  25.401  1.00  0.00     0.323 C 
ATOM      5  O   UNL A   1      32.018  20.657  25.437  1.00  0.00    -0.251 OA
BRANCH   4   6
ATOM      6  C   UNL A   1      32.916  22.737  26.276  1.00  0.00     0.182 C 
ATOM      7  N   UNL A   1      31.522  24.656  26.101  1.00  0.00    -0.341 N 
ATOM      8  C   UNL A   1      32.878  25.155  26.117  1.00  0.00     0.121 C 
ATOM      9  C   UNL A   1      31.487  23.240  26.439  1.00  0.00     0.148 C 
ATOM     10  C   UNL A   1      33.699  23.949  25.713  1.00  0.00     0.052 C 
BRANCH   7  11
ATOM     11  C   UNL A   1      30.347  25.339  25.908  1.00  0.00     0.231 C 
ATOM     12  O   UNL A   1      29.380  25.132  26.648  1.00  0.00    -0.274 OA
BRANCH  11  13
ATOM     13  C   UNL A   1      30.176  26.236  24.686  1.00  0.00     0.130 C 
ATOM     14  C   UNL A   1      30.910  27.572  24.787  1.00  0.00     0.024 C 
BRANCH  13  15
ATOM     15  C   UNL A   1      30.497  25.480  23.378  1.00  0.00     0.273 C 
BRANCH  15  16
ATOM     16  N   UNL A   1      31.580  26.023  22.545  1.00  0.00    -0.348 N 
ATOM     17  C   UNL A   1      32.651  25.061  22.316  1.00  0.00     0.330 C 
ATOM     18  H   UNL A   1      31.190  26.297  21.643  1.00  0.00     0.346 HD
ATOM     19  H   UNL A   1      31.981  26.818  23.042  1.00  0.00     0.346 HD
ENDBRANCH  15  16
ENDBRANCH  13  15
ENDBRANCH  11  13
ENDBRANCH   7  11
BRANCH   6  20
ATOM     20  C   UNL A   1      33.497  22.302  27.598  1.00  0.00     0.406 C 
ATOM     21  F   UNL A   1      34.676  22.933  27.829  1.00  0.00    -0.170 F 
ATOM     22  F   UNL A   1      32.703  22.566  28.652  1.00  0.00    -0.170 F 
ATOM     23  F   UNL A   1      33.768  20.976  27.596  1.00  0.00    -0.170 F 
ENDBRANCH   6  20
ENDBRANCH   4   6
ENDBRANCH   3   4
ENDBRANCH   2   3
ENDBRANCH   1   2
BRANCH   1  24
ATOM     24  O   UNL A   1      37.429  20.778  24.750  1.00  0.00    -0.374 OA
BRANCH  24  25
ATOM     25  C   UNL A   1      37.957  19.466  24.937  1.00  0.00     0.202 C 
BRANCH  25  26
ATOM     26  C   UNL A   1      39.342  19.375  25.588  1.00  0.00     0.261 C 
BRANCH  26  27
ATOM     27  O   UNL A   1      39.860  20.670  25.949  1.00  0.00    -0.460 OA
BRANCH  27  28
ATOM     28  C   UNL A   1      40.664  20.668  27.038  1.00  0.00     0.338 C 
ATOM     29  O   UNL A   1      41.250  19.707  27.527  1.00  0.00    -0.246 OA
BRANCH  28  30
ATOM     30  C   UNL A   1      40.897  22.042  27.513  1.00  0.00     0.060 A 
ATOM     31  C   UNL A   1      40.139  23.063  26.925  1.00  0.00     0.016 A 
ATOM     32  C   UNL A   1      41.898  22.343  28.438  1.00  0.00     0.016 A 
ATOM     33  C   UNL A   1      40.416  24.396  27.219  1.00  0.00     0.010 A 
ATOM     34  C   UNL A   1      42.182  23.683  28.725  1.00  0.00     0.010 A 
ATOM     35  C   UNL A   1      41.468  24.714  28.088  1.00  0.00    -0.014 A 
BRANCH  35  36
ATOM     36  C   UNL A   1      41.920  26.123  28.201  1.00  0.00     0.031 A 
ATOM     37  C   UNL A   1      43.256  26.504  27.624  1.00  0.00     0.074 A 
ATOM     38  C   UNL A   1      41.144  27.053  28.781  1.00  0.00     0.049 A 
ATOM     39  N   UNL A   1      43.872  27.659  27.645  1.00  0.00    -0.248 NA
ATOM     40  C   UNL A   1      43.997  25.439  26.930  1.00  0.00     0.031 C 
ATOM     41  C   UNL A   1      39.815  26.815  29.338  1.00  0.00     0.029 A 
ATOM     42  N   UNL A   1      41.370  28.389  29.003  1.00  0.00    -0.354 N 
ATOM     43  C   UNL A   1      45.073  27.458  26.979  1.00  0.00     0.074 A 
ATOM     44  C   UNL A   1      45.112  26.067  26.584  1.00  0.00     0.031 C 
ATOM     45  C   UNL A   1      39.346  27.965  29.853  1.00  0.00     0.029 A 
ATOM     46  C   UNL A   1      40.357  29.010  29.689  1.00  0.00     0.049 A 
ATOM     47  H   UNL A   1      42.182  28.856  28.701  1.00  0.00     0.167 HD
ATOM     48  C   UNL A   1      46.053  28.355  26.714  1.00  0.00     0.037 A 
ATOM     49  C   UNL A   1      40.268  30.271  30.153  1.00  0.00     0.037 A 
ATOM     50  C   UNL A   1      46.010  29.740  27.102  1.00  0.00     0.049 A 
ATOM     51  C   UNL A   1      41.399  31.235  29.901  1.00  0.00     0.074 A 
ATOM     52  C   UNL A   1      46.944  30.733  26.862  1.00  0.00     0.029 A 
ATOM     53  N   UNL A   1      44.977  30.326  27.816  1.00  0.00    -0.354 N 
ATOM     54  N   UNL A   1      42.522  31.043  29.253  1.00  0.00    -0.248 NA
ATOM     55  C   UNL A   1      41.249  32.592  30.446  1.00  0.00     0.031 C 
ATOM     56  C   UNL A   1      46.497  31.909  27.472  1.00  0.00     0.029 A 
ATOM     57  C   UNL A   1      45.262  31.662  28.049  1.00  0.00     0.049 A 
ATOM     58  H   UNL A   1      44.162  29.863  28.115  1.00  0.00     0.167 HD
ATOM     59  C   UNL A   1      43.198  32.255  29.288  1.00  0.00     0.074 A 
ATOM     60  C   UNL A   1      42.356  33.182  30.015  1.00  0.00     0.031 C 
ATOM     61  C   UNL A   1      44.407  32.573  28.764  1.00  0.00     0.037 A 
BRANCH  48  62
ATOM     62  C   UNL A   1      47.270  27.858  25.992  1.00  0.00     0.064 A 
ATOM     63  C   UNL A   1      48.419  27.443  26.682  1.00  0.00     0.173 A 
ATOM     64  C   UNL A   1      47.273  27.763  24.593  1.00  0.00     0.173 A 
ATOM     65  F   UNL A   1      48.470  27.529  28.020  1.00  0.00    -0.203 F 
ATOM     66  C   UNL A   1      49.535  26.973  25.994  1.00  0.00     0.198 A 
ATOM     67  C   UNL A   1      48.380  27.267  23.910  1.00  0.00     0.198 A 
ATOM     68  F   UNL A   1      46.197  28.143  23.887  1.00  0.00    -0.203 F 
ATOM     69  F   UNL A   1      50.637  26.622  26.671  1.00  0.00    -0.200 F 
ATOM     70  C   UNL A   1      49.512  26.879  24.611  1.00  0.00     0.200 A 
ATOM     71  F   UNL A   1      48.353  27.168  22.573  1.00  0.00    -0.200 F 
ATOM     72  F   UNL A   1      50.585  26.420  23.951  1.00  0.00    -0.200 F 
ENDBRANCH  48  62
BRANCH  49  73
ATOM     73  C   UNL A   1      39.068  30.695  30.919  1.00  0.00     0.064 A 
ATOM     74  C   UNL A   1      38.994  30.520  32.308  1.00  0.00     0.173 A 
ATOM     75  C   UNL A   1      37.962  31.271  30.274  1.00  0.00     0.173 A 
ATOM     76  F   UNL A   1      40.014  29.948  32.964  1.00  0.00    -0.203 F 
ATOM     77  C   UNL A   1      37.857  30.891  33.020  1.00  0.00     0.198 A 
ATOM     78  C   UNL A   1      36.837  31.667  30.992  1.00  0.00     0.198 A 
ATOM     79  F   UNL A   1      37.980  31.454  28.946  1.00  0.00    -0.203 F 
ATOM     80  F   UNL A   1      37.795  30.673  34.341  1.00  0.00    -0.200 F 
ATOM     81  C   UNL A   1      36.782  31.471  32.364  1.00  0.00     0.200 A 
ATOM     82  F   UNL A   1      35.804  32.233  30.354  1.00  0.00    -0.200 F 
ATOM     83  F   UNL A   1      35.688  31.830  33.050  1.00  0.00    -0.200 F 
ENDBRANCH  49  73
BRANCH  61  84
ATOM     84  C   UNL A   1      44.880  33.989  28.922  1.00  0.00     0.064 A 
ATOM     85  C   UNL A   1      44.544  34.985  27.995  1.00  0.00     0.173 A 
ATOM     86  C   UNL A   1      45.633  34.363  30.046  1.00  0.00     0.173 A 
ATOM     87  F   UNL A   1      43.837  34.675  26.897  1.00  0.00    -0.203 F 
ATOM     88  C   UNL A   1      44.960  36.301  28.177  1.00  0.00     0.198 A 
ATOM     89  C   UNL A   1      46.024  35.684  30.239  1.00  0.00     0.198 A 
ATOM     90  F   UNL A   1      45.974  33.448  30.966  1.00  0.00    -0.203 F 
ATOM     91  F   UNL A   1      44.660  37.231  27.260  1.00  0.00    -0.200 F 
ATOM     92  C   UNL A   1      45.692  36.651  29.303  1.00  0.00     0.200 A 
ATOM     93  F   UNL A   1      46.721  36.023  31.333  1.00  0.00    -0.200 F 
ATOM     94  F   UNL A   1      46.083  37.920  29.481  1.00  0.00    -0.200 F 
ENDBRANCH  61  84
ENDBRANCH  35  36
ENDBRANCH  28  30
ENDBRANCH  27  28
ENDBRANCH  26  27
ENDBRANCH  25  26
ENDBRANCH  24  25
ENDBRANCH   1  24
TORSDOF 19
ENDMDL
MODEL 2
REMARK VINA RESULT:     -10.6      4.514     10.232
REMARK SMILES C[NH2+]C[C@H](C)C(=O)N1CC[C@@](C(=O)OCCOCCOC(=O)c2ccc(-c3c4nc(c(-c5c(F)c(F)c(F)c(F)c5F)c5ccc([nH]5)c(-c5c(F)c(F)c(F)c(F)c5F)c5nc(c(-c6c(F)c(F)c(F)c(F)c6F)c6ccc3[nH]6)C=C5)C=C4)cc2)(C(F)(F)F)C1
REMARK SMILES IDX 16 1 15 2 14 3 12 4 13 5 11 6 8 7 9 8 90 9 10 10 6 11 7 12
REMARK SMILES IDX 4 13 5 14 3 15 2 16 1 17 86 20 87 21 88 22 89 23 17 24 18 25
REMARK SMILES IDX 19 26 20 27 21 28 22 29 23 30 24 31 85 32 25 33 84 34 26 35
REMARK SMILES IDX 27 36 28 37 78 38 29 39 83 40 77 41 79 42 30 43 82 44 76 45
REMARK SMILES IDX 75 46 31 48 63 49 43 50 62 51 44 52 47 53 61 54 80 55 45 56
REMARK SMILES IDX 46 57 60 59 81 60 48 61 32 62 33 63 41 64 34 65 35 66 39 67
REMARK SMILES IDX 42 68 36 69 37 70 40 71 38 72 64 73 65 74 73 75 66 76 67 77
REMARK SMILES IDX 71 78 74 79 68 80 69 81 72 82 70 83 49 84 50 85 58 86 51 87
REMARK SMILES IDX 52 88 56 89 59 90 53 91 54 92 57 93 55 94
REMARK H PARENT 2 18 2 19 79 47 47 58
REMARK Flexibility Score: inf
ROOT
ATOM      1  C   UNL A   1      33.038  29.958  26.122  1.00  0.00     0.202 C 
ENDROOT
BRANCH   1   2
ATOM      2  C   UNL A   1      33.154  28.435  26.026  1.00  0.00     0.261 C 
BRANCH   2   3
ATOM      3  O   UNL A   1      31.909  27.881  25.563  1.00  0.00    -0.463 OA
BRANCH   3   4
ATOM      4  C   UNL A   1      31.716  26.550  25.753  1.00  0.00     0.323 C 
ATOM      5  O   UNL A   1      31.713  26.015  26.854  1.00  0.00    -0.251 OA
BRANCH   4   6
ATOM      6  C   UNL A   1      31.546  25.802  24.453  1.00  0.00     0.182 C 
ATOM      7  N   UNL A   1      32.835  23.969  23.659  1.00  0.00    -0.341 N 
ATOM      8  C   UNL A   1      32.844  24.945  22.594  1.00  0.00     0.121 C 
ATOM      9  C   UNL A   1      31.872  24.333  24.689  1.00  0.00     0.148 C 
ATOM     10  C   UNL A   1      32.486  26.236  23.300  1.00  0.00     0.052 C 
BRANCH   7  11
ATOM     11  C   UNL A   1      33.516  22.780  23.753  1.00  0.00     0.231 C 
ATOM     12  O   UNL A   1      32.968  21.723  23.424  1.00  0.00    -0.274 OA
BRANCH  11  13
ATOM     13  C   UNL A   1      34.891  22.736  24.412  1.00  0.00     0.130 C 
ATOM     14  C   UNL A   1      35.322  24.060  25.042  1.00  0.00     0.024 C 
BRANCH  13  15
ATOM     15  C   UNL A   1      35.013  21.547  25.390  1.00  0.00     0.273 C 
BRANCH  15  16
ATOM     16  N   UNL A   1      33.850  21.265  26.243  1.00  0.00    -0.348 N 
ATOM     17  C   UNL A   1      34.029  21.733  27.612  1.00  0.00     0.330 C 
ATOM     18  H   UNL A   1      33.033  21.728  25.844  1.00  0.00     0.346 HD
ATOM     19  H   UNL A   1      33.732  20.252  26.278  1.00  0.00     0.346 HD
ENDBRANCH  15  16
ENDBRANCH  13  15
ENDBRANCH  11  13
ENDBRANCH   7  11
BRANCH   6  20
ATOM     20  C   UNL A   1      30.103  25.984  24.052  1.00  0.00     0.406 C 
ATOM     21  F   UNL A   1      29.325  26.170  25.148  1.00  0.00    -0.170 F 
ATOM     22  F   UNL A   1      29.893  27.040  23.244  1.00  0.00    -0.170 F 
ATOM     23  F   UNL A   1      29.629  24.878  23.432  1.00  0.00    -0.170 F 
ENDBRANCH   6  20
ENDBRANCH   4   6
ENDBRANCH   3   4
ENDBRANCH   2   3
ENDBRANCH   1   2
BRANCH   1  24
ATOM     24  O   UNL A   1      31.976  30.443  26.946  1.00  0.00    -0.374 OA
BRANCH  24  25
ATOM     25  C   UNL A   1      31.288  31.615  26.514  1.00  0.00     0.202 C 
BRANCH  25  26
ATOM     26  C   UNL A   1      31.962  32.956  26.826  1.00  0.00     0.261 C 
BRANCH  26  27
ATOM     27  O   UNL A   1      32.780  32.892  28.010  1.00  0.00    -0.460 OA
BRANCH  27  28
ATOM     28  C   UNL A   1      33.882  33.677  27.974  1.00  0.00     0.338 C 
ATOM     29  O   UNL A   1      33.923  34.894  27.818  1.00  0.00    -0.246 OA
BRANCH  28  30
ATOM     30  C   UNL A   1      35.085  32.899  28.311  1.00  0.00     0.060 A 
ATOM     31  C   UNL A   1      34.899  31.571  28.717  1.00  0.00     0.016 A 
ATOM     32  C   UNL A   1      36.357  33.475  28.327  1.00  0.00     0.016 A 
ATOM     33  C   UNL A   1      35.978  30.829  29.193  1.00  0.00     0.010 A 
ATOM     34  C   UNL A   1      37.437  32.732  28.815  1.00  0.00     0.010 A 
ATOM     35  C   UNL A   1      37.245  31.419  29.286  1.00  0.00    -0.014 A 
BRANCH  35  36
ATOM     36  C   UNL A   1      38.325  30.718  30.022  1.00  0.00     0.031 A 
ATOM     37  C   UNL A   1      38.557  31.060  31.468  1.00  0.00     0.074 A 
ATOM     38  C   UNL A   1      39.068  29.773  29.422  1.00  0.00     0.049 A 
ATOM     39  N   UNL A   1      39.468  30.610  32.293  1.00  0.00    -0.248 NA
ATOM     40  C   UNL A   1      37.638  32.042  32.064  1.00  0.00     0.031 C 
ATOM     41  C   UNL A   1      38.911  29.325  28.041  1.00  0.00     0.029 A 
ATOM     42  N   UNL A   1      40.113  29.023  29.904  1.00  0.00    -0.354 N 
ATOM     43  C   UNL A   1      39.239  31.259  33.499  1.00  0.00     0.074 A 
ATOM     44  C   UNL A   1      38.118  32.151  33.294  1.00  0.00     0.031 C 
ATOM     45  C   UNL A   1      39.837  28.387  27.780  1.00  0.00     0.029 A 
ATOM     46  C   UNL A   1      40.671  28.193  28.966  1.00  0.00     0.049 A 
ATOM     47  H   UNL A   1      40.432  29.078  30.834  1.00  0.00     0.167 HD
ATOM     48  C   UNL A   1      39.900  31.119  34.673  1.00  0.00     0.037 A 
ATOM     49  C   UNL A   1      41.747  27.387  29.048  1.00  0.00     0.037 A 
ATOM     50  C   UNL A   1      41.010  30.227  34.876  1.00  0.00     0.049 A 
ATOM     51  C   UNL A   1      42.505  27.295  30.347  1.00  0.00     0.074 A 
ATOM     52  C   UNL A   1      41.733  29.998  36.034  1.00  0.00     0.029 A 
ATOM     53  N   UNL A   1      41.562  29.418  33.894  1.00  0.00    -0.354 N 
ATOM     54  N   UNL A   1      42.270  27.897  31.489  1.00  0.00    -0.248 NA
ATOM     55  C   UNL A   1      43.680  26.412  30.370  1.00  0.00     0.031 C 
ATOM     56  C   UNL A   1      42.752  29.086  35.740  1.00  0.00     0.029 A 
ATOM     57  C   UNL A   1      42.632  28.709  34.413  1.00  0.00     0.049 A 
ATOM     58  H   UNL A   1      41.241  29.358  32.965  1.00  0.00     0.167 HD
ATOM     59  C   UNL A   1      43.246  27.446  32.368  1.00  0.00     0.074 A 
ATOM     60  C   UNL A   1      44.073  26.513  31.632  1.00  0.00     0.031 C 
ATOM     61  C   UNL A   1      43.438  27.775  33.669  1.00  0.00     0.037 A 
BRANCH  48  62
ATOM     62  C   UNL A   1      39.455  31.972  35.824  1.00  0.00     0.064 A 
ATOM     63  C   UNL A   1      40.020  33.232  36.068  1.00  0.00     0.173 A 
ATOM     64  C   UNL A   1      38.426  31.536  36.671  1.00  0.00     0.173 A 
ATOM     65  F   UNL A   1      41.017  33.687  35.294  1.00  0.00    -0.203 F 
ATOM     66  C   UNL A   1      39.585  34.015  37.135  1.00  0.00     0.198 A 
ATOM     67  C   UNL A   1      37.976  32.333  37.720  1.00  0.00     0.198 A 
ATOM     68  F   UNL A   1      37.852  30.339  36.477  1.00  0.00    -0.203 F 
ATOM     69  F   UNL A   1      40.167  35.198  37.376  1.00  0.00    -0.200 F 
ATOM     70  C   UNL A   1      38.559  33.569  37.955  1.00  0.00     0.200 A 
ATOM     71  F   UNL A   1      36.978  31.903  38.506  1.00  0.00    -0.200 F 
ATOM     72  F   UNL A   1      38.138  34.326  38.977  1.00  0.00    -0.200 F 
ENDBRANCH  48  62
BRANCH  49  73
ATOM     73  C   UNL A   1      42.184  26.612  27.859  1.00  0.00     0.064 A 
ATOM     74  C   UNL A   1      41.666  25.336  27.595  1.00  0.00     0.173 A 
ATOM     75  C   UNL A   1      43.141  27.126  26.970  1.00  0.00     0.173 A 
ATOM     76  F   UNL A   1      40.771  24.791  28.431  1.00  0.00    -0.203 F 
ATOM     77  C   UNL A   1      42.099  24.599  26.495  1.00  0.00     0.198 A 
ATOM     78  C   UNL A   1      43.552  26.398  25.857  1.00  0.00     0.198 A 
ATOM     79  F   UNL A   1      43.671  28.339  27.183  1.00  0.00    -0.203 F 
ATOM     80  F   UNL A   1      41.620  23.365  26.289  1.00  0.00    -0.200 F 
ATOM     81  C   UNL A   1      43.036  25.133  25.623  1.00  0.00     0.200 A 
ATOM     82  F   UNL A   1      44.452  26.922  25.013  1.00  0.00    -0.200 F 
ATOM     83  F   UNL A   1      43.450  24.424  24.563  1.00  0.00    -0.200 F 
ENDBRANCH  49  73
BRANCH  61  84
ATOM     84  C   UNL A   1      44.562  27.096  34.396  1.00  0.00     0.064 A 
ATOM     85  C   UNL A   1      44.397  25.842  35.000  1.00  0.00     0.173 A 
ATOM     86  C   UNL A   1      45.835  27.686  34.440  1.00  0.00     0.173 A 
ATOM     87  F   UNL A   1      43.196  25.244  34.998  1.00  0.00    -0.203 F 
ATOM     88  C   UNL A   1      45.461  25.211  35.638  1.00  0.00     0.198 A 
ATOM     89  C   UNL A   1      46.903  27.040  35.054  1.00  0.00     0.198 A 
ATOM     90  F   UNL A   1      46.046  28.882  33.870  1.00  0.00    -0.203 F 
ATOM     91  F   UNL A   1      45.273  24.029  36.242  1.00  0.00    -0.200 F 
ATOM     92  C   UNL A   1      46.715  25.805  35.657  1.00  0.00     0.200 A 
ATOM     93  F   UNL A   1      48.116  27.609  35.061  1.00  0.00    -0.200 F 
ATOM     94  F   UNL A   1      47.740  25.190  36.263  1.00  0.00    -0.200 F 
ENDBRANCH  61  84
ENDBRANCH  35  36
ENDBRANCH  28  30
ENDBRANCH  27  28
ENDBRANCH  26  27
ENDBRANCH  25  26
ENDBRANCH  24  25
ENDBRANCH   1  24
TORSDOF 19
ENDMDL
MODEL 3
REMARK VINA RESULT:     -10.5      1.441      2.360
REMARK SMILES C[NH2+]C[C@H](C)C(=O)N1CC[C@@](C(=O)OCCOCCOC(=O)c2ccc(-c3c4nc(c(-c5c(F)c(F)c(F)c(F)c5F)c5ccc([nH]5)c(-c5c(F)c(F)c(F)c(F)c5F)c5nc(c(-c6c(F)c(F)c(F)c(F)c6F)c6ccc3[nH]6)C=C5)C=C4)cc2)(C(F)(F)F)C1
REMARK SMILES IDX 16 1 15 2 14 3 12 4 13 5 11 6 8 7 9 8 90 9 10 10 6 11 7 12
REMARK SMILES IDX 4 13 5 14 3 15 2 16 1 17 86 20 87 21 88 22 89 23 17 24 18 25
REMARK SMILES IDX 19 26 20 27 21 28 22 29 23 30 24 31 85 32 25 33 84 34 26 35
REMARK SMILES IDX 27 36 28 37 78 38 29 39 83 40 77 41 79 42 30 43 82 44 76 45
REMARK SMILES IDX 75 46 31 48 63 49 43 50 62 51 44 52 47 53 61 54 80 55 45 56
REMARK SMILES IDX 46 57 60 59 81 60 48 61 32 62 33 63 41 64 34 65 35 66 39 67
REMARK SMILES IDX 42 68 36 69 37 70 40 71 38 72 64 73 65 74 73 75 66 76 67 77
REMARK SMILES IDX 71 78 74 79 68 80 69 81 72 82 70 83 49 84 50 85 58 86 51 87
REMARK SMILES IDX 52 88 56 89 59 90 53 91 54 92 57 93 55 94
REMARK H PARENT 2 18 2 19 79 47 47 58
REMARK Flexibility Score: inf
ROOT
ATOM      1  C   UNL A   1      36.253  22.057  24.816  1.00  0.00     0.202 C 
ENDROOT
BRANCH   1   2
ATOM      2  C   UNL A   1      35.685  22.972  23.727  1.00  0.00     0.261 C 
BRANCH   2   3
ATOM      3  O   UNL A   1      34.699  23.851  24.298  1.00  0.00    -0.463 OA
BRANCH   3   4
ATOM      4  C   UNL A   1      33.621  24.152  23.529  1.00  0.00     0.323 C 
ATOM      5  O   UNL A   1      33.664  24.255  22.311  1.00  0.00    -0.251 OA
BRANCH   4   6
ATOM      6  C   UNL A   1      32.375  24.383  24.350  1.00  0.00     0.182 C 
ATOM      7  N   UNL A   1      31.479  26.466  25.065  1.00  0.00    -0.341 N 
ATOM      8  C   UNL A   1      31.591  25.658  26.257  1.00  0.00     0.121 C 
ATOM      9  C   UNL A   1      31.706  25.664  23.870  1.00  0.00     0.148 C 
ATOM     10  C   UNL A   1      32.602  24.600  25.868  1.00  0.00     0.052 C 
BRANCH   7  11
ATOM     11  C   UNL A   1      31.120  27.786  24.940  1.00  0.00     0.231 C 
ATOM     12  O   UNL A   1      30.396  28.146  24.006  1.00  0.00    -0.274 OA
BRANCH  11  13
ATOM     13  C   UNL A   1      31.739  28.837  25.856  1.00  0.00     0.130 C 
ATOM     14  C   UNL A   1      31.759  28.443  27.331  1.00  0.00     0.024 C 
BRANCH  13  15
ATOM     15  C   UNL A   1      33.124  29.289  25.344  1.00  0.00     0.273 C 
BRANCH  15  16
ATOM     16  N   UNL A   1      33.242  29.577  23.908  1.00  0.00    -0.348 N 
ATOM     17  C   UNL A   1      34.002  28.561  23.190  1.00  0.00     0.330 C 
ATOM     18  H   UNL A   1      32.305  29.626  23.508  1.00  0.00     0.346 HD
ATOM     19  H   UNL A   1      33.743  30.460  23.811  1.00  0.00     0.346 HD
ENDBRANCH  15  16
ENDBRANCH  13  15
ENDBRANCH  11  13
ENDBRANCH   7  11
BRANCH   6  20
ATOM     20  C   UNL A   1      31.491  23.184  24.116  1.00  0.00     0.406 C 
ATOM     21  F   UNL A   1      30.709  22.951  25.200  1.00  0.00    -0.170 F 
ATOM     22  F   UNL A   1      30.664  23.317  23.063  1.00  0.00    -0.170 F 
ATOM     23  F   UNL A   1      32.230  22.064  23.932  1.00  0.00    -0.170 F 
ENDBRANCH   6  20
ENDBRANCH   4   6
ENDBRANCH   3   4
ENDBRANCH   2   3
ENDBRANCH   1   2
BRANCH   1  24
ATOM     24  O   UNL A   1      37.423  21.322  24.453  1.00  0.00    -0.374 OA
BRANCH  24  25
ATOM     25  C   UNL A   1      37.534  19.981  24.928  1.00  0.00     0.202 C 
BRANCH  25  26
ATOM     26  C   UNL A   1      38.905  19.561  25.468  1.00  0.00     0.261 C 
BRANCH  26  27
ATOM     27  O   UNL A   1      39.767  20.690  25.704  1.00  0.00    -0.460 OA
BRANCH  27  28
ATOM     28  C   UNL A   1      40.420  20.659  26.890  1.00  0.00     0.338 C 
ATOM     29  O   UNL A   1      40.885  19.675  27.457  1.00  0.00    -0.246 OA
BRANCH  28  30
ATOM     30  C   UNL A   1      40.661  22.025  27.385  1.00  0.00     0.060 A 
ATOM     31  C   UNL A   1      39.949  23.065  26.774  1.00  0.00     0.016 A 
ATOM     32  C   UNL A   1      41.629  22.298  28.353  1.00  0.00     0.016 A 
ATOM     33  C   UNL A   1      40.241  24.390  27.090  1.00  0.00     0.010 A 
ATOM     34  C   UNL A   1      41.928  23.630  28.662  1.00  0.00     0.010 A 
ATOM     35  C   UNL A   1      41.262  24.681  28.004  1.00  0.00    -0.014 A 
BRANCH  35  36
ATOM     36  C   UNL A   1      41.738  26.079  28.146  1.00  0.00     0.031 A 
ATOM     37  C   UNL A   1      43.086  26.447  27.590  1.00  0.00     0.074 A 
ATOM     38  C   UNL A   1      40.972  27.012  28.735  1.00  0.00     0.049 A 
ATOM     39  N   UNL A   1      43.722  27.589  27.638  1.00  0.00    -0.248 NA
ATOM     40  C   UNL A   1      43.815  25.381  26.884  1.00  0.00     0.031 C 
ATOM     41  C   UNL A   1      39.633  26.789  29.274  1.00  0.00     0.029 A 
ATOM     42  N   UNL A   1      41.219  28.340  28.983  1.00  0.00    -0.354 N 
ATOM     43  C   UNL A   1      44.927  27.378  26.980  1.00  0.00     0.074 A 
ATOM     44  C   UNL A   1      44.945  25.994  26.561  1.00  0.00     0.031 C 
ATOM     45  C   UNL A   1      39.180  27.937  29.805  1.00  0.00     0.029 A 
ATOM     46  C   UNL A   1      40.210  28.966  29.670  1.00  0.00     0.049 A 
ATOM     47  H   UNL A   1      42.042  28.797  28.697  1.00  0.00     0.167 HD
ATOM     48  C   UNL A   1      45.925  28.262  26.741  1.00  0.00     0.037 A 
ATOM     49  C   UNL A   1      40.138  30.221  30.155  1.00  0.00     0.037 A 
ATOM     50  C   UNL A   1      45.903  29.641  27.153  1.00  0.00     0.049 A 
ATOM     51  C   UNL A   1      41.289  31.169  29.932  1.00  0.00     0.074 A 
ATOM     52  C   UNL A   1      46.856  30.621  26.940  1.00  0.00     0.029 A 
ATOM     53  N   UNL A   1      44.872  30.233  27.868  1.00  0.00    -0.354 N 
ATOM     54  N   UNL A   1      42.416  30.968  29.292  1.00  0.00    -0.248 NA
ATOM     55  C   UNL A   1      41.158  32.518  30.500  1.00  0.00     0.031 C 
ATOM     56  C   UNL A   1      46.424  31.794  27.567  1.00  0.00     0.029 A 
ATOM     57  C   UNL A   1      45.178  31.559  28.127  1.00  0.00     0.049 A 
ATOM     58  H   UNL A   1      44.046  29.779  28.150  1.00  0.00     0.167 HD
ATOM     59  C   UNL A   1      43.112  32.167  29.356  1.00  0.00     0.074 A 
ATOM     60  C   UNL A   1      42.279  33.096  30.090  1.00  0.00     0.031 C 
ATOM     61  C   UNL A   1      44.332  32.473  28.850  1.00  0.00     0.037 A 
BRANCH  48  62
ATOM     62  C   UNL A   1      47.140  27.757  26.023  1.00  0.00     0.064 A 
ATOM     63  C   UNL A   1      48.249  27.251  26.717  1.00  0.00     0.173 A 
ATOM     64  C   UNL A   1      47.181  27.747  24.621  1.00  0.00     0.173 A 
ATOM     65  F   UNL A   1      48.265  27.252  28.058  1.00  0.00    -0.203 F 
ATOM     66  C   UNL A   1      49.364  26.774  26.031  1.00  0.00     0.198 A 
ATOM     67  C   UNL A   1      48.286  27.245  23.939  1.00  0.00     0.198 A 
ATOM     68  F   UNL A   1      46.144  28.217  23.911  1.00  0.00    -0.203 F 
ATOM     69  F   UNL A   1      50.430  26.333  26.714  1.00  0.00    -0.200 F 
ATOM     70  C   UNL A   1      49.379  26.764  24.645  1.00  0.00     0.200 A 
ATOM     71  F   UNL A   1      48.293  27.228  22.599  1.00  0.00    -0.200 F 
ATOM     72  F   UNL A   1      50.449  26.300  23.987  1.00  0.00    -0.200 F 
ENDBRANCH  48  62
BRANCH  49  73
ATOM     73  C   UNL A   1      38.938  30.652  30.916  1.00  0.00     0.064 A 
ATOM     74  C   UNL A   1      37.830  31.214  30.266  1.00  0.00     0.173 A 
ATOM     75  C   UNL A   1      38.880  30.525  32.312  1.00  0.00     0.173 A 
ATOM     76  F   UNL A   1      37.850  31.383  28.935  1.00  0.00    -0.203 F 
ATOM     77  C   UNL A   1      36.717  31.645  30.984  1.00  0.00     0.198 A 
ATOM     78  C   UNL A   1      37.755  30.931  33.026  1.00  0.00     0.198 A 
ATOM     79  F   UNL A   1      39.916  30.000  32.982  1.00  0.00    -0.203 F 
ATOM     80  F   UNL A   1      35.690  32.218  30.343  1.00  0.00    -0.200 F 
ATOM     81  C   UNL A   1      36.677  31.497  32.362  1.00  0.00     0.200 A 
ATOM     82  F   UNL A   1      37.719  30.779  34.356  1.00  0.00    -0.200 F 
ATOM     83  F   UNL A   1      35.605  31.909  33.053  1.00  0.00    -0.200 F 
ENDBRANCH  49  73
BRANCH  61  84
ATOM     84  C   UNL A   1      44.828  33.877  29.038  1.00  0.00     0.064 A 
ATOM     85  C   UNL A   1      45.624  34.236  30.134  1.00  0.00     0.173 A 
ATOM     86  C   UNL A   1      44.548  34.861  28.077  1.00  0.00     0.173 A 
ATOM     87  F   UNL A   1      45.907  33.334  31.087  1.00  0.00    -0.203 F 
ATOM     88  C   UNL A   1      46.106  35.534  30.273  1.00  0.00     0.198 A 
ATOM     89  C   UNL A   1      45.054  36.151  28.204  1.00  0.00     0.198 A 
ATOM     90  F   UNL A   1      43.797  34.566  27.005  1.00  0.00    -0.203 F 
ATOM     91  F   UNL A   1      46.834  35.867  31.347  1.00  0.00    -0.200 F 
ATOM     92  C   UNL A   1      45.829  36.488  29.304  1.00  0.00     0.200 A 
ATOM     93  F   UNL A   1      44.796  37.068  27.261  1.00  0.00    -0.200 F 
ATOM     94  F   UNL A   1      46.303  37.734  29.434  1.00  0.00    -0.200 F 
ENDBRANCH  61  84
ENDBRANCH  35  36
ENDBRANCH  28  30
ENDBRANCH  27  28
ENDBRANCH  26  27
ENDBRANCH  25  26
ENDBRANCH  24  25
ENDBRANCH   1  24
TORSDOF 19
ENDMDL
