MODEL 1
REMARK VINA RESULT:     -11.3      0.000      0.000
REMARK SMILES Cc1cc(C(=O)N[C@H](CC(C)C)C(=O)OCCOCCOC(=O)c2ccc(-c3c4nc(c(-c5c(F)c(F)c(F)c(F)c5F)c5ccc([nH]5)c(-c5c(F)c(F)c(F)c(F)c5F)c5nc(c(-c6c(F)c(F)c(F)c(F)c6F)c6ccc3[nH]6)C=C5)C=C4)cc2)sc1Br
REMARK SMILES IDX 18 1 17 2 16 3 15 4 13 5 14 6 8 7 7 8 5 9 6 10 4 12 1 13
REMARK SMILES IDX 2 14 3 15 88 16 87 17 89 18 9 19 10 20 11 21 12 22 19 23
REMARK SMILES IDX 20 24 21 25 22 26 23 27 24 28 25 29 86 30 26 31 85 32 27 33
REMARK SMILES IDX 28 34 29 35 79 36 30 37 84 38 78 39 80 40 31 41 83 42 77 43
REMARK SMILES IDX 76 44 32 46 64 47 44 48 63 49 45 50 48 51 62 52 81 53 46 54
REMARK SMILES IDX 47 55 61 57 82 58 49 59 33 60 34 61 42 62 35 63 36 64 40 65
REMARK SMILES IDX 43 66 37 67 38 68 41 69 39 70 65 71 66 72 74 73 67 74 68 75
REMARK SMILES IDX 72 76 75 77 69 78 70 79 73 80 71 81 50 82 51 83 59 84 52 85
REMARK SMILES IDX 53 86 57 87 60 88 54 89 55 90 58 91 56 92
REMARK H PARENT 7 11 80 45 48 56
REMARK Flexibility Score: inf
ROOT
ATOM      1  O   UNL A   1      36.272  21.648  24.399  1.00  0.00    -0.374 OA
ENDROOT
BRANCH   1   2
ATOM      2  C   UNL A   1      35.937  20.401  25.004  1.00  0.00     0.202 C 
BRANCH   2   3
ATOM      3  C   UNL A   1      34.493  19.910  24.864  1.00  0.00     0.261 C 
BRANCH   3   4
ATOM      4  O   UNL A   1      33.606  20.826  24.178  1.00  0.00    -0.462 OA
BRANCH   4   5
ATOM      5  C   UNL A   1      32.631  21.365  24.963  1.00  0.00     0.328 C 
ATOM      6  O   UNL A   1      31.664  20.743  25.398  1.00  0.00    -0.250 OA
BRANCH   5   7
ATOM      7  C   UNL A   1      32.703  22.894  25.082  1.00  0.00     0.192 C 
BRANCH   7   8
ATOM      8  N   UNL A   1      31.735  23.214  26.147  1.00  0.00    -0.338 N 
ATOM      9  C   UNL A   1      30.690  24.076  26.360  1.00  0.00     0.262 C 
ATOM     10  O   UNL A   1      29.899  23.681  27.224  1.00  0.00    -0.268 OA
ATOM     11  H   UNL A   1      31.882  22.642  26.934  1.00  0.00     0.164 HD
BRANCH   9  12
ATOM     12  C   UNL A   1      30.573  25.390  25.746  1.00  0.00     0.093 A 
ATOM     13  C   UNL A   1      29.926  27.804  22.942  1.00  0.00     0.046 C 
ATOM     14  C   UNL A   1      30.315  27.184  24.240  1.00  0.00    -0.025 A 
ATOM     15  C   UNL A   1      29.814  25.919  24.719  1.00  0.00     0.030 A 
ATOM     16  C   UNL A   1      31.188  27.710  25.164  1.00  0.00     0.074 A 
ATOM     17  S   UNL A   1      31.562  26.643  26.418  1.00  0.00    -0.123 S 
ATOM     18  Br  UNL A   1      31.937  29.430  25.065  1.00  0.00    -0.039 Br
ENDBRANCH   9  12
ENDBRANCH   7   8
BRANCH   7  19
ATOM     19  C   UNL A   1      32.702  23.744  23.812  1.00  0.00     0.040 C 
BRANCH  19  20
ATOM     20  C   UNL A   1      33.949  24.626  23.571  1.00  0.00    -0.015 C 
ATOM     21  C   UNL A   1      33.632  25.953  22.889  1.00  0.00     0.007 C 
ATOM     22  C   UNL A   1      34.620  24.907  24.925  1.00  0.00     0.007 C 
ENDBRANCH  19  20
ENDBRANCH   7  19
ENDBRANCH   5   7
ENDBRANCH   4   5
ENDBRANCH   3   4
ENDBRANCH   2   3
ENDBRANCH   1   2
BRANCH   1  23
ATOM     23  C   UNL A   1      37.423  22.337  24.859  1.00  0.00     0.202 C 
BRANCH  23  24
ATOM     24  C   UNL A   1      38.483  21.521  25.585  1.00  0.00     0.261 C 
BRANCH  24  25
ATOM     25  O   UNL A   1      39.052  22.172  26.712  1.00  0.00    -0.460 OA
BRANCH  25  26
ATOM     26  C   UNL A   1      40.336  22.547  26.519  1.00  0.00     0.338 C 
ATOM     27  O   UNL A   1      41.275  21.820  26.203  1.00  0.00    -0.246 OA
BRANCH  26  28
ATOM     28  C   UNL A   1      40.487  23.936  26.964  1.00  0.00     0.060 A 
ATOM     29  C   UNL A   1      41.694  24.305  27.565  1.00  0.00     0.016 A 
ATOM     30  C   UNL A   1      39.388  24.808  26.952  1.00  0.00     0.016 A 
ATOM     31  C   UNL A   1      41.781  25.528  28.207  1.00  0.00     0.010 A 
ATOM     32  C   UNL A   1      39.473  26.016  27.607  1.00  0.00     0.010 A 
ATOM     33  C   UNL A   1      40.659  26.362  28.248  1.00  0.00    -0.014 A 
BRANCH  33  34
ATOM     34  C   UNL A   1      40.788  27.674  28.862  1.00  0.00     0.031 A 
ATOM     35  C   UNL A   1      41.886  28.509  28.318  1.00  0.00     0.074 A 
ATOM     36  C   UNL A   1      39.883  28.193  29.714  1.00  0.00     0.049 A 
ATOM     37  N   UNL A   1      42.869  29.045  28.961  1.00  0.00    -0.248 NA
ATOM     38  C   UNL A   1      41.921  28.732  26.864  1.00  0.00     0.031 C 
ATOM     39  C   UNL A   1      38.569  27.640  30.053  1.00  0.00     0.029 A 
ATOM     40  N   UNL A   1      39.907  29.391  30.370  1.00  0.00    -0.354 N 
ATOM     41  C   UNL A   1      43.560  29.807  28.025  1.00  0.00     0.074 A 
ATOM     42  C   UNL A   1      43.007  29.494  26.735  1.00  0.00     0.031 C 
ATOM     43  C   UNL A   1      37.846  28.586  30.689  1.00  0.00     0.029 A 
ATOM     44  C   UNL A   1      38.689  29.749  30.919  1.00  0.00     0.049 A 
ATOM     45  H   UNL A   1      40.716  29.947  30.443  1.00  0.00     0.167 HD
ATOM     46  C   UNL A   1      44.384  30.816  28.411  1.00  0.00     0.037 A 
ATOM     47  C   UNL A   1      38.369  30.931  31.493  1.00  0.00     0.037 A 
ATOM     48  C   UNL A   1      44.721  30.736  29.804  1.00  0.00     0.049 A 
ATOM     49  C   UNL A   1      39.613  31.606  31.929  1.00  0.00     0.074 A 
ATOM     50  C   UNL A   1      45.584  29.997  30.581  1.00  0.00     0.029 A 
ATOM     51  N   UNL A   1      43.836  31.350  30.644  1.00  0.00    -0.354 N 
ATOM     52  N   UNL A   1      40.389  31.163  32.880  1.00  0.00    -0.248 NA
ATOM     53  C   UNL A   1      40.171  32.689  31.125  1.00  0.00     0.031 C 
ATOM     54  C   UNL A   1      45.064  30.042  31.908  1.00  0.00     0.029 A 
ATOM     55  C   UNL A   1      43.893  30.796  31.896  1.00  0.00     0.049 A 
ATOM     56  H   UNL A   1      43.239  32.088  30.385  1.00  0.00     0.167 HD
ATOM     57  C   UNL A   1      41.647  31.612  32.532  1.00  0.00     0.074 A 
ATOM     58  C   UNL A   1      41.427  32.687  31.579  1.00  0.00     0.031 C 
ATOM     59  C   UNL A   1      42.751  30.854  32.781  1.00  0.00     0.037 A 
BRANCH  46  60
ATOM     60  C   UNL A   1      44.537  32.111  27.656  1.00  0.00     0.064 A 
ATOM     61  C   UNL A   1      45.700  32.330  26.892  1.00  0.00     0.173 A 
ATOM     62  C   UNL A   1      43.751  33.253  27.922  1.00  0.00     0.173 A 
ATOM     63  F   UNL A   1      46.533  31.316  26.615  1.00  0.00    -0.203 F 
ATOM     64  C   UNL A   1      46.074  33.610  26.474  1.00  0.00     0.198 A 
ATOM     65  C   UNL A   1      44.100  34.520  27.457  1.00  0.00     0.198 A 
ATOM     66  F   UNL A   1      42.689  33.204  28.737  1.00  0.00    -0.203 F 
ATOM     67  F   UNL A   1      47.246  33.790  25.850  1.00  0.00    -0.200 F 
ATOM     68  C   UNL A   1      45.275  34.703  26.758  1.00  0.00     0.200 A 
ATOM     69  F   UNL A   1      43.329  35.572  27.767  1.00  0.00    -0.200 F 
ATOM     70  F   UNL A   1      45.660  35.936  26.406  1.00  0.00    -0.200 F 
ENDBRANCH  46  60
BRANCH  47  71
ATOM     71  C   UNL A   1      37.044  31.585  31.552  1.00  0.00     0.064 A 
ATOM     72  C   UNL A   1      36.473  31.964  32.776  1.00  0.00     0.173 A 
ATOM     73  C   UNL A   1      36.417  32.070  30.388  1.00  0.00     0.173 A 
ATOM     74  F   UNL A   1      37.036  31.581  33.931  1.00  0.00    -0.203 F 
ATOM     75  C   UNL A   1      35.351  32.794  32.833  1.00  0.00     0.198 A 
ATOM     76  C   UNL A   1      35.288  32.886  30.446  1.00  0.00     0.198 A 
ATOM     77  F   UNL A   1      36.938  31.833  29.175  1.00  0.00    -0.203 F 
ATOM     78  F   UNL A   1      34.871  33.185  34.022  1.00  0.00    -0.200 F 
ATOM     79  C   UNL A   1      34.764  33.259  31.669  1.00  0.00     0.200 A 
ATOM     80  F   UNL A   1      34.748  33.352  29.311  1.00  0.00    -0.200 F 
ATOM     81  F   UNL A   1      33.719  34.097  31.723  1.00  0.00    -0.200 F 
ENDBRANCH  47  71
BRANCH  59  82
ATOM     82  C   UNL A   1      42.668  29.875  33.906  1.00  0.00     0.064 A 
ATOM     83  C   UNL A   1      42.117  28.589  33.792  1.00  0.00     0.173 A 
ATOM     84  C   UNL A   1      43.217  30.240  35.143  1.00  0.00     0.173 A 
ATOM     85  F   UNL A   1      41.653  28.140  32.618  1.00  0.00    -0.203 F 
ATOM     86  C   UNL A   1      42.067  27.731  34.889  1.00  0.00     0.198 A 
ATOM     87  C   UNL A   1      43.200  29.367  36.227  1.00  0.00     0.198 A 
ATOM     88  F   UNL A   1      43.800  31.440  35.292  1.00  0.00    -0.203 F 
ATOM     89  F   UNL A   1      41.506  26.518  34.767  1.00  0.00    -0.200 F 
ATOM     90  C   UNL A   1      42.610  28.119  36.103  1.00  0.00     0.200 A 
ATOM     91  F   UNL A   1      43.765  29.731  37.385  1.00  0.00    -0.200 F 
ATOM     92  F   UNL A   1      42.583  27.284  37.151  1.00  0.00    -0.200 F 
ENDBRANCH  59  82
ENDBRANCH  33  34
ENDBRANCH  26  28
ENDBRANCH  25  26
ENDBRANCH  24  25
ENDBRANCH  23  24
ENDBRANCH   1  23
TORSDOF 18
ENDMDL
MODEL 2
REMARK VINA RESULT:     -11.3      5.576     11.120
REMARK SMILES Cc1cc(C(=O)N[C@H](CC(C)C)C(=O)OCCOCCOC(=O)c2ccc(-c3c4nc(c(-c5c(F)c(F)c(F)c(F)c5F)c5ccc([nH]5)c(-c5c(F)c(F)c(F)c(F)c5F)c5nc(c(-c6c(F)c(F)c(F)c(F)c6F)c6ccc3[nH]6)C=C5)C=C4)cc2)sc1Br
REMARK SMILES IDX 18 1 17 2 16 3 15 4 13 5 14 6 8 7 7 8 5 9 6 10 4 12 1 13
REMARK SMILES IDX 2 14 3 15 88 16 87 17 89 18 9 19 10 20 11 21 12 22 19 23
REMARK SMILES IDX 20 24 21 25 22 26 23 27 24 28 25 29 86 30 26 31 85 32 27 33
REMARK SMILES IDX 28 34 29 35 79 36 30 37 84 38 78 39 80 40 31 41 83 42 77 43
REMARK SMILES IDX 76 44 32 46 64 47 44 48 63 49 45 50 48 51 62 52 81 53 46 54
REMARK SMILES IDX 47 55 61 57 82 58 49 59 33 60 34 61 42 62 35 63 36 64 40 65
REMARK SMILES IDX 43 66 37 67 38 68 41 69 39 70 65 71 66 72 74 73 67 74 68 75
REMARK SMILES IDX 72 76 75 77 69 78 70 79 73 80 71 81 50 82 51 83 59 84 52 85
REMARK SMILES IDX 53 86 57 87 60 88 54 89 55 90 58 91 56 92
REMARK H PARENT 7 11 80 45 48 56
REMARK Flexibility Score: inf
ROOT
ATOM      1  O   UNL A   1      33.864  33.899  30.558  1.00  0.00    -0.374 OA
ENDROOT
BRANCH   1   2
ATOM      2  C   UNL A   1      35.018  33.770  31.386  1.00  0.00     0.202 C 
BRANCH   2   3
ATOM      3  C   UNL A   1      35.166  32.479  32.197  1.00  0.00     0.261 C 
BRANCH   3   4
ATOM      4  O   UNL A   1      35.319  32.675  33.623  1.00  0.00    -0.462 OA
BRANCH   4   5
ATOM      5  C   UNL A   1      36.607  32.837  34.040  1.00  0.00     0.328 C 
ATOM      6  O   UNL A   1      37.020  33.816  34.658  1.00  0.00    -0.250 OA
BRANCH   5   7
ATOM      7  C   UNL A   1      37.580  31.795  33.470  1.00  0.00     0.192 C 
BRANCH   7   8
ATOM      8  N   UNL A   1      37.877  30.921  34.621  1.00  0.00    -0.338 N 
ATOM      9  C   UNL A   1      38.551  30.987  35.813  1.00  0.00     0.262 C 
ATOM     10  O   UNL A   1      38.156  30.160  36.644  1.00  0.00    -0.268 OA
ATOM     11  H   UNL A   1      37.476  30.031  34.495  1.00  0.00     0.164 HD
BRANCH   9  12
ATOM     12  C   UNL A   1      39.705  31.838  36.057  1.00  0.00     0.093 A 
ATOM     13  C   UNL A   1      43.363  32.691  36.136  1.00  0.00     0.046 C 
ATOM     14  C   UNL A   1      41.883  32.701  36.313  1.00  0.00    -0.025 A 
ATOM     15  C   UNL A   1      40.961  31.958  35.490  1.00  0.00     0.030 A 
ATOM     16  C   UNL A   1      41.183  33.407  37.264  1.00  0.00     0.074 A 
ATOM     17  S   UNL A   1      39.540  33.018  37.313  1.00  0.00    -0.123 S 
ATOM     18  Br  UNL A   1      41.942  34.666  38.432  1.00  0.00    -0.039 Br
ENDBRANCH   9  12
ENDBRANCH   7   8
BRANCH   7  19
ATOM     19  C   UNL A   1      38.735  32.256  32.582  1.00  0.00     0.040 C 
BRANCH  19  20
ATOM     20  C   UNL A   1      39.013  33.776  32.547  1.00  0.00    -0.015 C 
ATOM     21  C   UNL A   1      40.481  34.130  32.762  1.00  0.00     0.007 C 
ATOM     22  C   UNL A   1      38.560  34.326  31.185  1.00  0.00     0.007 C 
ENDBRANCH  19  20
ENDBRANCH   7  19
ENDBRANCH   5   7
ENDBRANCH   4   5
ENDBRANCH   3   4
ENDBRANCH   2   3
ENDBRANCH   1   2
BRANCH   1  23
ATOM     23  C   UNL A   1      33.974  34.639  29.353  1.00  0.00     0.202 C 
BRANCH  23  24
ATOM     24  C   UNL A   1      34.005  33.853  28.051  1.00  0.00     0.261 C 
BRANCH  24  25
ATOM     25  O   UNL A   1      35.152  33.029  27.891  1.00  0.00    -0.460 OA
BRANCH  25  26
ATOM     26  C   UNL A   1      34.882  31.711  28.012  1.00  0.00     0.338 C 
ATOM     27  O   UNL A   1      33.775  31.178  27.958  1.00  0.00    -0.246 OA
BRANCH  26  28
ATOM     28  C   UNL A   1      36.103  31.023  28.445  1.00  0.00     0.060 A 
ATOM     29  C   UNL A   1      37.159  31.801  28.926  1.00  0.00     0.016 A 
ATOM     30  C   UNL A   1      36.264  29.650  28.207  1.00  0.00     0.016 A 
ATOM     31  C   UNL A   1      38.397  31.213  29.114  1.00  0.00     0.010 A 
ATOM     32  C   UNL A   1      37.503  29.072  28.378  1.00  0.00     0.010 A 
ATOM     33  C   UNL A   1      38.567  29.858  28.810  1.00  0.00    -0.014 A 
BRANCH  33  34
ATOM     34  C   UNL A   1      39.854  29.239  29.082  1.00  0.00     0.031 A 
ATOM     35  C   UNL A   1      40.179  29.086  30.521  1.00  0.00     0.074 A 
ATOM     36  C   UNL A   1      40.621  28.662  28.138  1.00  0.00     0.049 A 
ATOM     37  N   UNL A   1      41.211  29.534  31.154  1.00  0.00    -0.248 NA
ATOM     38  C   UNL A   1      39.200  28.393  31.374  1.00  0.00     0.031 C 
ATOM     39  C   UNL A   1      40.261  28.408  26.740  1.00  0.00     0.029 A 
ATOM     40  N   UNL A   1      41.848  28.077  28.265  1.00  0.00    -0.354 N 
ATOM     41  C   UNL A   1      41.100  29.043  32.451  1.00  0.00     0.074 A 
ATOM     42  C   UNL A   1      39.797  28.444  32.565  1.00  0.00     0.031 C 
ATOM     43  C   UNL A   1      41.157  27.551  26.205  1.00  0.00     0.029 A 
ATOM     44  C   UNL A   1      42.217  27.313  27.172  1.00  0.00     0.049 A 
ATOM     45  H   UNL A   1      42.417  28.188  29.061  1.00  0.00     0.167 HD
ATOM     46  C   UNL A   1      42.183  28.961  33.266  1.00  0.00     0.037 A 
ATOM     47  C   UNL A   1      43.296  26.504  27.068  1.00  0.00     0.037 A 
ATOM     48  C   UNL A   1      43.282  29.751  32.787  1.00  0.00     0.049 A 
ATOM     49  C   UNL A   1      44.311  26.928  28.061  1.00  0.00     0.074 A 
ATOM     50  C   UNL A   1      43.628  31.084  32.786  1.00  0.00     0.029 A 
ATOM     51  N   UNL A   1      44.101  29.114  31.898  1.00  0.00    -0.354 N 
ATOM     52  N   UNL A   1      44.949  28.065  28.013  1.00  0.00    -0.248 NA
ATOM     53  C   UNL A   1      44.464  26.181  29.305  1.00  0.00     0.031 C 
ATOM     54  C   UNL A   1      44.562  31.252  31.720  1.00  0.00     0.029 A 
ATOM     55  C   UNL A   1      44.746  30.020  31.098  1.00  0.00     0.049 A 
ATOM     56  H   UNL A   1      44.212  28.138  31.841  1.00  0.00     0.167 HD
ATOM     57  C   UNL A   1      45.227  28.357  29.332  1.00  0.00     0.074 A 
ATOM     58  C   UNL A   1      45.089  27.099  30.046  1.00  0.00     0.031 C 
ATOM     59  C   UNL A   1      45.209  29.643  29.781  1.00  0.00     0.037 A 
BRANCH  46  60
ATOM     60  C   UNL A   1      42.412  27.843  34.250  1.00  0.00     0.064 A 
ATOM     61  C   UNL A   1      42.964  26.629  33.798  1.00  0.00     0.173 A 
ATOM     62  C   UNL A   1      41.812  27.808  35.527  1.00  0.00     0.173 A 
ATOM     63  F   UNL A   1      43.526  26.547  32.583  1.00  0.00    -0.203 F 
ATOM     64  C   UNL A   1      42.869  25.454  34.548  1.00  0.00     0.198 A 
ATOM     65  C   UNL A   1      41.767  26.646  36.295  1.00  0.00     0.198 A 
ATOM     66  F   UNL A   1      41.144  28.859  36.021  1.00  0.00    -0.203 F 
ATOM     67  F   UNL A   1      43.304  24.297  34.030  1.00  0.00    -0.200 F 
ATOM     68  C   UNL A   1      42.270  25.463  35.795  1.00  0.00     0.200 A 
ATOM     69  F   UNL A   1      41.156  26.668  37.489  1.00  0.00    -0.200 F 
ATOM     70  F   UNL A   1      42.130  24.328  36.490  1.00  0.00    -0.200 F 
ENDBRANCH  46  60
BRANCH  47  71
ATOM     71  C   UNL A   1      43.441  25.280  26.253  1.00  0.00     0.064 A 
ATOM     72  C   UNL A   1      44.514  25.120  25.362  1.00  0.00     0.173 A 
ATOM     73  C   UNL A   1      42.659  24.136  26.508  1.00  0.00     0.173 A 
ATOM     74  F   UNL A   1      45.332  26.149  25.101  1.00  0.00    -0.203 F 
ATOM     75  C   UNL A   1      44.799  23.885  24.776  1.00  0.00     0.198 A 
ATOM     76  C   UNL A   1      42.935  22.908  25.910  1.00  0.00     0.198 A 
ATOM     77  F   UNL A   1      41.666  24.168  27.408  1.00  0.00    -0.203 F 
ATOM     78  F   UNL A   1      45.868  23.757  23.978  1.00  0.00    -0.200 F 
ATOM     79  C   UNL A   1      44.013  22.779  25.055  1.00  0.00     0.200 A 
ATOM     80  F   UNL A   1      42.185  21.839  26.212  1.00  0.00    -0.200 F 
ATOM     81  F   UNL A   1      44.317  21.583  24.532  1.00  0.00    -0.200 F 
ENDBRANCH  47  71
BRANCH  59  82
ATOM     82  C   UNL A   1      45.470  30.720  28.779  1.00  0.00     0.064 A 
ATOM     83  C   UNL A   1      44.475  31.321  27.991  1.00  0.00     0.173 A 
ATOM     84  C   UNL A   1      46.780  31.198  28.648  1.00  0.00     0.173 A 
ATOM     85  F   UNL A   1      43.188  30.975  28.127  1.00  0.00    -0.203 F 
ATOM     86  C   UNL A   1      44.795  32.316  27.070  1.00  0.00     0.198 A 
ATOM     87  C   UNL A   1      47.091  32.219  27.754  1.00  0.00     0.198 A 
ATOM     88  F   UNL A   1      47.761  30.691  29.413  1.00  0.00    -0.203 F 
ATOM     89  F   UNL A   1      43.834  32.854  26.303  1.00  0.00    -0.200 F 
ATOM     90  C   UNL A   1      46.100  32.766  26.955  1.00  0.00     0.200 A 
ATOM     91  F   UNL A   1      48.346  32.680  27.678  1.00  0.00    -0.200 F 
ATOM     92  F   UNL A   1      46.402  33.741  26.086  1.00  0.00    -0.200 F 
ENDBRANCH  59  82
ENDBRANCH  33  34
ENDBRANCH  26  28
ENDBRANCH  25  26
ENDBRANCH  24  25
ENDBRANCH  23  24
ENDBRANCH   1  23
TORSDOF 18
ENDMDL
MODEL 3
REMARK VINA RESULT:     -11.2      3.755      9.034
REMARK SMILES Cc1cc(C(=O)N[C@H](CC(C)C)C(=O)OCCOCCOC(=O)c2ccc(-c3c4nc(c(-c5c(F)c(F)c(F)c(F)c5F)c5ccc([nH]5)c(-c5c(F)c(F)c(F)c(F)c5F)c5nc(c(-c6c(F)c(F)c(F)c(F)c6F)c6ccc3[nH]6)C=C5)C=C4)cc2)sc1Br
REMARK SMILES IDX 18 1 17 2 16 3 15 4 13 5 14 6 8 7 7 8 5 9 6 10 4 12 1 13
REMARK SMILES IDX 2 14 3 15 88 16 87 17 89 18 9 19 10 20 11 21 12 22 19 23
REMARK SMILES IDX 20 24 21 25 22 26 23 27 24 28 25 29 86 30 26 31 85 32 27 33
REMARK SMILES IDX 28 34 29 35 79 36 30 37 84 38 78 39 80 40 31 41 83 42 77 43
REMARK SMILES IDX 76 44 32 46 64 47 44 48 63 49 45 50 48 51 62 52 81 53 46 54
REMARK SMILES IDX 47 55 61 57 82 58 49 59 33 60 34 61 42 62 35 63 36 64 40 65
REMARK SMILES IDX 43 66 37 67 38 68 41 69 39 70 65 71 66 72 74 73 67 74 68 75
REMARK SMILES IDX 72 76 75 77 69 78 70 79 73 80 71 81 50 82 51 83 59 84 52 85
REMARK SMILES IDX 53 86 57 87 60 88 54 89 55 90 58 91 56 92
REMARK H PARENT 7 11 80 45 48 56
REMARK Flexibility Score: inf
ROOT
ATOM      1  O   UNL A   1      32.173  30.122  26.925  1.00  0.00    -0.374 OA
ENDROOT
BRANCH   1   2
ATOM      2  C   UNL A   1      31.769  29.054  26.071  1.00  0.00     0.202 C 
BRANCH   2   3
ATOM      3  C   UNL A   1      31.146  29.424  24.721  1.00  0.00     0.261 C 
BRANCH   3   4
ATOM      4  O   UNL A   1      31.890  28.968  23.566  1.00  0.00    -0.462 OA
BRANCH   4   5
ATOM      5  C   UNL A   1      31.254  28.022  22.818  1.00  0.00     0.328 C 
ATOM      6  O   UNL A   1      30.335  28.256  22.036  1.00  0.00    -0.250 OA
BRANCH   5   7
ATOM      7  C   UNL A   1      31.619  26.580  23.198  1.00  0.00     0.192 C 
BRANCH   7   8
ATOM      8  N   UNL A   1      32.443  26.113  22.069  1.00  0.00    -0.338 N 
ATOM      9  C   UNL A   1      32.915  24.929  21.562  1.00  0.00     0.262 C 
ATOM     10  O   UNL A   1      33.192  24.989  20.358  1.00  0.00    -0.268 OA
ATOM     11  H   UNL A   1      32.743  26.872  21.518  1.00  0.00     0.164 HD
BRANCH   9  12
ATOM     12  C   UNL A   1      33.201  23.750  22.364  1.00  0.00     0.093 A 
ATOM     13  C   UNL A   1      32.338  20.695  24.372  1.00  0.00     0.046 C 
ATOM     14  C   UNL A   1      33.051  21.834  23.727  1.00  0.00    -0.025 A 
ATOM     15  C   UNL A   1      32.577  22.531  22.557  1.00  0.00     0.030 A 
ATOM     16  C   UNL A   1      34.245  22.381  24.135  1.00  0.00     0.074 A 
ATOM     17  S   UNL A   1      34.654  23.793  23.305  1.00  0.00    -0.123 S 
ATOM     18  Br  UNL A   1      35.333  21.676  25.495  1.00  0.00    -0.039 Br
ENDBRANCH   9  12
ENDBRANCH   7   8
BRANCH   7  19
ATOM     19  C   UNL A   1      30.534  25.653  23.746  1.00  0.00     0.040 C 
BRANCH  19  20
ATOM     20  C   UNL A   1      30.809  25.010  25.126  1.00  0.00    -0.015 C 
ATOM     21  C   UNL A   1      32.203  25.307  25.667  1.00  0.00     0.007 C 
ATOM     22  C   UNL A   1      29.763  25.528  26.125  1.00  0.00     0.007 C 
ENDBRANCH  19  20
ENDBRANCH   7  19
ENDBRANCH   5   7
ENDBRANCH   4   5
ENDBRANCH   3   4
ENDBRANCH   2   3
ENDBRANCH   1   2
BRANCH   1  23
ATOM     23  C   UNL A   1      33.555  30.431  27.017  1.00  0.00     0.202 C 
BRANCH  23  24
ATOM     24  C   UNL A   1      33.942  31.681  27.793  1.00  0.00     0.261 C 
BRANCH  24  25
ATOM     25  O   UNL A   1      35.312  31.739  28.164  1.00  0.00    -0.460 OA
BRANCH  25  26
ATOM     26  C   UNL A   1      35.501  31.782  29.501  1.00  0.00     0.338 C 
ATOM     27  O   UNL A   1      34.912  32.502  30.305  1.00  0.00    -0.246 OA
BRANCH  26  28
ATOM     28  C   UNL A   1      36.689  30.987  29.829  1.00  0.00     0.060 A 
ATOM     29  C   UNL A   1      37.929  31.631  29.834  1.00  0.00     0.016 A 
ATOM     30  C   UNL A   1      36.596  29.593  29.951  1.00  0.00     0.016 A 
ATOM     31  C   UNL A   1      39.083  30.870  29.903  1.00  0.00     0.010 A 
ATOM     32  C   UNL A   1      37.747  28.837  30.000  1.00  0.00     0.010 A 
ATOM     33  C   UNL A   1      38.983  29.476  29.955  1.00  0.00    -0.014 A 
BRANCH  33  34
ATOM     34  C   UNL A   1      40.201  28.695  30.100  1.00  0.00     0.031 A 
ATOM     35  C   UNL A   1      40.696  28.568  31.492  1.00  0.00     0.074 A 
ATOM     36  C   UNL A   1      40.747  27.970  29.106  1.00  0.00     0.049 A 
ATOM     37  N   UNL A   1      41.856  28.896  31.955  1.00  0.00    -0.248 NA
ATOM     38  C   UNL A   1      39.760  28.062  32.509  1.00  0.00     0.031 C 
ATOM     39  C   UNL A   1      40.168  27.702  27.787  1.00  0.00     0.029 A 
ATOM     40  N   UNL A   1      41.892  27.225  29.112  1.00  0.00    -0.354 N 
ATOM     41  C   UNL A   1      41.859  28.490  33.286  1.00  0.00     0.074 A 
ATOM     42  C   UNL A   1      40.516  28.087  33.606  1.00  0.00     0.031 C 
ATOM     43  C   UNL A   1      40.861  26.703  27.199  1.00  0.00     0.029 A 
ATOM     44  C   UNL A   1      42.002  26.364  28.035  1.00  0.00     0.049 A 
ATOM     45  H   UNL A   1      42.573  27.293  29.819  1.00  0.00     0.167 HD
ATOM     46  C   UNL A   1      43.023  28.296  33.958  1.00  0.00     0.037 A 
ATOM     47  C   UNL A   1      42.939  25.408  27.847  1.00  0.00     0.037 A 
ATOM     48  C   UNL A   1      44.141  28.899  33.289  1.00  0.00     0.049 A 
ATOM     49  C   UNL A   1      44.127  25.732  28.670  1.00  0.00     0.074 A 
ATOM     50  C   UNL A   1      44.658  30.167  33.154  1.00  0.00     0.029 A 
ATOM     51  N   UNL A   1      44.738  28.109  32.347  1.00  0.00    -0.354 N 
ATOM     52  N   UNL A   1      44.899  26.764  28.464  1.00  0.00    -0.248 NA
ATOM     53  C   UNL A   1      44.349  25.032  29.932  1.00  0.00     0.031 C 
ATOM     54  C   UNL A   1      45.451  30.150  31.968  1.00  0.00     0.029 A 
ATOM     55  C   UNL A   1      45.382  28.876  31.411  1.00  0.00     0.049 A 
ATOM     56  H   UNL A   1      44.710  27.126  32.342  1.00  0.00     0.167 HD
ATOM     57  C   UNL A   1      45.392  27.077  29.714  1.00  0.00     0.074 A 
ATOM     58  C   UNL A   1      45.186  25.887  30.523  1.00  0.00     0.031 C 
ATOM     59  C   UNL A   1      45.607  28.373  30.074  1.00  0.00     0.037 A 
BRANCH  46  60
ATOM     60  C   UNL A   1      43.234  27.206  34.977  1.00  0.00     0.064 A 
ATOM     61  C   UNL A   1      43.504  27.556  36.315  1.00  0.00     0.173 A 
ATOM     62  C   UNL A   1      43.505  25.867  34.625  1.00  0.00     0.173 A 
ATOM     63  F   UNL A   1      43.315  28.814  36.741  1.00  0.00    -0.203 F 
ATOM     64  C   UNL A   1      44.057  26.643  37.216  1.00  0.00     0.198 A 
ATOM     65  C   UNL A   1      44.006  24.944  35.542  1.00  0.00     0.198 A 
ATOM     66  F   UNL A   1      43.408  25.437  33.360  1.00  0.00    -0.203 F 
ATOM     67  F   UNL A   1      44.407  27.049  38.444  1.00  0.00    -0.200 F 
ATOM     68  C   UNL A   1      44.309  25.339  36.828  1.00  0.00     0.200 A 
ATOM     69  F   UNL A   1      44.271  23.693  35.140  1.00  0.00    -0.200 F 
ATOM     70  F   UNL A   1      44.890  24.478  37.674  1.00  0.00    -0.200 F 
ENDBRANCH  46  60
BRANCH  47  71
ATOM     71  C   UNL A   1      42.806  24.137  27.104  1.00  0.00     0.064 A 
ATOM     72  C   UNL A   1      43.294  24.004  25.795  1.00  0.00     0.173 A 
ATOM     73  C   UNL A   1      42.411  22.950  27.752  1.00  0.00     0.173 A 
ATOM     74  F   UNL A   1      43.732  25.079  25.126  1.00  0.00    -0.203 F 
ATOM     75  C   UNL A   1      43.398  22.755  25.178  1.00  0.00     0.198 A 
ATOM     76  C   UNL A   1      42.501  21.706  27.129  1.00  0.00     0.198 A 
ATOM     77  F   UNL A   1      42.012  22.964  29.033  1.00  0.00    -0.203 F 
ATOM     78  F   UNL A   1      43.926  22.661  23.949  1.00  0.00    -0.200 F 
ATOM     79  C   UNL A   1      43.007  21.607  25.847  1.00  0.00     0.200 A 
ATOM     80  F   UNL A   1      42.146  20.601  27.799  1.00  0.00    -0.200 F 
ATOM     81  F   UNL A   1      43.154  20.405  25.274  1.00  0.00    -0.200 F 
ENDBRANCH  47  71
BRANCH  59  82
ATOM     82  C   UNL A   1      45.869  29.353  28.977  1.00  0.00     0.064 A 
ATOM     83  C   UNL A   1      47.136  29.594  28.423  1.00  0.00     0.173 A 
ATOM     84  C   UNL A   1      44.778  30.040  28.429  1.00  0.00     0.173 A 
ATOM     85  F   UNL A   1      48.211  28.909  28.837  1.00  0.00    -0.203 F 
ATOM     86  C   UNL A   1      47.306  30.531  27.405  1.00  0.00     0.198 A 
ATOM     87  C   UNL A   1      44.945  30.947  27.387  1.00  0.00     0.198 A 
ATOM     88  F   UNL A   1      43.537  29.810  28.890  1.00  0.00    -0.203 F 
ATOM     89  F   UNL A   1      48.531  30.771  26.912  1.00  0.00    -0.200 F 
ATOM     90  C   UNL A   1      46.211  31.203  26.886  1.00  0.00     0.200 A 
ATOM     91  F   UNL A   1      43.878  31.562  26.860  1.00  0.00    -0.200 F 
ATOM     92  F   UNL A   1      46.373  32.085  25.890  1.00  0.00    -0.200 F 
ENDBRANCH  59  82
ENDBRANCH  33  34
ENDBRANCH  26  28
ENDBRANCH  25  26
ENDBRANCH  24  25
ENDBRANCH  23  24
ENDBRANCH   1  23
TORSDOF 18
ENDMDL
