MODEL 1
REMARK VINA RESULT:     -10.6      0.000      0.000
REMARK SMILES C[C@H](NC(=O)N(CC(=O)OCCOCCOC(=O)c1ccc(-c2c3nc(c(-c4c(F)c(F)c(F)c(F)c4F)c4ccc([nH]4)c(-c4c(F)c(F)c(F)c(F)c4F)c4nc(c(-c5c(F)c(F)c(F)c(F)c5F)c5ccc2[nH]5)C=C4)C=C3)cc1)CC(F)(F)F)[C@@H]1CCCO1
REMARK SMILES IDX 12 1 11 2 10 3 8 4 9 5 7 6 6 7 4 8 3 9 5 11 2 12 1 13 87 14
REMARK SMILES IDX 88 15 91 16 89 17 90 18 82 19 83 20 84 21 85 22 86 23 13 24
REMARK SMILES IDX 14 25 15 26 16 27 17 28 18 29 19 30 20 31 81 32 21 33 80 34
REMARK SMILES IDX 22 35 23 36 24 37 74 38 25 39 79 40 73 41 75 42 26 43 78 44
REMARK SMILES IDX 72 45 71 46 27 48 59 49 39 50 58 51 40 52 43 53 57 54 76 55
REMARK SMILES IDX 41 56 42 57 56 59 77 60 44 61 28 62 29 63 37 64 30 65 31 66
REMARK SMILES IDX 35 67 38 68 32 69 33 70 36 71 34 72 60 73 61 74 69 75 62 76
REMARK SMILES IDX 63 77 67 78 70 79 64 80 65 81 68 82 66 83 45 84 46 85 54 86
REMARK SMILES IDX 47 87 48 88 52 89 55 90 49 91 50 92 53 93 51 94
REMARK H PARENT 3 10 75 47 43 58
REMARK Flexibility Score: inf
ROOT
ATOM      1  C   UNL A   1      31.084  26.964  26.079  1.00  0.00     0.202 C 
ENDROOT
BRANCH   1   2
ATOM      2  C   UNL A   1      32.113  25.847  25.886  1.00  0.00     0.261 C 
BRANCH   2   3
ATOM      3  O   UNL A   1      31.565  24.536  26.114  1.00  0.00    -0.462 OA
BRANCH   3   4
ATOM      4  C   UNL A   1      32.421  23.618  26.645  1.00  0.00     0.325 C 
ATOM      5  O   UNL A   1      32.172  22.907  27.614  1.00  0.00    -0.250 OA
BRANCH   4   6
ATOM      6  C   UNL A   1      33.703  23.446  25.826  1.00  0.00     0.244 C 
BRANCH   6   7
ATOM      7  N   UNL A   1      33.737  22.335  24.878  1.00  0.00    -0.305 N 
BRANCH   7   8
ATOM      8  C   UNL A   1      34.314  21.120  25.092  1.00  0.00     0.318 C 
ATOM      9  N   UNL A   1      35.607  20.860  24.869  1.00  0.00    -0.333 N 
ATOM     10  H   UNL A   1      35.762  19.888  24.874  1.00  0.00     0.165 HD
ATOM     11  O   UNL A   1      33.644  20.168  25.497  1.00  0.00    -0.249 OA
BRANCH   9  12
ATOM     12  C   UNL A   1      36.868  21.570  24.620  1.00  0.00     0.109 C 
ATOM     13  C   UNL A   1      36.644  22.575  23.489  1.00  0.00     0.034 C 
BRANCH  12  14
ATOM     14  C   UNL A   1      37.351  22.272  25.906  1.00  0.00     0.140 C 
ATOM     15  C   UNL A   1      37.424  23.788  25.759  1.00  0.00     0.036 C 
ATOM     16  O   UNL A   1      38.679  21.834  26.269  1.00  0.00    -0.376 OA
ATOM     17  C   UNL A   1      38.525  24.146  26.721  1.00  0.00     0.031 C 
ATOM     18  C   UNL A   1      39.487  23.000  26.502  1.00  0.00     0.160 C 
ENDBRANCH  12  14
ENDBRANCH   9  12
ENDBRANCH   7   8
BRANCH   7  19
ATOM     19  C   UNL A   1      32.913  22.486  23.653  1.00  0.00     0.237 C 
BRANCH  19  20
ATOM     20  C   UNL A   1      33.131  23.705  22.735  1.00  0.00     0.406 C 
ATOM     21  F   UNL A   1      33.268  23.373  21.436  1.00  0.00    -0.169 F 
ATOM     22  F   UNL A   1      32.029  24.504  22.803  1.00  0.00    -0.169 F 
ATOM     23  F   UNL A   1      34.177  24.470  23.111  1.00  0.00    -0.169 F 
ENDBRANCH  19  20
ENDBRANCH   7  19
ENDBRANCH   6   7
ENDBRANCH   4   6
ENDBRANCH   3   4
ENDBRANCH   2   3
ENDBRANCH   1   2
BRANCH   1  24
ATOM     24  O   UNL A   1      31.025  27.560  27.373  1.00  0.00    -0.374 OA
BRANCH  24  25
ATOM     25  C   UNL A   1      31.895  28.658  27.641  1.00  0.00     0.202 C 
BRANCH  25  26
ATOM     26  C   UNL A   1      31.794  29.868  26.707  1.00  0.00     0.261 C 
BRANCH  26  27
ATOM     27  O   UNL A   1      33.085  30.402  26.363  1.00  0.00    -0.460 OA
BRANCH  27  28
ATOM     28  C   UNL A   1      33.559  31.317  27.244  1.00  0.00     0.338 C 
ATOM     29  O   UNL A   1      32.928  32.201  27.797  1.00  0.00    -0.246 OA
BRANCH  28  30
ATOM     30  C   UNL A   1      34.955  31.022  27.622  1.00  0.00     0.060 A 
ATOM     31  C   UNL A   1      35.314  29.673  27.729  1.00  0.00     0.016 A 
ATOM     32  C   UNL A   1      35.849  32.024  28.004  1.00  0.00     0.016 A 
ATOM     33  C   UNL A   1      36.545  29.319  28.279  1.00  0.00     0.010 A 
ATOM     34  C   UNL A   1      37.087  31.665  28.559  1.00  0.00     0.010 A 
ATOM     35  C   UNL A   1      37.420  30.311  28.741  1.00  0.00    -0.014 A 
BRANCH  35  36
ATOM     36  C   UNL A   1      38.606  29.905  29.537  1.00  0.00     0.031 A 
ATOM     37  C   UNL A   1      38.776  30.437  30.934  1.00  0.00     0.074 A 
ATOM     38  C   UNL A   1      39.487  29.012  29.050  1.00  0.00     0.049 A 
ATOM     39  N   UNL A   1      39.690  30.150  31.828  1.00  0.00    -0.248 NA
ATOM     40  C   UNL A   1      37.779  31.419  31.388  1.00  0.00     0.031 C 
ATOM     41  C   UNL A   1      39.422  28.401  27.726  1.00  0.00     0.029 A 
ATOM     42  N   UNL A   1      40.604  28.458  29.624  1.00  0.00    -0.354 N 
ATOM     43  C   UNL A   1      39.374  30.908  32.948  1.00  0.00     0.074 A 
ATOM     44  C   UNL A   1      38.206  31.694  32.612  1.00  0.00     0.031 C 
ATOM     45  C   UNL A   1      40.455  27.553  27.587  1.00  0.00     0.029 A 
ATOM     46  C   UNL A   1      41.263  27.576  28.806  1.00  0.00     0.049 A 
ATOM     47  H   UNL A   1      40.905  28.673  30.537  1.00  0.00     0.167 HD
ATOM     48  C   UNL A   1      39.992  30.936  34.154  1.00  0.00     0.037 A 
ATOM     49  C   UNL A   1      42.393  26.871  29.014  1.00  0.00     0.037 A 
ATOM     50  C   UNL A   1      41.155  30.159  34.494  1.00  0.00     0.049 A 
ATOM     51  C   UNL A   1      43.097  26.969  30.341  1.00  0.00     0.074 A 
ATOM     52  C   UNL A   1      41.832  30.100  35.700  1.00  0.00     0.029 A 
ATOM     53  N   UNL A   1      41.820  29.314  33.620  1.00  0.00    -0.354 N 
ATOM     54  N   UNL A   1      42.762  27.648  31.410  1.00  0.00    -0.248 NA
ATOM     55  C   UNL A   1      44.337  26.191  30.492  1.00  0.00     0.031 C 
ATOM     56  C   UNL A   1      42.936  29.254  35.542  1.00  0.00     0.029 A 
ATOM     57  C   UNL A   1      42.919  28.750  34.251  1.00  0.00     0.049 A 
ATOM     58  H   UNL A   1      41.554  29.138  32.688  1.00  0.00     0.167 HD
ATOM     59  C   UNL A   1      43.731  27.365  32.364  1.00  0.00     0.074 A 
ATOM     60  C   UNL A   1      44.661  26.439  31.753  1.00  0.00     0.031 C 
ATOM     61  C   UNL A   1      43.838  27.830  33.634  1.00  0.00     0.037 A 
BRANCH  48  62
ATOM     62  C   UNL A   1      39.427  31.854  35.198  1.00  0.00     0.064 A 
ATOM     63  C   UNL A   1      39.748  33.219  35.225  1.00  0.00     0.173 A 
ATOM     64  C   UNL A   1      38.525  31.370  36.157  1.00  0.00     0.173 A 
ATOM     65  F   UNL A   1      40.614  33.727  34.336  1.00  0.00    -0.203 F 
ATOM     66  C   UNL A   1      39.203  34.062  36.190  1.00  0.00     0.198 A 
ATOM     67  C   UNL A   1      37.963  32.221  37.105  1.00  0.00     0.198 A 
ATOM     68  F   UNL A   1      38.180  30.073  36.169  1.00  0.00    -0.203 F 
ATOM     69  F   UNL A   1      39.554  35.356  36.223  1.00  0.00    -0.200 F 
ATOM     70  C   UNL A   1      38.308  33.564  37.126  1.00  0.00     0.200 A 
ATOM     71  F   UNL A   1      37.089  31.741  38.000  1.00  0.00    -0.200 F 
ATOM     72  F   UNL A   1      37.779  34.379  38.050  1.00  0.00    -0.200 F 
ENDBRANCH  48  62
BRANCH  49  73
ATOM     73  C   UNL A   1      42.930  26.003  27.935  1.00  0.00     0.064 A 
ATOM     74  C   UNL A   1      43.812  26.507  26.969  1.00  0.00     0.173 A 
ATOM     75  C   UNL A   1      42.561  24.653  27.843  1.00  0.00     0.173 A 
ATOM     76  F   UNL A   1      44.172  27.798  27.002  1.00  0.00    -0.203 F 
ATOM     77  C   UNL A   1      44.294  25.696  25.945  1.00  0.00     0.198 A 
ATOM     78  C   UNL A   1      43.064  23.837  26.833  1.00  0.00     0.198 A 
ATOM     79  F   UNL A   1      41.717  24.124  28.743  1.00  0.00    -0.203 F 
ATOM     80  F   UNL A   1      45.105  26.212  25.011  1.00  0.00    -0.200 F 
ATOM     81  C   UNL A   1      43.926  24.360  25.881  1.00  0.00     0.200 A 
ATOM     82  F   UNL A   1      42.715  22.544  26.782  1.00  0.00    -0.200 F 
ATOM     83  F   UNL A   1      44.395  23.579  24.899  1.00  0.00    -0.200 F 
ENDBRANCH  49  73
BRANCH  61  84
ATOM     84  C   UNL A   1      44.990  27.330  34.457  1.00  0.00     0.064 A 
ATOM     85  C   UNL A   1      44.895  26.153  35.214  1.00  0.00     0.173 A 
ATOM     86  C   UNL A   1      46.214  28.016  34.458  1.00  0.00     0.173 A 
ATOM     87  F   UNL A   1      43.741  25.470  35.258  1.00  0.00    -0.203 F 
ATOM     88  C   UNL A   1      45.978  25.692  35.958  1.00  0.00     0.198 A 
ATOM     89  C   UNL A   1      47.302  27.537  35.182  1.00  0.00     0.198 A 
ATOM     90  F   UNL A   1      46.358  29.144  33.747  1.00  0.00    -0.203 F 
ATOM     91  F   UNL A   1      45.852  24.588  36.707  1.00  0.00    -0.200 F 
ATOM     92  C   UNL A   1      47.182  26.380  35.936  1.00  0.00     0.200 A 
ATOM     93  F   UNL A   1      48.469  28.197  35.151  1.00  0.00    -0.200 F 
ATOM     94  F   UNL A   1      48.224  25.932  36.649  1.00  0.00    -0.200 F 
ENDBRANCH  61  84
ENDBRANCH  35  36
ENDBRANCH  28  30
ENDBRANCH  27  28
ENDBRANCH  26  27
ENDBRANCH  25  26
ENDBRANCH  24  25
ENDBRANCH   1  24
TORSDOF 20
ENDMDL
MODEL 2
REMARK VINA RESULT:     -10.2      2.328      7.810
REMARK SMILES C[C@H](NC(=O)N(CC(=O)OCCOCCOC(=O)c1ccc(-c2c3nc(c(-c4c(F)c(F)c(F)c(F)c4F)c4ccc([nH]4)c(-c4c(F)c(F)c(F)c(F)c4F)c4nc(c(-c5c(F)c(F)c(F)c(F)c5F)c5ccc2[nH]5)C=C4)C=C3)cc1)CC(F)(F)F)[C@@H]1CCCO1
REMARK SMILES IDX 12 1 11 2 10 3 8 4 9 5 7 6 6 7 4 8 3 9 5 11 2 12 1 13 87 14
REMARK SMILES IDX 88 15 91 16 89 17 90 18 82 19 83 20 84 21 85 22 86 23 13 24
REMARK SMILES IDX 14 25 15 26 16 27 17 28 18 29 19 30 20 31 81 32 21 33 80 34
REMARK SMILES IDX 22 35 23 36 24 37 74 38 25 39 79 40 73 41 75 42 26 43 78 44
REMARK SMILES IDX 72 45 71 46 27 48 59 49 39 50 58 51 40 52 43 53 57 54 76 55
REMARK SMILES IDX 41 56 42 57 56 59 77 60 44 61 28 62 29 63 37 64 30 65 31 66
REMARK SMILES IDX 35 67 38 68 32 69 33 70 36 71 34 72 60 73 61 74 69 75 62 76
REMARK SMILES IDX 63 77 67 78 70 79 64 80 65 81 68 82 66 83 45 84 46 85 54 86
REMARK SMILES IDX 47 87 48 88 52 89 55 90 49 91 50 92 53 93 51 94
REMARK H PARENT 3 10 75 47 43 58
REMARK Flexibility Score: inf
ROOT
ATOM      1  C   UNL A   1      32.523  29.793  26.301  1.00  0.00     0.202 C 
ENDROOT
BRANCH   1   2
ATOM      2  C   UNL A   1      33.413  28.992  25.347  1.00  0.00     0.261 C 
BRANCH   2   3
ATOM      3  O   UNL A   1      33.004  29.107  23.972  1.00  0.00    -0.462 OA
BRANCH   3   4
ATOM      4  C   UNL A   1      33.566  28.214  23.109  1.00  0.00     0.325 C 
ATOM      5  O   UNL A   1      34.179  28.516  22.090  1.00  0.00    -0.250 OA
BRANCH   4   6
ATOM      6  C   UNL A   1      33.483  26.766  23.601  1.00  0.00     0.244 C 
BRANCH   6   7
ATOM      7  N   UNL A   1      32.701  25.836  22.791  1.00  0.00    -0.305 N 
BRANCH   7   8
ATOM      8  C   UNL A   1      33.157  24.676  22.242  1.00  0.00     0.318 C 
ATOM      9  N   UNL A   1      33.487  23.594  22.956  1.00  0.00    -0.333 N 
ATOM     10  H   UNL A   1      33.993  22.961  22.398  1.00  0.00     0.165 HD
ATOM     11  O   UNL A   1      33.311  24.573  21.024  1.00  0.00    -0.249 OA
BRANCH   9  12
ATOM     12  C   UNL A   1      33.329  23.055  24.314  1.00  0.00     0.109 C 
ATOM     13  C   UNL A   1      32.536  21.750  24.229  1.00  0.00     0.034 C 
BRANCH  12  14
ATOM     14  C   UNL A   1      34.711  22.829  24.964  1.00  0.00     0.140 C 
ATOM     15  C   UNL A   1      35.486  24.126  25.166  1.00  0.00     0.036 C 
ATOM     16  O   UNL A   1      35.541  21.982  24.137  1.00  0.00    -0.376 OA
ATOM     17  C   UNL A   1      36.914  23.657  25.079  1.00  0.00     0.031 C 
ATOM     18  C   UNL A   1      36.816  22.628  23.975  1.00  0.00     0.160 C 
ENDBRANCH  12  14
ENDBRANCH   9  12
ENDBRANCH   7   8
BRANCH   7  19
ATOM     19  C   UNL A   1      31.240  26.090  22.718  1.00  0.00     0.237 C 
BRANCH  19  20
ATOM     20  C   UNL A   1      30.286  25.310  23.645  1.00  0.00     0.406 C 
ATOM     21  F   UNL A   1      29.069  25.880  23.751  1.00  0.00    -0.169 F 
ATOM     22  F   UNL A   1      30.076  24.074  23.110  1.00  0.00    -0.169 F 
ATOM     23  F   UNL A   1      30.793  25.110  24.878  1.00  0.00    -0.169 F 
ENDBRANCH  19  20
ENDBRANCH   7  19
ENDBRANCH   6   7
ENDBRANCH   4   6
ENDBRANCH   3   4
ENDBRANCH   2   3
ENDBRANCH   1   2
BRANCH   1  24
ATOM     24  O   UNL A   1      33.100  30.165  27.551  1.00  0.00    -0.374 OA
BRANCH  24  25
ATOM     25  C   UNL A   1      33.681  31.464  27.657  1.00  0.00     0.202 C 
BRANCH  25  26
ATOM     26  C   UNL A   1      32.724  32.658  27.608  1.00  0.00     0.261 C 
BRANCH  26  27
ATOM     27  O   UNL A   1      33.419  33.911  27.482  1.00  0.00    -0.460 OA
BRANCH  27  28
ATOM     28  C   UNL A   1      33.360  34.691  28.590  1.00  0.00     0.338 C 
ATOM     29  O   UNL A   1      32.476  35.476  28.890  1.00  0.00    -0.246 OA
BRANCH  28  30
ATOM     30  C   UNL A   1      34.443  34.362  29.536  1.00  0.00     0.060 A 
ATOM     31  C   UNL A   1      35.755  34.438  29.052  1.00  0.00     0.016 A 
ATOM     32  C   UNL A   1      34.189  33.853  30.810  1.00  0.00     0.016 A 
ATOM     33  C   UNL A   1      36.812  33.946  29.816  1.00  0.00     0.010 A 
ATOM     34  C   UNL A   1      35.253  33.356  31.578  1.00  0.00     0.010 A 
ATOM     35  C   UNL A   1      36.562  33.359  31.065  1.00  0.00    -0.014 A 
BRANCH  35  36
ATOM     36  C   UNL A   1      37.663  32.630  31.745  1.00  0.00     0.031 A 
ATOM     37  C   UNL A   1      38.292  31.442  31.067  1.00  0.00     0.074 A 
ATOM     38  C   UNL A   1      38.150  33.062  32.921  1.00  0.00     0.049 A 
ATOM     39  N   UNL A   1      39.314  30.714  31.443  1.00  0.00    -0.248 NA
ATOM     40  C   UNL A   1      37.695  31.023  29.789  1.00  0.00     0.031 C 
ATOM     41  C   UNL A   1      37.649  34.213  33.668  1.00  0.00     0.029 A 
ATOM     42  N   UNL A   1      39.184  32.586  33.688  1.00  0.00    -0.354 N 
ATOM     43  C   UNL A   1      39.485  29.760  30.450  1.00  0.00     0.074 A 
ATOM     44  C   UNL A   1      38.442  29.976  29.470  1.00  0.00     0.031 C 
ATOM     45  C   UNL A   1      38.379  34.356  34.788  1.00  0.00     0.029 A 
ATOM     46  C   UNL A   1      39.385  33.297  34.844  1.00  0.00     0.049 A 
ATOM     47  H   UNL A   1      39.731  31.807  33.432  1.00  0.00     0.167 HD
ATOM     48  C   UNL A   1      40.435  28.799  30.353  1.00  0.00     0.037 A 
ATOM     49  C   UNL A   1      40.275  33.110  35.838  1.00  0.00     0.037 A 
ATOM     50  C   UNL A   1      41.474  28.576  31.325  1.00  0.00     0.049 A 
ATOM     51  C   UNL A   1      41.281  31.993  35.738  1.00  0.00     0.074 A 
ATOM     52  C   UNL A   1      42.498  27.644  31.297  1.00  0.00     0.029 A 
ATOM     53  N   UNL A   1      41.613  29.287  32.506  1.00  0.00    -0.354 N 
ATOM     54  N   UNL A   1      41.467  31.129  34.771  1.00  0.00    -0.248 NA
ATOM     55  C   UNL A   1      42.208  31.832  36.869  1.00  0.00     0.031 C 
ATOM     56  C   UNL A   1      43.229  27.761  32.484  1.00  0.00     0.029 A 
ATOM     57  C   UNL A   1      42.689  28.796  33.230  1.00  0.00     0.049 A 
ATOM     58  H   UNL A   1      41.034  30.031  32.791  1.00  0.00     0.167 HD
ATOM     59  C   UNL A   1      42.540  30.339  35.162  1.00  0.00     0.074 A 
ATOM     60  C   UNL A   1      42.976  30.836  36.450  1.00  0.00     0.031 C 
ATOM     61  C   UNL A   1      43.113  29.298  34.511  1.00  0.00     0.037 A 
BRANCH  48  62
ATOM     62  C   UNL A   1      40.386  27.897  29.154  1.00  0.00     0.064 A 
ATOM     63  C   UNL A   1      39.594  26.740  29.139  1.00  0.00     0.173 A 
ATOM     64  C   UNL A   1      41.109  28.216  27.995  1.00  0.00     0.173 A 
ATOM     65  F   UNL A   1      38.893  26.387  30.226  1.00  0.00    -0.203 F 
ATOM     66  C   UNL A   1      39.546  25.922  28.013  1.00  0.00     0.198 A 
ATOM     67  C   UNL A   1      41.039  27.409  26.863  1.00  0.00     0.198 A 
ATOM     68  F   UNL A   1      41.876  29.317  27.957  1.00  0.00    -0.203 F 
ATOM     69  F   UNL A   1      38.813  24.799  28.033  1.00  0.00    -0.200 F 
ATOM     70  C   UNL A   1      40.263  26.260  26.874  1.00  0.00     0.200 A 
ATOM     71  F   UNL A   1      41.723  27.744  25.760  1.00  0.00    -0.200 F 
ATOM     72  F   UNL A   1      40.210  25.475  25.789  1.00  0.00    -0.200 F 
ENDBRANCH  48  62
BRANCH  49  73
ATOM     73  C   UNL A   1      40.260  34.009  37.021  1.00  0.00     0.064 A 
ATOM     74  C   UNL A   1      41.079  35.144  37.080  1.00  0.00     0.173 A 
ATOM     75  C   UNL A   1      39.432  33.742  38.120  1.00  0.00     0.173 A 
ATOM     76  F   UNL A   1      41.907  35.425  36.063  1.00  0.00    -0.203 F 
ATOM     77  C   UNL A   1      41.081  35.972  38.200  1.00  0.00     0.198 A 
ATOM     78  C   UNL A   1      39.415  34.584  39.229  1.00  0.00     0.198 A 
ATOM     79  F   UNL A   1      38.630  32.666  38.113  1.00  0.00    -0.203 F 
ATOM     80  F   UNL A   1      41.902  37.029  38.248  1.00  0.00    -0.200 F 
ATOM     81  C   UNL A   1      40.244  35.695  39.271  1.00  0.00     0.200 A 
ATOM     82  F   UNL A   1      38.596  34.320  40.258  1.00  0.00    -0.200 F 
ATOM     83  F   UNL A   1      40.241  36.494  40.346  1.00  0.00    -0.200 F 
ENDBRANCH  49  73
BRANCH  61  84
ATOM     84  C   UNL A   1      44.290  28.635  35.169  1.00  0.00     0.064 A 
ATOM     85  C   UNL A   1      44.128  27.547  36.038  1.00  0.00     0.173 A 
ATOM     86  C   UNL A   1      45.596  29.070  34.895  1.00  0.00     0.173 A 
ATOM     87  F   UNL A   1      42.898  27.104  36.344  1.00  0.00    -0.203 F 
ATOM     88  C   UNL A   1      45.229  26.931  36.627  1.00  0.00     0.198 A 
ATOM     89  C   UNL A   1      46.696  28.434  35.464  1.00  0.00     0.198 A 
ATOM     90  F   UNL A   1      45.805  30.103  34.066  1.00  0.00    -0.203 F 
ATOM     91  F   UNL A   1      45.049  25.920  37.487  1.00  0.00    -0.200 F 
ATOM     92  C   UNL A   1      46.512  27.371  36.334  1.00  0.00     0.200 A 
ATOM     93  F   UNL A   1      47.935  28.853  35.171  1.00  0.00    -0.200 F 
ATOM     94  F   UNL A   1      47.571  26.774  36.897  1.00  0.00    -0.200 F 
ENDBRANCH  61  84
ENDBRANCH  35  36
ENDBRANCH  28  30
ENDBRANCH  27  28
ENDBRANCH  26  27
ENDBRANCH  25  26
ENDBRANCH  24  25
ENDBRANCH   1  24
TORSDOF 20
ENDMDL
MODEL 3
REMARK VINA RESULT:     -10.1      2.326      3.942
REMARK SMILES C[C@H](NC(=O)N(CC(=O)OCCOCCOC(=O)c1ccc(-c2c3nc(c(-c4c(F)c(F)c(F)c(F)c4F)c4ccc([nH]4)c(-c4c(F)c(F)c(F)c(F)c4F)c4nc(c(-c5c(F)c(F)c(F)c(F)c5F)c5ccc2[nH]5)C=C4)C=C3)cc1)CC(F)(F)F)[C@@H]1CCCO1
REMARK SMILES IDX 12 1 11 2 10 3 8 4 9 5 7 6 6 7 4 8 3 9 5 11 2 12 1 13 87 14
REMARK SMILES IDX 88 15 91 16 89 17 90 18 82 19 83 20 84 21 85 22 86 23 13 24
REMARK SMILES IDX 14 25 15 26 16 27 17 28 18 29 19 30 20 31 81 32 21 33 80 34
REMARK SMILES IDX 22 35 23 36 24 37 74 38 25 39 79 40 73 41 75 42 26 43 78 44
REMARK SMILES IDX 72 45 71 46 27 48 59 49 39 50 58 51 40 52 43 53 57 54 76 55
REMARK SMILES IDX 41 56 42 57 56 59 77 60 44 61 28 62 29 63 37 64 30 65 31 66
REMARK SMILES IDX 35 67 38 68 32 69 33 70 36 71 34 72 60 73 61 74 69 75 62 76
REMARK SMILES IDX 63 77 67 78 70 79 64 80 65 81 68 82 66 83 45 84 46 85 54 86
REMARK SMILES IDX 47 87 48 88 52 89 55 90 49 91 50 92 53 93 51 94
REMARK H PARENT 3 10 75 47 43 58
REMARK Flexibility Score: inf
ROOT
ATOM      1  C   UNL A   1      34.521  30.166  27.387  1.00  0.00     0.202 C 
ENDROOT
BRANCH   1   2
ATOM      2  C   UNL A   1      33.983  28.733  27.361  1.00  0.00     0.261 C 
BRANCH   2   3
ATOM      3  O   UNL A   1      33.842  28.213  26.026  1.00  0.00    -0.462 OA
BRANCH   3   4
ATOM      4  C   UNL A   1      32.578  28.215  25.518  1.00  0.00     0.325 C 
ATOM      5  O   UNL A   1      31.575  27.865  26.132  1.00  0.00    -0.250 OA
BRANCH   4   6
ATOM      6  C   UNL A   1      32.491  28.836  24.121  1.00  0.00     0.244 C 
BRANCH   6   7
ATOM      7  N   UNL A   1      32.159  27.939  23.017  1.00  0.00    -0.305 N 
BRANCH   7   8
ATOM      8  C   UNL A   1      32.835  26.806  22.678  1.00  0.00     0.318 C 
ATOM      9  N   UNL A   1      32.657  25.625  23.278  1.00  0.00    -0.333 N 
ATOM     10  H   UNL A   1      33.387  25.010  23.038  1.00  0.00     0.165 HD
ATOM     11  O   UNL A   1      33.682  26.824  21.783  1.00  0.00    -0.249 OA
BRANCH   9  12
ATOM     12  C   UNL A   1      31.714  24.957  24.185  1.00  0.00     0.109 C 
ATOM     13  C   UNL A   1      30.665  24.229  23.345  1.00  0.00     0.034 C 
BRANCH  12  14
ATOM     14  C   UNL A   1      32.465  23.980  25.115  1.00  0.00     0.140 C 
ATOM     15  C   UNL A   1      33.526  24.671  25.963  1.00  0.00     0.036 C 
ATOM     16  O   UNL A   1      33.153  22.963  24.351  1.00  0.00    -0.376 OA
ATOM     17  C   UNL A   1      34.532  23.571  26.168  1.00  0.00     0.031 C 
ATOM     18  C   UNL A   1      34.513  22.903  24.812  1.00  0.00     0.160 C 
ENDBRANCH  12  14
ENDBRANCH   9  12
ENDBRANCH   7   8
BRANCH   7  19
ATOM     19  C   UNL A   1      30.867  28.188  22.330  1.00  0.00     0.237 C 
BRANCH  19  20
ATOM     20  C   UNL A   1      29.592  28.411  23.167  1.00  0.00     0.406 C 
ATOM     21  F   UNL A   1      28.461  28.358  22.434  1.00  0.00    -0.169 F 
ATOM     22  F   UNL A   1      29.492  27.406  24.083  1.00  0.00    -0.169 F 
ATOM     23  F   UNL A   1      29.613  29.562  23.868  1.00  0.00    -0.169 F 
ENDBRANCH  19  20
ENDBRANCH   7  19
ENDBRANCH   6   7
ENDBRANCH   4   6
ENDBRANCH   3   4
ENDBRANCH   2   3
ENDBRANCH   1   2
BRANCH   1  24
ATOM     24  O   UNL A   1      33.746  31.150  26.706  1.00  0.00    -0.374 OA
BRANCH  24  25
ATOM     25  C   UNL A   1      32.424  31.403  27.178  1.00  0.00     0.202 C 
BRANCH  25  26
ATOM     26  C   UNL A   1      32.008  32.869  27.328  1.00  0.00     0.261 C 
BRANCH  26  27
ATOM     27  O   UNL A   1      33.139  33.758  27.352  1.00  0.00    -0.460 OA
BRANCH  27  28
ATOM     28  C   UNL A   1      33.209  34.535  28.461  1.00  0.00     0.338 C 
ATOM     29  O   UNL A   1      32.403  35.377  28.820  1.00  0.00    -0.246 OA
BRANCH  28  30
ATOM     30  C   UNL A   1      34.329  34.129  29.330  1.00  0.00     0.060 A 
ATOM     31  C   UNL A   1      35.618  34.494  28.921  1.00  0.00     0.016 A 
ATOM     32  C   UNL A   1      34.149  33.294  30.435  1.00  0.00     0.016 A 
ATOM     33  C   UNL A   1      36.733  33.972  29.574  1.00  0.00     0.010 A 
ATOM     34  C   UNL A   1      35.273  32.769  31.090  1.00  0.00     0.010 A 
ATOM     35  C   UNL A   1      36.568  33.069  30.634  1.00  0.00    -0.014 A 
BRANCH  35  36
ATOM     36  C   UNL A   1      37.759  32.347  31.149  1.00  0.00     0.031 A 
ATOM     37  C   UNL A   1      38.276  32.661  32.526  1.00  0.00     0.074 A 
ATOM     38  C   UNL A   1      38.333  31.366  30.428  1.00  0.00     0.049 A 
ATOM     39  N   UNL A   1      39.247  32.096  33.200  1.00  0.00    -0.248 NA
ATOM     40  C   UNL A   1      37.604  33.754  33.246  1.00  0.00     0.031 C 
ATOM     41  C   UNL A   1      37.913  30.946  29.094  1.00  0.00     0.029 A 
ATOM     42  N   UNL A   1      39.388  30.540  30.727  1.00  0.00    -0.354 N 
ATOM     43  C   UNL A   1      39.297  32.758  34.420  1.00  0.00     0.074 A 
ATOM     44  C   UNL A   1      38.283  33.791  34.383  1.00  0.00     0.031 C 
ATOM     45  C   UNL A   1      38.703  29.937  28.687  1.00  0.00     0.029 A 
ATOM     46  C   UNL A   1      39.693  29.654  29.725  1.00  0.00     0.049 A 
ATOM     47  H   UNL A   1      39.879  30.580  31.580  1.00  0.00     0.167 HD
ATOM     48  C   UNL A   1      40.104  32.518  35.482  1.00  0.00     0.037 A 
ATOM     49  C   UNL A   1      40.666  28.724  29.651  1.00  0.00     0.037 A 
ATOM     50  C   UNL A   1      41.116  31.495  35.524  1.00  0.00     0.049 A 
ATOM     51  C   UNL A   1      41.592  28.520  30.821  1.00  0.00     0.074 A 
ATOM     52  C   UNL A   1      41.961  31.159  36.567  1.00  0.00     0.029 A 
ATOM     53  N   UNL A   1      41.426  30.650  34.470  1.00  0.00    -0.354 N 
ATOM     54  N   UNL A   1      41.598  29.116  31.988  1.00  0.00    -0.248 NA
ATOM     55  C   UNL A   1      42.645  27.505  30.664  1.00  0.00     0.031 C 
ATOM     56  C   UNL A   1      42.816  30.141  36.129  1.00  0.00     0.029 A 
ATOM     57  C   UNL A   1      42.471  29.812  34.828  1.00  0.00     0.049 A 
ATOM     58  H   UNL A   1      40.972  30.645  33.596  1.00  0.00     0.167 HD
ATOM     59  C   UNL A   1      42.633  28.537  32.710  1.00  0.00     0.074 A 
ATOM     60  C   UNL A   1      43.226  27.530  31.855  1.00  0.00     0.031 C 
ATOM     61  C   UNL A   1      43.052  28.813  33.969  1.00  0.00     0.037 A 
BRANCH  48  62
ATOM     62  C   UNL A   1      39.935  33.394  36.689  1.00  0.00     0.064 A 
ATOM     63  C   UNL A   1      40.680  34.571  36.850  1.00  0.00     0.173 A 
ATOM     64  C   UNL A   1      38.990  33.072  37.674  1.00  0.00     0.173 A 
ATOM     65  F   UNL A   1      41.603  34.916  35.940  1.00  0.00    -0.203 F 
ATOM     66  C   UNL A   1      40.501  35.383  37.968  1.00  0.00     0.198 A 
ATOM     67  C   UNL A   1      38.797  33.898  38.778  1.00  0.00     0.198 A 
ATOM     68  F   UNL A   1      38.248  31.960  37.562  1.00  0.00    -0.203 F 
ATOM     69  F   UNL A   1      41.251  36.483  38.122  1.00  0.00    -0.200 F 
ATOM     70  C   UNL A   1      39.556  35.048  38.927  1.00  0.00     0.200 A 
ATOM     71  F   UNL A   1      37.875  33.580  39.697  1.00  0.00    -0.200 F 
ATOM     72  F   UNL A   1      39.381  35.835  39.999  1.00  0.00    -0.200 F 
ENDBRANCH  48  62
BRANCH  49  73
ATOM     73  C   UNL A   1      40.812  27.907  28.420  1.00  0.00     0.064 A 
ATOM     74  C   UNL A   1      40.194  26.654  28.302  1.00  0.00     0.173 A 
ATOM     75  C   UNL A   1      41.584  28.359  27.340  1.00  0.00     0.173 A 
ATOM     76  F   UNL A   1      39.468  26.169  29.320  1.00  0.00    -0.203 F 
ATOM     77  C   UNL A   1      40.354  25.879  27.156  1.00  0.00     0.198 A 
ATOM     78  C   UNL A   1      41.722  27.594  26.184  1.00  0.00     0.198 A 
ATOM     79  F   UNL A   1      42.197  29.551  27.404  1.00  0.00    -0.203 F 
ATOM     80  F   UNL A   1      39.785  24.669  27.085  1.00  0.00    -0.200 F 
ATOM     81  C   UNL A   1      41.112  26.352  26.095  1.00  0.00     0.200 A 
ATOM     82  F   UNL A   1      42.446  28.060  25.156  1.00  0.00    -0.200 F 
ATOM     83  F   UNL A   1      41.260  25.609  24.991  1.00  0.00    -0.200 F 
ENDBRANCH  49  73
BRANCH  61  84
ATOM     84  C   UNL A   1      44.195  28.003  34.510  1.00  0.00     0.064 A 
ATOM     85  C   UNL A   1      45.521  28.451  34.419  1.00  0.00     0.173 A 
ATOM     86  C   UNL A   1      43.956  26.783  35.161  1.00  0.00     0.173 A 
ATOM     87  F   UNL A   1      45.803  29.604  33.792  1.00  0.00    -0.203 F 
ATOM     88  C   UNL A   1      46.568  27.697  34.941  1.00  0.00     0.198 A 
ATOM     89  C   UNL A   1      45.004  26.045  35.706  1.00  0.00     0.198 A 
ATOM     90  F   UNL A   1      42.706  26.313  35.280  1.00  0.00    -0.203 F 
ATOM     91  F   UNL A   1      47.831  28.124  34.806  1.00  0.00    -0.200 F 
ATOM     92  C   UNL A   1      46.309  26.499  35.591  1.00  0.00     0.200 A 
ATOM     93  F   UNL A   1      44.750  24.893  36.342  1.00  0.00    -0.200 F 
ATOM     94  F   UNL A   1      47.317  25.777  36.097  1.00  0.00    -0.200 F 
ENDBRANCH  61  84
ENDBRANCH  35  36
ENDBRANCH  28  30
ENDBRANCH  27  28
ENDBRANCH  26  27
ENDBRANCH  25  26
ENDBRANCH  24  25
ENDBRANCH   1  24
TORSDOF 20
ENDMDL
