MODEL 1
REMARK VINA RESULT:     -12.0      0.000      0.000
REMARK SMILES O=C(C[C@H]1C[C@H]2CC[C@@H](C1)N2C(=O)c1c[nH]c(=O)[nH]1)OCCOCCOC(=O)c1ccc(-c2c3nc(c(-c4c(F)c(F)c(F)c(F)c4F)c4ccc([nH]4)c(-c4c(F)c(F)c(F)c(F)c4F)c4nc(c(-c5c(F)c(F)c(F)c(F)c5F)c5ccc2[nH]5)C=C4)C=C3)cc1
REMARK SMILES IDX 22 1 21 2 20 3 2 4 1 5 3 6 4 7 5 8 10 9 6 10 9 11 7 12 11 13
REMARK SMILES IDX 8 14 12 15 13 16 14 17 15 18 19 19 16 20 17 21 18 24 23 25
REMARK SMILES IDX 24 26 25 27 26 28 27 29 28 30 29 31 30 32 91 33 31 34 90 35
REMARK SMILES IDX 32 36 33 37 34 38 84 39 35 40 89 41 83 42 85 43 36 44 88 45
REMARK SMILES IDX 82 46 81 47 37 49 69 50 49 51 68 52 50 53 53 54 67 55 86 56
REMARK SMILES IDX 51 57 52 58 66 60 87 61 54 62 38 63 39 64 47 65 40 66 41 67
REMARK SMILES IDX 45 68 48 69 42 70 43 71 46 72 44 73 70 74 71 75 79 76 72 77
REMARK SMILES IDX 73 78 77 79 80 80 74 81 75 82 78 83 76 84 55 85 56 86 64 87
REMARK SMILES IDX 57 88 58 89 62 90 65 91 59 92 60 93 63 94 61 95
REMARK H PARENT 19 22 16 23 85 48 53 59
REMARK Flexibility Score: inf
ROOT
ATOM      1  C   UNL A   1      30.288  28.463  23.600  1.00  0.00     0.202 C 
ENDROOT
BRANCH   1   2
ATOM      2  C   UNL A   1      31.005  27.867  22.386  1.00  0.00     0.261 C 
BRANCH   2   3
ATOM      3  O   UNL A   1      32.427  27.995  22.405  1.00  0.00    -0.463 OA
BRANCH   3   4
ATOM      4  C   UNL A   1      33.257  26.931  22.470  1.00  0.00     0.306 C 
ATOM      5  O   UNL A   1      33.621  26.375  21.436  1.00  0.00    -0.252 OA
BRANCH   4   6
ATOM      6  C   UNL A   1      33.652  26.391  23.829  1.00  0.00     0.126 C 
BRANCH   6   7
ATOM      7  C   UNL A   1      32.773  25.298  24.462  1.00  0.00     0.004 C 
ATOM      8  C   UNL A   1      32.358  24.222  23.417  1.00  0.00     0.029 C 
ATOM      9  C   UNL A   1      33.310  24.677  25.776  1.00  0.00     0.029 C 
ATOM     10  C   UNL A   1      33.235  22.956  23.465  1.00  0.00     0.086 C 
ATOM     11  C   UNL A   1      34.091  23.369  25.587  1.00  0.00     0.086 C 
ATOM     12  C   UNL A   1      34.721  23.274  23.243  1.00  0.00     0.027 C 
ATOM     13  N   UNL A   1      33.220  22.485  24.836  1.00  0.00    -0.331 N 
ATOM     14  C   UNL A   1      35.295  23.459  24.657  1.00  0.00     0.027 C 
BRANCH  13  15
ATOM     15  C   UNL A   1      32.398  21.495  25.317  1.00  0.00     0.272 C 
ATOM     16  O   UNL A   1      31.249  21.673  25.699  1.00  0.00    -0.267 OA
BRANCH  15  17
ATOM     17  C   UNL A   1      33.011  20.151  25.318  1.00  0.00     0.125 A 
ATOM     18  C   UNL A   1      34.207  19.811  24.814  1.00  0.00     0.119 A 
ATOM     19  N   UNL A   1      32.325  19.008  25.651  1.00  0.00    -0.302 N 
ATOM     20  N   UNL A   1      34.295  18.442  24.807  1.00  0.00    -0.312 N 
ATOM     21  C   UNL A   1      33.109  17.896  25.328  1.00  0.00     0.323 A 
ATOM     22  H   UNL A   1      31.426  18.977  26.050  1.00  0.00     0.172 HD
ATOM     23  H   UNL A   1      35.067  17.923  24.486  1.00  0.00     0.171 HD
ATOM     24  O   UNL A   1      32.821  16.723  25.435  1.00  0.00    -0.248 OA
ENDBRANCH  15  17
ENDBRANCH  13  15
ENDBRANCH   6   7
ENDBRANCH   4   6
ENDBRANCH   3   4
ENDBRANCH   2   3
ENDBRANCH   1   2
BRANCH   1  25
ATOM     25  O   UNL A   1      30.750  29.673  24.176  1.00  0.00    -0.374 OA
BRANCH  25  26
ATOM     26  C   UNL A   1      31.600  29.685  25.320  1.00  0.00     0.202 C 
BRANCH  26  27
ATOM     27  C   UNL A   1      31.779  30.916  26.218  1.00  0.00     0.261 C 
BRANCH  27  28
ATOM     28  O   UNL A   1      32.691  30.753  27.306  1.00  0.00    -0.460 OA
BRANCH  28  29
ATOM     29  C   UNL A   1      33.466  31.836  27.543  1.00  0.00     0.338 C 
ATOM     30  O   UNL A   1      33.123  33.004  27.605  1.00  0.00    -0.246 OA
BRANCH  29  31
ATOM     31  C   UNL A   1      34.818  31.396  27.895  1.00  0.00     0.060 A 
ATOM     32  C   UNL A   1      35.015  30.051  28.233  1.00  0.00     0.016 A 
ATOM     33  C   UNL A   1      35.839  32.337  28.031  1.00  0.00     0.016 A 
ATOM     34  C   UNL A   1      36.233  29.646  28.760  1.00  0.00     0.010 A 
ATOM     35  C   UNL A   1      37.053  31.933  28.578  1.00  0.00     0.010 A 
ATOM     36  C   UNL A   1      37.233  30.599  28.984  1.00  0.00    -0.014 A 
BRANCH  36  37
ATOM     37  C   UNL A   1      38.387  30.240  29.828  1.00  0.00     0.031 A 
ATOM     38  C   UNL A   1      39.405  29.286  29.273  1.00  0.00     0.074 A 
ATOM     39  C   UNL A   1      38.526  30.779  31.049  1.00  0.00     0.049 A 
ATOM     40  N   UNL A   1      40.454  28.764  29.850  1.00  0.00    -0.248 NA
ATOM     41  C   UNL A   1      39.209  28.860  27.877  1.00  0.00     0.031 C 
ATOM     42  C   UNL A   1      37.617  31.755  31.646  1.00  0.00     0.029 A 
ATOM     43  N   UNL A   1      39.478  30.567  32.009  1.00  0.00    -0.354 N 
ATOM     44  C   UNL A   1      41.033  27.937  28.895  1.00  0.00     0.074 A 
ATOM     45  C   UNL A   1      40.206  28.005  27.712  1.00  0.00     0.031 C 
ATOM     46  C   UNL A   1      38.047  32.045  32.885  1.00  0.00     0.029 A 
ATOM     47  C   UNL A   1      39.233  31.243  33.177  1.00  0.00     0.049 A 
ATOM     48  H   UNL A   1      40.262  29.987  31.874  1.00  0.00     0.167 HD
ATOM     49  C   UNL A   1      42.158  27.194  29.005  1.00  0.00     0.037 A 
ATOM     50  C   UNL A   1      39.880  31.185  34.354  1.00  0.00     0.037 A 
ATOM     51  C   UNL A   1      42.963  27.139  30.196  1.00  0.00     0.049 A 
ATOM     52  C   UNL A   1      41.086  30.288  34.474  1.00  0.00     0.074 A 
ATOM     53  C   UNL A   1      44.130  26.431  30.419  1.00  0.00     0.029 A 
ATOM     54  N   UNL A   1      42.672  27.816  31.372  1.00  0.00    -0.354 N 
ATOM     55  N   UNL A   1      41.641  29.520  33.568  1.00  0.00    -0.248 NA
ATOM     56  C   UNL A   1      41.754  30.253  35.781  1.00  0.00     0.031 C 
ATOM     57  C   UNL A   1      44.510  26.631  31.749  1.00  0.00     0.029 A 
ATOM     58  C   UNL A   1      43.622  27.521  32.335  1.00  0.00     0.049 A 
ATOM     59  H   UNL A   1      41.905  28.419  31.502  1.00  0.00     0.167 HD
ATOM     60  C   UNL A   1      42.742  28.937  34.181  1.00  0.00     0.074 A 
ATOM     61  C   UNL A   1      42.781  29.452  35.535  1.00  0.00     0.031 C 
ATOM     62  C   UNL A   1      43.642  28.057  33.673  1.00  0.00     0.037 A 
BRANCH  49  63
ATOM     63  C   UNL A   1      42.557  26.356  27.824  1.00  0.00     0.064 A 
ATOM     64  C   UNL A   1      42.027  25.074  27.608  1.00  0.00     0.173 A 
ATOM     65  C   UNL A   1      43.469  26.853  26.881  1.00  0.00     0.173 A 
ATOM     66  F   UNL A   1      41.165  24.542  28.488  1.00  0.00    -0.203 F 
ATOM     67  C   UNL A   1      42.414  24.314  26.507  1.00  0.00     0.198 A 
ATOM     68  C   UNL A   1      43.829  26.104  25.763  1.00  0.00     0.198 A 
ATOM     69  F   UNL A   1      44.008  28.071  27.037  1.00  0.00    -0.203 F 
ATOM     70  F   UNL A   1      41.933  23.073  26.350  1.00  0.00    -0.200 F 
ATOM     71  C   UNL A   1      43.308  24.832  25.581  1.00  0.00     0.200 A 
ATOM     72  F   UNL A   1      44.682  26.613  24.863  1.00  0.00    -0.200 F 
ATOM     73  F   UNL A   1      43.672  24.103  24.518  1.00  0.00    -0.200 F 
ENDBRANCH  49  63
BRANCH  50  74
ATOM     74  C   UNL A   1      39.395  31.983  35.509  1.00  0.00     0.064 A 
ATOM     75  C   UNL A   1      39.825  33.302  35.708  1.00  0.00     0.173 A 
ATOM     76  C   UNL A   1      38.496  31.443  36.442  1.00  0.00     0.173 A 
ATOM     77  F   UNL A   1      40.696  33.858  34.854  1.00  0.00    -0.203 F 
ATOM     78  C   UNL A   1      39.393  34.042  36.807  1.00  0.00     0.198 A 
ATOM     79  C   UNL A   1      38.041  32.195  37.522  1.00  0.00     0.198 A 
ATOM     80  F   UNL A   1      38.050  30.186  36.295  1.00  0.00    -0.203 F 
ATOM     81  F   UNL A   1      39.857  35.284  36.999  1.00  0.00    -0.200 F 
ATOM     82  C   UNL A   1      38.496  33.490  37.710  1.00  0.00     0.200 A 
ATOM     83  F   UNL A   1      37.160  31.663  38.381  1.00  0.00    -0.200 F 
ATOM     84  F   UNL A   1      38.077  34.204  38.763  1.00  0.00    -0.200 F 
ENDBRANCH  50  74
BRANCH  62  85
ATOM     85  C   UNL A   1      44.772  27.636  34.569  1.00  0.00     0.064 A 
ATOM     86  C   UNL A   1      45.967  28.366  34.647  1.00  0.00     0.173 A 
ATOM     87  C   UNL A   1      44.636  26.509  35.394  1.00  0.00     0.173 A 
ATOM     88  F   UNL A   1      46.152  29.443  33.869  1.00  0.00    -0.203 F 
ATOM     89  C   UNL A   1      46.995  27.965  35.496  1.00  0.00     0.198 A 
ATOM     90  C   UNL A   1      45.651  26.132  36.268  1.00  0.00     0.198 A 
ATOM     91  F   UNL A   1      43.509  25.781  35.365  1.00  0.00    -0.203 F 
ATOM     92  F   UNL A   1      48.150  28.645  35.513  1.00  0.00    -0.200 F 
ATOM     93  C   UNL A   1      46.833  26.855  36.311  1.00  0.00     0.200 A 
ATOM     94  F   UNL A   1      45.484  25.072  37.069  1.00  0.00    -0.200 F 
ATOM     95  F   UNL A   1      47.820  26.477  37.134  1.00  0.00    -0.200 F 
ENDBRANCH  62  85
ENDBRANCH  36  37
ENDBRANCH  29  31
ENDBRANCH  28  29
ENDBRANCH  27  28
ENDBRANCH  26  27
ENDBRANCH  25  26
ENDBRANCH   1  25
TORSDOF 17
ENDMDL
MODEL 2
REMARK VINA RESULT:     -11.9      4.381      8.648
REMARK SMILES O=C(C[C@H]1C[C@H]2CC[C@@H](C1)N2C(=O)c1c[nH]c(=O)[nH]1)OCCOCCOC(=O)c1ccc(-c2c3nc(c(-c4c(F)c(F)c(F)c(F)c4F)c4ccc([nH]4)c(-c4c(F)c(F)c(F)c(F)c4F)c4nc(c(-c5c(F)c(F)c(F)c(F)c5F)c5ccc2[nH]5)C=C4)C=C3)cc1
REMARK SMILES IDX 22 1 21 2 20 3 2 4 1 5 3 6 4 7 5 8 10 9 6 10 9 11 7 12 11 13
REMARK SMILES IDX 8 14 12 15 13 16 14 17 15 18 19 19 16 20 17 21 18 24 23 25
REMARK SMILES IDX 24 26 25 27 26 28 27 29 28 30 29 31 30 32 91 33 31 34 90 35
REMARK SMILES IDX 32 36 33 37 34 38 84 39 35 40 89 41 83 42 85 43 36 44 88 45
REMARK SMILES IDX 82 46 81 47 37 49 69 50 49 51 68 52 50 53 53 54 67 55 86 56
REMARK SMILES IDX 51 57 52 58 66 60 87 61 54 62 38 63 39 64 47 65 40 66 41 67
REMARK SMILES IDX 45 68 48 69 42 70 43 71 46 72 44 73 70 74 71 75 79 76 72 77
REMARK SMILES IDX 73 78 77 79 80 80 74 81 75 82 78 83 76 84 55 85 56 86 64 87
REMARK SMILES IDX 57 88 58 89 62 90 65 91 59 92 60 93 63 94 61 95
REMARK H PARENT 19 22 16 23 85 48 53 59
REMARK Flexibility Score: inf
ROOT
ATOM      1  C   UNL A   1      33.273  33.608  28.050  1.00  0.00     0.202 C 
ENDROOT
BRANCH   1   2
ATOM      2  C   UNL A   1      34.084  32.310  28.001  1.00  0.00     0.261 C 
BRANCH   2   3
ATOM      3  O   UNL A   1      33.365  31.168  27.535  1.00  0.00    -0.463 OA
BRANCH   3   4
ATOM      4  C   UNL A   1      33.968  29.997  27.234  1.00  0.00     0.306 C 
ATOM      5  O   UNL A   1      35.187  29.891  27.347  1.00  0.00    -0.252 OA
BRANCH   4   6
ATOM      6  C   UNL A   1      33.132  28.862  26.680  1.00  0.00     0.126 C 
BRANCH   6   7
ATOM      7  C   UNL A   1      33.755  27.959  25.601  1.00  0.00     0.004 C 
ATOM      8  C   UNL A   1      33.093  26.551  25.582  1.00  0.00     0.029 C 
ATOM      9  C   UNL A   1      33.873  28.581  24.187  1.00  0.00     0.029 C 
ATOM     10  C   UNL A   1      32.016  26.398  24.491  1.00  0.00     0.086 C 
ATOM     11  C   UNL A   1      32.719  28.226  23.239  1.00  0.00     0.086 C 
ATOM     12  C   UNL A   1      30.897  27.438  24.637  1.00  0.00     0.027 C 
ATOM     13  N   UNL A   1      32.632  26.779  23.236  1.00  0.00    -0.331 N 
ATOM     14  C   UNL A   1      31.330  28.606  23.736  1.00  0.00     0.027 C 
BRANCH  13  15
ATOM     15  C   UNL A   1      33.164  25.900  22.323  1.00  0.00     0.272 C 
ATOM     16  O   UNL A   1      33.652  26.226  21.249  1.00  0.00    -0.267 OA
BRANCH  15  17
ATOM     17  C   UNL A   1      33.130  24.488  22.756  1.00  0.00     0.125 A 
ATOM     18  C   UNL A   1      34.106  23.815  23.385  1.00  0.00     0.119 A 
ATOM     19  N   UNL A   1      32.153  23.603  22.370  1.00  0.00    -0.302 N 
ATOM     20  N   UNL A   1      33.769  22.485  23.397  1.00  0.00    -0.312 N 
ATOM     21  C   UNL A   1      32.532  22.312  22.752  1.00  0.00     0.323 A 
ATOM     22  H   UNL A   1      31.322  23.838  21.899  1.00  0.00     0.172 HD
ATOM     23  H   UNL A   1      34.309  21.764  23.793  1.00  0.00     0.171 HD
ATOM     24  O   UNL A   1      31.948  21.270  22.542  1.00  0.00    -0.248 OA
ENDBRANCH  15  17
ENDBRANCH  13  15
ENDBRANCH   6   7
ENDBRANCH   4   6
ENDBRANCH   3   4
ENDBRANCH   2   3
ENDBRANCH   1   2
BRANCH   1  25
ATOM     25  O   UNL A   1      33.008  34.236  29.293  1.00  0.00    -0.374 OA
BRANCH  25  26
ATOM     26  C   UNL A   1      34.056  34.710  30.134  1.00  0.00     0.202 C 
BRANCH  26  27
ATOM     27  C   UNL A   1      34.429  34.043  31.465  1.00  0.00     0.261 C 
BRANCH  27  28
ATOM     28  O   UNL A   1      34.666  32.635  31.400  1.00  0.00    -0.460 OA
BRANCH  28  29
ATOM     29  C   UNL A   1      35.520  32.175  32.341  1.00  0.00     0.338 C 
ATOM     30  O   UNL A   1      35.458  32.329  33.549  1.00  0.00    -0.246 OA
BRANCH  29  31
ATOM     31  C   UNL A   1      36.498  31.282  31.714  1.00  0.00     0.060 A 
ATOM     32  C   UNL A   1      37.474  30.688  32.524  1.00  0.00     0.016 A 
ATOM     33  C   UNL A   1      36.533  31.160  30.326  1.00  0.00     0.016 A 
ATOM     34  C   UNL A   1      38.528  30.001  31.939  1.00  0.00     0.010 A 
ATOM     35  C   UNL A   1      37.601  30.488  29.738  1.00  0.00     0.010 A 
ATOM     36  C   UNL A   1      38.620  29.950  30.544  1.00  0.00    -0.014 A 
BRANCH  36  37
ATOM     37  C   UNL A   1      39.885  29.511  29.926  1.00  0.00     0.031 A 
ATOM     38  C   UNL A   1      41.006  30.504  29.818  1.00  0.00     0.074 A 
ATOM     39  C   UNL A   1      40.026  28.247  29.497  1.00  0.00     0.049 A 
ATOM     40  N   UNL A   1      42.174  30.378  29.248  1.00  0.00    -0.248 NA
ATOM     41  C   UNL A   1      40.774  31.821  30.436  1.00  0.00     0.031 C 
ATOM     42  C   UNL A   1      39.012  27.202  29.612  1.00  0.00     0.029 A 
ATOM     43  N   UNL A   1      41.077  27.637  28.867  1.00  0.00    -0.354 N 
ATOM     44  C   UNL A   1      42.809  31.601  29.423  1.00  0.00     0.074 A 
ATOM     45  C   UNL A   1      41.889  32.465  30.127  1.00  0.00     0.031 C 
ATOM     46  C   UNL A   1      39.484  26.077  29.049  1.00  0.00     0.029 A 
ATOM     47  C   UNL A   1      40.813  26.342  28.501  1.00  0.00     0.049 A 
ATOM     48  H   UNL A   1      41.937  28.084  28.694  1.00  0.00     0.167 HD
ATOM     49  C   UNL A   1      44.053  31.962  29.029  1.00  0.00     0.037 A 
ATOM     50  C   UNL A   1      41.555  25.487  27.775  1.00  0.00     0.037 A 
ATOM     51  C   UNL A   1      44.949  31.085  28.324  1.00  0.00     0.049 A 
ATOM     52  C   UNL A   1      42.905  25.940  27.280  1.00  0.00     0.074 A 
ATOM     53  C   UNL A   1      46.237  31.336  27.887  1.00  0.00     0.029 A 
ATOM     54  N   UNL A   1      44.641  29.785  27.946  1.00  0.00    -0.354 N 
ATOM     55  N   UNL A   1      43.511  27.089  27.460  1.00  0.00    -0.248 NA
ATOM     56  C   UNL A   1      43.673  24.975  26.485  1.00  0.00     0.031 C 
ATOM     57  C   UNL A   1      46.684  30.210  27.189  1.00  0.00     0.029 A 
ATOM     58  C   UNL A   1      45.705  29.230  27.254  1.00  0.00     0.049 A 
ATOM     59  H   UNL A   1      43.793  29.326  28.142  1.00  0.00     0.167 HD
ATOM     60  C   UNL A   1      44.744  26.975  26.831  1.00  0.00     0.074 A 
ATOM     61  C   UNL A   1      44.802  25.638  26.277  1.00  0.00     0.031 C 
ATOM     62  C   UNL A   1      45.740  27.891  26.721  1.00  0.00     0.037 A 
BRANCH  49  63
ATOM     63  C   UNL A   1      44.495  33.367  29.318  1.00  0.00     0.064 A 
ATOM     64  C   UNL A   1      45.189  33.703  30.491  1.00  0.00     0.173 A 
ATOM     65  C   UNL A   1      44.240  34.392  28.393  1.00  0.00     0.173 A 
ATOM     66  F   UNL A   1      45.444  32.767  31.417  1.00  0.00    -0.203 F 
ATOM     67  C   UNL A   1      45.588  35.015  30.738  1.00  0.00     0.198 A 
ATOM     68  C   UNL A   1      44.669  35.696  28.628  1.00  0.00     0.198 A 
ATOM     69  F   UNL A   1      43.580  34.129  27.256  1.00  0.00    -0.203 F 
ATOM     70  F   UNL A   1      46.203  35.321  31.888  1.00  0.00    -0.200 F 
ATOM     71  C   UNL A   1      45.335  36.008  29.803  1.00  0.00     0.200 A 
ATOM     72  F   UNL A   1      44.436  36.651  27.717  1.00  0.00    -0.200 F 
ATOM     73  F   UNL A   1      45.728  37.267  30.038  1.00  0.00    -0.200 F 
ENDBRANCH  49  63
BRANCH  50  74
ATOM     74  C   UNL A   1      41.033  24.133  27.460  1.00  0.00     0.064 A 
ATOM     75  C   UNL A   1      39.988  23.956  26.543  1.00  0.00     0.173 A 
ATOM     76  C   UNL A   1      41.564  22.987  28.071  1.00  0.00     0.173 A 
ATOM     77  F   UNL A   1      39.435  25.021  25.944  1.00  0.00    -0.203 F 
ATOM     78  C   UNL A   1      39.478  22.688  26.267  1.00  0.00     0.198 A 
ATOM     79  C   UNL A   1      41.075  21.717  27.771  1.00  0.00     0.198 A 
ATOM     80  F   UNL A   1      42.569  23.100  28.952  1.00  0.00    -0.203 F 
ATOM     81  F   UNL A   1      38.447  22.553  25.424  1.00  0.00    -0.200 F 
ATOM     82  C   UNL A   1      40.027  21.569  26.877  1.00  0.00     0.200 A 
ATOM     83  F   UNL A   1      41.621  20.639  28.349  1.00  0.00    -0.200 F 
ATOM     84  F   UNL A   1      39.540  20.351  26.607  1.00  0.00    -0.200 F 
ENDBRANCH  50  74
BRANCH  62  85
ATOM     85  C   UNL A   1      46.996  27.459  26.020  1.00  0.00     0.064 A 
ATOM     86  C   UNL A   1      47.135  27.550  24.628  1.00  0.00     0.173 A 
ATOM     87  C   UNL A   1      48.091  26.988  26.760  1.00  0.00     0.173 A 
ATOM     88  F   UNL A   1      46.113  27.981  23.873  1.00  0.00    -0.203 F 
ATOM     89  C   UNL A   1      48.315  27.157  24.000  1.00  0.00     0.198 A 
ATOM     90  C   UNL A   1      49.281  26.631  26.134  1.00  0.00     0.198 A 
ATOM     91  F   UNL A   1      48.013  26.889  28.097  1.00  0.00    -0.203 F 
ATOM     92  F   UNL A   1      48.406  27.200  22.664  1.00  0.00    -0.200 F 
ATOM     93  C   UNL A   1      49.388  26.707  24.754  1.00  0.00     0.200 A 
ATOM     94  F   UNL A   1      50.323  26.216  26.866  1.00  0.00    -0.200 F 
ATOM     95  F   UNL A   1      50.525  26.339  24.149  1.00  0.00    -0.200 F 
ENDBRANCH  62  85
ENDBRANCH  36  37
ENDBRANCH  29  31
ENDBRANCH  28  29
ENDBRANCH  27  28
ENDBRANCH  26  27
ENDBRANCH  25  26
ENDBRANCH   1  25
TORSDOF 17
ENDMDL
MODEL 3
REMARK VINA RESULT:     -11.8      1.186      7.440
REMARK SMILES O=C(C[C@H]1C[C@H]2CC[C@@H](C1)N2C(=O)c1c[nH]c(=O)[nH]1)OCCOCCOC(=O)c1ccc(-c2c3nc(c(-c4c(F)c(F)c(F)c(F)c4F)c4ccc([nH]4)c(-c4c(F)c(F)c(F)c(F)c4F)c4nc(c(-c5c(F)c(F)c(F)c(F)c5F)c5ccc2[nH]5)C=C4)C=C3)cc1
REMARK SMILES IDX 22 1 21 2 20 3 2 4 1 5 3 6 4 7 5 8 10 9 6 10 9 11 7 12 11 13
REMARK SMILES IDX 8 14 12 15 13 16 14 17 15 18 19 19 16 20 17 21 18 24 23 25
REMARK SMILES IDX 24 26 25 27 26 28 27 29 28 30 29 31 30 32 91 33 31 34 90 35
REMARK SMILES IDX 32 36 33 37 34 38 84 39 35 40 89 41 83 42 85 43 36 44 88 45
REMARK SMILES IDX 82 46 81 47 37 49 69 50 49 51 68 52 50 53 53 54 67 55 86 56
REMARK SMILES IDX 51 57 52 58 66 60 87 61 54 62 38 63 39 64 47 65 40 66 41 67
REMARK SMILES IDX 45 68 48 69 42 70 43 71 46 72 44 73 70 74 71 75 79 76 72 77
REMARK SMILES IDX 73 78 77 79 80 80 74 81 75 82 78 83 76 84 55 85 56 86 64 87
REMARK SMILES IDX 57 88 58 89 62 90 65 91 59 92 60 93 63 94 61 95
REMARK H PARENT 19 22 16 23 85 48 53 59
REMARK Flexibility Score: inf
ROOT
ATOM      1  C   UNL A   1      32.340  29.986  25.938  1.00  0.00     0.202 C 
ENDROOT
BRANCH   1   2
ATOM      2  C   UNL A   1      31.419  29.115  25.080  1.00  0.00     0.261 C 
BRANCH   2   3
ATOM      3  O   UNL A   1      31.674  27.712  25.157  1.00  0.00    -0.463 OA
BRANCH   3   4
ATOM      4  C   UNL A   1      31.078  26.910  26.066  1.00  0.00     0.306 C 
ATOM      5  O   UNL A   1      31.024  27.256  27.245  1.00  0.00    -0.252 OA
BRANCH   4   6
ATOM      6  C   UNL A   1      30.563  25.555  25.625  1.00  0.00     0.126 C 
BRANCH   6   7
ATOM      7  C   UNL A   1      31.471  24.330  25.826  1.00  0.00     0.004 C 
ATOM      8  C   UNL A   1      31.207  23.240  24.747  1.00  0.00     0.029 C 
ATOM      9  C   UNL A   1      32.979  24.632  26.012  1.00  0.00     0.029 C 
ATOM     10  C   UNL A   1      32.219  23.274  23.586  1.00  0.00     0.086 C 
ATOM     11  C   UNL A   1      33.811  24.529  24.725  1.00  0.00     0.086 C 
ATOM     12  C   UNL A   1      32.238  24.637  22.878  1.00  0.00     0.027 C 
ATOM     13  N   UNL A   1      33.541  23.214  24.177  1.00  0.00    -0.331 N 
ATOM     14  C   UNL A   1      33.353  25.426  23.582  1.00  0.00     0.027 C 
BRANCH  13  15
ATOM     15  C   UNL A   1      34.288  22.069  24.315  1.00  0.00     0.272 C 
ATOM     16  O   UNL A   1      35.445  21.946  23.935  1.00  0.00    -0.267 OA
BRANCH  15  17
ATOM     17  C   UNL A   1      33.582  20.968  25.001  1.00  0.00     0.125 A 
ATOM     18  C   UNL A   1      33.585  20.707  26.318  1.00  0.00     0.119 A 
ATOM     19  N   UNL A   1      32.990  19.920  24.339  1.00  0.00    -0.302 N 
ATOM     20  N   UNL A   1      33.006  19.477  26.511  1.00  0.00    -0.312 N 
ATOM     21  C   UNL A   1      32.620  18.944  25.270  1.00  0.00     0.323 A 
ATOM     22  H   UNL A   1      32.852  19.864  23.367  1.00  0.00     0.172 HD
ATOM     23  H   UNL A   1      32.881  19.038  27.383  1.00  0.00     0.171 HD
ATOM     24  O   UNL A   1      32.116  17.862  25.056  1.00  0.00    -0.248 OA
ENDBRANCH  15  17
ENDBRANCH  13  15
ENDBRANCH   6   7
ENDBRANCH   4   6
ENDBRANCH   3   4
ENDBRANCH   2   3
ENDBRANCH   1   2
BRANCH   1  25
ATOM     25  O   UNL A   1      31.790  30.888  26.883  1.00  0.00    -0.374 OA
BRANCH  25  26
ATOM     26  C   UNL A   1      31.454  32.229  26.536  1.00  0.00     0.202 C 
BRANCH  26  27
ATOM     27  C   UNL A   1      32.146  33.453  27.151  1.00  0.00     0.261 C 
BRANCH  27  28
ATOM     28  O   UNL A   1      33.169  33.162  28.106  1.00  0.00    -0.460 OA
BRANCH  28  29
ATOM     29  C   UNL A   1      34.292  33.899  27.953  1.00  0.00     0.338 C 
ATOM     30  O   UNL A   1      34.381  35.100  27.763  1.00  0.00    -0.246 OA
BRANCH  29  31
ATOM     31  C   UNL A   1      35.462  33.058  28.217  1.00  0.00     0.060 A 
ATOM     32  C   UNL A   1      35.265  31.687  28.426  1.00  0.00     0.016 A 
ATOM     33  C   UNL A   1      36.712  33.649  28.402  1.00  0.00     0.016 A 
ATOM     34  C   UNL A   1      36.318  30.901  28.872  1.00  0.00     0.010 A 
ATOM     35  C   UNL A   1      37.762  32.864  28.869  1.00  0.00     0.010 A 
ATOM     36  C   UNL A   1      37.551  31.501  29.146  1.00  0.00    -0.014 A 
BRANCH  36  37
ATOM     37  C   UNL A   1      38.559  30.748  29.915  1.00  0.00     0.031 A 
ATOM     38  C   UNL A   1      38.724  31.065  31.373  1.00  0.00     0.074 A 
ATOM     39  C   UNL A   1      39.286  29.789  29.320  1.00  0.00     0.049 A 
ATOM     40  N   UNL A   1      39.591  30.597  32.231  1.00  0.00    -0.248 NA
ATOM     41  C   UNL A   1      37.785  32.048  31.939  1.00  0.00     0.031 C 
ATOM     42  C   UNL A   1      39.153  29.376  27.925  1.00  0.00     0.029 A 
ATOM     43  N   UNL A   1      40.288  29.001  29.817  1.00  0.00    -0.354 N 
ATOM     44  C   UNL A   1      39.313  31.239  33.431  1.00  0.00     0.074 A 
ATOM     45  C   UNL A   1      38.217  32.149  33.187  1.00  0.00     0.031 C 
ATOM     46  C   UNL A   1      40.060  28.419  27.669  1.00  0.00     0.029 A 
ATOM     47  C   UNL A   1      40.858  28.187  28.871  1.00  0.00     0.049 A 
ATOM     48  H   UNL A   1      40.572  29.016  30.759  1.00  0.00     0.167 HD
ATOM     49  C   UNL A   1      39.923  31.075  34.628  1.00  0.00     0.037 A 
ATOM     50  C   UNL A   1      41.926  27.376  28.968  1.00  0.00     0.037 A 
ATOM     51  C   UNL A   1      41.016  30.166  34.845  1.00  0.00     0.049 A 
ATOM     52  C   UNL A   1      42.638  27.271  30.293  1.00  0.00     0.074 A 
ATOM     53  C   UNL A   1      41.704  29.906  36.017  1.00  0.00     0.029 A 
ATOM     54  N   UNL A   1      41.587  29.374  33.859  1.00  0.00    -0.354 N 
ATOM     55  N   UNL A   1      42.364  27.864  31.430  1.00  0.00    -0.248 NA
ATOM     56  C   UNL A   1      43.803  26.379  30.346  1.00  0.00     0.031 C 
ATOM     57  C   UNL A   1      42.731  29.003  35.725  1.00  0.00     0.029 A 
ATOM     58  C   UNL A   1      42.639  28.644  34.389  1.00  0.00     0.049 A 
ATOM     59  H   UNL A   1      41.289  29.335  32.922  1.00  0.00     0.167 HD
ATOM     60  C   UNL A   1      43.300  27.395  32.342  1.00  0.00     0.074 A 
ATOM     61  C   UNL A   1      44.140  26.456  31.626  1.00  0.00     0.031 C 
ATOM     62  C   UNL A   1      43.453  27.708  33.654  1.00  0.00     0.037 A 
BRANCH  49  63
ATOM     63  C   UNL A   1      39.447  31.920  35.774  1.00  0.00     0.064 A 
ATOM     64  C   UNL A   1      38.435  31.489  36.646  1.00  0.00     0.173 A 
ATOM     65  C   UNL A   1      40.030  33.173  36.018  1.00  0.00     0.173 A 
ATOM     66  F   UNL A   1      37.831  30.308  36.449  1.00  0.00    -0.203 F 
ATOM     67  C   UNL A   1      38.008  32.291  37.702  1.00  0.00     0.198 A 
ATOM     68  C   UNL A   1      39.624  33.959  37.094  1.00  0.00     0.198 A 
ATOM     69  F   UNL A   1      41.000  33.636  35.216  1.00  0.00    -0.203 F 
ATOM     70  F   UNL A   1      37.005  31.881  38.490  1.00  0.00    -0.200 F 
ATOM     71  C   UNL A   1      38.608  33.522  37.930  1.00  0.00     0.200 A 
ATOM     72  F   UNL A   1      40.215  35.140  37.321  1.00  0.00    -0.200 F 
ATOM     73  F   UNL A   1      38.202  34.288  38.952  1.00  0.00    -0.200 F 
ENDBRANCH  49  63
BRANCH  50  74
ATOM     74  C   UNL A   1      42.395  26.619  27.779  1.00  0.00     0.064 A 
ATOM     75  C   UNL A   1      41.909  25.334  27.503  1.00  0.00     0.173 A 
ATOM     76  C   UNL A   1      43.343  27.161  26.897  1.00  0.00     0.173 A 
ATOM     77  F   UNL A   1      41.015  24.766  28.324  1.00  0.00    -0.203 F 
ATOM     78  C   UNL A   1      42.369  24.611  26.404  1.00  0.00     0.198 A 
ATOM     79  C   UNL A   1      43.778  26.450  25.781  1.00  0.00     0.198 A 
ATOM     80  F   UNL A   1      43.837  28.389  27.113  1.00  0.00    -0.203 F 
ATOM     81  F   UNL A   1      41.924  23.366  26.190  1.00  0.00    -0.200 F 
ATOM     82  C   UNL A   1      43.299  25.172  25.540  1.00  0.00     0.200 A 
ATOM     83  F   UNL A   1      44.662  27.004  24.940  1.00  0.00    -0.200 F 
ATOM     84  F   UNL A   1      43.736  24.478  24.481  1.00  0.00    -0.200 F 
ENDBRANCH  50  74
BRANCH  62  85
ATOM     85  C   UNL A   1      44.535  26.992  34.410  1.00  0.00     0.064 A 
ATOM     86  C   UNL A   1      45.820  27.534  34.556  1.00  0.00     0.173 A 
ATOM     87  C   UNL A   1      44.265  25.764  35.033  1.00  0.00     0.173 A 
ATOM     88  F   UNL A   1      46.132  28.699  33.969  1.00  0.00    -0.203 F 
ATOM     89  C   UNL A   1      46.803  26.858  35.275  1.00  0.00     0.198 A 
ATOM     90  C   UNL A   1      45.239  25.109  35.781  1.00  0.00     0.198 A 
ATOM     91  F   UNL A   1      43.049  25.205  34.932  1.00  0.00    -0.203 F 
ATOM     92  F   UNL A   1      48.040  27.369  35.355  1.00  0.00    -0.200 F 
ATOM     93  C   UNL A   1      46.510  25.652  35.893  1.00  0.00     0.200 A 
ATOM     94  F   UNL A   1      44.948  23.954  36.394  1.00  0.00    -0.200 F 
ATOM     95  F   UNL A   1      47.455  25.009  36.591  1.00  0.00    -0.200 F 
ENDBRANCH  62  85
ENDBRANCH  36  37
ENDBRANCH  29  31
ENDBRANCH  28  29
ENDBRANCH  27  28
ENDBRANCH  26  27
ENDBRANCH  25  26
ENDBRANCH   1  25
TORSDOF 17
ENDMDL
