MODEL 1
REMARK VINA RESULT:     -11.4      0.000      0.000
REMARK SMILES O=C(OCCOCCOC(=O)[C@@H](Cc1ccccc1)Nc1ccc(Cl)c(Br)c1)c1ccc(-c2c3nc(c(-c4c(F)c(F)c(F)c(F)c4F)c4ccc([nH]4)c(-c4c(F)c(F)c(F)c(F)c4F)c4nc(c(-c5c(F)c(F)c(F)c(F)c5F)c5ccc2[nH]5)C=C4)C=C3)cc1
REMARK SMILES IDX 6 1 5 2 4 3 3 4 2 5 1 6 29 7 30 8 91 9 31 10 90 11 32 12
REMARK SMILES IDX 33 13 34 14 84 15 35 16 89 17 83 18 85 19 36 20 88 21 82 22
REMARK SMILES IDX 81 23 37 25 69 26 49 27 68 28 50 29 53 30 67 31 86 32 51 33
REMARK SMILES IDX 52 34 66 36 87 37 54 38 38 39 39 40 47 41 40 42 41 43 45 44
REMARK SMILES IDX 48 45 42 46 43 47 46 48 44 49 70 50 71 51 79 52 72 53 73 54
REMARK SMILES IDX 77 55 80 56 74 57 75 58 78 59 76 60 55 61 56 62 64 63 57 64
REMARK SMILES IDX 58 65 62 66 65 67 59 68 60 69 63 70 61 71 7 72 8 73 9 74
REMARK SMILES IDX 10 75 11 76 12 77 13 78 14 79 15 80 19 81 16 82 18 83 17 84
REMARK SMILES IDX 20 85 21 87 22 88 28 89 23 90 26 91 24 92 27 93 25 94
REMARK H PARENT 85 24 53 35 20 86
REMARK Flexibility Score: inf
ROOT
ATOM      1  O   UNL A   1      35.351  23.244  25.462  1.00  0.00    -0.374 OA
ENDROOT
BRANCH   1   2
ATOM      2  C   UNL A   1      35.688  22.219  24.524  1.00  0.00     0.202 C 
BRANCH   2   3
ATOM      3  C   UNL A   1      37.147  21.731  24.475  1.00  0.00     0.261 C 
BRANCH   3   4
ATOM      4  O   UNL A   1      37.724  21.605  25.792  1.00  0.00    -0.460 OA
BRANCH   4   5
ATOM      5  C   UNL A   1      39.042  21.575  26.125  1.00  0.00     0.338 C 
ATOM      6  O   UNL A   1      39.706  20.570  25.909  1.00  0.00    -0.246 OA
BRANCH   5   7
ATOM      7  C   UNL A   1      39.707  22.757  26.738  1.00  0.00     0.060 A 
ATOM      8  C   UNL A   1      39.321  24.052  26.437  1.00  0.00     0.016 A 
ATOM      9  C   UNL A   1      40.730  22.585  27.678  1.00  0.00     0.016 A 
ATOM     10  C   UNL A   1      39.990  25.151  26.887  1.00  0.00     0.010 A 
ATOM     11  C   UNL A   1      41.357  23.706  28.245  1.00  0.00     0.010 A 
ATOM     12  C   UNL A   1      40.990  24.991  27.827  1.00  0.00    -0.014 A 
BRANCH  12  13
ATOM     13  C   UNL A   1      41.649  26.246  28.201  1.00  0.00     0.031 A 
ATOM     14  C   UNL A   1      42.995  26.520  27.621  1.00  0.00     0.074 A 
ATOM     15  C   UNL A   1      40.894  27.208  28.769  1.00  0.00     0.049 A 
ATOM     16  N   UNL A   1      43.751  27.571  27.761  1.00  0.00    -0.248 NA
ATOM     17  C   UNL A   1      43.559  25.482  26.739  1.00  0.00     0.031 C 
ATOM     18  C   UNL A   1      39.483  27.054  29.159  1.00  0.00     0.029 A 
ATOM     19  N   UNL A   1      41.162  28.521  29.034  1.00  0.00    -0.354 N 
ATOM     20  C   UNL A   1      44.895  27.305  27.024  1.00  0.00     0.074 A 
ATOM     21  C   UNL A   1      44.737  25.999  26.429  1.00  0.00     0.031 C 
ATOM     22  C   UNL A   1      39.002  28.239  29.559  1.00  0.00     0.029 A 
ATOM     23  C   UNL A   1      40.094  29.200  29.568  1.00  0.00     0.049 A 
ATOM     24  H   UNL A   1      42.036  28.940  28.858  1.00  0.00     0.167 HD
ATOM     25  C   UNL A   1      45.980  28.096  26.881  1.00  0.00     0.037 A 
ATOM     26  C   UNL A   1      40.036  30.448  30.063  1.00  0.00     0.037 A 
ATOM     27  C   UNL A   1      46.077  29.392  27.495  1.00  0.00     0.049 A 
ATOM     28  C   UNL A   1      41.302  31.257  30.003  1.00  0.00     0.074 A 
ATOM     29  C   UNL A   1      47.156  30.249  27.554  1.00  0.00     0.029 A 
ATOM     30  N   UNL A   1      45.023  30.018  28.155  1.00  0.00    -0.354 N 
ATOM     31  N   UNL A   1      42.449  30.949  29.442  1.00  0.00    -0.248 NA
ATOM     32  C   UNL A   1      41.282  32.564  30.660  1.00  0.00     0.031 C 
ATOM     33  C   UNL A   1      46.767  31.378  28.286  1.00  0.00     0.029 A 
ATOM     34  C   UNL A   1      45.429  31.249  28.634  1.00  0.00     0.049 A 
ATOM     35  H   UNL A   1      44.122  29.639  28.265  1.00  0.00     0.167 HD
ATOM     36  C   UNL A   1      43.289  32.025  29.675  1.00  0.00     0.074 A 
ATOM     37  C   UNL A   1      42.501  33.010  30.394  1.00  0.00     0.031 C 
ATOM     38  C   UNL A   1      44.594  32.187  29.343  1.00  0.00     0.037 A 
BRANCH  25  39
ATOM     39  C   UNL A   1      47.142  27.526  26.128  1.00  0.00     0.064 A 
ATOM     40  C   UNL A   1      48.184  26.837  26.768  1.00  0.00     0.173 A 
ATOM     41  C   UNL A   1      47.243  27.724  24.742  1.00  0.00     0.173 A 
ATOM     42  F   UNL A   1      48.158  26.659  28.097  1.00  0.00    -0.203 F 
ATOM     43  C   UNL A   1      49.294  26.391  26.052  1.00  0.00     0.198 A 
ATOM     44  C   UNL A   1      48.341  27.254  24.027  1.00  0.00     0.198 A 
ATOM     45  F   UNL A   1      46.285  28.395  24.085  1.00  0.00    -0.203 F 
ATOM     46  F   UNL A   1      50.307  25.793  26.695  1.00  0.00    -0.200 F 
ATOM     47  C   UNL A   1      49.369  26.596  24.683  1.00  0.00     0.200 A 
ATOM     48  F   UNL A   1      48.412  27.456  22.703  1.00  0.00    -0.200 F 
ATOM     49  F   UNL A   1      50.441  26.175  23.998  1.00  0.00    -0.200 F 
ENDBRANCH  25  39
BRANCH  26  50
ATOM     50  C   UNL A   1      38.806  30.942  30.744  1.00  0.00     0.064 A 
ATOM     51  C   UNL A   1      37.826  31.674  30.061  1.00  0.00     0.173 A 
ATOM     52  C   UNL A   1      38.602  30.718  32.117  1.00  0.00     0.173 A 
ATOM     53  F   UNL A   1      37.975  31.937  28.754  1.00  0.00    -0.203 F 
ATOM     54  C   UNL A   1      36.711  32.185  30.726  1.00  0.00     0.198 A 
ATOM     55  C   UNL A   1      37.467  31.192  32.772  1.00  0.00     0.198 A 
ATOM     56  F   UNL A   1      39.505  30.029  32.830  1.00  0.00    -0.203 F 
ATOM     57  F   UNL A   1      35.822  32.935  30.061  1.00  0.00    -0.200 F 
ATOM     58  C   UNL A   1      36.529  31.938  32.078  1.00  0.00     0.200 A 
ATOM     59  F   UNL A   1      37.292  30.935  34.075  1.00  0.00    -0.200 F 
ATOM     60  F   UNL A   1      35.459  32.431  32.717  1.00  0.00    -0.200 F 
ENDBRANCH  26  50
BRANCH  38  61
ATOM     61  C   UNL A   1      45.218  33.490  29.739  1.00  0.00     0.064 A 
ATOM     62  C   UNL A   1      45.863  33.649  30.974  1.00  0.00     0.173 A 
ATOM     63  C   UNL A   1      45.185  34.581  28.860  1.00  0.00     0.173 A 
ATOM     64  F   UNL A   1      45.900  32.635  31.853  1.00  0.00    -0.203 F 
ATOM     65  C   UNL A   1      46.425  34.870  31.329  1.00  0.00     0.198 A 
ATOM     66  C   UNL A   1      45.780  35.789  29.204  1.00  0.00     0.198 A 
ATOM     67  F   UNL A   1      44.585  34.471  27.666  1.00  0.00    -0.203 F 
ATOM     68  F   UNL A   1      46.982  35.021  32.538  1.00  0.00    -0.200 F 
ATOM     69  C   UNL A   1      46.389  35.936  30.441  1.00  0.00     0.200 A 
ATOM     70  F   UNL A   1      45.760  36.812  28.339  1.00  0.00    -0.200 F 
ATOM     71  F   UNL A   1      46.936  37.110  30.783  1.00  0.00    -0.200 F 
ENDBRANCH  38  61
ENDBRANCH  12  13
ENDBRANCH   5   7
ENDBRANCH   4   5
ENDBRANCH   3   4
ENDBRANCH   2   3
ENDBRANCH   1   2
BRANCH   1  72
ATOM     72  C   UNL A   1      34.632  24.380  24.976  1.00  0.00     0.202 C 
BRANCH  72  73
ATOM     73  C   UNL A   1      34.280  24.190  23.502  1.00  0.00     0.261 C 
BRANCH  73  74
ATOM     74  O   UNL A   1      33.025  24.833  23.238  1.00  0.00    -0.462 OA
BRANCH  74  75
ATOM     75  C   UNL A   1      33.106  26.108  22.772  1.00  0.00     0.328 C 
ATOM     76  O   UNL A   1      33.954  26.515  21.984  1.00  0.00    -0.250 OA
BRANCH  75  77
ATOM     77  C   UNL A   1      32.055  27.016  23.429  1.00  0.00     0.194 C 
BRANCH  77  78
ATOM     78  C   UNL A   1      30.564  26.823  23.038  1.00  0.00     0.072 C 
BRANCH  78  79
ATOM     79  C   UNL A   1      29.687  28.043  22.845  1.00  0.00    -0.045 A 
ATOM     80  C   UNL A   1      28.339  28.021  23.213  1.00  0.00     0.004 A 
ATOM     81  C   UNL A   1      30.201  29.226  22.290  1.00  0.00     0.004 A 
ATOM     82  C   UNL A   1      27.505  29.104  22.933  1.00  0.00     0.000 A 
ATOM     83  C   UNL A   1      29.365  30.305  21.992  1.00  0.00     0.000 A 
ATOM     84  C   UNL A   1      28.012  30.237  22.301  1.00  0.00     0.000 A 
ENDBRANCH  78  79
ENDBRANCH  77  78
BRANCH  77  85
ATOM     85  N   UNL A   1      32.230  26.942  24.888  1.00  0.00    -0.372 N 
ATOM     86  H   UNL A   1      32.096  26.096  25.372  1.00  0.00     0.161 HD
BRANCH  85  87
ATOM     87  C   UNL A   1      32.590  28.102  25.559  1.00  0.00     0.036 A 
ATOM     88  C   UNL A   1      31.666  29.140  25.679  1.00  0.00     0.027 A 
ATOM     89  C   UNL A   1      33.844  28.239  26.168  1.00  0.00     0.043 A 
ATOM     90  C   UNL A   1      31.995  30.308  26.370  1.00  0.00     0.024 A 
ATOM     91  C   UNL A   1      34.181  29.406  26.860  1.00  0.00     0.038 A 
ATOM     92  C   UNL A   1      33.256  30.447  26.954  1.00  0.00     0.055 A 
ATOM     93  Br  UNL A   1      35.913  29.489  27.634  1.00  0.00    -0.049 Br
ATOM     94  Cl  UNL A   1      33.602  31.933  27.762  1.00  0.00    -0.083 Cl
ENDBRANCH  85  87
ENDBRANCH  77  85
ENDBRANCH  75  77
ENDBRANCH  74  75
ENDBRANCH  73  74
ENDBRANCH  72  73
ENDBRANCH   1  72
TORSDOF 18
ENDMDL
MODEL 2
REMARK VINA RESULT:     -11.3      4.642      9.978
REMARK SMILES O=C(OCCOCCOC(=O)[C@@H](Cc1ccccc1)Nc1ccc(Cl)c(Br)c1)c1ccc(-c2c3nc(c(-c4c(F)c(F)c(F)c(F)c4F)c4ccc([nH]4)c(-c4c(F)c(F)c(F)c(F)c4F)c4nc(c(-c5c(F)c(F)c(F)c(F)c5F)c5ccc2[nH]5)C=C4)C=C3)cc1
REMARK SMILES IDX 6 1 5 2 4 3 3 4 2 5 1 6 29 7 30 8 91 9 31 10 90 11 32 12
REMARK SMILES IDX 33 13 34 14 84 15 35 16 89 17 83 18 85 19 36 20 88 21 82 22
REMARK SMILES IDX 81 23 37 25 69 26 49 27 68 28 50 29 53 30 67 31 86 32 51 33
REMARK SMILES IDX 52 34 66 36 87 37 54 38 38 39 39 40 47 41 40 42 41 43 45 44
REMARK SMILES IDX 48 45 42 46 43 47 46 48 44 49 70 50 71 51 79 52 72 53 73 54
REMARK SMILES IDX 77 55 80 56 74 57 75 58 78 59 76 60 55 61 56 62 64 63 57 64
REMARK SMILES IDX 58 65 62 66 65 67 59 68 60 69 63 70 61 71 7 72 8 73 9 74
REMARK SMILES IDX 10 75 11 76 12 77 13 78 14 79 15 80 19 81 16 82 18 83 17 84
REMARK SMILES IDX 20 85 21 87 22 88 28 89 23 90 26 91 24 92 27 93 25 94
REMARK H PARENT 85 24 53 35 20 86
REMARK Flexibility Score: inf
ROOT
ATOM      1  O   UNL A   1      31.225  28.777  23.776  1.00  0.00    -0.374 OA
ENDROOT
BRANCH   1   2
ATOM      2  C   UNL A   1      31.300  29.599  24.942  1.00  0.00     0.202 C 
BRANCH   2   3
ATOM      3  C   UNL A   1      32.673  29.775  25.618  1.00  0.00     0.261 C 
BRANCH   3   4
ATOM      4  O   UNL A   1      32.574  30.468  26.881  1.00  0.00    -0.460 OA
BRANCH   4   5
ATOM      5  C   UNL A   1      33.356  31.483  27.337  1.00  0.00     0.338 C 
ATOM      6  O   UNL A   1      32.947  32.636  27.303  1.00  0.00    -0.246 OA
BRANCH   5   7
ATOM      7  C   UNL A   1      34.709  31.218  27.898  1.00  0.00     0.060 A 
ATOM      8  C   UNL A   1      35.103  29.950  28.291  1.00  0.00     0.016 A 
ATOM      9  C   UNL A   1      35.645  32.253  28.008  1.00  0.00     0.016 A 
ATOM     10  C   UNL A   1      36.287  29.700  28.920  1.00  0.00     0.010 A 
ATOM     11  C   UNL A   1      36.916  31.995  28.547  1.00  0.00     0.010 A 
ATOM     12  C   UNL A   1      37.221  30.712  29.019  1.00  0.00    -0.014 A 
BRANCH  12  13
ATOM     13  C   UNL A   1      38.434  30.322  29.745  1.00  0.00     0.031 A 
ATOM     14  C   UNL A   1      38.545  30.727  31.175  1.00  0.00     0.074 A 
ATOM     15  C   UNL A   1      39.214  29.367  29.199  1.00  0.00     0.049 A 
ATOM     16  N   UNL A   1      39.488  30.462  32.034  1.00  0.00    -0.248 NA
ATOM     17  C   UNL A   1      37.429  31.516  31.728  1.00  0.00     0.031 C 
ATOM     18  C   UNL A   1      39.011  28.770  27.868  1.00  0.00     0.029 A 
ATOM     19  N   UNL A   1      40.265  28.663  29.713  1.00  0.00    -0.354 N 
ATOM     20  C   UNL A   1      39.103  31.085  33.211  1.00  0.00     0.074 A 
ATOM     21  C   UNL A   1      37.837  31.737  32.966  1.00  0.00     0.031 C 
ATOM     22  C   UNL A   1      39.874  27.759  27.700  1.00  0.00     0.029 A 
ATOM     23  C   UNL A   1      40.763  27.715  28.851  1.00  0.00     0.049 A 
ATOM     24  H   UNL A   1      40.631  28.820  30.614  1.00  0.00     0.167 HD
ATOM     25  C   UNL A   1      39.774  31.110  34.382  1.00  0.00     0.037 A 
ATOM     26  C   UNL A   1      41.856  26.943  28.969  1.00  0.00     0.037 A 
ATOM     27  C   UNL A   1      41.030  30.436  34.567  1.00  0.00     0.049 A 
ATOM     28  C   UNL A   1      42.652  27.090  30.236  1.00  0.00     0.074 A 
ATOM     29  C   UNL A   1      41.891  30.477  35.643  1.00  0.00     0.029 A 
ATOM     30  N   UNL A   1      41.595  29.578  33.626  1.00  0.00    -0.354 N 
ATOM     31  N   UNL A   1      42.376  27.806  31.303  1.00  0.00    -0.248 NA
ATOM     32  C   UNL A   1      43.914  26.353  30.313  1.00  0.00     0.031 C 
ATOM     33  C   UNL A   1      42.998  29.675  35.339  1.00  0.00     0.029 A 
ATOM     34  C   UNL A   1      42.800  29.089  34.094  1.00  0.00     0.049 A 
ATOM     35  H   UNL A   1      41.196  29.353  32.755  1.00  0.00     0.167 HD
ATOM     36  C   UNL A   1      43.428  27.605  32.180  1.00  0.00     0.074 A 
ATOM     37  C   UNL A   1      44.326  26.665  31.533  1.00  0.00     0.031 C 
ATOM     38  C   UNL A   1      43.649  28.152  33.402  1.00  0.00     0.037 A 
BRANCH  25  39
ATOM     39  C   UNL A   1      39.204  31.959  35.475  1.00  0.00     0.064 A 
ATOM     40  C   UNL A   1      39.519  33.320  35.608  1.00  0.00     0.173 A 
ATOM     41  C   UNL A   1      38.366  31.384  36.444  1.00  0.00     0.173 A 
ATOM     42  F   UNL A   1      40.350  33.908  34.734  1.00  0.00    -0.203 F 
ATOM     43  C   UNL A   1      39.040  34.066  36.684  1.00  0.00     0.198 A 
ATOM     44  C   UNL A   1      37.868  32.138  37.502  1.00  0.00     0.198 A 
ATOM     45  F   UNL A   1      38.050  30.082  36.376  1.00  0.00    -0.203 F 
ATOM     46  F   UNL A   1      39.407  35.346  36.826  1.00  0.00    -0.200 F 
ATOM     47  C   UNL A   1      38.211  33.475  37.626  1.00  0.00     0.200 A 
ATOM     48  F   UNL A   1      37.070  31.564  38.414  1.00  0.00    -0.200 F 
ATOM     49  F   UNL A   1      37.759  34.190  38.665  1.00  0.00    -0.200 F 
ENDBRANCH  25  39
BRANCH  26  50
ATOM     50  C   UNL A   1      42.308  26.084  27.840  1.00  0.00     0.064 A 
ATOM     51  C   UNL A   1      43.311  26.496  26.952  1.00  0.00     0.173 A 
ATOM     52  C   UNL A   1      41.714  24.832  27.602  1.00  0.00     0.173 A 
ATOM     53  F   UNL A   1      43.902  27.689  27.115  1.00  0.00    -0.203 F 
ATOM     54  C   UNL A   1      43.680  25.707  25.861  1.00  0.00     0.198 A 
ATOM     55  C   UNL A   1      42.111  24.026  26.537  1.00  0.00     0.198 A 
ATOM     56  F   UNL A   1      40.744  24.381  28.412  1.00  0.00    -0.203 F 
ATOM     57  F   UNL A   1      44.597  26.155  24.994  1.00  0.00    -0.200 F 
ATOM     58  C   UNL A   1      43.085  24.471  25.658  1.00  0.00     0.200 A 
ATOM     59  F   UNL A   1      41.542  22.826  26.359  1.00  0.00    -0.200 F 
ATOM     60  F   UNL A   1      43.437  23.716  24.609  1.00  0.00    -0.200 F 
ENDBRANCH  26  50
BRANCH  38  61
ATOM     61  C   UNL A   1      44.896  27.713  34.105  1.00  0.00     0.064 A 
ATOM     62  C   UNL A   1      46.101  28.416  33.968  1.00  0.00     0.173 A 
ATOM     63  C   UNL A   1      44.872  26.588  34.942  1.00  0.00     0.173 A 
ATOM     64  F   UNL A   1      46.172  29.487  33.163  1.00  0.00    -0.203 F 
ATOM     65  C   UNL A   1      47.252  27.985  34.619  1.00  0.00     0.198 A 
ATOM     66  C   UNL A   1      46.016  26.182  35.619  1.00  0.00     0.198 A 
ATOM     67  F   UNL A   1      43.739  25.891  35.106  1.00  0.00    -0.203 F 
ATOM     68  F   UNL A   1      48.409  28.633  34.428  1.00  0.00    -0.200 F 
ATOM     69  C   UNL A   1      47.206  26.874  35.449  1.00  0.00     0.200 A 
ATOM     70  F   UNL A   1      45.966  25.120  36.433  1.00  0.00    -0.200 F 
ATOM     71  F   UNL A   1      48.315  26.463  36.080  1.00  0.00    -0.200 F 
ENDBRANCH  38  61
ENDBRANCH  12  13
ENDBRANCH   5   7
ENDBRANCH   4   5
ENDBRANCH   3   4
ENDBRANCH   2   3
ENDBRANCH   1   2
BRANCH   1  72
ATOM     72  C   UNL A   1      30.333  27.660  23.807  1.00  0.00     0.202 C 
BRANCH  72  73
ATOM     73  C   UNL A   1      30.458  26.922  25.137  1.00  0.00     0.261 C 
BRANCH  73  74
ATOM     74  O   UNL A   1      30.551  25.513  24.879  1.00  0.00    -0.462 OA
BRANCH  74  75
ATOM     75  C   UNL A   1      31.364  24.816  25.718  1.00  0.00     0.328 C 
ATOM     76  O   UNL A   1      31.274  24.814  26.941  1.00  0.00    -0.250 OA
BRANCH  75  77
ATOM     77  C   UNL A   1      32.480  24.094  24.949  1.00  0.00     0.194 C 
BRANCH  77  78
ATOM     78  C   UNL A   1      33.833  24.830  24.745  1.00  0.00     0.072 C 
BRANCH  78  79
ATOM     79  C   UNL A   1      35.112  24.022  24.688  1.00  0.00    -0.045 A 
ATOM     80  C   UNL A   1      35.535  23.433  23.493  1.00  0.00     0.004 A 
ATOM     81  C   UNL A   1      35.906  23.837  25.833  1.00  0.00     0.004 A 
ATOM     82  C   UNL A   1      36.652  22.596  23.465  1.00  0.00     0.000 A 
ATOM     83  C   UNL A   1      37.014  22.986  25.812  1.00  0.00     0.000 A 
ATOM     84  C   UNL A   1      37.377  22.353  24.629  1.00  0.00     0.000 A 
ENDBRANCH  78  79
ENDBRANCH  77  78
BRANCH  77  85
ATOM     85  N   UNL A   1      32.687  22.776  25.568  1.00  0.00    -0.372 N 
ATOM     86  H   UNL A   1      32.910  22.693  26.523  1.00  0.00     0.161 HD
BRANCH  85  87
ATOM     87  C   UNL A   1      32.559  21.652  24.764  1.00  0.00     0.036 A 
ATOM     88  C   UNL A   1      32.269  21.808  23.408  1.00  0.00     0.027 A 
ATOM     89  C   UNL A   1      32.764  20.361  25.266  1.00  0.00     0.043 A 
ATOM     90  C   UNL A   1      32.159  20.695  22.572  1.00  0.00     0.024 A 
ATOM     91  C   UNL A   1      32.654  19.242  24.436  1.00  0.00     0.038 A 
ATOM     92  C   UNL A   1      32.341  19.410  23.086  1.00  0.00     0.055 A 
ATOM     93  Br  UNL A   1      32.939  17.539  25.227  1.00  0.00    -0.049 Br
ATOM     94  Cl  UNL A   1      32.155  18.082  21.998  1.00  0.00    -0.083 Cl
ENDBRANCH  85  87
ENDBRANCH  77  85
ENDBRANCH  75  77
ENDBRANCH  74  75
ENDBRANCH  73  74
ENDBRANCH  72  73
ENDBRANCH   1  72
TORSDOF 18
ENDMDL
MODEL 3
REMARK VINA RESULT:     -11.3      1.625      2.710
REMARK SMILES O=C(OCCOCCOC(=O)[C@@H](Cc1ccccc1)Nc1ccc(Cl)c(Br)c1)c1ccc(-c2c3nc(c(-c4c(F)c(F)c(F)c(F)c4F)c4ccc([nH]4)c(-c4c(F)c(F)c(F)c(F)c4F)c4nc(c(-c5c(F)c(F)c(F)c(F)c5F)c5ccc2[nH]5)C=C4)C=C3)cc1
REMARK SMILES IDX 6 1 5 2 4 3 3 4 2 5 1 6 29 7 30 8 91 9 31 10 90 11 32 12
REMARK SMILES IDX 33 13 34 14 84 15 35 16 89 17 83 18 85 19 36 20 88 21 82 22
REMARK SMILES IDX 81 23 37 25 69 26 49 27 68 28 50 29 53 30 67 31 86 32 51 33
REMARK SMILES IDX 52 34 66 36 87 37 54 38 38 39 39 40 47 41 40 42 41 43 45 44
REMARK SMILES IDX 48 45 42 46 43 47 46 48 44 49 70 50 71 51 79 52 72 53 73 54
REMARK SMILES IDX 77 55 80 56 74 57 75 58 78 59 76 60 55 61 56 62 64 63 57 64
REMARK SMILES IDX 58 65 62 66 65 67 59 68 60 69 63 70 61 71 7 72 8 73 9 74
REMARK SMILES IDX 10 75 11 76 12 77 13 78 14 79 15 80 19 81 16 82 18 83 17 84
REMARK SMILES IDX 20 85 21 87 22 88 28 89 23 90 26 91 24 92 27 93 25 94
REMARK H PARENT 85 24 53 35 20 86
REMARK Flexibility Score: inf
ROOT
ATOM      1  O   UNL A   1      35.246  22.289  25.523  1.00  0.00    -0.374 OA
ENDROOT
BRANCH   1   2
ATOM      2  C   UNL A   1      35.876  21.258  24.760  1.00  0.00     0.202 C 
BRANCH   2   3
ATOM      3  C   UNL A   1      37.413  21.263  24.666  1.00  0.00     0.261 C 
BRANCH   3   4
ATOM      4  O   UNL A   1      38.039  21.174  25.964  1.00  0.00    -0.460 OA
BRANCH   4   5
ATOM      5  C   UNL A   1      39.365  21.248  26.256  1.00  0.00     0.338 C 
ATOM      6  O   UNL A   1      40.099  20.298  26.019  1.00  0.00    -0.246 OA
BRANCH   5   7
ATOM      7  C   UNL A   1      39.954  22.480  26.848  1.00  0.00     0.060 A 
ATOM      8  C   UNL A   1      39.527  23.745  26.482  1.00  0.00     0.016 A 
ATOM      9  C   UNL A   1      40.944  22.388  27.834  1.00  0.00     0.016 A 
ATOM     10  C   UNL A   1      40.130  24.888  26.915  1.00  0.00     0.010 A 
ATOM     11  C   UNL A   1      41.499  23.556  28.381  1.00  0.00     0.010 A 
ATOM     12  C   UNL A   1      41.096  24.807  27.899  1.00  0.00    -0.014 A 
BRANCH  12  13
ATOM     13  C   UNL A   1      41.686  26.103  28.250  1.00  0.00     0.031 A 
ATOM     14  C   UNL A   1      43.026  26.429  27.683  1.00  0.00     0.074 A 
ATOM     15  C   UNL A   1      40.875  27.041  28.780  1.00  0.00     0.049 A 
ATOM     16  N   UNL A   1      43.727  27.519  27.806  1.00  0.00    -0.248 NA
ATOM     17  C   UNL A   1      43.656  25.398  26.838  1.00  0.00     0.031 C 
ATOM     18  C   UNL A   1      39.467  26.826  29.152  1.00  0.00     0.029 A 
ATOM     19  N   UNL A   1      41.074  28.371  29.013  1.00  0.00    -0.354 N 
ATOM     20  C   UNL A   1      44.895  27.292  27.094  1.00  0.00     0.074 A 
ATOM     21  C   UNL A   1      44.812  25.964  26.532  1.00  0.00     0.031 C 
ATOM     22  C   UNL A   1      38.921  27.995  29.512  1.00  0.00     0.029 A 
ATOM     23  C   UNL A   1      39.964  29.010  29.513  1.00  0.00     0.049 A 
ATOM     24  H   UNL A   1      41.928  28.828  28.840  1.00  0.00     0.167 HD
ATOM     25  C   UNL A   1      45.942  28.131  26.947  1.00  0.00     0.037 A 
ATOM     26  C   UNL A   1      39.836  30.266  29.973  1.00  0.00     0.037 A 
ATOM     27  C   UNL A   1      45.964  29.446  27.527  1.00  0.00     0.049 A 
ATOM     28  C   UNL A   1      41.062  31.135  29.912  1.00  0.00     0.074 A 
ATOM     29  C   UNL A   1      46.999  30.357  27.581  1.00  0.00     0.029 A 
ATOM     30  N   UNL A   1      44.870  30.036  28.154  1.00  0.00    -0.354 N 
ATOM     31  N   UNL A   1      42.232  30.870  29.376  1.00  0.00    -0.248 NA
ATOM     32  C   UNL A   1      40.966  32.456  30.533  1.00  0.00     0.031 C 
ATOM     33  C   UNL A   1      46.542  31.484  28.276  1.00  0.00     0.029 A 
ATOM     34  C   UNL A   1      45.206  31.297  28.607  1.00  0.00     0.049 A 
ATOM     35  H   UNL A   1      43.987  29.615  28.261  1.00  0.00     0.167 HD
ATOM     36  C   UNL A   1      43.014  31.993  29.593  1.00  0.00     0.074 A 
ATOM     37  C   UNL A   1      42.166  32.955  30.273  1.00  0.00     0.031 C 
ATOM     38  C   UNL A   1      44.315  32.211  29.277  1.00  0.00     0.037 A 
BRANCH  25  39
ATOM     39  C   UNL A   1      47.143  27.601  26.228  1.00  0.00     0.064 A 
ATOM     40  C   UNL A   1      48.219  27.006  26.904  1.00  0.00     0.173 A 
ATOM     41  C   UNL A   1      47.244  27.743  24.835  1.00  0.00     0.173 A 
ATOM     42  F   UNL A   1      48.192  26.886  28.239  1.00  0.00    -0.203 F 
ATOM     43  C   UNL A   1      49.361  26.598  26.216  1.00  0.00     0.198 A 
ATOM     44  C   UNL A   1      48.375  27.310  24.148  1.00  0.00     0.198 A 
ATOM     45  F   UNL A   1      46.253  28.324  24.142  1.00  0.00    -0.203 F 
ATOM     46  F   UNL A   1      50.402  26.092  26.891  1.00  0.00    -0.200 F 
ATOM     47  C   UNL A   1      49.435  26.745  24.839  1.00  0.00     0.200 A 
ATOM     48  F   UNL A   1      48.445  27.458  22.817  1.00  0.00    -0.200 F 
ATOM     49  F   UNL A   1      50.537  26.362  24.181  1.00  0.00    -0.200 F 
ENDBRANCH  25  39
BRANCH  26  50
ATOM     50  C   UNL A   1      38.573  30.716  30.622  1.00  0.00     0.064 A 
ATOM     51  C   UNL A   1      37.491  31.203  29.876  1.00  0.00     0.173 A 
ATOM     52  C   UNL A   1      38.433  30.698  32.021  1.00  0.00     0.173 A 
ATOM     53  F   UNL A   1      37.572  31.263  28.538  1.00  0.00    -0.203 F 
ATOM     54  C   UNL A   1      36.338  31.680  30.501  1.00  0.00     0.198 A 
ATOM     55  C   UNL A   1      37.266  31.136  32.643  1.00  0.00     0.198 A 
ATOM     56  F   UNL A   1      39.434  30.249  32.793  1.00  0.00    -0.203 F 
ATOM     57  F   UNL A   1      35.346  32.198  29.765  1.00  0.00    -0.200 F 
ATOM     58  C   UNL A   1      36.224  31.640  31.882  1.00  0.00     0.200 A 
ATOM     59  F   UNL A   1      37.158  31.077  33.977  1.00  0.00    -0.200 F 
ATOM     60  F   UNL A   1      35.117  32.100  32.482  1.00  0.00    -0.200 F 
ENDBRANCH  26  50
BRANCH  38  61
ATOM     61  C   UNL A   1      44.867  33.553  29.648  1.00  0.00     0.064 A 
ATOM     62  C   UNL A   1      45.511  33.767  30.874  1.00  0.00     0.173 A 
ATOM     63  C   UNL A   1      44.764  34.627  28.752  1.00  0.00     0.173 A 
ATOM     64  F   UNL A   1      45.614  32.771  31.768  1.00  0.00    -0.203 F 
ATOM     65  C   UNL A   1      46.006  35.024  31.206  1.00  0.00     0.198 A 
ATOM     66  C   UNL A   1      45.292  35.872  29.073  1.00  0.00     0.198 A 
ATOM     67  F   UNL A   1      44.161  34.464  27.566  1.00  0.00    -0.203 F 
ATOM     68  F   UNL A   1      46.564  35.225  32.407  1.00  0.00    -0.200 F 
ATOM     69  C   UNL A   1      45.902  36.072  30.303  1.00  0.00     0.200 A 
ATOM     70  F   UNL A   1      45.207  36.879  28.193  1.00  0.00    -0.200 F 
ATOM     71  F   UNL A   1      46.384  37.281  30.622  1.00  0.00    -0.200 F 
ENDBRANCH  38  61
ENDBRANCH  12  13
ENDBRANCH   5   7
ENDBRANCH   4   5
ENDBRANCH   3   4
ENDBRANCH   2   3
ENDBRANCH   1   2
BRANCH   1  72
ATOM     72  C   UNL A   1      34.250  21.900  26.472  1.00  0.00     0.202 C 
BRANCH  72  73
ATOM     73  C   UNL A   1      32.854  22.133  25.899  1.00  0.00     0.261 C 
BRANCH  73  74
ATOM     74  O   UNL A   1      32.755  23.496  25.462  1.00  0.00    -0.462 OA
BRANCH  74  75
ATOM     75  C   UNL A   1      32.111  24.340  26.313  1.00  0.00     0.328 C 
ATOM     76  O   UNL A   1      31.476  23.988  27.302  1.00  0.00    -0.250 OA
BRANCH  75  77
ATOM     77  C   UNL A   1      32.195  25.797  25.833  1.00  0.00     0.194 C 
BRANCH  77  78
ATOM     78  C   UNL A   1      33.501  26.591  26.109  1.00  0.00     0.072 C 
BRANCH  78  79
ATOM     79  C   UNL A   1      33.405  28.020  26.602  1.00  0.00    -0.045 A 
ATOM     80  C   UNL A   1      32.167  28.660  26.706  1.00  0.00     0.004 A 
ATOM     81  C   UNL A   1      34.555  28.743  26.963  1.00  0.00     0.004 A 
ATOM     82  C   UNL A   1      32.088  30.010  27.052  1.00  0.00     0.000 A 
ATOM     83  C   UNL A   1      34.480  30.098  27.292  1.00  0.00     0.000 A 
ATOM     84  C   UNL A   1      33.245  30.736  27.322  1.00  0.00     0.000 A 
ENDBRANCH  78  79
ENDBRANCH  77  78
BRANCH  77  85
ATOM     85  N   UNL A   1      31.850  25.830  24.403  1.00  0.00    -0.372 N 
ATOM     86  H   UNL A   1      32.414  25.379  23.734  1.00  0.00     0.161 HD
BRANCH  85  87
ATOM     87  C   UNL A   1      30.705  26.518  24.026  1.00  0.00     0.036 A 
ATOM     88  C   UNL A   1      29.454  26.018  24.390  1.00  0.00     0.027 A 
ATOM     89  C   UNL A   1      30.771  27.733  23.333  1.00  0.00     0.043 A 
ATOM     90  C   UNL A   1      28.287  26.703  24.045  1.00  0.00     0.024 A 
ATOM     91  C   UNL A   1      29.608  28.423  22.982  1.00  0.00     0.038 A 
ATOM     92  C   UNL A   1      28.361  27.901  23.332  1.00  0.00     0.055 A 
ATOM     93  Br  UNL A   1      29.816  30.053  22.030  1.00  0.00    -0.049 Br
ATOM     94  Cl  UNL A   1      26.875  28.673  22.912  1.00  0.00    -0.083 Cl
ENDBRANCH  85  87
ENDBRANCH  77  85
ENDBRANCH  75  77
ENDBRANCH  74  75
ENDBRANCH  73  74
ENDBRANCH  72  73
ENDBRANCH   1  72
TORSDOF 18
ENDMDL
