MODEL 1
REMARK VINA RESULT:     -12.4      0.000      0.000
REMARK SMILES Cc1ccc(C[NH2+]Cc2c(C(=O)OCCOCCOC(=O)c3ccc(-c4c5nc(c(-c6c(F)c(F)c(F)c(F)c6F)c6ccc([nH]6)c(-c6c(F)c(F)c(F)c(F)c6F)c6nc(c(-c7c(F)c(F)c(F)c(F)c7F)c7ccc4[nH]7)C=C6)C=C5)cc3)n(Cc3ccccc3)c3ccccc23)cc1
REMARK SMILES IDX 15 1 14 2 13 3 11 4 12 5 10 6 9 7 98 8 85 9 93 10 97 11
REMARK SMILES IDX 94 12 96 13 95 14 8 15 7 16 6 19 5 20 1 21 2 22 3 23 100 24
REMARK SMILES IDX 4 25 99 26 86 27 87 28 88 29 92 30 89 31 91 32 90 33 16 34
REMARK SMILES IDX 17 35 18 36 19 37 20 38 21 39 22 40 23 41 84 42 24 43 83 44
REMARK SMILES IDX 25 45 26 46 27 47 77 48 28 49 82 50 76 51 78 52 29 53 81 54
REMARK SMILES IDX 75 55 74 56 30 58 62 59 42 60 61 61 43 62 46 63 60 64 79 65
REMARK SMILES IDX 44 66 45 67 59 69 80 70 47 71 31 72 32 73 40 74 33 75 34 76
REMARK SMILES IDX 38 77 41 78 35 79 36 80 39 81 37 82 63 83 64 84 72 85 65 86
REMARK SMILES IDX 66 87 70 88 73 89 67 90 68 91 71 92 69 93 48 94 49 95 57 96
REMARK SMILES IDX 50 97 51 98 55 99 58 100 52 101 53 102 56 103 54 104
REMARK H PARENT 7 17 7 18 78 57 46 68
REMARK Flexibility Score: inf
ROOT
ATOM      1  C   UNL A   1      35.753  23.321  24.479  1.00  0.00     0.202 C 
ENDROOT
BRANCH   1   2
ATOM      2  C   UNL A   1      35.438  23.383  23.017  1.00  0.00     0.261 C 
BRANCH   2   3
ATOM      3  O   UNL A   1      34.530  24.464  22.735  1.00  0.00    -0.459 OA
BRANCH   3   4
ATOM      4  C   UNL A   1      33.265  24.374  22.241  1.00  0.00     0.355 C 
ATOM      5  O   UNL A   1      32.950  24.456  21.079  1.00  0.00    -0.244 OA
BRANCH   4   6
ATOM      6  C   UNL A   1      32.370  24.219  23.389  1.00  0.00     0.137 A 
ATOM      7  C   UNL A   1      32.030  23.029  24.061  1.00  0.00     0.047 A 
ATOM      8  C   UNL A   1      31.120  23.388  25.114  1.00  0.00     0.009 A 
ATOM      9  N   UNL A   1      31.675  25.253  23.996  1.00  0.00    -0.330 N 
ATOM     10  C   UNL A   1      30.865  24.760  25.006  1.00  0.00     0.050 A 
ATOM     11  C   UNL A   1      30.458  22.679  26.143  1.00  0.00     0.011 A 
ATOM     12  C   UNL A   1      29.932  25.406  25.841  1.00  0.00     0.027 A 
ATOM     13  C   UNL A   1      29.530  23.310  26.972  1.00  0.00     0.001 A 
ATOM     14  C   UNL A   1      29.261  24.658  26.812  1.00  0.00     0.002 A 
BRANCH   7  15
ATOM     15  C   UNL A   1      32.598  21.678  23.673  1.00  0.00     0.300 C 
BRANCH  15  16
ATOM     16  N   UNL A   1      32.800  20.719  24.725  1.00  0.00    -0.339 N 
ATOM     17  H   UNL A   1      32.757  21.203  25.622  1.00  0.00     0.346 HD
ATOM     18  H   UNL A   1      32.067  20.013  24.648  1.00  0.00     0.346 HD
BRANCH  16  19
ATOM     19  C   UNL A   1      34.083  20.042  24.620  1.00  0.00     0.297 C 
BRANCH  19  20
ATOM     20  C   UNL A   1      33.873  18.587  24.918  1.00  0.00     0.006 A 
ATOM     21  C   UNL A   1      32.927  14.425  25.384  1.00  0.00     0.044 C 
ATOM     22  C   UNL A   1      33.276  15.873  25.234  1.00  0.00    -0.051 A 
ATOM     23  C   UNL A   1      32.528  16.841  25.915  1.00  0.00     0.004 A 
ATOM     24  C   UNL A   1      34.339  16.270  24.417  1.00  0.00     0.004 A 
ATOM     25  C   UNL A   1      32.823  18.191  25.755  1.00  0.00     0.010 A 
ATOM     26  C   UNL A   1      34.640  17.619  24.263  1.00  0.00     0.010 A 
ENDBRANCH  19  20
ENDBRANCH  16  19
ENDBRANCH  15  16
ENDBRANCH   7  15
BRANCH   9  27
ATOM     27  C   UNL A   1      31.793  26.678  23.660  1.00  0.00     0.158 C 
BRANCH  27  28
ATOM     28  C   UNL A   1      32.536  27.513  24.679  1.00  0.00    -0.028 A 
ATOM     29  C   UNL A   1      32.251  28.888  24.758  1.00  0.00     0.005 A 
ATOM     30  C   UNL A   1      33.526  26.987  25.520  1.00  0.00     0.005 A 
ATOM     31  C   UNL A   1      32.900  29.703  25.686  1.00  0.00     0.000 A 
ATOM     32  C   UNL A   1      34.177  27.804  26.448  1.00  0.00     0.000 A 
ATOM     33  C   UNL A   1      33.861  29.159  26.534  1.00  0.00     0.000 A 
ENDBRANCH  27  28
ENDBRANCH   9  27
ENDBRANCH   4   6
ENDBRANCH   3   4
ENDBRANCH   2   3
ENDBRANCH   1   2
BRANCH   1  34
ATOM     34  O   UNL A   1      36.993  22.647  24.516  1.00  0.00    -0.374 OA
BRANCH  34  35
ATOM     35  C   UNL A   1      37.408  22.187  25.780  1.00  0.00     0.202 C 
BRANCH  35  36
ATOM     36  C   UNL A   1      38.785  21.530  25.738  1.00  0.00     0.261 C 
BRANCH  36  37
ATOM     37  O   UNL A   1      39.563  21.995  26.862  1.00  0.00    -0.460 OA
BRANCH  37  38
ATOM     38  C   UNL A   1      40.542  22.891  26.554  1.00  0.00     0.338 C 
ATOM     39  O   UNL A   1      41.698  22.599  26.292  1.00  0.00    -0.246 OA
BRANCH  38  40
ATOM     40  C   UNL A   1      40.082  24.281  26.849  1.00  0.00     0.060 A 
ATOM     41  C   UNL A   1      40.685  25.368  26.185  1.00  0.00     0.016 A 
ATOM     42  C   UNL A   1      39.305  24.514  27.981  1.00  0.00     0.016 A 
ATOM     43  C   UNL A   1      40.628  26.659  26.739  1.00  0.00     0.010 A 
ATOM     44  C   UNL A   1      39.334  25.766  28.569  1.00  0.00     0.010 A 
ATOM     45  C   UNL A   1      40.012  26.845  27.979  1.00  0.00    -0.014 A 
BRANCH  45  46
ATOM     46  C   UNL A   1      40.110  28.055  28.810  1.00  0.00     0.031 A 
ATOM     47  C   UNL A   1      39.112  29.141  28.655  1.00  0.00     0.074 A 
ATOM     48  C   UNL A   1      40.947  28.146  29.876  1.00  0.00     0.049 A 
ATOM     49  N   UNL A   1      39.323  30.352  29.054  1.00  0.00    -0.248 NA
ATOM     50  C   UNL A   1      37.798  28.968  28.042  1.00  0.00     0.031 C 
ATOM     51  C   UNL A   1      40.805  29.035  31.034  1.00  0.00     0.029 A 
ATOM     52  N   UNL A   1      42.124  27.441  30.169  1.00  0.00    -0.354 N 
ATOM     53  C   UNL A   1      38.115  31.001  29.060  1.00  0.00     0.074 A 
ATOM     54  C   UNL A   1      37.211  30.129  28.345  1.00  0.00     0.031 C 
ATOM     55  C   UNL A   1      41.943  29.029  31.743  1.00  0.00     0.029 A 
ATOM     56  C   UNL A   1      42.915  28.248  31.007  1.00  0.00     0.049 A 
ATOM     57  H   UNL A   1      42.355  26.541  29.847  1.00  0.00     0.167 HD
ATOM     58  C   UNL A   1      37.964  32.145  29.784  1.00  0.00     0.037 A 
ATOM     59  C   UNL A   1      44.185  28.598  30.666  1.00  0.00     0.037 A 
ATOM     60  C   UNL A   1      39.161  32.470  30.567  1.00  0.00     0.049 A 
ATOM     61  C   UNL A   1      44.309  30.082  30.468  1.00  0.00     0.074 A 
ATOM     62  C   UNL A   1      39.497  32.384  31.909  1.00  0.00     0.029 A 
ATOM     63  N   UNL A   1      40.361  32.685  29.908  1.00  0.00    -0.354 N 
ATOM     64  N   UNL A   1      43.370  30.928  30.784  1.00  0.00    -0.248 NA
ATOM     65  C   UNL A   1      45.432  30.727  29.794  1.00  0.00     0.031 C 
ATOM     66  C   UNL A   1      40.897  32.625  32.045  1.00  0.00     0.029 A 
ATOM     67  C   UNL A   1      41.416  32.863  30.785  1.00  0.00     0.049 A 
ATOM     68  H   UNL A   1      40.452  32.710  28.929  1.00  0.00     0.167 HD
ATOM     69  C   UNL A   1      43.648  32.144  30.239  1.00  0.00     0.074 A 
ATOM     70  C   UNL A   1      44.973  31.983  29.663  1.00  0.00     0.031 C 
ATOM     71  C   UNL A   1      42.736  33.158  30.245  1.00  0.00     0.037 A 
BRANCH  58  72
ATOM     72  C   UNL A   1      36.631  32.836  29.946  1.00  0.00     0.064 A 
ATOM     73  C   UNL A   1      35.995  33.479  28.866  1.00  0.00     0.173 A 
ATOM     74  C   UNL A   1      35.922  32.885  31.165  1.00  0.00     0.173 A 
ATOM     75  F   UNL A   1      36.496  33.428  27.626  1.00  0.00    -0.203 F 
ATOM     76  C   UNL A   1      34.811  34.205  29.018  1.00  0.00     0.198 A 
ATOM     77  C   UNL A   1      34.771  33.663  31.332  1.00  0.00     0.198 A 
ATOM     78  F   UNL A   1      36.300  32.147  32.218  1.00  0.00    -0.203 F 
ATOM     79  F   UNL A   1      34.253  34.795  27.952  1.00  0.00    -0.200 F 
ATOM     80  C   UNL A   1      34.220  34.330  30.259  1.00  0.00     0.200 A 
ATOM     81  F   UNL A   1      34.201  33.757  32.542  1.00  0.00    -0.200 F 
ATOM     82  F   UNL A   1      33.112  35.067  30.412  1.00  0.00    -0.200 F 
ENDBRANCH  58  72
BRANCH  59  83
ATOM     83  C   UNL A   1      44.889  27.526  29.911  1.00  0.00     0.064 A 
ATOM     84  C   UNL A   1      44.891  27.606  28.505  1.00  0.00     0.173 A 
ATOM     85  C   UNL A   1      45.881  26.741  30.515  1.00  0.00     0.173 A 
ATOM     86  F   UNL A   1      43.980  28.367  27.876  1.00  0.00    -0.203 F 
ATOM     87  C   UNL A   1      45.901  27.017  27.745  1.00  0.00     0.198 A 
ATOM     88  C   UNL A   1      46.902  26.169  29.752  1.00  0.00     0.198 A 
ATOM     89  F   UNL A   1      45.943  26.643  31.851  1.00  0.00    -0.203 F 
ATOM     90  F   UNL A   1      45.953  27.223  26.420  1.00  0.00    -0.200 F 
ATOM     91  C   UNL A   1      46.926  26.330  28.375  1.00  0.00     0.200 A 
ATOM     92  F   UNL A   1      47.920  25.545  30.363  1.00  0.00    -0.200 F 
ATOM     93  F   UNL A   1      47.975  25.894  27.663  1.00  0.00    -0.200 F 
ENDBRANCH  59  83
BRANCH  71  94
ATOM     94  C   UNL A   1      43.028  34.513  29.671  1.00  0.00     0.064 A 
ATOM     95  C   UNL A   1      43.127  35.655  30.479  1.00  0.00     0.173 A 
ATOM     96  C   UNL A   1      43.138  34.729  28.281  1.00  0.00     0.173 A 
ATOM     97  F   UNL A   1      42.905  35.585  31.801  1.00  0.00    -0.203 F 
ATOM     98  C   UNL A   1      43.443  36.903  29.947  1.00  0.00     0.198 A 
ATOM     99  C   UNL A   1      43.394  35.986  27.746  1.00  0.00     0.198 A 
ATOM    100  F   UNL A   1      43.029  33.731  27.394  1.00  0.00    -0.203 F 
ATOM    101  F   UNL A   1      43.617  37.948  30.766  1.00  0.00    -0.200 F 
ATOM    102  C   UNL A   1      43.579  37.068  28.580  1.00  0.00     0.200 A 
ATOM    103  F   UNL A   1      43.473  36.136  26.415  1.00  0.00    -0.200 F 
ATOM    104  F   UNL A   1      43.883  38.267  28.068  1.00  0.00    -0.200 F 
ENDBRANCH  71  94
ENDBRANCH  45  46
ENDBRANCH  38  40
ENDBRANCH  37  38
ENDBRANCH  36  37
ENDBRANCH  35  36
ENDBRANCH  34  35
ENDBRANCH   1  34
TORSDOF 20
ENDMDL
MODEL 2
REMARK VINA RESULT:     -12.3      3.293      9.524
REMARK SMILES Cc1ccc(C[NH2+]Cc2c(C(=O)OCCOCCOC(=O)c3ccc(-c4c5nc(c(-c6c(F)c(F)c(F)c(F)c6F)c6ccc([nH]6)c(-c6c(F)c(F)c(F)c(F)c6F)c6nc(c(-c7c(F)c(F)c(F)c(F)c7F)c7ccc4[nH]7)C=C6)C=C5)cc3)n(Cc3ccccc3)c3ccccc23)cc1
REMARK SMILES IDX 15 1 14 2 13 3 11 4 12 5 10 6 9 7 98 8 85 9 93 10 97 11
REMARK SMILES IDX 94 12 96 13 95 14 8 15 7 16 6 19 5 20 1 21 2 22 3 23 100 24
REMARK SMILES IDX 4 25 99 26 86 27 87 28 88 29 92 30 89 31 91 32 90 33 16 34
REMARK SMILES IDX 17 35 18 36 19 37 20 38 21 39 22 40 23 41 84 42 24 43 83 44
REMARK SMILES IDX 25 45 26 46 27 47 77 48 28 49 82 50 76 51 78 52 29 53 81 54
REMARK SMILES IDX 75 55 74 56 30 58 62 59 42 60 61 61 43 62 46 63 60 64 79 65
REMARK SMILES IDX 44 66 45 67 59 69 80 70 47 71 31 72 32 73 40 74 33 75 34 76
REMARK SMILES IDX 38 77 41 78 35 79 36 80 39 81 37 82 63 83 64 84 72 85 65 86
REMARK SMILES IDX 66 87 70 88 73 89 67 90 68 91 71 92 69 93 48 94 49 95 57 96
REMARK SMILES IDX 50 97 51 98 55 99 58 100 52 101 53 102 56 103 54 104
REMARK H PARENT 7 17 7 18 78 57 46 68
REMARK Flexibility Score: inf
ROOT
ATOM      1  C   UNL A   1      31.099  26.125  26.512  1.00  0.00     0.202 C 
ENDROOT
BRANCH   1   2
ATOM      2  C   UNL A   1      31.726  24.776  26.343  1.00  0.00     0.261 C 
BRANCH   2   3
ATOM      3  O   UNL A   1      31.013  24.000  25.363  1.00  0.00    -0.459 OA
BRANCH   3   4
ATOM      4  C   UNL A   1      31.443  23.635  24.125  1.00  0.00     0.355 C 
ATOM      5  O   UNL A   1      30.775  23.615  23.119  1.00  0.00    -0.244 OA
BRANCH   4   6
ATOM      6  C   UNL A   1      32.841  23.221  24.264  1.00  0.00     0.137 A 
ATOM      7  C   UNL A   1      33.992  23.939  23.892  1.00  0.00     0.047 A 
ATOM      8  C   UNL A   1      35.124  23.118  24.224  1.00  0.00     0.009 A 
ATOM      9  N   UNL A   1      33.257  22.003  24.779  1.00  0.00    -0.330 N 
ATOM     10  C   UNL A   1      34.637  21.898  24.707  1.00  0.00     0.050 A 
ATOM     11  C   UNL A   1      36.527  23.274  24.139  1.00  0.00     0.011 A 
ATOM     12  C   UNL A   1      35.501  20.834  25.033  1.00  0.00     0.027 A 
ATOM     13  C   UNL A   1      37.390  22.225  24.457  1.00  0.00     0.001 A 
ATOM     14  C   UNL A   1      36.879  21.012  24.886  1.00  0.00     0.002 A 
BRANCH   7  15
ATOM     15  C   UNL A   1      33.931  25.327  23.283  1.00  0.00     0.300 C 
BRANCH  15  16
ATOM     16  N   UNL A   1      32.766  26.121  23.563  1.00  0.00    -0.339 N 
ATOM     17  H   UNL A   1      31.936  25.582  23.315  1.00  0.00     0.346 HD
ATOM     18  H   UNL A   1      32.778  26.352  24.557  1.00  0.00     0.346 HD
BRANCH  16  19
ATOM     19  C   UNL A   1      32.755  27.369  22.816  1.00  0.00     0.297 C 
BRANCH  19  20
ATOM     20  C   UNL A   1      31.340  27.863  22.748  1.00  0.00     0.006 A 
ATOM     21  C   UNL A   1      27.354  29.432  23.042  1.00  0.00     0.044 C 
ATOM     22  C   UNL A   1      28.741  28.885  22.917  1.00  0.00    -0.051 A 
ATOM     23  C   UNL A   1      29.003  27.564  23.299  1.00  0.00     0.004 A 
ATOM     24  C   UNL A   1      29.781  29.681  22.425  1.00  0.00     0.004 A 
ATOM     25  C   UNL A   1      30.296  27.056  23.218  1.00  0.00     0.010 A 
ATOM     26  C   UNL A   1      31.073  29.172  22.337  1.00  0.00     0.010 A 
ENDBRANCH  19  20
ENDBRANCH  16  19
ENDBRANCH  15  16
ENDBRANCH   7  15
BRANCH   9  27
ATOM     27  C   UNL A   1      32.385  20.973  25.358  1.00  0.00     0.158 C 
BRANCH  27  28
ATOM     28  C   UNL A   1      32.535  19.596  24.751  1.00  0.00    -0.028 A 
ATOM     29  C   UNL A   1      32.843  18.517  25.598  1.00  0.00     0.005 A 
ATOM     30  C   UNL A   1      32.422  19.353  23.375  1.00  0.00     0.005 A 
ATOM     31  C   UNL A   1      32.984  17.224  25.092  1.00  0.00     0.000 A 
ATOM     32  C   UNL A   1      32.566  18.060  22.868  1.00  0.00     0.000 A 
ATOM     33  C   UNL A   1      32.841  16.995  23.726  1.00  0.00     0.000 A 
ENDBRANCH  27  28
ENDBRANCH   9  27
ENDBRANCH   4   6
ENDBRANCH   3   4
ENDBRANCH   2   3
ENDBRANCH   1   2
BRANCH   1  34
ATOM     34  O   UNL A   1      32.191  27.010  26.380  1.00  0.00    -0.374 OA
BRANCH  34  35
ATOM     35  C   UNL A   1      32.015  28.294  26.928  1.00  0.00     0.202 C 
BRANCH  35  36
ATOM     36  C   UNL A   1      32.876  29.347  26.236  1.00  0.00     0.261 C 
BRANCH  36  37
ATOM     37  O   UNL A   1      34.084  29.544  27.002  1.00  0.00    -0.460 OA
BRANCH  37  38
ATOM     38  C   UNL A   1      34.168  30.742  27.647  1.00  0.00     0.338 C 
ATOM     39  O   UNL A   1      33.469  31.714  27.409  1.00  0.00    -0.246 OA
BRANCH  38  40
ATOM     40  C   UNL A   1      35.405  30.792  28.484  1.00  0.00     0.060 A 
ATOM     41  C   UNL A   1      36.401  31.747  28.196  1.00  0.00     0.016 A 
ATOM     42  C   UNL A   1      35.704  29.719  29.319  1.00  0.00     0.016 A 
ATOM     43  C   UNL A   1      37.725  31.544  28.623  1.00  0.00     0.010 A 
ATOM     44  C   UNL A   1      37.025  29.479  29.655  1.00  0.00     0.010 A 
ATOM     45  C   UNL A   1      38.054  30.364  29.293  1.00  0.00    -0.014 A 
BRANCH  45  46
ATOM     46  C   UNL A   1      39.418  29.881  29.556  1.00  0.00     0.031 A 
ATOM     47  C   UNL A   1      39.834  28.542  29.071  1.00  0.00     0.074 A 
ATOM     48  C   UNL A   1      40.401  30.686  30.037  1.00  0.00     0.049 A 
ATOM     49  N   UNL A   1      40.845  27.901  29.558  1.00  0.00    -0.248 NA
ATOM     50  C   UNL A   1      39.158  27.807  28.006  1.00  0.00     0.031 C 
ATOM     51  C   UNL A   1      41.848  30.498  29.884  1.00  0.00     0.029 A 
ATOM     52  N   UNL A   1      40.320  31.877  30.772  1.00  0.00    -0.354 N 
ATOM     53  C   UNL A   1      41.143  26.881  28.692  1.00  0.00     0.074 A 
ATOM     54  C   UNL A   1      40.019  26.809  27.787  1.00  0.00     0.031 C 
ATOM     55  C   UNL A   1      42.496  31.338  30.703  1.00  0.00     0.029 A 
ATOM     56  C   UNL A   1      41.505  32.008  31.519  1.00  0.00     0.049 A 
ATOM     57  H   UNL A   1      39.567  32.511  30.766  1.00  0.00     0.167 HD
ATOM     58  C   UNL A   1      42.369  26.288  28.738  1.00  0.00     0.037 A 
ATOM     59  C   UNL A   1      41.482  32.134  32.873  1.00  0.00     0.037 A 
ATOM     60  C   UNL A   1      43.265  26.937  29.702  1.00  0.00     0.049 A 
ATOM     61  C   UNL A   1      42.143  30.962  33.543  1.00  0.00     0.074 A 
ATOM     62  C   UNL A   1      44.353  27.789  29.596  1.00  0.00     0.029 A 
ATOM     63  N   UNL A   1      42.899  26.984  31.038  1.00  0.00    -0.354 N 
ATOM     64  N   UNL A   1      42.821  30.057  32.897  1.00  0.00    -0.248 NA
ATOM     65  C   UNL A   1      41.998  30.641  34.960  1.00  0.00     0.031 C 
ATOM     66  C   UNL A   1      44.674  28.283  30.895  1.00  0.00     0.029 A 
ATOM     67  C   UNL A   1      43.784  27.728  31.797  1.00  0.00     0.049 A 
ATOM     68  H   UNL A   1      42.103  26.538  31.404  1.00  0.00     0.167 HD
ATOM     69  C   UNL A   1      43.054  28.992  33.711  1.00  0.00     0.074 A 
ATOM     70  C   UNL A   1      42.557  29.420  35.009  1.00  0.00     0.031 C 
ATOM     71  C   UNL A   1      43.569  27.822  33.235  1.00  0.00     0.037 A 
BRANCH  58  72
ATOM     72  C   UNL A   1      42.814  25.255  27.730  1.00  0.00     0.064 A 
ATOM     73  C   UNL A   1      42.568  23.881  27.921  1.00  0.00     0.173 A 
ATOM     74  C   UNL A   1      43.488  25.575  26.533  1.00  0.00     0.173 A 
ATOM     75  F   UNL A   1      41.849  23.435  28.958  1.00  0.00    -0.203 F 
ATOM     76  C   UNL A   1      43.055  22.904  27.049  1.00  0.00     0.198 A 
ATOM     77  C   UNL A   1      44.029  24.596  25.693  1.00  0.00     0.198 A 
ATOM     78  F   UNL A   1      43.604  26.845  26.120  1.00  0.00    -0.203 F 
ATOM     79  F   UNL A   1      42.788  21.612  27.285  1.00  0.00    -0.200 F 
ATOM     80  C   UNL A   1      43.819  23.259  25.956  1.00  0.00     0.200 A 
ATOM     81  F   UNL A   1      44.753  24.961  24.625  1.00  0.00    -0.200 F 
ATOM     82  F   UNL A   1      44.326  22.319  25.148  1.00  0.00    -0.200 F 
ENDBRANCH  58  72
BRANCH  59  83
ATOM     83  C   UNL A   1      40.301  32.899  33.355  1.00  0.00     0.064 A 
ATOM     84  C   UNL A   1      39.190  32.168  33.821  1.00  0.00     0.173 A 
ATOM     85  C   UNL A   1      40.417  34.233  33.771  1.00  0.00     0.173 A 
ATOM     86  F   UNL A   1      39.046  30.879  33.477  1.00  0.00    -0.203 F 
ATOM     87  C   UNL A   1      38.298  32.712  34.744  1.00  0.00     0.198 A 
ATOM     88  C   UNL A   1      39.532  34.768  34.711  1.00  0.00     0.198 A 
ATOM     89  F   UNL A   1      41.463  34.973  33.378  1.00  0.00    -0.203 F 
ATOM     90  F   UNL A   1      37.329  31.949  35.273  1.00  0.00    -0.200 F 
ATOM     91  C   UNL A   1      38.493  34.000  35.215  1.00  0.00     0.200 A 
ATOM     92  F   UNL A   1      39.746  35.996  35.203  1.00  0.00    -0.200 F 
ATOM     93  F   UNL A   1      37.729  34.471  36.212  1.00  0.00    -0.200 F 
ENDBRANCH  59  83
BRANCH  71  94
ATOM     94  C   UNL A   1      43.854  26.644  34.118  1.00  0.00     0.064 A 
ATOM     95  C   UNL A   1      45.154  26.149  34.296  1.00  0.00     0.173 A 
ATOM     96  C   UNL A   1      42.824  25.917  34.752  1.00  0.00     0.173 A 
ATOM     97  F   UNL A   1      46.191  26.681  33.633  1.00  0.00    -0.203 F 
ATOM     98  C   UNL A   1      45.419  25.082  35.152  1.00  0.00     0.198 A 
ATOM     99  C   UNL A   1      43.085  24.815  35.558  1.00  0.00     0.198 A 
ATOM    100  F   UNL A   1      41.534  26.261  34.636  1.00  0.00    -0.203 F 
ATOM    101  F   UNL A   1      46.686  24.701  35.363  1.00  0.00    -0.200 F 
ATOM    102  C   UNL A   1      44.384  24.416  35.785  1.00  0.00     0.200 A 
ATOM    103  F   UNL A   1      42.065  24.153  36.124  1.00  0.00    -0.200 F 
ATOM    104  F   UNL A   1      44.639  23.392  36.608  1.00  0.00    -0.200 F 
ENDBRANCH  71  94
ENDBRANCH  45  46
ENDBRANCH  38  40
ENDBRANCH  37  38
ENDBRANCH  36  37
ENDBRANCH  35  36
ENDBRANCH  34  35
ENDBRANCH   1  34
TORSDOF 20
ENDMDL
MODEL 3
REMARK VINA RESULT:     -12.1      1.539      2.268
REMARK SMILES Cc1ccc(C[NH2+]Cc2c(C(=O)OCCOCCOC(=O)c3ccc(-c4c5nc(c(-c6c(F)c(F)c(F)c(F)c6F)c6ccc([nH]6)c(-c6c(F)c(F)c(F)c(F)c6F)c6nc(c(-c7c(F)c(F)c(F)c(F)c7F)c7ccc4[nH]7)C=C6)C=C5)cc3)n(Cc3ccccc3)c3ccccc23)cc1
REMARK SMILES IDX 15 1 14 2 13 3 11 4 12 5 10 6 9 7 98 8 85 9 93 10 97 11
REMARK SMILES IDX 94 12 96 13 95 14 8 15 7 16 6 19 5 20 1 21 2 22 3 23 100 24
REMARK SMILES IDX 4 25 99 26 86 27 87 28 88 29 92 30 89 31 91 32 90 33 16 34
REMARK SMILES IDX 17 35 18 36 19 37 20 38 21 39 22 40 23 41 84 42 24 43 83 44
REMARK SMILES IDX 25 45 26 46 27 47 77 48 28 49 82 50 76 51 78 52 29 53 81 54
REMARK SMILES IDX 75 55 74 56 30 58 62 59 42 60 61 61 43 62 46 63 60 64 79 65
REMARK SMILES IDX 44 66 45 67 59 69 80 70 47 71 31 72 32 73 40 74 33 75 34 76
REMARK SMILES IDX 38 77 41 78 35 79 36 80 39 81 37 82 63 83 64 84 72 85 65 86
REMARK SMILES IDX 66 87 70 88 73 89 67 90 68 91 71 92 69 93 48 94 49 95 57 96
REMARK SMILES IDX 50 97 51 98 55 99 58 100 52 101 53 102 56 103 54 104
REMARK H PARENT 7 17 7 18 78 57 46 68
REMARK Flexibility Score: inf
ROOT
ATOM      1  C   UNL A   1      35.941  23.462  24.788  1.00  0.00     0.202 C 
ENDROOT
BRANCH   1   2
ATOM      2  C   UNL A   1      35.664  23.355  23.321  1.00  0.00     0.261 C 
BRANCH   2   3
ATOM      3  O   UNL A   1      34.643  24.289  22.926  1.00  0.00    -0.459 OA
BRANCH   3   4
ATOM      4  C   UNL A   1      33.419  24.004  22.401  1.00  0.00     0.355 C 
ATOM      5  O   UNL A   1      33.169  23.845  21.231  1.00  0.00    -0.244 OA
BRANCH   4   6
ATOM      6  C   UNL A   1      32.471  23.987  23.517  1.00  0.00     0.137 A 
ATOM      7  C   UNL A   1      32.056  22.876  24.276  1.00  0.00     0.047 A 
ATOM      8  C   UNL A   1      31.117  23.363  25.250  1.00  0.00     0.009 A 
ATOM      9  N   UNL A   1      31.794  25.097  23.996  1.00  0.00    -0.330 N 
ATOM     10  C   UNL A   1      30.923  24.727  25.009  1.00  0.00     0.050 A 
ATOM     11  C   UNL A   1      30.385  22.774  26.307  1.00  0.00     0.011 A 
ATOM     12  C   UNL A   1      29.982  25.481  25.739  1.00  0.00     0.027 A 
ATOM     13  C   UNL A   1      29.450  23.512  27.034  1.00  0.00     0.001 A 
ATOM     14  C   UNL A   1      29.242  24.849  26.742  1.00  0.00     0.002 A 
BRANCH   7  15
ATOM     15  C   UNL A   1      32.584  21.476  24.037  1.00  0.00     0.300 C 
BRANCH  15  16
ATOM     16  N   UNL A   1      33.463  20.922  25.031  1.00  0.00    -0.339 N 
ATOM     17  H   UNL A   1      33.956  21.686  25.493  1.00  0.00     0.346 HD
ATOM     18  H   UNL A   1      32.893  20.393  25.691  1.00  0.00     0.346 HD
BRANCH  16  19
ATOM     19  C   UNL A   1      34.443  20.011  24.458  1.00  0.00     0.297 C 
BRANCH  19  20
ATOM     20  C   UNL A   1      34.058  18.611  24.835  1.00  0.00     0.006 A 
ATOM     21  C   UNL A   1      32.686  14.592  25.468  1.00  0.00     0.044 C 
ATOM     22  C   UNL A   1      33.180  15.990  25.263  1.00  0.00    -0.051 A 
ATOM     23  C   UNL A   1      32.413  17.070  25.713  1.00  0.00     0.004 A 
ATOM     24  C   UNL A   1      34.400  16.228  24.622  1.00  0.00     0.004 A 
ATOM     25  C   UNL A   1      32.848  18.374  25.498  1.00  0.00     0.010 A 
ATOM     26  C   UNL A   1      34.839  17.532  24.412  1.00  0.00     0.010 A 
ENDBRANCH  19  20
ENDBRANCH  16  19
ENDBRANCH  15  16
ENDBRANCH   7  15
BRANCH   9  27
ATOM     27  C   UNL A   1      31.983  26.480  23.540  1.00  0.00     0.158 C 
BRANCH  27  28
ATOM     28  C   UNL A   1      32.603  27.408  24.561  1.00  0.00    -0.028 A 
ATOM     29  C   UNL A   1      32.278  28.776  24.512  1.00  0.00     0.005 A 
ATOM     30  C   UNL A   1      33.519  26.974  25.530  1.00  0.00     0.005 A 
ATOM     31  C   UNL A   1      32.814  29.674  25.435  1.00  0.00     0.000 A 
ATOM     32  C   UNL A   1      34.056  27.874  26.453  1.00  0.00     0.000 A 
ATOM     33  C   UNL A   1      33.700  29.222  26.409  1.00  0.00     0.000 A 
ENDBRANCH  27  28
ENDBRANCH   9  27
ENDBRANCH   4   6
ENDBRANCH   3   4
ENDBRANCH   2   3
ENDBRANCH   1   2
BRANCH   1  34
ATOM     34  O   UNL A   1      37.342  23.308  24.867  1.00  0.00    -0.374 OA
BRANCH  34  35
ATOM     35  C   UNL A   1      37.930  23.620  26.108  1.00  0.00     0.202 C 
BRANCH  35  36
ATOM     36  C   UNL A   1      39.121  22.723  26.430  1.00  0.00     0.261 C 
BRANCH  36  37
ATOM     37  O   UNL A   1      40.004  23.420  27.336  1.00  0.00    -0.460 OA
BRANCH  37  38
ATOM     38  C   UNL A   1      40.807  24.353  26.753  1.00  0.00     0.338 C 
ATOM     39  O   UNL A   1      41.821  24.105  26.120  1.00  0.00    -0.246 OA
BRANCH  38  40
ATOM     40  C   UNL A   1      40.436  25.721  27.224  1.00  0.00     0.060 A 
ATOM     41  C   UNL A   1      40.810  26.844  26.460  1.00  0.00     0.016 A 
ATOM     42  C   UNL A   1      40.015  25.896  28.539  1.00  0.00     0.016 A 
ATOM     43  C   UNL A   1      40.901  28.114  27.058  1.00  0.00     0.010 A 
ATOM     44  C   UNL A   1      40.197  27.127  29.144  1.00  0.00     0.010 A 
ATOM     45  C   UNL A   1      40.665  28.242  28.429  1.00  0.00    -0.014 A 
BRANCH  45  46
ATOM     46  C   UNL A   1      40.984  29.423  29.245  1.00  0.00     0.031 A 
ATOM     47  C   UNL A   1      39.900  30.341  29.673  1.00  0.00     0.074 A 
ATOM     48  C   UNL A   1      42.202  29.610  29.819  1.00  0.00     0.049 A 
ATOM     49  N   UNL A   1      40.118  31.556  30.055  1.00  0.00    -0.248 NA
ATOM     50  C   UNL A   1      38.486  29.981  29.709  1.00  0.00     0.031 C 
ATOM     51  C   UNL A   1      42.503  30.426  31.000  1.00  0.00     0.029 A 
ATOM     52  N   UNL A   1      43.458  29.093  29.471  1.00  0.00    -0.354 N 
ATOM     53  C   UNL A   1      38.980  32.003  30.676  1.00  0.00     0.074 A 
ATOM     54  C   UNL A   1      37.965  31.023  30.363  1.00  0.00     0.031 C 
ATOM     55  C   UNL A   1      43.830  30.578  31.111  1.00  0.00     0.029 A 
ATOM     56  C   UNL A   1      44.439  29.987  29.938  1.00  0.00     0.049 A 
ATOM     57  H   UNL A   1      43.624  28.252  28.988  1.00  0.00     0.167 HD
ATOM     58  C   UNL A   1      39.040  33.083  31.504  1.00  0.00     0.037 A 
ATOM     59  C   UNL A   1      45.350  30.546  29.096  1.00  0.00     0.037 A 
ATOM     60  C   UNL A   1      40.412  33.569  31.687  1.00  0.00     0.049 A 
ATOM     61  C   UNL A   1      45.180  32.037  29.018  1.00  0.00     0.074 A 
ATOM     62  C   UNL A   1      41.340  33.493  32.714  1.00  0.00     0.029 A 
ATOM     63  N   UNL A   1      41.131  33.994  30.582  1.00  0.00    -0.354 N 
ATOM     64  N   UNL A   1      44.397  32.711  29.811  1.00  0.00    -0.248 NA
ATOM     65  C   UNL A   1      45.772  32.875  27.979  1.00  0.00     0.031 C 
ATOM     66  C   UNL A   1      42.600  33.948  32.224  1.00  0.00     0.029 A 
ATOM     67  C   UNL A   1      42.440  34.308  30.898  1.00  0.00     0.049 A 
ATOM     68  H   UNL A   1      40.753  34.066  29.677  1.00  0.00     0.167 HD
ATOM     69  C   UNL A   1      44.235  33.973  29.329  1.00  0.00     0.074 A 
ATOM     70  C   UNL A   1      45.150  34.045  28.201  1.00  0.00     0.031 C 
ATOM     71  C   UNL A   1      43.310  34.829  29.852  1.00  0.00     0.037 A 
BRANCH  58  72
ATOM     72  C   UNL A   1      37.859  33.548  32.324  1.00  0.00     0.064 A 
ATOM     73  C   UNL A   1      36.751  34.183  31.730  1.00  0.00     0.173 A 
ATOM     74  C   UNL A   1      37.765  33.377  33.720  1.00  0.00     0.173 A 
ATOM     75  F   UNL A   1      36.650  34.322  30.403  1.00  0.00    -0.203 F 
ATOM     76  C   UNL A   1      35.695  34.705  32.482  1.00  0.00     0.198 A 
ATOM     77  C   UNL A   1      36.741  33.953  34.480  1.00  0.00     0.198 A 
ATOM     78  F   UNL A   1      38.641  32.611  34.387  1.00  0.00    -0.203 F 
ATOM     79  F   UNL A   1      34.668  35.299  31.859  1.00  0.00    -0.200 F 
ATOM     80  C   UNL A   1      35.709  34.625  33.859  1.00  0.00     0.200 A 
ATOM     81  F   UNL A   1      36.762  33.848  35.816  1.00  0.00    -0.200 F 
ATOM     82  F   UNL A   1      34.720  35.168  34.581  1.00  0.00    -0.200 F 
ENDBRANCH  58  72
BRANCH  59  83
ATOM     83  C   UNL A   1      45.752  29.626  27.998  1.00  0.00     0.064 A 
ATOM     84  C   UNL A   1      46.782  28.701  28.261  1.00  0.00     0.173 A 
ATOM     85  C   UNL A   1      44.891  29.348  26.928  1.00  0.00     0.173 A 
ATOM     86  F   UNL A   1      47.618  28.904  29.292  1.00  0.00    -0.203 F 
ATOM     87  C   UNL A   1      46.878  27.501  27.557  1.00  0.00     0.198 A 
ATOM     88  C   UNL A   1      44.978  28.136  26.237  1.00  0.00     0.198 A 
ATOM     89  F   UNL A   1      43.880  30.180  26.642  1.00  0.00    -0.203 F 
ATOM     90  F   UNL A   1      47.783  26.580  27.918  1.00  0.00    -0.200 F 
ATOM     91  C   UNL A   1      45.952  27.205  26.570  1.00  0.00     0.200 A 
ATOM     92  F   UNL A   1      44.055  27.827  25.315  1.00  0.00    -0.200 F 
ATOM     93  F   UNL A   1      45.949  25.993  25.997  1.00  0.00    -0.200 F 
ENDBRANCH  59  83
BRANCH  71  94
ATOM     94  C   UNL A   1      43.130  36.231  29.352  1.00  0.00     0.064 A 
ATOM     95  C   UNL A   1      43.649  37.336  30.041  1.00  0.00     0.173 A 
ATOM     96  C   UNL A   1      42.359  36.523  28.206  1.00  0.00     0.173 A 
ATOM     97  F   UNL A   1      44.282  37.182  31.214  1.00  0.00    -0.203 F 
ATOM     98  C   UNL A   1      43.517  38.634  29.549  1.00  0.00     0.198 A 
ATOM     99  C   UNL A   1      42.178  37.824  27.749  1.00  0.00     0.198 A 
ATOM    100  F   UNL A   1      41.778  35.563  27.474  1.00  0.00    -0.203 F 
ATOM    101  F   UNL A   1      44.106  39.650  30.193  1.00  0.00    -0.200 F 
ATOM    102  C   UNL A   1      42.783  38.877  28.401  1.00  0.00     0.200 A 
ATOM    103  F   UNL A   1      41.423  38.045  26.663  1.00  0.00    -0.200 F 
ATOM    104  F   UNL A   1      42.658  40.122  27.928  1.00  0.00    -0.200 F 
ENDBRANCH  71  94
ENDBRANCH  45  46
ENDBRANCH  38  40
ENDBRANCH  37  38
ENDBRANCH  36  37
ENDBRANCH  35  36
ENDBRANCH  34  35
ENDBRANCH   1  34
TORSDOF 20
ENDMDL
