MODEL 1
REMARK VINA RESULT:     -10.5      0.000      0.000
REMARK SMILES CC(C)[C@H](NC(=O)[C@H](C)NC(=O)C[NH3+])C(=O)OCCOCCOC(=O)c1ccc(-c2c3nc(c(-c4c(F)c(F)c(F)c(F)c4F)c4ccc([nH]4)c(-c4c(F)c(F)c(F)c(F)c4F)c4nc(c(-c5c(F)c(F)c(F)c(F)c5F)c5ccc2[nH]5)C=C4)C=C3)cc1
REMARK SMILES IDX 18 1 17 2 15 3 16 4 4 5 2 6 1 7 3 8 5 9 6 10 7 12 8 13 9 14
REMARK SMILES IDX 10 15 11 16 12 18 13 19 14 20 19 24 20 25 21 26 22 27 23 28
REMARK SMILES IDX 24 29 25 30 26 31 27 32 88 33 28 34 87 35 29 36 30 37 31 38
REMARK SMILES IDX 81 39 32 40 86 41 80 42 82 43 33 44 85 45 79 46 78 47 34 49
REMARK SMILES IDX 66 50 46 51 65 52 47 53 50 54 64 55 83 56 48 57 49 58 63 60
REMARK SMILES IDX 84 61 51 62 35 63 36 64 44 65 37 66 38 67 42 68 45 69 39 70
REMARK SMILES IDX 40 71 43 72 41 73 67 74 68 75 76 76 69 77 70 78 74 79 77 80
REMARK SMILES IDX 71 81 72 82 75 83 73 84 52 85 53 86 61 87 54 88 55 89 59 90
REMARK SMILES IDX 62 91 56 92 57 93 60 94 58 95
REMARK H PARENT 5 11 10 17 14 21 14 22 14 23 82 48 50 59
REMARK Flexibility Score: inf
ROOT
ATOM      1  C   UNL A   1      32.702  27.228  22.820  1.00  0.00     0.261 C 
ENDROOT
BRANCH   1   2
ATOM      2  O   UNL A   1      33.193  26.121  23.601  1.00  0.00    -0.462 OA
BRANCH   2   3
ATOM      3  C   UNL A   1      33.506  24.913  23.012  1.00  0.00     0.328 C 
ATOM      4  O   UNL A   1      33.482  24.696  21.809  1.00  0.00    -0.250 OA
BRANCH   3   5
ATOM      5  C   UNL A   1      34.129  23.944  24.077  1.00  0.00     0.194 C 
BRANCH   5   6
ATOM      6  C   UNL A   1      35.677  23.929  24.159  1.00  0.00     0.017 C 
ATOM      7  C   UNL A   1      36.097  23.942  25.643  1.00  0.00     0.010 C 
ATOM      8  C   UNL A   1      36.339  22.705  23.511  1.00  0.00     0.010 C 
ENDBRANCH   5   6
BRANCH   5   9
ATOM      9  N   UNL A   1      33.508  22.640  23.923  1.00  0.00    -0.341 N 
ATOM     10  C   UNL A   1      32.847  21.942  24.886  1.00  0.00     0.243 C 
ATOM     11  H   UNL A   1      33.573  22.221  23.035  1.00  0.00     0.164 HD
ATOM     12  O   UNL A   1      32.190  20.970  24.490  1.00  0.00    -0.273 OA
BRANCH  10  13
ATOM     13  C   UNL A   1      32.883  22.295  26.417  1.00  0.00     0.168 C 
ATOM     14  C   UNL A   1      33.748  21.615  27.477  1.00  0.00     0.041 C 
BRANCH  13  15
ATOM     15  N   UNL A   1      31.523  22.328  26.904  1.00  0.00    -0.340 N 
ATOM     16  C   UNL A   1      30.607  23.337  26.823  1.00  0.00     0.275 C 
ATOM     17  H   UNL A   1      31.214  21.510  27.357  1.00  0.00     0.164 HD
ATOM     18  O   UNL A   1      29.587  23.224  27.505  1.00  0.00    -0.268 OA
BRANCH  16  19
ATOM     19  C   UNL A   1      30.804  24.510  25.848  1.00  0.00     0.360 C 
BRANCH  19  20
ATOM     20  N   UNL A   1      31.513  25.667  26.410  1.00  0.00    -0.350 N 
ATOM     21  H   UNL A   1      31.100  26.527  26.047  1.00  0.00     0.344 HD
ATOM     22  H   UNL A   1      32.497  25.625  26.146  1.00  0.00     0.344 HD
ATOM     23  H   UNL A   1      31.432  25.654  27.427  1.00  0.00     0.344 HD
ENDBRANCH  19  20
ENDBRANCH  16  19
ENDBRANCH  13  15
ENDBRANCH  10  13
ENDBRANCH   5   9
ENDBRANCH   3   5
ENDBRANCH   2   3
ENDBRANCH   1   2
BRANCH   1  24
ATOM     24  C   UNL A   1      31.574  27.995  23.552  1.00  0.00     0.202 C 
BRANCH  24  25
ATOM     25  O   UNL A   1      31.809  28.290  24.919  1.00  0.00    -0.374 OA
BRANCH  25  26
ATOM     26  C   UNL A   1      31.545  29.542  25.542  1.00  0.00     0.202 C 
BRANCH  26  27
ATOM     27  C   UNL A   1      32.836  30.291  25.934  1.00  0.00     0.261 C 
BRANCH  27  28
ATOM     28  O   UNL A   1      32.890  30.549  27.336  1.00  0.00    -0.460 OA
BRANCH  28  29
ATOM     29  C   UNL A   1      33.606  31.666  27.634  1.00  0.00     0.338 C 
ATOM     30  O   UNL A   1      33.178  32.783  27.833  1.00  0.00    -0.246 OA
BRANCH  29  31
ATOM     31  C   UNL A   1      34.974  31.210  27.962  1.00  0.00     0.060 A 
ATOM     32  C   UNL A   1      35.179  29.842  28.199  1.00  0.00     0.016 A 
ATOM     33  C   UNL A   1      36.041  32.113  27.979  1.00  0.00     0.016 A 
ATOM     34  C   UNL A   1      36.434  29.393  28.581  1.00  0.00     0.010 A 
ATOM     35  C   UNL A   1      37.295  31.671  28.369  1.00  0.00     0.010 A 
ATOM     36  C   UNL A   1      37.460  30.331  28.752  1.00  0.00    -0.014 A 
BRANCH  36  37
ATOM     37  C   UNL A   1      38.563  30.005  29.668  1.00  0.00     0.031 A 
ATOM     38  C   UNL A   1      39.583  29.019  29.171  1.00  0.00     0.074 A 
ATOM     39  C   UNL A   1      38.645  30.574  30.878  1.00  0.00     0.049 A 
ATOM     40  N   UNL A   1      40.621  28.516  29.781  1.00  0.00    -0.248 NA
ATOM     41  C   UNL A   1      39.400  28.526  27.792  1.00  0.00     0.031 C 
ATOM     42  C   UNL A   1      37.712  31.564  31.411  1.00  0.00     0.029 A 
ATOM     43  N   UNL A   1      39.556  30.383  31.878  1.00  0.00    -0.354 N 
ATOM     44  C   UNL A   1      41.207  27.652  28.865  1.00  0.00     0.074 A 
ATOM     45  C   UNL A   1      40.394  27.662  27.673  1.00  0.00     0.031 C 
ATOM     46  C   UNL A   1      38.096  31.889  32.657  1.00  0.00     0.029 A 
ATOM     47  C   UNL A   1      39.276  31.102  33.011  1.00  0.00     0.049 A 
ATOM     48  H   UNL A   1      40.337  29.790  31.792  1.00  0.00     0.167 HD
ATOM     49  C   UNL A   1      42.334  26.921  29.009  1.00  0.00     0.037 A 
ATOM     50  C   UNL A   1      39.902  31.090  34.202  1.00  0.00     0.037 A 
ATOM     51  C   UNL A   1      43.115  26.919  30.214  1.00  0.00     0.049 A 
ATOM     52  C   UNL A   1      41.116  30.210  34.363  1.00  0.00     0.074 A 
ATOM     53  C   UNL A   1      44.281  26.230  30.488  1.00  0.00     0.029 A 
ATOM     54  N   UNL A   1      42.791  27.641  31.357  1.00  0.00    -0.354 N 
ATOM     55  N   UNL A   1      41.688  29.417  33.488  1.00  0.00    -0.248 NA
ATOM     56  C   UNL A   1      41.773  30.230  35.675  1.00  0.00     0.031 C 
ATOM     57  C   UNL A   1      44.627  26.486  31.819  1.00  0.00     0.029 A 
ATOM     58  C   UNL A   1      43.719  27.390  32.351  1.00  0.00     0.049 A 
ATOM     59  H   UNL A   1      42.017  28.242  31.444  1.00  0.00     0.167 HD
ATOM     60  C   UNL A   1      42.791  28.868  34.131  1.00  0.00     0.074 A 
ATOM     61  C   UNL A   1      42.811  29.433  35.465  1.00  0.00     0.031 C 
ATOM     62  C   UNL A   1      43.706  27.979  33.667  1.00  0.00     0.037 A 
BRANCH  49  63
ATOM     63  C   UNL A   1      42.751  26.049  27.862  1.00  0.00     0.064 A 
ATOM     64  C   UNL A   1      43.656  26.490  26.883  1.00  0.00     0.173 A 
ATOM     65  C   UNL A   1      42.241  24.748  27.741  1.00  0.00     0.173 A 
ATOM     66  F   UNL A   1      44.154  27.735  26.935  1.00  0.00    -0.203 F 
ATOM     67  C   UNL A   1      44.015  25.670  25.815  1.00  0.00     0.198 A 
ATOM     68  C   UNL A   1      42.628  23.919  26.691  1.00  0.00     0.198 A 
ATOM     69  F   UNL A   1      41.366  24.279  28.643  1.00  0.00    -0.203 F 
ATOM     70  F   UNL A   1      44.838  26.132  24.864  1.00  0.00    -0.200 F 
ATOM     71  C   UNL A   1      43.508  24.382  25.726  1.00  0.00     0.200 A 
ATOM     72  F   UNL A   1      42.143  22.671  26.613  1.00  0.00    -0.200 F 
ATOM     73  F   UNL A   1      43.860  23.591  24.704  1.00  0.00    -0.200 F 
ENDBRANCH  49  63
BRANCH  50  74
ATOM     74  C   UNL A   1      39.390  31.925  35.318  1.00  0.00     0.064 A 
ATOM     75  C   UNL A   1      39.741  33.277  35.433  1.00  0.00     0.173 A 
ATOM     76  C   UNL A   1      38.540  31.387  36.297  1.00  0.00     0.173 A 
ATOM     77  F   UNL A   1      40.563  33.834  34.531  1.00  0.00    -0.203 F 
ATOM     78  C   UNL A   1      39.282  34.052  36.496  1.00  0.00     0.198 A 
ATOM     79  C   UNL A   1      38.055  32.171  37.341  1.00  0.00     0.198 A 
ATOM     80  F   UNL A   1      38.169  30.100  36.232  1.00  0.00    -0.203 F 
ATOM     81  F   UNL A   1      39.673  35.329  36.609  1.00  0.00    -0.200 F 
ATOM     82  C   UNL A   1      38.434  33.500  37.446  1.00  0.00     0.200 A 
ATOM     83  F   UNL A   1      37.224  31.639  38.246  1.00  0.00    -0.200 F 
ATOM     84  F   UNL A   1      37.990  34.248  38.465  1.00  0.00    -0.200 F 
ENDBRANCH  50  74
BRANCH  62  85
ATOM     85  C   UNL A   1      44.823  27.602  34.595  1.00  0.00     0.064 A 
ATOM     86  C   UNL A   1      46.007  28.348  34.669  1.00  0.00     0.173 A 
ATOM     87  C   UNL A   1      44.683  26.501  35.455  1.00  0.00     0.173 A 
ATOM     88  F   UNL A   1      46.193  29.402  33.859  1.00  0.00    -0.203 F 
ATOM     89  C   UNL A   1      47.024  27.987  35.546  1.00  0.00     0.198 A 
ATOM     90  C   UNL A   1      45.686  26.167  36.359  1.00  0.00     0.198 A 
ATOM     91  F   UNL A   1      43.564  25.762  35.433  1.00  0.00    -0.203 F 
ATOM     92  F   UNL A   1      48.172  28.679  35.560  1.00  0.00    -0.200 F 
ATOM     93  C   UNL A   1      46.860  26.903  36.397  1.00  0.00     0.200 A 
ATOM     94  F   UNL A   1      45.515  25.132  37.193  1.00  0.00    -0.200 F 
ATOM     95  F   UNL A   1      47.837  26.563  37.247  1.00  0.00    -0.200 F 
ENDBRANCH  62  85
ENDBRANCH  36  37
ENDBRANCH  29  31
ENDBRANCH  28  29
ENDBRANCH  27  28
ENDBRANCH  26  27
ENDBRANCH  25  26
ENDBRANCH  24  25
ENDBRANCH   1  24
TORSDOF 20
ENDMDL
MODEL 2
REMARK VINA RESULT:      -9.9      4.333      7.240
REMARK SMILES CC(C)[C@H](NC(=O)[C@H](C)NC(=O)C[NH3+])C(=O)OCCOCCOC(=O)c1ccc(-c2c3nc(c(-c4c(F)c(F)c(F)c(F)c4F)c4ccc([nH]4)c(-c4c(F)c(F)c(F)c(F)c4F)c4nc(c(-c5c(F)c(F)c(F)c(F)c5F)c5ccc2[nH]5)C=C4)C=C3)cc1
REMARK SMILES IDX 18 1 17 2 15 3 16 4 4 5 2 6 1 7 3 8 5 9 6 10 7 12 8 13 9 14
REMARK SMILES IDX 10 15 11 16 12 18 13 19 14 20 19 24 20 25 21 26 22 27 23 28
REMARK SMILES IDX 24 29 25 30 26 31 27 32 88 33 28 34 87 35 29 36 30 37 31 38
REMARK SMILES IDX 81 39 32 40 86 41 80 42 82 43 33 44 85 45 79 46 78 47 34 49
REMARK SMILES IDX 66 50 46 51 65 52 47 53 50 54 64 55 83 56 48 57 49 58 63 60
REMARK SMILES IDX 84 61 51 62 35 63 36 64 44 65 37 66 38 67 42 68 45 69 39 70
REMARK SMILES IDX 40 71 43 72 41 73 67 74 68 75 76 76 69 77 70 78 74 79 77 80
REMARK SMILES IDX 71 81 72 82 75 83 73 84 52 85 53 86 61 87 54 88 55 89 59 90
REMARK SMILES IDX 62 91 56 92 57 93 60 94 58 95
REMARK H PARENT 5 11 10 17 14 21 14 22 14 23 82 48 50 59
REMARK Flexibility Score: inf
ROOT
ATOM      1  C   UNL A   1      36.524  23.217  25.323  1.00  0.00     0.261 C 
ENDROOT
BRANCH   1   2
ATOM      2  O   UNL A   1      35.287  23.608  24.694  1.00  0.00    -0.462 OA
BRANCH   2   3
ATOM      3  C   UNL A   1      34.070  23.366  25.299  1.00  0.00     0.328 C 
ATOM      4  O   UNL A   1      33.870  23.403  26.505  1.00  0.00    -0.250 OA
BRANCH   3   5
ATOM      5  C   UNL A   1      32.941  23.284  24.213  1.00  0.00     0.194 C 
BRANCH   5   6
ATOM      6  C   UNL A   1      32.328  21.880  23.974  1.00  0.00     0.017 C 
ATOM      7  C   UNL A   1      32.150  21.666  22.457  1.00  0.00     0.010 C 
ATOM      8  C   UNL A   1      33.178  20.714  24.500  1.00  0.00     0.010 C 
ENDBRANCH   5   6
BRANCH   5   9
ATOM      9  N   UNL A   1      33.409  23.963  23.018  1.00  0.00    -0.341 N 
ATOM     10  C   UNL A   1      33.021  25.193  22.584  1.00  0.00     0.243 C 
ATOM     11  H   UNL A   1      34.071  23.486  22.469  1.00  0.00     0.164 HD
ATOM     12  O   UNL A   1      33.712  25.688  21.682  1.00  0.00    -0.273 OA
BRANCH  10  13
ATOM     13  C   UNL A   1      31.783  25.980  23.146  1.00  0.00     0.168 C 
ATOM     14  C   UNL A   1      31.036  27.110  22.437  1.00  0.00     0.041 C 
BRANCH  13  15
ATOM     15  N   UNL A   1      32.100  26.426  24.484  1.00  0.00    -0.340 N 
ATOM     16  C   UNL A   1      31.300  26.462  25.588  1.00  0.00     0.275 C 
ATOM     17  H   UNL A   1      33.022  26.746  24.617  1.00  0.00     0.164 HD
ATOM     18  O   UNL A   1      31.718  27.088  26.563  1.00  0.00    -0.268 OA
BRANCH  16  19
ATOM     19  C   UNL A   1      29.981  25.672  25.637  1.00  0.00     0.360 C 
BRANCH  19  20
ATOM     20  N   UNL A   1      30.024  24.447  26.448  1.00  0.00    -0.350 N 
ATOM     21  H   UNL A   1      30.170  23.642  25.838  1.00  0.00     0.344 HD
ATOM     22  H   UNL A   1      29.142  24.340  26.948  1.00  0.00     0.344 HD
ATOM     23  H   UNL A   1      30.791  24.510  27.117  1.00  0.00     0.344 HD
ENDBRANCH  19  20
ENDBRANCH  16  19
ENDBRANCH  13  15
ENDBRANCH  10  13
ENDBRANCH   5   9
ENDBRANCH   3   5
ENDBRANCH   2   3
ENDBRANCH   1   2
BRANCH   1  24
ATOM     24  C   UNL A   1      37.173  22.004  24.612  1.00  0.00     0.202 C 
BRANCH  24  25
ATOM     25  O   UNL A   1      37.882  21.102  25.444  1.00  0.00    -0.374 OA
BRANCH  25  26
ATOM     26  C   UNL A   1      38.263  19.780  25.079  1.00  0.00     0.202 C 
BRANCH  26  27
ATOM     27  C   UNL A   1      39.652  19.393  25.628  1.00  0.00     0.261 C 
BRANCH  27  28
ATOM     28  O   UNL A   1      40.055  20.252  26.693  1.00  0.00    -0.460 OA
BRANCH  28  29
ATOM     29  C   UNL A   1      41.291  20.784  26.495  1.00  0.00     0.338 C 
ATOM     30  O   UNL A   1      42.169  20.358  25.776  1.00  0.00    -0.246 OA
BRANCH  29  31
ATOM     31  C   UNL A   1      41.261  22.139  27.087  1.00  0.00     0.060 A 
ATOM     32  C   UNL A   1      40.417  23.099  26.509  1.00  0.00     0.016 A 
ATOM     33  C   UNL A   1      42.014  22.434  28.228  1.00  0.00     0.016 A 
ATOM     34  C   UNL A   1      40.422  24.398  26.995  1.00  0.00     0.010 A 
ATOM     35  C   UNL A   1      42.029  23.732  28.712  1.00  0.00     0.010 A 
ATOM     36  C   UNL A   1      41.300  24.723  28.036  1.00  0.00    -0.014 A 
BRANCH  36  37
ATOM     37  C   UNL A   1      41.741  26.119  28.171  1.00  0.00     0.031 A 
ATOM     38  C   UNL A   1      43.092  26.456  27.602  1.00  0.00     0.074 A 
ATOM     39  C   UNL A   1      40.964  27.033  28.766  1.00  0.00     0.049 A 
ATOM     40  N   UNL A   1      43.747  27.584  27.626  1.00  0.00    -0.248 NA
ATOM     41  C   UNL A   1      43.806  25.362  26.916  1.00  0.00     0.031 C 
ATOM     42  C   UNL A   1      39.631  26.785  29.308  1.00  0.00     0.029 A 
ATOM     43  N   UNL A   1      41.201  28.355  29.021  1.00  0.00    -0.354 N 
ATOM     44  C   UNL A   1      44.942  27.333  26.965  1.00  0.00     0.074 A 
ATOM     45  C   UNL A   1      44.947  25.942  26.585  1.00  0.00     0.031 C 
ATOM     46  C   UNL A   1      39.167  27.925  29.847  1.00  0.00     0.029 A 
ATOM     47  C   UNL A   1      40.188  28.963  29.715  1.00  0.00     0.049 A 
ATOM     48  H   UNL A   1      42.018  28.823  28.734  1.00  0.00     0.167 HD
ATOM     49  C   UNL A   1      45.943  28.199  26.692  1.00  0.00     0.037 A 
ATOM     50  C   UNL A   1      40.124  30.215  30.203  1.00  0.00     0.037 A 
ATOM     51  C   UNL A   1      45.917  29.577  27.096  1.00  0.00     0.049 A 
ATOM     52  C   UNL A   1      41.285  31.142  29.950  1.00  0.00     0.074 A 
ATOM     53  C   UNL A   1      46.862  30.560  26.878  1.00  0.00     0.029 A 
ATOM     54  N   UNL A   1      44.884  30.159  27.822  1.00  0.00    -0.354 N 
ATOM     55  N   UNL A   1      42.402  30.915  29.299  1.00  0.00    -0.248 NA
ATOM     56  C   UNL A   1      41.174  32.500  30.494  1.00  0.00     0.031 C 
ATOM     57  C   UNL A   1      46.430  31.721  27.526  1.00  0.00     0.029 A 
ATOM     58  C   UNL A   1      45.183  31.483  28.086  1.00  0.00     0.049 A 
ATOM     59  H   UNL A   1      44.062  29.697  28.103  1.00  0.00     0.167 HD
ATOM     60  C   UNL A   1      43.113  32.108  29.326  1.00  0.00     0.074 A 
ATOM     61  C   UNL A   1      42.290  33.059  30.047  1.00  0.00     0.031 C 
ATOM     62  C   UNL A   1      44.331  32.399  28.804  1.00  0.00     0.037 A 
BRANCH  49  63
ATOM     63  C   UNL A   1      47.145  27.668  25.968  1.00  0.00     0.064 A 
ATOM     64  C   UNL A   1      48.248  27.130  26.650  1.00  0.00     0.173 A 
ATOM     65  C   UNL A   1      47.194  27.694  24.566  1.00  0.00     0.173 A 
ATOM     66  F   UNL A   1      48.266  27.106  27.992  1.00  0.00    -0.203 F 
ATOM     67  C   UNL A   1      49.362  26.660  25.959  1.00  0.00     0.198 A 
ATOM     68  C   UNL A   1      48.295  27.192  23.877  1.00  0.00     0.198 A 
ATOM     69  F   UNL A   1      46.172  28.205  23.864  1.00  0.00    -0.203 F 
ATOM     70  F   UNL A   1      50.425  26.202  26.634  1.00  0.00    -0.200 F 
ATOM     71  C   UNL A   1      49.379  26.684  24.572  1.00  0.00     0.200 A 
ATOM     72  F   UNL A   1      48.306  27.207  22.536  1.00  0.00    -0.200 F 
ATOM     73  F   UNL A   1      50.448  26.224  23.906  1.00  0.00    -0.200 F 
ENDBRANCH  49  63
BRANCH  50  74
ATOM     74  C   UNL A   1      38.932  30.650  30.976  1.00  0.00     0.064 A 
ATOM     75  C   UNL A   1      37.824  31.222  30.338  1.00  0.00     0.173 A 
ATOM     76  C   UNL A   1      38.879  30.506  32.371  1.00  0.00     0.173 A 
ATOM     77  F   UNL A   1      37.832  31.396  29.008  1.00  0.00    -0.203 F 
ATOM     78  C   UNL A   1      36.718  31.656  31.067  1.00  0.00     0.198 A 
ATOM     79  C   UNL A   1      37.759  30.910  33.095  1.00  0.00     0.198 A 
ATOM     80  F   UNL A   1      39.910  29.960  33.031  1.00  0.00    -0.203 F 
ATOM     81  F   UNL A   1      35.693  32.245  30.436  1.00  0.00    -0.200 F 
ATOM     82  C   UNL A   1      36.684  31.493  32.444  1.00  0.00     0.200 A 
ATOM     83  F   UNL A   1      37.724  30.735  34.422  1.00  0.00    -0.200 F 
ATOM     84  F   UNL A   1      35.618  31.907  33.143  1.00  0.00    -0.200 F 
ENDBRANCH  50  74
BRANCH  62  85
ATOM     85  C   UNL A   1      44.823  33.808  28.960  1.00  0.00     0.064 A 
ATOM     86  C   UNL A   1      44.511  34.807  28.028  1.00  0.00     0.173 A 
ATOM     87  C   UNL A   1      45.580  34.170  30.085  1.00  0.00     0.173 A 
ATOM     88  F   UNL A   1      43.800  34.508  26.930  1.00  0.00    -0.203 F 
ATOM     89  C   UNL A   1      44.966  36.110  28.200  1.00  0.00     0.198 A 
ATOM     90  C   UNL A   1      46.000  35.482  30.273  1.00  0.00     0.198 A 
ATOM     91  F   UNL A   1      45.895  33.254  31.014  1.00  0.00    -0.203 F 
ATOM     92  F   UNL A   1      44.706  37.037  27.267  1.00  0.00    -0.200 F 
ATOM     93  C   UNL A   1      45.703  36.449  29.326  1.00  0.00     0.200 A 
ATOM     94  F   UNL A   1      46.693  35.810  31.373  1.00  0.00    -0.200 F 
ATOM     95  F   UNL A   1      46.132  37.706  29.494  1.00  0.00    -0.200 F 
ENDBRANCH  62  85
ENDBRANCH  36  37
ENDBRANCH  29  31
ENDBRANCH  28  29
ENDBRANCH  27  28
ENDBRANCH  26  27
ENDBRANCH  25  26
ENDBRANCH  24  25
ENDBRANCH   1  24
TORSDOF 20
ENDMDL
MODEL 3
REMARK VINA RESULT:      -9.8      4.375      7.182
REMARK SMILES CC(C)[C@H](NC(=O)[C@H](C)NC(=O)C[NH3+])C(=O)OCCOCCOC(=O)c1ccc(-c2c3nc(c(-c4c(F)c(F)c(F)c(F)c4F)c4ccc([nH]4)c(-c4c(F)c(F)c(F)c(F)c4F)c4nc(c(-c5c(F)c(F)c(F)c(F)c5F)c5ccc2[nH]5)C=C4)C=C3)cc1
REMARK SMILES IDX 18 1 17 2 15 3 16 4 4 5 2 6 1 7 3 8 5 9 6 10 7 12 8 13 9 14
REMARK SMILES IDX 10 15 11 16 12 18 13 19 14 20 19 24 20 25 21 26 22 27 23 28
REMARK SMILES IDX 24 29 25 30 26 31 27 32 88 33 28 34 87 35 29 36 30 37 31 38
REMARK SMILES IDX 81 39 32 40 86 41 80 42 82 43 33 44 85 45 79 46 78 47 34 49
REMARK SMILES IDX 66 50 46 51 65 52 47 53 50 54 64 55 83 56 48 57 49 58 63 60
REMARK SMILES IDX 84 61 51 62 35 63 36 64 44 65 37 66 38 67 42 68 45 69 39 70
REMARK SMILES IDX 40 71 43 72 41 73 67 74 68 75 76 76 69 77 70 78 74 79 77 80
REMARK SMILES IDX 71 81 72 82 75 83 73 84 52 85 53 86 61 87 54 88 55 89 59 90
REMARK SMILES IDX 62 91 56 92 57 93 60 94 58 95
REMARK H PARENT 5 11 10 17 14 21 14 22 14 23 82 48 50 59
REMARK Flexibility Score: inf
ROOT
ATOM      1  C   UNL A   1      36.854  23.482  24.808  1.00  0.00     0.261 C 
ENDROOT
BRANCH   1   2
ATOM      2  O   UNL A   1      35.505  23.961  24.979  1.00  0.00    -0.462 OA
BRANCH   2   3
ATOM      3  C   UNL A   1      34.580  23.870  23.960  1.00  0.00     0.328 C 
ATOM      4  O   UNL A   1      34.840  23.969  22.769  1.00  0.00    -0.250 OA
BRANCH   3   5
ATOM      5  C   UNL A   1      33.203  23.378  24.529  1.00  0.00     0.194 C 
BRANCH   5   6
ATOM      6  C   UNL A   1      32.054  24.419  24.525  1.00  0.00     0.017 C 
ATOM      7  C   UNL A   1      32.650  25.817  24.266  1.00  0.00     0.010 C 
ATOM      8  C   UNL A   1      30.979  24.179  23.454  1.00  0.00     0.010 C 
ENDBRANCH   5   6
BRANCH   5   9
ATOM      9  N   UNL A   1      33.445  22.734  25.808  1.00  0.00    -0.341 N 
ATOM     10  C   UNL A   1      33.613  21.400  26.021  1.00  0.00     0.243 C 
ATOM     11  H   UNL A   1      33.491  23.319  26.597  1.00  0.00     0.164 HD
ATOM     12  O   UNL A   1      34.044  21.084  27.139  1.00  0.00    -0.273 OA
BRANCH  10  13
ATOM     13  C   UNL A   1      33.292  20.287  24.960  1.00  0.00     0.168 C 
ATOM     14  C   UNL A   1      32.316  20.413  23.790  1.00  0.00     0.041 C 
BRANCH  13  15
ATOM     15  N   UNL A   1      32.985  19.064  25.667  1.00  0.00    -0.340 N 
ATOM     16  C   UNL A   1      33.360  17.786  25.372  1.00  0.00     0.275 C 
ATOM     17  H   UNL A   1      32.429  19.168  26.473  1.00  0.00     0.164 HD
ATOM     18  O   UNL A   1      32.796  16.880  25.988  1.00  0.00    -0.268 OA
BRANCH  16  19
ATOM     19  C   UNL A   1      34.504  17.504  24.383  1.00  0.00     0.360 C 
BRANCH  19  20
ATOM     20  N   UNL A   1      34.105  16.781  23.167  1.00  0.00    -0.350 N 
ATOM     21  H   UNL A   1      33.100  16.604  23.192  1.00  0.00     0.344 HD
ATOM     22  H   UNL A   1      34.605  15.892  23.121  1.00  0.00     0.344 HD
ATOM     23  H   UNL A   1      34.332  17.343  22.348  1.00  0.00     0.344 HD
ENDBRANCH  19  20
ENDBRANCH  16  19
ENDBRANCH  13  15
ENDBRANCH  10  13
ENDBRANCH   5   9
ENDBRANCH   3   5
ENDBRANCH   2   3
ENDBRANCH   1   2
BRANCH   1  24
ATOM     24  C   UNL A   1      36.886  22.022  24.294  1.00  0.00     0.202 C 
BRANCH  24  25
ATOM     25  O   UNL A   1      37.195  21.030  25.258  1.00  0.00    -0.374 OA
BRANCH  25  26
ATOM     26  C   UNL A   1      37.743  19.749  24.967  1.00  0.00     0.202 C 
BRANCH  26  27
ATOM     27  C   UNL A   1      39.202  19.607  25.449  1.00  0.00     0.261 C 
BRANCH  27  28
ATOM     28  O   UNL A   1      39.499  20.523  26.502  1.00  0.00    -0.460 OA
BRANCH  28  29
ATOM     29  C   UNL A   1      40.814  20.871  26.534  1.00  0.00     0.338 C 
ATOM     30  O   UNL A   1      41.732  20.334  25.953  1.00  0.00    -0.246 OA
BRANCH  29  31
ATOM     31  C   UNL A   1      40.876  22.203  27.173  1.00  0.00     0.060 A 
ATOM     32  C   UNL A   1      39.965  23.185  26.754  1.00  0.00     0.016 A 
ATOM     33  C   UNL A   1      41.784  22.456  28.206  1.00  0.00     0.016 A 
ATOM     34  C   UNL A   1      40.046  24.465  27.281  1.00  0.00     0.010 A 
ATOM     35  C   UNL A   1      41.875  23.736  28.729  1.00  0.00     0.010 A 
ATOM     36  C   UNL A   1      41.064  24.751  28.199  1.00  0.00    -0.014 A 
BRANCH  36  37
ATOM     37  C   UNL A   1      41.529  26.140  28.320  1.00  0.00     0.031 A 
ATOM     38  C   UNL A   1      42.893  26.445  27.765  1.00  0.00     0.074 A 
ATOM     39  C   UNL A   1      40.761  27.077  28.891  1.00  0.00     0.049 A 
ATOM     40  N   UNL A   1      43.568  27.562  27.782  1.00  0.00    -0.248 NA
ATOM     41  C   UNL A   1      43.596  25.329  27.105  1.00  0.00     0.031 C 
ATOM     42  C   UNL A   1      39.415  26.861  29.418  1.00  0.00     0.029 A 
ATOM     43  N   UNL A   1      41.018  28.398  29.130  1.00  0.00    -0.354 N 
ATOM     44  C   UNL A   1      44.767  27.280  27.141  1.00  0.00     0.074 A 
ATOM     45  C   UNL A   1      44.752  25.883  26.781  1.00  0.00     0.031 C 
ATOM     46  C   UNL A   1      38.965  28.017  29.934  1.00  0.00     0.029 A 
ATOM     47  C   UNL A   1      40.007  29.034  29.801  1.00  0.00     0.049 A 
ATOM     48  H   UNL A   1      41.847  28.847  28.848  1.00  0.00     0.167 HD
ATOM     49  C   UNL A   1      45.787  28.123  26.870  1.00  0.00     0.037 A 
ATOM     50  C   UNL A   1      39.958  30.294  30.271  1.00  0.00     0.037 A 
ATOM     51  C   UNL A   1      45.781  29.507  27.254  1.00  0.00     0.049 A 
ATOM     52  C   UNL A   1      41.140  31.196  30.021  1.00  0.00     0.074 A 
ATOM     53  C   UNL A   1      46.746  30.470  27.034  1.00  0.00     0.029 A 
ATOM     54  N   UNL A   1      44.749  30.118  27.956  1.00  0.00    -0.354 N 
ATOM     55  N   UNL A   1      42.261  30.940  29.388  1.00  0.00    -0.248 NA
ATOM     56  C   UNL A   1      41.046  32.564  30.543  1.00  0.00     0.031 C 
ATOM     57  C   UNL A   1      46.326  31.648  27.660  1.00  0.00     0.029 A 
ATOM     58  C   UNL A   1      45.067  31.440  28.206  1.00  0.00     0.049 A 
ATOM     59  H   UNL A   1      43.915  29.675  28.233  1.00  0.00     0.167 HD
ATOM     60  C   UNL A   1      42.992  32.120  29.408  1.00  0.00     0.074 A 
ATOM     61  C   UNL A   1      42.177  33.096  30.104  1.00  0.00     0.031 C 
ATOM     62  C   UNL A   1      44.223  32.381  28.899  1.00  0.00     0.037 A 
BRANCH  49  63
ATOM     63  C   UNL A   1      46.989  27.561  26.170  1.00  0.00     0.064 A 
ATOM     64  C   UNL A   1      47.119  27.593  24.772  1.00  0.00     0.173 A 
ATOM     65  C   UNL A   1      48.032  26.984  26.909  1.00  0.00     0.173 A 
ATOM     66  F   UNL A   1      46.138  28.109  24.014  1.00  0.00    -0.203 F 
ATOM     67  C   UNL A   1      48.235  27.048  24.141  1.00  0.00     0.198 A 
ATOM     68  C   UNL A   1      49.162  26.471  26.277  1.00  0.00     0.198 A 
ATOM     69  F   UNL A   1      47.957  26.919  28.247  1.00  0.00    -0.203 F 
ATOM     70  F   UNL A   1      48.310  27.041  22.803  1.00  0.00    -0.200 F 
ATOM     71  C   UNL A   1      49.259  26.496  24.896  1.00  0.00     0.200 A 
ATOM     72  F   UNL A   1      50.155  25.946  27.009  1.00  0.00    -0.200 F 
ATOM     73  F   UNL A   1      50.337  25.979  24.289  1.00  0.00    -0.200 F 
ENDBRANCH  49  63
BRANCH  50  74
ATOM     74  C   UNL A   1      38.764  30.762  31.021  1.00  0.00     0.064 A 
ATOM     75  C   UNL A   1      38.718  30.704  32.420  1.00  0.00     0.173 A 
ATOM     76  C   UNL A   1      37.642  31.274  30.353  1.00  0.00     0.173 A 
ATOM     77  F   UNL A   1      39.761  30.208  33.104  1.00  0.00    -0.203 F 
ATOM     78  C   UNL A   1      37.587  31.116  33.121  1.00  0.00     0.198 A 
ATOM     79  C   UNL A   1      36.524  31.717  31.056  1.00  0.00     0.198 A 
ATOM     80  F   UNL A   1      37.635  31.356  29.015  1.00  0.00    -0.203 F 
ATOM     81  F   UNL A   1      37.551  31.004  34.456  1.00  0.00    -0.200 F 
ATOM     82  C   UNL A   1      36.494  31.629  32.439  1.00  0.00     0.200 A 
ATOM     83  F   UNL A   1      35.477  32.227  30.394  1.00  0.00    -0.200 F 
ATOM     84  F   UNL A   1      35.408  32.029  33.114  1.00  0.00    -0.200 F 
ENDBRANCH  50  74
BRANCH  62  85
ATOM     85  C   UNL A   1      44.738  33.784  29.041  1.00  0.00     0.064 A 
ATOM     86  C   UNL A   1      44.345  34.808  28.169  1.00  0.00     0.173 A 
ATOM     87  C   UNL A   1      45.603  34.113  30.097  1.00  0.00     0.173 A 
ATOM     88  F   UNL A   1      43.530  34.541  27.138  1.00  0.00    -0.203 F 
ATOM     89  C   UNL A   1      44.825  36.104  28.328  1.00  0.00     0.198 A 
ATOM     90  C   UNL A   1      46.049  35.418  30.276  1.00  0.00     0.198 A 
ATOM     91  F   UNL A   1      45.998  33.172  30.968  1.00  0.00    -0.203 F 
ATOM     92  F   UNL A   1      44.483  37.056  27.448  1.00  0.00    -0.200 F 
ATOM     93  C   UNL A   1      45.669  36.411  29.386  1.00  0.00     0.200 A 
ATOM     94  F   UNL A   1      46.847  35.715  31.311  1.00  0.00    -0.200 F 
ATOM     95  F   UNL A   1      46.122  37.661  29.543  1.00  0.00    -0.200 F 
ENDBRANCH  62  85
ENDBRANCH  36  37
ENDBRANCH  29  31
ENDBRANCH  28  29
ENDBRANCH  27  28
ENDBRANCH  26  27
ENDBRANCH  25  26
ENDBRANCH  24  25
ENDBRANCH   1  24
TORSDOF 20
ENDMDL
