MODEL 1
REMARK VINA RESULT:     -11.9      0.000      0.000
REMARK SMILES Cc1cccc(-c2cccnc2C(=O)OCCOCCOC(=O)c2ccc(-c3c4nc(c(-c5c(F)c(F)c(F)c(F)c5F)c5ccc([nH]5)c(-c5c(F)c(F)c(F)c(F)c5F)c5nc(c(-c6c(F)c(F)c(F)c(F)c6F)c6ccc3[nH]6)C=C5)C=C4)cc2)c1
REMARK SMILES IDX 19 1 18 2 17 3 16 4 15 5 13 6 14 7 12 8 7 9 8 10 9 11 11 12
REMARK SMILES IDX 10 13 6 14 1 15 2 16 3 17 87 18 4 19 5 20 20 21 21 22 22 23
REMARK SMILES IDX 23 24 24 25 25 26 86 27 26 28 85 29 27 30 28 31 29 32 79 33
REMARK SMILES IDX 30 34 84 35 78 36 80 37 31 38 83 39 77 40 76 41 32 43 64 44
REMARK SMILES IDX 44 45 63 46 45 47 48 48 62 49 81 50 46 51 47 52 61 54 82 55
REMARK SMILES IDX 49 56 33 57 34 58 42 59 35 60 36 61 40 62 43 63 37 64 38 65
REMARK SMILES IDX 41 66 39 67 65 68 66 69 74 70 67 71 68 72 72 73 75 74 69 75
REMARK SMILES IDX 70 76 73 77 71 78 50 79 51 80 59 81 52 82 53 83 57 84 60 85
REMARK SMILES IDX 54 86 55 87 58 88 56 89
REMARK H PARENT 80 42 48 53
REMARK Flexibility Score: inf
ROOT
ATOM      1  C   UNL A   1      37.017  21.285  24.577  1.00  0.00     0.202 C 
ENDROOT
BRANCH   1   2
ATOM      2  O   UNL A   1      36.947  22.212  23.511  1.00  0.00    -0.374 OA
BRANCH   2   3
ATOM      3  C   UNL A   1      36.207  23.395  23.761  1.00  0.00     0.202 C 
BRANCH   3   4
ATOM      4  C   UNL A   1      34.869  23.183  23.110  1.00  0.00     0.261 C 
BRANCH   4   5
ATOM      5  O   UNL A   1      34.388  24.393  22.529  1.00  0.00    -0.458 OA
BRANCH   5   6
ATOM      6  C   UNL A   1      33.184  24.905  22.889  1.00  0.00     0.357 C 
ATOM      7  O   UNL A   1      32.106  24.412  22.647  1.00  0.00    -0.244 OA
BRANCH   6   8
ATOM      8  C   UNL A   1      33.428  26.139  23.743  1.00  0.00     0.156 A 
ATOM      9  C   UNL A   1      33.211  26.191  25.141  1.00  0.00     0.015 A 
ATOM     10  C   UNL A   1      33.337  27.447  25.752  1.00  0.00     0.013 A 
ATOM     11  C   UNL A   1      33.693  28.566  25.005  1.00  0.00     0.021 A 
ATOM     12  N   UNL A   1      33.786  27.233  23.006  1.00  0.00    -0.249 NA
ATOM     13  C   UNL A   1      33.917  28.409  23.651  1.00  0.00     0.112 A 
BRANCH   9  14
ATOM     14  C   UNL A   1      32.902  25.020  25.982  1.00  0.00    -0.016 A 
ATOM     15  C   UNL A   1      29.897  22.926  27.105  1.00  0.00     0.044 C 
ATOM     16  C   UNL A   1      31.304  23.393  26.871  1.00  0.00    -0.051 A 
ATOM     17  C   UNL A   1      32.370  22.570  27.247  1.00  0.00     0.003 A 
ATOM     18  C   UNL A   1      31.577  24.614  26.231  1.00  0.00     0.012 A 
ATOM     19  C   UNL A   1      33.685  22.984  27.049  1.00  0.00     0.001 A 
ATOM     20  C   UNL A   1      33.950  24.204  26.438  1.00  0.00     0.009 A 
ENDBRANCH   9  14
ENDBRANCH   6   8
ENDBRANCH   5   6
ENDBRANCH   4   5
ENDBRANCH   3   4
ENDBRANCH   2   3
ENDBRANCH   1   2
BRANCH   1  21
ATOM     21  C   UNL A   1      37.613  21.883  25.859  1.00  0.00     0.261 C 
BRANCH  21  22
ATOM     22  O   UNL A   1      39.027  22.106  25.678  1.00  0.00    -0.460 OA
BRANCH  22  23
ATOM     23  C   UNL A   1      39.704  22.560  26.771  1.00  0.00     0.338 C 
ATOM     24  O   UNL A   1      40.180  21.858  27.648  1.00  0.00    -0.246 OA
BRANCH  23  25
ATOM     25  C   UNL A   1      39.521  24.037  26.900  1.00  0.00     0.060 A 
ATOM     26  C   UNL A   1      40.200  24.910  26.029  1.00  0.00     0.016 A 
ATOM     27  C   UNL A   1      38.968  24.531  28.077  1.00  0.00     0.016 A 
ATOM     28  C   UNL A   1      40.467  26.235  26.417  1.00  0.00     0.010 A 
ATOM     29  C   UNL A   1      39.344  25.786  28.504  1.00  0.00     0.010 A 
ATOM     30  C   UNL A   1      40.119  26.644  27.699  1.00  0.00    -0.014 A 
BRANCH  30  31
ATOM     31  C   UNL A   1      40.547  27.871  28.391  1.00  0.00     0.031 A 
ATOM     32  C   UNL A   1      39.548  28.972  28.486  1.00  0.00     0.074 A 
ATOM     33  C   UNL A   1      41.613  27.875  29.232  1.00  0.00     0.049 A 
ATOM     34  N   UNL A   1      39.722  30.074  29.130  1.00  0.00    -0.248 NA
ATOM     35  C   UNL A   1      38.255  28.923  27.811  1.00  0.00     0.031 C 
ATOM     36  C   UNL A   1      41.731  28.642  30.477  1.00  0.00     0.029 A 
ATOM     37  N   UNL A   1      42.849  27.196  29.168  1.00  0.00    -0.354 N 
ATOM     38  C   UNL A   1      38.509  30.720  29.218  1.00  0.00     0.074 A 
ATOM     39  C   UNL A   1      37.653  30.007  28.305  1.00  0.00     0.031 C 
ATOM     40  C   UNL A   1      43.003  28.618  30.902  1.00  0.00     0.029 A 
ATOM     41  C   UNL A   1      43.788  28.014  29.844  1.00  0.00     0.049 A 
ATOM     42  H   UNL A   1      43.024  26.327  28.739  1.00  0.00     0.167 HD
ATOM     43  C   UNL A   1      38.380  31.729  30.130  1.00  0.00     0.037 A 
ATOM     44  C   UNL A   1      44.859  28.567  29.205  1.00  0.00     0.037 A 
ATOM     45  C   UNL A   1      39.678  32.015  30.763  1.00  0.00     0.049 A 
ATOM     46  C   UNL A   1      44.852  30.069  29.273  1.00  0.00     0.074 A 
ATOM     47  C   UNL A   1      40.266  31.739  31.985  1.00  0.00     0.029 A 
ATOM     48  N   UNL A   1      40.707  32.457  29.950  1.00  0.00    -0.354 N 
ATOM     49  N   UNL A   1      43.915  30.757  29.860  1.00  0.00    -0.248 NA
ATOM     50  C   UNL A   1      45.828  30.919  28.600  1.00  0.00     0.031 C 
ATOM     51  C   UNL A   1      41.664  32.042  31.883  1.00  0.00     0.029 A 
ATOM     52  C   UNL A   1      41.915  32.527  30.610  1.00  0.00     0.049 A 
ATOM     53  H   UNL A   1      40.588  32.695  29.003  1.00  0.00     0.167 HD
ATOM     54  C   UNL A   1      44.042  32.070  29.543  1.00  0.00     0.074 A 
ATOM     55  C   UNL A   1      45.276  32.133  28.772  1.00  0.00     0.031 C 
ATOM     56  C   UNL A   1      43.085  32.987  29.869  1.00  0.00     0.037 A 
BRANCH  43  57
ATOM     57  C   UNL A   1      37.094  32.419  30.564  1.00  0.00     0.064 A 
ATOM     58  C   UNL A   1      36.438  33.306  29.679  1.00  0.00     0.173 A 
ATOM     59  C   UNL A   1      36.457  32.295  31.818  1.00  0.00     0.173 A 
ATOM     60  F   UNL A   1      36.878  33.499  28.427  1.00  0.00    -0.203 F 
ATOM     61  C   UNL A   1      35.293  34.030  30.034  1.00  0.00     0.198 A 
ATOM     62  C   UNL A   1      35.318  33.025  32.177  1.00  0.00     0.198 A 
ATOM     63  F   UNL A   1      36.869  31.445  32.754  1.00  0.00    -0.203 F 
ATOM     64  F   UNL A   1      34.729  34.860  29.145  1.00  0.00    -0.200 F 
ATOM     65  C   UNL A   1      34.739  33.898  31.289  1.00  0.00     0.200 A 
ATOM     66  F   UNL A   1      34.787  32.860  33.398  1.00  0.00    -0.200 F 
ATOM     67  F   UNL A   1      33.646  34.592  31.633  1.00  0.00    -0.200 F 
ENDBRANCH  43  57
BRANCH  44  68
ATOM     68  C   UNL A   1      45.304  27.739  28.045  1.00  0.00     0.064 A 
ATOM     69  C   UNL A   1      46.007  26.554  28.323  1.00  0.00     0.173 A 
ATOM     70  C   UNL A   1      44.585  27.798  26.844  1.00  0.00     0.173 A 
ATOM     71  F   UNL A   1      46.804  26.486  29.397  1.00  0.00    -0.203 F 
ATOM     72  C   UNL A   1      45.805  25.403  27.563  1.00  0.00     0.198 A 
ATOM     73  C   UNL A   1      44.405  26.652  26.071  1.00  0.00     0.198 A 
ATOM     74  F   UNL A   1      43.926  28.917  26.509  1.00  0.00    -0.203 F 
ATOM     75  F   UNL A   1      46.361  24.242  27.938  1.00  0.00    -0.200 F 
ATOM     76  C   UNL A   1      44.959  25.442  26.467  1.00  0.00     0.200 A 
ATOM     77  F   UNL A   1      43.607  26.691  24.996  1.00  0.00    -0.200 F 
ATOM     78  F   UNL A   1      44.650  24.312  25.816  1.00  0.00    -0.200 F 
ENDBRANCH  44  68
BRANCH  56  79
ATOM     79  C   UNL A   1      43.179  34.404  29.397  1.00  0.00     0.064 A 
ATOM     80  C   UNL A   1      43.109  34.731  28.035  1.00  0.00     0.173 A 
ATOM     81  C   UNL A   1      43.364  35.480  30.290  1.00  0.00     0.173 A 
ATOM     82  F   UNL A   1      43.027  33.768  27.104  1.00  0.00    -0.203 F 
ATOM     83  C   UNL A   1      43.105  36.056  27.606  1.00  0.00     0.198 A 
ATOM     84  C   UNL A   1      43.435  36.797  29.851  1.00  0.00     0.198 A 
ATOM     85  F   UNL A   1      43.433  35.299  31.616  1.00  0.00    -0.203 F 
ATOM     86  F   UNL A   1      42.922  36.330  26.308  1.00  0.00    -0.200 F 
ATOM     87  C   UNL A   1      43.270  37.088  28.513  1.00  0.00     0.200 A 
ATOM     88  F   UNL A   1      43.632  37.781  30.740  1.00  0.00    -0.200 F 
ATOM     89  F   UNL A   1      43.259  38.361  28.100  1.00  0.00    -0.200 F 
ENDBRANCH  56  79
ENDBRANCH  30  31
ENDBRANCH  23  25
ENDBRANCH  22  23
ENDBRANCH  21  22
ENDBRANCH   1  21
TORSDOF 15
ENDMDL
MODEL 2
REMARK VINA RESULT:     -11.9      3.225      9.133
REMARK SMILES Cc1cccc(-c2cccnc2C(=O)OCCOCCOC(=O)c2ccc(-c3c4nc(c(-c5c(F)c(F)c(F)c(F)c5F)c5ccc([nH]5)c(-c5c(F)c(F)c(F)c(F)c5F)c5nc(c(-c6c(F)c(F)c(F)c(F)c6F)c6ccc3[nH]6)C=C5)C=C4)cc2)c1
REMARK SMILES IDX 19 1 18 2 17 3 16 4 15 5 13 6 14 7 12 8 7 9 8 10 9 11 11 12
REMARK SMILES IDX 10 13 6 14 1 15 2 16 3 17 87 18 4 19 5 20 20 21 21 22 22 23
REMARK SMILES IDX 23 24 24 25 25 26 86 27 26 28 85 29 27 30 28 31 29 32 79 33
REMARK SMILES IDX 30 34 84 35 78 36 80 37 31 38 83 39 77 40 76 41 32 43 64 44
REMARK SMILES IDX 44 45 63 46 45 47 48 48 62 49 81 50 46 51 47 52 61 54 82 55
REMARK SMILES IDX 49 56 33 57 34 58 42 59 35 60 36 61 40 62 43 63 37 64 38 65
REMARK SMILES IDX 41 66 39 67 65 68 66 69 74 70 67 71 68 72 72 73 75 74 69 75
REMARK SMILES IDX 70 76 73 77 71 78 50 79 51 80 59 81 52 82 53 83 57 84 60 85
REMARK SMILES IDX 54 86 55 87 58 88 56 89
REMARK H PARENT 80 42 48 53
REMARK Flexibility Score: inf
ROOT
ATOM      1  C   UNL A   1      32.492  30.014  25.918  1.00  0.00     0.202 C 
ENDROOT
BRANCH   1   2
ATOM      2  O   UNL A   1      31.474  29.032  25.910  1.00  0.00    -0.374 OA
BRANCH   2   3
ATOM      3  C   UNL A   1      31.549  28.049  26.929  1.00  0.00     0.202 C 
BRANCH   3   4
ATOM      4  C   UNL A   1      31.048  26.777  26.305  1.00  0.00     0.261 C 
BRANCH   4   5
ATOM      5  O   UNL A   1      31.619  25.637  26.943  1.00  0.00    -0.458 OA
BRANCH   5   6
ATOM      6  C   UNL A   1      31.569  24.415  26.355  1.00  0.00     0.357 C 
ATOM      7  O   UNL A   1      30.572  23.872  25.937  1.00  0.00    -0.244 OA
BRANCH   6   8
ATOM      8  C   UNL A   1      32.991  23.898  26.210  1.00  0.00     0.156 A 
ATOM      9  C   UNL A   1      33.802  24.117  25.070  1.00  0.00     0.015 A 
ATOM     10  C   UNL A   1      35.031  23.443  25.032  1.00  0.00     0.013 A 
ATOM     11  C   UNL A   1      35.428  22.632  26.091  1.00  0.00     0.021 A 
ATOM     12  N   UNL A   1      33.380  23.110  27.256  1.00  0.00    -0.249 NA
ATOM     13  C   UNL A   1      34.582  22.507  27.176  1.00  0.00     0.112 A 
BRANCH   9  14
ATOM     14  C   UNL A   1      33.453  25.022  23.959  1.00  0.00    -0.016 A 
ATOM     15  C   UNL A   1      33.971  28.657  22.865  1.00  0.00     0.044 C 
ATOM     16  C   UNL A   1      33.602  27.202  22.856  1.00  0.00    -0.051 A 
ATOM     17  C   UNL A   1      33.137  26.621  21.672  1.00  0.00     0.003 A 
ATOM     18  C   UNL A   1      33.765  26.395  23.994  1.00  0.00     0.012 A 
ATOM     19  C   UNL A   1      32.781  25.275  21.640  1.00  0.00     0.001 A 
ATOM     20  C   UNL A   1      32.920  24.486  22.775  1.00  0.00     0.009 A 
ENDBRANCH   9  14
ENDBRANCH   6   8
ENDBRANCH   5   6
ENDBRANCH   4   5
ENDBRANCH   3   4
ENDBRANCH   2   3
ENDBRANCH   1   2
BRANCH   1  21
ATOM     21  C   UNL A   1      32.995  30.352  27.327  1.00  0.00     0.261 C 
BRANCH  21  22
ATOM     22  O   UNL A   1      34.160  31.199  27.236  1.00  0.00    -0.460 OA
BRANCH  22  23
ATOM     23  C   UNL A   1      34.852  31.388  28.395  1.00  0.00     0.338 C 
ATOM     24  O   UNL A   1      34.853  32.414  29.057  1.00  0.00    -0.246 OA
BRANCH  23  25
ATOM     25  C   UNL A   1      35.838  30.282  28.581  1.00  0.00     0.060 A 
ATOM     26  C   UNL A   1      36.067  29.752  29.865  1.00  0.00     0.016 A 
ATOM     27  C   UNL A   1      36.750  30.036  27.562  1.00  0.00     0.016 A 
ATOM     28  C   UNL A   1      37.287  29.119  30.165  1.00  0.00     0.010 A 
ATOM     29  C   UNL A   1      37.989  29.533  27.895  1.00  0.00     0.010 A 
ATOM     30  C   UNL A   1      38.287  29.095  29.201  1.00  0.00    -0.014 A 
BRANCH  30  31
ATOM     31  C   UNL A   1      39.704  28.742  29.393  1.00  0.00     0.031 A 
ATOM     32  C   UNL A   1      40.101  27.348  29.050  1.00  0.00     0.074 A 
ATOM     33  C   UNL A   1      40.666  29.696  29.489  1.00  0.00     0.049 A 
ATOM     34  N   UNL A   1      41.307  26.897  29.072  1.00  0.00    -0.248 NA
ATOM     35  C   UNL A   1      39.132  26.321  28.679  1.00  0.00     0.031 C 
ATOM     36  C   UNL A   1      42.026  29.611  28.948  1.00  0.00     0.029 A 
ATOM     37  N   UNL A   1      40.654  30.968  30.100  1.00  0.00    -0.354 N 
ATOM     38  C   UNL A   1      41.322  25.669  28.448  1.00  0.00     0.074 A 
ATOM     39  C   UNL A   1      39.932  25.321  28.304  1.00  0.00     0.031 C 
ATOM     40  C   UNL A   1      42.775  30.601  29.456  1.00  0.00     0.029 A 
ATOM     41  C   UNL A   1      41.989  31.232  30.497  1.00  0.00     0.049 A 
ATOM     42  H   UNL A   1      39.874  31.556  30.227  1.00  0.00     0.167 HD
ATOM     43  C   UNL A   1      42.528  25.157  28.060  1.00  0.00     0.037 A 
ATOM     44  C   UNL A   1      42.339  31.384  31.806  1.00  0.00     0.037 A 
ATOM     45  C   UNL A   1      43.625  26.012  28.541  1.00  0.00     0.049 A 
ATOM     46  C   UNL A   1      43.359  30.370  32.246  1.00  0.00     0.074 A 
ATOM     47  C   UNL A   1      44.471  26.950  27.974  1.00  0.00     0.029 A 
ATOM     48  N   UNL A   1      43.773  26.161  29.908  1.00  0.00    -0.354 N 
ATOM     49  N   UNL A   1      43.833  29.443  31.463  1.00  0.00    -0.248 NA
ATOM     50  C   UNL A   1      43.844  30.243  33.615  1.00  0.00     0.031 C 
ATOM     51  C   UNL A   1      45.135  27.646  29.037  1.00  0.00     0.029 A 
ATOM     52  C   UNL A   1      44.713  27.112  30.243  1.00  0.00     0.049 A 
ATOM     53  H   UNL A   1      43.262  25.644  30.571  1.00  0.00     0.167 HD
ATOM     54  C   UNL A   1      44.529  28.536  32.195  1.00  0.00     0.074 A 
ATOM     55  C   UNL A   1      44.536  29.093  33.540  1.00  0.00     0.031 C 
ATOM     56  C   UNL A   1      44.974  27.364  31.657  1.00  0.00     0.037 A 
BRANCH  43  57
ATOM     57  C   UNL A   1      42.770  23.952  27.162  1.00  0.00     0.064 A 
ATOM     58  C   UNL A   1      42.461  22.653  27.630  1.00  0.00     0.173 A 
ATOM     59  C   UNL A   1      43.318  23.970  25.862  1.00  0.00     0.173 A 
ATOM     60  F   UNL A   1      41.883  22.457  28.823  1.00  0.00    -0.203 F 
ATOM     61  C   UNL A   1      42.723  21.493  26.889  1.00  0.00     0.198 A 
ATOM     62  C   UNL A   1      43.589  22.812  25.125  1.00  0.00     0.198 A 
ATOM     63  F   UNL A   1      43.593  25.098  25.211  1.00  0.00    -0.203 F 
ATOM     64  F   UNL A   1      42.411  20.294  27.400  1.00  0.00    -0.200 F 
ATOM     65  C   UNL A   1      43.298  21.572  25.640  1.00  0.00     0.200 A 
ATOM     66  F   UNL A   1      44.129  22.919  23.901  1.00  0.00    -0.200 F 
ATOM     67  F   UNL A   1      43.555  20.465  24.931  1.00  0.00    -0.200 F 
ENDBRANCH  43  57
BRANCH  44  68
ATOM     68  C   UNL A   1      41.210  31.911  32.628  1.00  0.00     0.064 A 
ATOM     69  C   UNL A   1      40.877  33.269  32.482  1.00  0.00     0.173 A 
ATOM     70  C   UNL A   1      40.194  31.036  33.040  1.00  0.00     0.173 A 
ATOM     71  F   UNL A   1      41.833  34.165  32.205  1.00  0.00    -0.203 F 
ATOM     72  C   UNL A   1      39.549  33.690  32.508  1.00  0.00     0.198 A 
ATOM     73  C   UNL A   1      38.868  31.467  33.091  1.00  0.00     0.198 A 
ATOM     74  F   UNL A   1      40.462  29.737  33.231  1.00  0.00    -0.203 F 
ATOM     75  F   UNL A   1      39.240  34.960  32.209  1.00  0.00    -0.200 F 
ATOM     76  C   UNL A   1      38.541  32.775  32.759  1.00  0.00     0.200 A 
ATOM     77  F   UNL A   1      37.892  30.589  33.358  1.00  0.00    -0.200 F 
ATOM     78  F   UNL A   1      37.256  33.142  32.650  1.00  0.00    -0.200 F 
ENDBRANCH  44  68
BRANCH  56  79
ATOM     79  C   UNL A   1      45.623  26.318  32.509  1.00  0.00     0.064 A 
ATOM     80  C   UNL A   1      44.878  25.526  33.393  1.00  0.00     0.173 A 
ATOM     81  C   UNL A   1      47.014  26.090  32.484  1.00  0.00     0.173 A 
ATOM     82  F   UNL A   1      43.562  25.732  33.555  1.00  0.00    -0.203 F 
ATOM     83  C   UNL A   1      45.470  24.494  34.118  1.00  0.00     0.198 A 
ATOM     84  C   UNL A   1      47.613  25.109  33.265  1.00  0.00     0.198 A 
ATOM     85  F   UNL A   1      47.832  26.774  31.673  1.00  0.00    -0.203 F 
ATOM     86  F   UNL A   1      44.706  23.687  34.865  1.00  0.00    -0.200 F 
ATOM     87  C   UNL A   1      46.837  24.287  34.055  1.00  0.00     0.200 A 
ATOM     88  F   UNL A   1      48.943  24.946  33.219  1.00  0.00    -0.200 F 
ATOM     89  F   UNL A   1      47.404  23.290  34.746  1.00  0.00    -0.200 F 
ENDBRANCH  56  79
ENDBRANCH  30  31
ENDBRANCH  23  25
ENDBRANCH  22  23
ENDBRANCH  21  22
ENDBRANCH   1  21
TORSDOF 15
ENDMDL
MODEL 3
REMARK VINA RESULT:     -11.8      3.306      9.240
REMARK SMILES Cc1cccc(-c2cccnc2C(=O)OCCOCCOC(=O)c2ccc(-c3c4nc(c(-c5c(F)c(F)c(F)c(F)c5F)c5ccc([nH]5)c(-c5c(F)c(F)c(F)c(F)c5F)c5nc(c(-c6c(F)c(F)c(F)c(F)c6F)c6ccc3[nH]6)C=C5)C=C4)cc2)c1
REMARK SMILES IDX 19 1 18 2 17 3 16 4 15 5 13 6 14 7 12 8 7 9 8 10 9 11 11 12
REMARK SMILES IDX 10 13 6 14 1 15 2 16 3 17 87 18 4 19 5 20 20 21 21 22 22 23
REMARK SMILES IDX 23 24 24 25 25 26 86 27 26 28 85 29 27 30 28 31 29 32 79 33
REMARK SMILES IDX 30 34 84 35 78 36 80 37 31 38 83 39 77 40 76 41 32 43 64 44
REMARK SMILES IDX 44 45 63 46 45 47 48 48 62 49 81 50 46 51 47 52 61 54 82 55
REMARK SMILES IDX 49 56 33 57 34 58 42 59 35 60 36 61 40 62 43 63 37 64 38 65
REMARK SMILES IDX 41 66 39 67 65 68 66 69 74 70 67 71 68 72 72 73 75 74 69 75
REMARK SMILES IDX 70 76 73 77 71 78 50 79 51 80 59 81 52 82 53 83 57 84 60 85
REMARK SMILES IDX 54 86 55 87 58 88 56 89
REMARK H PARENT 80 42 48 53
REMARK Flexibility Score: inf
ROOT
ATOM      1  C   UNL A   1      32.098  29.776  26.722  1.00  0.00     0.202 C 
ENDROOT
BRANCH   1   2
ATOM      2  O   UNL A   1      32.227  28.504  26.116  1.00  0.00    -0.374 OA
BRANCH   2   3
ATOM      3  C   UNL A   1      33.550  28.075  25.843  1.00  0.00     0.202 C 
BRANCH   3   4
ATOM      4  C   UNL A   1      33.479  27.348  24.530  1.00  0.00     0.261 C 
BRANCH   4   5
ATOM      5  O   UNL A   1      34.283  26.170  24.556  1.00  0.00    -0.458 OA
BRANCH   5   6
ATOM      6  C   UNL A   1      33.797  24.989  24.098  1.00  0.00     0.357 C 
ATOM      7  O   UNL A   1      33.962  24.540  22.986  1.00  0.00    -0.244 OA
BRANCH   6   8
ATOM      8  C   UNL A   1      33.109  24.277  25.251  1.00  0.00     0.156 A 
ATOM      9  C   UNL A   1      33.713  23.259  26.028  1.00  0.00     0.015 A 
ATOM     10  C   UNL A   1      32.890  22.600  26.953  1.00  0.00     0.013 A 
ATOM     11  C   UNL A   1      31.558  22.971  27.106  1.00  0.00     0.021 A 
ATOM     12  N   UNL A   1      31.803  24.650  25.404  1.00  0.00    -0.249 NA
ATOM     13  C   UNL A   1      31.067  23.999  26.325  1.00  0.00     0.112 A 
BRANCH   9  14
ATOM     14  C   UNL A   1      35.136  22.883  25.950  1.00  0.00    -0.016 A 
ATOM     15  C   UNL A   1      37.335  19.929  24.890  1.00  0.00     0.044 C 
ATOM     16  C   UNL A   1      36.893  21.296  25.325  1.00  0.00    -0.051 A 
ATOM     17  C   UNL A   1      37.838  22.322  25.426  1.00  0.00     0.003 A 
ATOM     18  C   UNL A   1      35.542  21.585  25.582  1.00  0.00     0.012 A 
ATOM     19  C   UNL A   1      37.454  23.596  25.835  1.00  0.00     0.001 A 
ATOM     20  C   UNL A   1      36.120  23.872  26.112  1.00  0.00     0.009 A 
ENDBRANCH   9  14
ENDBRANCH   6   8
ENDBRANCH   5   6
ENDBRANCH   4   5
ENDBRANCH   3   4
ENDBRANCH   2   3
ENDBRANCH   1   2
BRANCH   1  21
ATOM     21  C   UNL A   1      33.357  30.642  26.581  1.00  0.00     0.261 C 
BRANCH  21  22
ATOM     22  O   UNL A   1      33.819  31.042  27.889  1.00  0.00    -0.460 OA
BRANCH  22  23
ATOM     23  C   UNL A   1      35.112  31.466  27.960  1.00  0.00     0.338 C 
ATOM     24  O   UNL A   1      35.513  32.568  27.620  1.00  0.00    -0.246 OA
BRANCH  23  25
ATOM     25  C   UNL A   1      36.012  30.304  28.226  1.00  0.00     0.060 A 
ATOM     26  C   UNL A   1      36.062  29.731  29.512  1.00  0.00     0.016 A 
ATOM     27  C   UNL A   1      37.023  30.032  27.313  1.00  0.00     0.016 A 
ATOM     28  C   UNL A   1      37.203  29.027  29.932  1.00  0.00     0.010 A 
ATOM     29  C   UNL A   1      38.187  29.455  27.772  1.00  0.00     0.010 A 
ATOM     30  C   UNL A   1      38.307  28.971  29.090  1.00  0.00    -0.014 A 
BRANCH  30  31
ATOM     31  C   UNL A   1      39.671  28.536  29.434  1.00  0.00     0.031 A 
ATOM     32  C   UNL A   1      40.065  27.162  29.017  1.00  0.00     0.074 A 
ATOM     33  C   UNL A   1      40.643  29.433  29.746  1.00  0.00     0.049 A 
ATOM     34  N   UNL A   1      41.240  26.654  29.156  1.00  0.00    -0.248 NA
ATOM     35  C   UNL A   1      39.120  26.218  28.426  1.00  0.00     0.031 C 
ATOM     36  C   UNL A   1      42.061  29.333  29.384  1.00  0.00     0.029 A 
ATOM     37  N   UNL A   1      40.592  30.645  30.467  1.00  0.00    -0.354 N 
ATOM     38  C   UNL A   1      41.298  25.487  28.426  1.00  0.00     0.074 A 
ATOM     39  C   UNL A   1      39.929  25.218  28.068  1.00  0.00     0.031 C 
ATOM     40  C   UNL A   1      42.767  30.238  30.078  1.00  0.00     0.029 A 
ATOM     41  C   UNL A   1      41.868  30.810  31.060  1.00  0.00     0.049 A 
ATOM     42  H   UNL A   1      39.822  31.255  30.544  1.00  0.00     0.167 HD
ATOM     43  C   UNL A   1      42.527  24.956  28.155  1.00  0.00     0.037 A 
ATOM     44  C   UNL A   1      42.042  30.829  32.413  1.00  0.00     0.037 A 
ATOM     45  C   UNL A   1      43.577  25.714  28.856  1.00  0.00     0.049 A 
ATOM     46  C   UNL A   1      42.957  29.734  32.886  1.00  0.00     0.074 A 
ATOM     47  C   UNL A   1      44.524  26.658  28.497  1.00  0.00     0.029 A 
ATOM     48  N   UNL A   1      43.542  25.734  30.239  1.00  0.00    -0.354 N 
ATOM     49  N   UNL A   1      43.502  28.859  32.090  1.00  0.00    -0.248 NA
ATOM     50  C   UNL A   1      43.247  29.464  34.290  1.00  0.00     0.031 C 
ATOM     51  C   UNL A   1      45.061  27.226  29.699  1.00  0.00     0.029 A 
ATOM     52  C   UNL A   1      44.460  26.606  30.783  1.00  0.00     0.049 A 
ATOM     53  H   UNL A   1      42.928  25.184  30.776  1.00  0.00     0.167 HD
ATOM     54  C   UNL A   1      44.060  27.859  32.818  1.00  0.00     0.074 A 
ATOM     55  C   UNL A   1      43.903  28.294  34.199  1.00  0.00     0.031 C 
ATOM     56  C   UNL A   1      44.534  26.720  32.236  1.00  0.00     0.037 A 
BRANCH  43  57
ATOM     57  C   UNL A   1      42.848  23.825  27.188  1.00  0.00     0.064 A 
ATOM     58  C   UNL A   1      42.474  22.499  27.508  1.00  0.00     0.173 A 
ATOM     59  C   UNL A   1      43.532  23.941  25.959  1.00  0.00     0.173 A 
ATOM     60  F   UNL A   1      41.770  22.217  28.613  1.00  0.00    -0.203 F 
ATOM     61  C   UNL A   1      42.799  21.400  26.702  1.00  0.00     0.198 A 
ATOM     62  C   UNL A   1      43.865  22.842  25.159  1.00  0.00     0.198 A 
ATOM     63  F   UNL A   1      43.889  25.112  25.441  1.00  0.00    -0.203 F 
ATOM     64  F   UNL A   1      42.419  20.169  27.073  1.00  0.00    -0.200 F 
ATOM     65  C   UNL A   1      43.505  21.571  25.532  1.00  0.00     0.200 A 
ATOM     66  F   UNL A   1      44.534  23.040  24.013  1.00  0.00    -0.200 F 
ATOM     67  F   UNL A   1      43.821  20.521  24.762  1.00  0.00    -0.200 F 
ENDBRANCH  43  57
BRANCH  44  68
ATOM     68  C   UNL A   1      40.830  31.333  33.123  1.00  0.00     0.064 A 
ATOM     69  C   UNL A   1      40.608  32.721  33.128  1.00  0.00     0.173 A 
ATOM     70  C   UNL A   1      39.710  30.498  33.247  1.00  0.00     0.173 A 
ATOM     71  F   UNL A   1      41.649  33.564  33.130  1.00  0.00    -0.203 F 
ATOM     72  C   UNL A   1      39.321  33.244  33.015  1.00  0.00     0.198 A 
ATOM     73  C   UNL A   1      38.422  31.026  33.160  1.00  0.00     0.198 A 
ATOM     74  F   UNL A   1      39.865  29.167  33.286  1.00  0.00    -0.203 F 
ATOM     75  F   UNL A   1      39.142  34.563  32.861  1.00  0.00    -0.200 F 
ATOM     76  C   UNL A   1      38.232  32.389  32.977  1.00  0.00     0.200 A 
ATOM     77  F   UNL A   1      37.364  30.205  33.148  1.00  0.00    -0.200 F 
ATOM     78  F   UNL A   1      37.006  32.873  32.730  1.00  0.00    -0.200 F 
ENDBRANCH  44  68
BRANCH  56  79
ATOM     79  C   UNL A   1      45.025  25.574  33.064  1.00  0.00     0.064 A 
ATOM     80  C   UNL A   1      46.378  25.208  33.084  1.00  0.00     0.173 A 
ATOM     81  C   UNL A   1      44.154  24.790  33.849  1.00  0.00     0.173 A 
ATOM     82  F   UNL A   1      47.268  25.835  32.300  1.00  0.00    -0.203 F 
ATOM     83  C   UNL A   1      46.846  24.200  33.924  1.00  0.00     0.198 A 
ATOM     84  C   UNL A   1      44.613  23.735  34.629  1.00  0.00     0.198 A 
ATOM     85  F   UNL A   1      42.840  25.046  33.924  1.00  0.00    -0.203 F 
ATOM     86  F   UNL A   1      48.161  23.958  33.998  1.00  0.00    -0.200 F 
ATOM     87  C   UNL A   1      45.963  23.463  34.695  1.00  0.00     0.200 A 
ATOM     88  F   UNL A   1      43.740  23.009  35.340  1.00  0.00    -0.200 F 
ATOM     89  F   UNL A   1      46.415  22.500  35.507  1.00  0.00    -0.200 F 
ENDBRANCH  56  79
ENDBRANCH  30  31
ENDBRANCH  23  25
ENDBRANCH  22  23
ENDBRANCH  21  22
ENDBRANCH   1  21
TORSDOF 15
ENDMDL
