MODEL 1
REMARK VINA RESULT:      -9.8      0.000      0.000
REMARK SMILES C=CCc1cc([C@H]([NH3+])C(=O)OCCOCCOC(=O)c2ccc(-c3c4nc(c(-c5c(F)c(F)c(F)c(F)c5F)c5ccc([nH]5)c(-c5c(F)c(F)c(F)c(F)c5F)c5nc(c(-c6c(F)c(F)c(F)c(F)c6F)c6ccc3[nH]6)C=C5)C=C4)cc2)cc(OC)c1OCC
REMARK SMILES IDX 13 1 12 2 11 3 9 4 10 5 7 6 6 7 4 8 5 9 87 10 84 11 83 12
REMARK SMILES IDX 3 13 2 14 1 15 88 16 89 17 90 18 85 19 86 20 8 21 14 25
REMARK SMILES IDX 15 26 16 27 17 28 18 29 19 30 20 31 21 32 82 33 22 34 81 35
REMARK SMILES IDX 23 36 24 37 25 38 75 39 26 40 80 41 74 42 76 43 27 44 79 45
REMARK SMILES IDX 73 46 72 47 28 49 60 50 40 51 59 52 41 53 44 54 58 55 77 56
REMARK SMILES IDX 42 57 43 58 57 60 78 61 45 62 29 63 30 64 38 65 31 66 32 67
REMARK SMILES IDX 36 68 39 69 33 70 34 71 37 72 35 73 61 74 62 75 70 76 63 77
REMARK SMILES IDX 64 78 68 79 71 80 65 81 66 82 69 83 67 84 46 85 47 86 55 87
REMARK SMILES IDX 48 88 49 89 53 90 56 91 50 92 51 93 54 94 52 95
REMARK H PARENT 8 22 8 23 8 24 76 48 44 59
REMARK Flexibility Score: inf
ROOT
ATOM      1  C   UNL A   1      31.480  29.863  25.511  1.00  0.00     0.202 C 
ENDROOT
BRANCH   1   2
ATOM      2  C   UNL A   1      31.898  28.392  25.597  1.00  0.00     0.261 C 
BRANCH   2   3
ATOM      3  O   UNL A   1      31.727  27.732  24.334  1.00  0.00    -0.459 OA
BRANCH   3   4
ATOM      4  C   UNL A   1      31.230  26.460  24.395  1.00  0.00     0.369 C 
ATOM      5  O   UNL A   1      30.412  25.992  23.610  1.00  0.00    -0.245 OA
BRANCH   4   6
ATOM      6  C   UNL A   1      31.807  25.666  25.585  1.00  0.00     0.323 C 
BRANCH   6   7
ATOM      7  C   UNL A   1      32.691  24.528  25.136  1.00  0.00     0.025 A 
ATOM      8  C   UNL A   1      34.954  23.627  24.801  1.00  0.00     0.002 A 
ATOM      9  C   UNL A   1      34.078  24.678  25.152  1.00  0.00     0.018 A 
ATOM     10  C   UNL A   1      34.397  22.399  24.374  1.00  0.00     0.164 A 
ATOM     11  C   UNL A   1      32.996  22.224  24.387  1.00  0.00     0.161 A 
ATOM     12  C   UNL A   1      32.167  23.292  24.758  1.00  0.00     0.061 A 
BRANCH   8  13
ATOM     13  C   UNL A   1      36.423  24.011  24.882  1.00  0.00     0.066 C 
BRANCH  13  14
ATOM     14  C   UNL A   1      37.140  23.939  26.192  1.00  0.00    -0.030 C 
ATOM     15  C   UNL A   1      38.402  23.502  26.315  1.00  0.00     0.004 C 
ENDBRANCH  13  14
ENDBRANCH   8  13
BRANCH  10  16
ATOM     16  O   UNL A   1      35.209  21.341  24.090  1.00  0.00    -0.490 OA
BRANCH  16  17
ATOM     17  C   UNL A   1      35.881  20.683  25.173  1.00  0.00     0.226 C 
ATOM     18  C   UNL A   1      37.283  20.132  24.965  1.00  0.00     0.049 C 
ENDBRANCH  16  17
ENDBRANCH  10  16
BRANCH  11  19
ATOM     19  O   UNL A   1      32.246  21.119  24.083  1.00  0.00    -0.493 OA
ATOM     20  C   UNL A   1      32.263  19.997  24.943  1.00  0.00     0.278 C 
ENDBRANCH  11  19
ENDBRANCH   6   7
BRANCH   6  21
ATOM     21  N   UNL A   1      30.775  25.177  26.531  1.00  0.00    -0.342 N 
ATOM     22  H   UNL A   1      30.305  25.972  26.963  1.00  0.00     0.345 HD
ATOM     23  H   UNL A   1      31.219  24.610  27.255  1.00  0.00     0.345 HD
ATOM     24  H   UNL A   1      30.092  24.611  26.027  1.00  0.00     0.345 HD
ENDBRANCH   6  21
ENDBRANCH   4   6
ENDBRANCH   3   4
ENDBRANCH   2   3
ENDBRANCH   1   2
BRANCH   1  25
ATOM     25  O   UNL A   1      32.051  30.754  26.468  1.00  0.00    -0.374 OA
BRANCH  25  26
ATOM     26  C   UNL A   1      31.371  31.983  26.723  1.00  0.00     0.202 C 
BRANCH  26  27
ATOM     27  C   UNL A   1      32.229  33.250  26.842  1.00  0.00     0.261 C 
BRANCH  27  28
ATOM     28  O   UNL A   1      32.533  33.612  28.202  1.00  0.00    -0.460 OA
BRANCH  28  29
ATOM     29  C   UNL A   1      33.663  34.346  28.350  1.00  0.00     0.338 C 
ATOM     30  O   UNL A   1      33.766  35.559  28.387  1.00  0.00    -0.246 OA
BRANCH  29  31
ATOM     31  C   UNL A   1      34.810  33.461  28.624  1.00  0.00     0.060 A 
ATOM     32  C   UNL A   1      34.556  32.263  29.304  1.00  0.00     0.016 A 
ATOM     33  C   UNL A   1      36.118  33.854  28.338  1.00  0.00     0.016 A 
ATOM     34  C   UNL A   1      35.615  31.473  29.742  1.00  0.00     0.010 A 
ATOM     35  C   UNL A   1      37.182  33.065  28.789  1.00  0.00     0.010 A 
ATOM     36  C   UNL A   1      36.935  31.891  29.525  1.00  0.00    -0.014 A 
BRANCH  36  37
ATOM     37  C   UNL A   1      38.043  31.180  30.205  1.00  0.00     0.031 A 
ATOM     38  C   UNL A   1      38.324  31.479  31.653  1.00  0.00     0.074 A 
ATOM     39  C   UNL A   1      38.766  30.250  29.556  1.00  0.00     0.049 A 
ATOM     40  N   UNL A   1      39.249  30.991  32.439  1.00  0.00    -0.248 NA
ATOM     41  C   UNL A   1      37.439  32.461  32.301  1.00  0.00     0.031 C 
ATOM     42  C   UNL A   1      38.563  29.843  28.168  1.00  0.00     0.029 A 
ATOM     43  N   UNL A   1      39.821  29.483  29.984  1.00  0.00    -0.354 N 
ATOM     44  C   UNL A   1      39.061  31.606  33.670  1.00  0.00     0.074 A 
ATOM     45  C   UNL A   1      37.951  32.523  33.520  1.00  0.00     0.031 C 
ATOM     46  C   UNL A   1      39.473  28.904  27.853  1.00  0.00     0.029 A 
ATOM     47  C   UNL A   1      40.338  28.668  29.008  1.00  0.00     0.049 A 
ATOM     48  H   UNL A   1      40.173  29.515  30.903  1.00  0.00     0.167 HD
ATOM     49  C   UNL A   1      39.745  31.415  34.823  1.00  0.00     0.037 A 
ATOM     50  C   UNL A   1      41.400  27.841  29.041  1.00  0.00     0.037 A 
ATOM     51  C   UNL A   1      40.846  30.502  34.972  1.00  0.00     0.049 A 
ATOM     52  C   UNL A   1      42.189  27.700  30.317  1.00  0.00     0.074 A 
ATOM     53  C   UNL A   1      41.592  30.225  36.104  1.00  0.00     0.029 A 
ATOM     54  N   UNL A   1      41.365  29.720  33.950  1.00  0.00    -0.354 N 
ATOM     55  N   UNL A   1      41.990  28.267  31.482  1.00  0.00    -0.248 NA
ATOM     56  C   UNL A   1      43.352  26.801  30.280  1.00  0.00     0.031 C 
ATOM     57  C   UNL A   1      42.591  29.309  35.758  1.00  0.00     0.029 A 
ATOM     58  C   UNL A   1      42.439  28.981  34.420  1.00  0.00     0.049 A 
ATOM     59  H   UNL A   1      41.022  29.696  33.028  1.00  0.00     0.167 HD
ATOM     60  C   UNL A   1      42.982  27.777  32.321  1.00  0.00     0.074 A 
ATOM     61  C   UNL A   1      43.777  26.856  31.535  1.00  0.00     0.031 C 
ATOM     62  C   UNL A   1      43.216  28.064  33.626  1.00  0.00     0.037 A 
BRANCH  49  63
ATOM     63  C   UNL A   1      39.335  32.230  36.013  1.00  0.00     0.064 A 
ATOM     64  C   UNL A   1      39.909  33.482  36.282  1.00  0.00     0.173 A 
ATOM     65  C   UNL A   1      38.330  31.769  36.877  1.00  0.00     0.173 A 
ATOM     66  F   UNL A   1      40.883  33.960  35.493  1.00  0.00    -0.203 F 
ATOM     67  C   UNL A   1      39.507  34.232  37.384  1.00  0.00     0.198 A 
ATOM     68  C   UNL A   1      37.913  32.532  37.963  1.00  0.00     0.198 A 
ATOM     69  F   UNL A   1      37.747  30.580  36.662  1.00  0.00    -0.203 F 
ATOM     70  F   UNL A   1      40.097  35.406  37.645  1.00  0.00    -0.200 F 
ATOM     71  C   UNL A   1      38.506  33.760  38.220  1.00  0.00     0.200 A 
ATOM     72  F   UNL A   1      36.939  32.080  38.764  1.00  0.00    -0.200 F 
ATOM     73  F   UNL A   1      38.116  34.485  39.277  1.00  0.00    -0.200 F 
ENDBRANCH  49  63
BRANCH  50  74
ATOM     74  C   UNL A   1      41.792  27.090  27.821  1.00  0.00     0.064 A 
ATOM     75  C   UNL A   1      41.429  25.748  27.649  1.00  0.00     0.173 A 
ATOM     76  C   UNL A   1      42.557  27.694  26.813  1.00  0.00     0.173 A 
ATOM     77  F   UNL A   1      40.721  25.118  28.599  1.00  0.00    -0.203 F 
ATOM     78  C   UNL A   1      41.828  25.033  26.521  1.00  0.00     0.198 A 
ATOM     79  C   UNL A   1      42.933  26.987  25.673  1.00  0.00     0.198 A 
ATOM     80  F   UNL A   1      42.935  28.975  26.933  1.00  0.00    -0.203 F 
ATOM     81  F   UNL A   1      41.505  23.739  26.401  1.00  0.00    -0.200 F 
ATOM     82  C   UNL A   1      42.574  25.655  25.531  1.00  0.00     0.200 A 
ATOM     83  F   UNL A   1      43.647  27.594  24.715  1.00  0.00    -0.200 F 
ATOM     84  F   UNL A   1      42.957  24.969  24.446  1.00  0.00    -0.200 F 
ENDBRANCH  50  74
BRANCH  62  85
ATOM     85  C   UNL A   1      44.357  27.355  34.294  1.00  0.00     0.064 A 
ATOM     86  C   UNL A   1      45.638  27.923  34.358  1.00  0.00     0.173 A 
ATOM     87  C   UNL A   1      44.156  26.113  34.915  1.00  0.00     0.173 A 
ATOM     88  F   UNL A   1      45.884  29.101  33.766  1.00  0.00    -0.203 F 
ATOM     89  C   UNL A   1      46.681  27.262  35.000  1.00  0.00     0.198 A 
ATOM     90  C   UNL A   1      45.195  25.468  35.580  1.00  0.00     0.198 A 
ATOM     91  F   UNL A   1      42.948  25.531  34.888  1.00  0.00    -0.203 F 
ATOM     92  F   UNL A   1      47.908  27.802  35.012  1.00  0.00    -0.200 F 
ATOM     93  C   UNL A   1      46.457  26.039  35.616  1.00  0.00     0.200 A 
ATOM     94  F   UNL A   1      44.974  24.293  36.185  1.00  0.00    -0.200 F 
ATOM     95  F   UNL A   1      47.463  25.408  36.240  1.00  0.00    -0.200 F 
ENDBRANCH  62  85
ENDBRANCH  36  37
ENDBRANCH  29  31
ENDBRANCH  28  29
ENDBRANCH  27  28
ENDBRANCH  26  27
ENDBRANCH  25  26
ENDBRANCH   1  25
TORSDOF 21
ENDMDL
MODEL 2
REMARK VINA RESULT:      -9.8      2.309      3.752
REMARK SMILES C=CCc1cc([C@H]([NH3+])C(=O)OCCOCCOC(=O)c2ccc(-c3c4nc(c(-c5c(F)c(F)c(F)c(F)c5F)c5ccc([nH]5)c(-c5c(F)c(F)c(F)c(F)c5F)c5nc(c(-c6c(F)c(F)c(F)c(F)c6F)c6ccc3[nH]6)C=C5)C=C4)cc2)cc(OC)c1OCC
REMARK SMILES IDX 13 1 12 2 11 3 9 4 10 5 7 6 6 7 4 8 5 9 87 10 84 11 83 12
REMARK SMILES IDX 3 13 2 14 1 15 88 16 89 17 90 18 85 19 86 20 8 21 14 25
REMARK SMILES IDX 15 26 16 27 17 28 18 29 19 30 20 31 21 32 82 33 22 34 81 35
REMARK SMILES IDX 23 36 24 37 25 38 75 39 26 40 80 41 74 42 76 43 27 44 79 45
REMARK SMILES IDX 73 46 72 47 28 49 60 50 40 51 59 52 41 53 44 54 58 55 77 56
REMARK SMILES IDX 42 57 43 58 57 60 78 61 45 62 29 63 30 64 38 65 31 66 32 67
REMARK SMILES IDX 36 68 39 69 33 70 34 71 37 72 35 73 61 74 62 75 70 76 63 77
REMARK SMILES IDX 64 78 68 79 71 80 65 81 66 82 69 83 67 84 46 85 47 86 55 87
REMARK SMILES IDX 48 88 49 89 53 90 56 91 50 92 51 93 54 94 52 95
REMARK H PARENT 8 22 8 23 8 24 76 48 44 59
REMARK Flexibility Score: inf
ROOT
ATOM      1  C   UNL A   1      34.100  31.715  27.946  1.00  0.00     0.202 C 
ENDROOT
BRANCH   1   2
ATOM      2  C   UNL A   1      33.071  31.069  27.013  1.00  0.00     0.261 C 
BRANCH   2   3
ATOM      3  O   UNL A   1      32.859  29.691  27.356  1.00  0.00    -0.459 OA
BRANCH   3   4
ATOM      4  C   UNL A   1      33.720  28.800  26.778  1.00  0.00     0.369 C 
ATOM      5  O   UNL A   1      34.883  28.627  27.129  1.00  0.00    -0.245 OA
BRANCH   4   6
ATOM      6  C   UNL A   1      33.069  28.033  25.610  1.00  0.00     0.323 C 
BRANCH   6   7
ATOM      7  C   UNL A   1      33.146  26.537  25.797  1.00  0.00     0.025 A 
ATOM      8  C   UNL A   1      34.422  24.449  25.555  1.00  0.00     0.002 A 
ATOM      9  C   UNL A   1      34.269  25.839  25.352  1.00  0.00     0.018 A 
ATOM     10  C   UNL A   1      33.375  23.741  26.189  1.00  0.00     0.164 A 
ATOM     11  C   UNL A   1      32.249  24.442  26.675  1.00  0.00     0.161 A 
ATOM     12  C   UNL A   1      32.149  25.825  26.463  1.00  0.00     0.061 A 
BRANCH   8  13
ATOM     13  C   UNL A   1      35.717  23.892  24.984  1.00  0.00     0.066 C 
BRANCH  13  14
ATOM     14  C   UNL A   1      36.762  23.348  25.904  1.00  0.00    -0.030 C 
ATOM     15  C   UNL A   1      37.906  23.992  26.177  1.00  0.00     0.004 C 
ENDBRANCH  13  14
ENDBRANCH   8  13
BRANCH  10  16
ATOM     16  O   UNL A   1      33.514  22.412  26.462  1.00  0.00    -0.490 OA
BRANCH  16  17
ATOM     17  C   UNL A   1      33.012  21.461  25.513  1.00  0.00     0.226 C 
ATOM     18  C   UNL A   1      33.986  20.630  24.693  1.00  0.00     0.049 C 
ENDBRANCH  16  17
ENDBRANCH  10  16
BRANCH  11  19
ATOM     19  O   UNL A   1      31.160  23.984  27.368  1.00  0.00    -0.493 OA
ATOM     20  C   UNL A   1      30.125  23.305  26.685  1.00  0.00     0.278 C 
ENDBRANCH  11  19
ENDBRANCH   6   7
BRANCH   6  21
ATOM     21  N   UNL A   1      33.595  28.415  24.278  1.00  0.00    -0.342 N 
ATOM     22  H   UNL A   1      33.260  27.754  23.577  1.00  0.00     0.345 HD
ATOM     23  H   UNL A   1      34.615  28.402  24.298  1.00  0.00     0.345 HD
ATOM     24  H   UNL A   1      33.272  29.353  24.040  1.00  0.00     0.345 HD
ENDBRANCH   6  21
ENDBRANCH   4   6
ENDBRANCH   3   4
ENDBRANCH   2   3
ENDBRANCH   1   2
BRANCH   1  25
ATOM     25  O   UNL A   1      34.054  33.135  28.073  1.00  0.00    -0.374 OA
BRANCH  25  26
ATOM     26  C   UNL A   1      34.149  33.691  29.385  1.00  0.00     0.202 C 
BRANCH  26  27
ATOM     27  C   UNL A   1      33.356  34.975  29.663  1.00  0.00     0.261 C 
BRANCH  27  28
ATOM     28  O   UNL A   1      32.556  34.908  30.858  1.00  0.00    -0.460 OA
BRANCH  28  29
ATOM     29  C   UNL A   1      32.994  35.689  31.875  1.00  0.00     0.338 C 
ATOM     30  O   UNL A   1      32.497  36.720  32.293  1.00  0.00    -0.246 OA
BRANCH  29  31
ATOM     31  C   UNL A   1      34.130  35.043  32.559  1.00  0.00     0.060 A 
ATOM     32  C   UNL A   1      35.384  35.656  32.451  1.00  0.00     0.016 A 
ATOM     33  C   UNL A   1      33.995  33.801  33.181  1.00  0.00     0.016 A 
ATOM     34  C   UNL A   1      36.520  35.006  32.926  1.00  0.00     0.010 A 
ATOM     35  C   UNL A   1      35.139  33.144  33.647  1.00  0.00     0.010 A 
ATOM     36  C   UNL A   1      36.410  33.728  33.488  1.00  0.00    -0.014 A 
BRANCH  36  37
ATOM     37  C   UNL A   1      37.639  32.945  33.761  1.00  0.00     0.031 A 
ATOM     38  C   UNL A   1      38.392  33.190  35.039  1.00  0.00     0.074 A 
ATOM     39  C   UNL A   1      38.058  32.000  32.901  1.00  0.00     0.049 A 
ATOM     40  N   UNL A   1      39.495  32.637  35.475  1.00  0.00    -0.248 NA
ATOM     41  C   UNL A   1      37.822  34.195  35.951  1.00  0.00     0.031 C 
ATOM     42  C   UNL A   1      37.391  31.641  31.652  1.00  0.00     0.029 A 
ATOM     43  N   UNL A   1      39.151  31.171  32.952  1.00  0.00    -0.354 N 
ATOM     44  C   UNL A   1      39.753  33.225  36.706  1.00  0.00     0.074 A 
ATOM     45  C   UNL A   1      38.706  34.199  36.937  1.00  0.00     0.031 C 
ATOM     46  C   UNL A   1      38.096  30.669  31.046  1.00  0.00     0.029 A 
ATOM     47  C   UNL A   1      39.276  30.359  31.853  1.00  0.00     0.049 A 
ATOM     48  H   UNL A   1      39.784  31.160  33.706  1.00  0.00     0.167 HD
ATOM     49  C   UNL A   1      40.763  32.970  37.569  1.00  0.00     0.037 A 
ATOM     50  C   UNL A   1      40.244  29.481  31.528  1.00  0.00     0.037 A 
ATOM     51  C   UNL A   1      41.801  32.001  37.341  1.00  0.00     0.049 A 
ATOM     52  C   UNL A   1      41.397  29.267  32.474  1.00  0.00     0.074 A 
ATOM     53  C   UNL A   1      42.860  31.657  38.164  1.00  0.00     0.029 A 
ATOM     54  N   UNL A   1      41.915  31.223  36.197  1.00  0.00    -0.354 N 
ATOM     55  N   UNL A   1      41.620  29.810  33.646  1.00  0.00    -0.248 NA
ATOM     56  C   UNL A   1      42.433  28.314  32.050  1.00  0.00     0.031 C 
ATOM     57  C   UNL A   1      43.639  30.703  37.500  1.00  0.00     0.029 A 
ATOM     58  C   UNL A   1      43.041  30.420  36.283  1.00  0.00     0.049 A 
ATOM     59  H   UNL A   1      41.289  31.241  35.439  1.00  0.00     0.167 HD
ATOM     60  C   UNL A   1      42.803  29.250  34.109  1.00  0.00     0.074 A 
ATOM     61  C   UNL A   1      43.246  28.314  33.097  1.00  0.00     0.031 C 
ATOM     62  C   UNL A   1      43.465  29.489  35.269  1.00  0.00     0.037 A 
BRANCH  49  63
ATOM     63  C   UNL A   1      40.809  33.770  38.837  1.00  0.00     0.064 A 
ATOM     64  C   UNL A   1      40.080  33.391  39.974  1.00  0.00     0.173 A 
ATOM     65  C   UNL A   1      41.619  34.911  38.927  1.00  0.00     0.173 A 
ATOM     66  F   UNL A   1      39.280  32.315  39.934  1.00  0.00    -0.203 F 
ATOM     67  C   UNL A   1      40.144  34.138  41.147  1.00  0.00     0.198 A 
ATOM     68  C   UNL A   1      41.701  35.642  40.109  1.00  0.00     0.198 A 
ATOM     69  F   UNL A   1      42.339  35.315  37.869  1.00  0.00    -0.203 F 
ATOM     70  F   UNL A   1      39.408  33.781  42.209  1.00  0.00    -0.200 F 
ATOM     71  C   UNL A   1      40.958  35.259  41.216  1.00  0.00     0.200 A 
ATOM     72  F   UNL A   1      42.496  36.718  40.177  1.00  0.00    -0.200 F 
ATOM     73  F   UNL A   1      41.024  35.973  42.348  1.00  0.00    -0.200 F 
ENDBRANCH  49  63
BRANCH  50  74
ATOM     74  C   UNL A   1      40.175  28.746  30.239  1.00  0.00     0.064 A 
ATOM     75  C   UNL A   1      39.528  27.507  30.146  1.00  0.00     0.173 A 
ATOM     76  C   UNL A   1      40.773  29.259  29.079  1.00  0.00     0.173 A 
ATOM     77  F   UNL A   1      38.964  26.962  31.235  1.00  0.00    -0.203 F 
ATOM     78  C   UNL A   1      39.495  26.801  28.945  1.00  0.00     0.198 A 
ATOM     79  C   UNL A   1      40.718  28.565  27.873  1.00  0.00     0.198 A 
ATOM     80  F   UNL A   1      41.410  30.439  29.117  1.00  0.00    -0.203 F 
ATOM     81  F   UNL A   1      38.908  25.598  28.893  1.00  0.00    -0.200 F 
ATOM     82  C   UNL A   1      40.084  27.333  27.808  1.00  0.00     0.200 A 
ATOM     83  F   UNL A   1      41.280  29.088  26.775  1.00  0.00    -0.200 F 
ATOM     84  F   UNL A   1      40.051  26.655  26.653  1.00  0.00    -0.200 F 
ENDBRANCH  50  74
BRANCH  62  85
ATOM     85  C   UNL A   1      44.721  28.707  35.519  1.00  0.00     0.064 A 
ATOM     86  C   UNL A   1      44.701  27.489  36.214  1.00  0.00     0.173 A 
ATOM     87  C   UNL A   1      45.951  29.161  35.021  1.00  0.00     0.173 A 
ATOM     88  F   UNL A   1      43.552  27.021  36.723  1.00  0.00    -0.203 F 
ATOM     89  C   UNL A   1      45.873  26.765  36.419  1.00  0.00     0.198 A 
ATOM     90  C   UNL A   1      47.116  28.421  35.204  1.00  0.00     0.198 A 
ATOM     91  F   UNL A   1      46.022  30.317  34.344  1.00  0.00    -0.203 F 
ATOM     92  F   UNL A   1      45.839  25.625  37.123  1.00  0.00    -0.200 F 
ATOM     93  C   UNL A   1      47.077  27.228  35.909  1.00  0.00     0.200 A 
ATOM     94  F   UNL A   1      48.276  28.863  34.701  1.00  0.00    -0.200 F 
ATOM     95  F   UNL A   1      48.202  26.525  36.102  1.00  0.00    -0.200 F 
ENDBRANCH  62  85
ENDBRANCH  36  37
ENDBRANCH  29  31
ENDBRANCH  28  29
ENDBRANCH  27  28
ENDBRANCH  26  27
ENDBRANCH  25  26
ENDBRANCH   1  25
TORSDOF 21
ENDMDL
MODEL 3
REMARK VINA RESULT:      -9.5      5.522     11.345
REMARK SMILES C=CCc1cc([C@H]([NH3+])C(=O)OCCOCCOC(=O)c2ccc(-c3c4nc(c(-c5c(F)c(F)c(F)c(F)c5F)c5ccc([nH]5)c(-c5c(F)c(F)c(F)c(F)c5F)c5nc(c(-c6c(F)c(F)c(F)c(F)c6F)c6ccc3[nH]6)C=C5)C=C4)cc2)cc(OC)c1OCC
REMARK SMILES IDX 13 1 12 2 11 3 9 4 10 5 7 6 6 7 4 8 5 9 87 10 84 11 83 12
REMARK SMILES IDX 3 13 2 14 1 15 88 16 89 17 90 18 85 19 86 20 8 21 14 25
REMARK SMILES IDX 15 26 16 27 17 28 18 29 19 30 20 31 21 32 82 33 22 34 81 35
REMARK SMILES IDX 23 36 24 37 25 38 75 39 26 40 80 41 74 42 76 43 27 44 79 45
REMARK SMILES IDX 73 46 72 47 28 49 60 50 40 51 59 52 41 53 44 54 58 55 77 56
REMARK SMILES IDX 42 57 43 58 57 60 78 61 45 62 29 63 30 64 38 65 31 66 32 67
REMARK SMILES IDX 36 68 39 69 33 70 34 71 37 72 35 73 61 74 62 75 70 76 63 77
REMARK SMILES IDX 64 78 68 79 71 80 65 81 66 82 69 83 67 84 46 85 47 86 55 87
REMARK SMILES IDX 48 88 49 89 53 90 56 91 50 92 51 93 54 94 52 95
REMARK H PARENT 8 22 8 23 8 24 76 48 44 59
REMARK Flexibility Score: inf
ROOT
ATOM      1  C   UNL A   1      38.822  19.933  25.361  1.00  0.00     0.202 C 
ENDROOT
BRANCH   1   2
ATOM      2  C   UNL A   1      38.834  21.414  25.749  1.00  0.00     0.261 C 
BRANCH   2   3
ATOM      3  O   UNL A   1      37.501  21.942  25.814  1.00  0.00    -0.459 OA
BRANCH   3   4
ATOM      4  C   UNL A   1      37.398  23.300  25.699  1.00  0.00     0.369 C 
ATOM      5  O   UNL A   1      37.988  24.107  26.411  1.00  0.00    -0.245 OA
BRANCH   4   6
ATOM      6  C   UNL A   1      36.434  23.718  24.571  1.00  0.00     0.323 C 
BRANCH   6   7
ATOM      7  C   UNL A   1      35.048  24.021  25.088  1.00  0.00     0.025 A 
ATOM      8  C   UNL A   1      32.828  23.206  25.760  1.00  0.00     0.002 A 
ATOM      9  C   UNL A   1      34.118  22.991  25.225  1.00  0.00     0.018 A 
ATOM     10  C   UNL A   1      32.460  24.522  26.122  1.00  0.00     0.164 A 
ATOM     11  C   UNL A   1      33.405  25.566  26.021  1.00  0.00     0.161 A 
ATOM     12  C   UNL A   1      34.678  25.301  25.498  1.00  0.00     0.061 A 
BRANCH   8  13
ATOM     13  C   UNL A   1      31.976  21.947  25.812  1.00  0.00     0.066 C 
BRANCH  13  14
ATOM     14  C   UNL A   1      32.517  20.660  25.277  1.00  0.00    -0.030 C 
ATOM     15  C   UNL A   1      32.384  20.285  23.996  1.00  0.00     0.004 C 
ENDBRANCH  13  14
ENDBRANCH   8  13
BRANCH  10  16
ATOM     16  O   UNL A   1      31.248  24.759  26.704  1.00  0.00    -0.490 OA
BRANCH  16  17
ATOM     17  C   UNL A   1      30.100  24.908  25.858  1.00  0.00     0.226 C 
ATOM     18  C   UNL A   1      29.921  26.184  25.050  1.00  0.00     0.049 C 
ENDBRANCH  16  17
ENDBRANCH  10  16
BRANCH  11  19
ATOM     19  O   UNL A   1      33.296  26.887  26.369  1.00  0.00    -0.493 OA
ATOM     20  C   UNL A   1      33.707  27.891  25.462  1.00  0.00     0.278 C 
ENDBRANCH  11  19
ENDBRANCH   6   7
BRANCH   6  21
ATOM     21  N   UNL A   1      36.368  22.747  23.452  1.00  0.00    -0.342 N 
ATOM     22  H   UNL A   1      37.032  21.991  23.618  1.00  0.00     0.345 HD
ATOM     23  H   UNL A   1      36.600  23.218  22.578  1.00  0.00     0.345 HD
ATOM     24  H   UNL A   1      35.425  22.363  23.391  1.00  0.00     0.345 HD
ENDBRANCH   6  21
ENDBRANCH   4   6
ENDBRANCH   3   4
ENDBRANCH   2   3
ENDBRANCH   1   2
BRANCH   1  25
ATOM     25  O   UNL A   1      39.972  19.164  25.708  1.00  0.00    -0.374 OA
BRANCH  25  26
ATOM     26  C   UNL A   1      41.050  19.834  26.362  1.00  0.00     0.202 C 
BRANCH  26  27
ATOM     27  C   UNL A   1      42.468  19.316  26.091  1.00  0.00     0.261 C 
BRANCH  27  28
ATOM     28  O   UNL A   1      42.929  19.578  24.752  1.00  0.00    -0.460 OA
BRANCH  28  29
ATOM     29  C   UNL A   1      44.277  19.626  24.620  1.00  0.00     0.338 C 
ATOM     30  O   UNL A   1      45.021  18.741  24.237  1.00  0.00    -0.246 OA
BRANCH  29  31
ATOM     31  C   UNL A   1      44.764  20.996  24.867  1.00  0.00     0.060 A 
ATOM     32  C   UNL A   1      45.346  21.261  26.112  1.00  0.00     0.016 A 
ATOM     33  C   UNL A   1      44.538  22.025  23.952  1.00  0.00     0.016 A 
ATOM     34  C   UNL A   1      45.665  22.569  26.468  1.00  0.00     0.010 A 
ATOM     35  C   UNL A   1      44.849  23.341  24.315  1.00  0.00     0.010 A 
ATOM     36  C   UNL A   1      45.378  23.621  25.588  1.00  0.00    -0.014 A 
BRANCH  36  37
ATOM     37  C   UNL A   1      45.488  25.019  26.068  1.00  0.00     0.031 A 
ATOM     38  C   UNL A   1      46.821  25.713  25.996  1.00  0.00     0.074 A 
ATOM     39  C   UNL A   1      44.409  25.678  26.525  1.00  0.00     0.049 A 
ATOM     40  N   UNL A   1      47.152  26.922  26.373  1.00  0.00    -0.248 NA
ATOM     41  C   UNL A   1      47.932  24.938  25.420  1.00  0.00     0.031 C 
ATOM     42  C   UNL A   1      43.058  25.128  26.603  1.00  0.00     0.029 A 
ATOM     43  N   UNL A   1      44.284  26.956  27.011  1.00  0.00    -0.354 N 
ATOM     44  C   UNL A   1      48.503  27.052  26.083  1.00  0.00     0.074 A 
ATOM     45  C   UNL A   1      48.940  25.790  25.524  1.00  0.00     0.031 C 
ATOM     46  C   UNL A   1      42.238  26.061  27.119  1.00  0.00     0.029 A 
ATOM     47  C   UNL A   1      43.014  27.261  27.432  1.00  0.00     0.049 A 
ATOM     48  H   UNL A   1      45.034  27.591  27.054  1.00  0.00     0.167 HD
ATOM     49  C   UNL A   1      49.305  28.129  26.257  1.00  0.00     0.037 A 
ATOM     50  C   UNL A   1      42.539  28.376  28.019  1.00  0.00     0.037 A 
ATOM     51  C   UNL A   1      48.870  29.384  26.810  1.00  0.00     0.049 A 
ATOM     52  C   UNL A   1      43.468  29.535  28.268  1.00  0.00     0.074 A 
ATOM     53  C   UNL A   1      49.603  30.541  27.010  1.00  0.00     0.029 A 
ATOM     54  N   UNL A   1      47.583  29.643  27.259  1.00  0.00    -0.354 N 
ATOM     55  N   UNL A   1      44.739  29.658  27.968  1.00  0.00    -0.248 NA
ATOM     56  C   UNL A   1      42.895  30.713  28.935  1.00  0.00     0.031 C 
ATOM     57  C   UNL A   1      48.772  31.486  27.621  1.00  0.00     0.029 A 
ATOM     58  C   UNL A   1      47.509  30.933  27.760  1.00  0.00     0.049 A 
ATOM     59  H   UNL A   1      46.835  29.005  27.227  1.00  0.00     0.167 HD
ATOM     60  C   UNL A   1      45.110  30.929  28.387  1.00  0.00     0.074 A 
ATOM     61  C   UNL A   1      43.927  31.545  28.950  1.00  0.00     0.031 C 
ATOM     62  C   UNL A   1      46.322  31.533  28.312  1.00  0.00     0.037 A 
BRANCH  49  63
ATOM     63  C   UNL A   1      50.746  27.990  25.865  1.00  0.00     0.064 A 
ATOM     64  C   UNL A   1      51.157  28.089  24.527  1.00  0.00     0.173 A 
ATOM     65  C   UNL A   1      51.731  27.789  26.842  1.00  0.00     0.173 A 
ATOM     66  F   UNL A   1      50.251  28.266  23.554  1.00  0.00    -0.203 F 
ATOM     67  C   UNL A   1      52.501  27.970  24.181  1.00  0.00     0.198 A 
ATOM     68  C   UNL A   1      53.076  27.696  26.496  1.00  0.00     0.198 A 
ATOM     69  F   UNL A   1      51.390  27.691  28.136  1.00  0.00    -0.203 F 
ATOM     70  F   UNL A   1      52.868  28.027  22.894  1.00  0.00    -0.200 F 
ATOM     71  C   UNL A   1      53.459  27.780  25.166  1.00  0.00     0.200 A 
ATOM     72  F   UNL A   1      54.002  27.523  27.449  1.00  0.00    -0.200 F 
ATOM     73  F   UNL A   1      54.753  27.672  24.832  1.00  0.00    -0.200 F 
ENDBRANCH  49  63
BRANCH  50  74
ATOM     74  C   UNL A   1      41.113  28.446  28.430  1.00  0.00     0.064 A 
ATOM     75  C   UNL A   1      40.137  28.962  27.568  1.00  0.00     0.173 A 
ATOM     76  C   UNL A   1      40.703  28.020  29.701  1.00  0.00     0.173 A 
ATOM     77  F   UNL A   1      40.485  29.409  26.352  1.00  0.00    -0.203 F 
ATOM     78  C   UNL A   1      38.805  29.062  27.967  1.00  0.00     0.198 A 
ATOM     79  C   UNL A   1      39.368  28.095  30.090  1.00  0.00     0.198 A 
ATOM     80  F   UNL A   1      41.601  27.523  30.565  1.00  0.00    -0.203 F 
ATOM     81  F   UNL A   1      37.898  29.599  27.140  1.00  0.00    -0.200 F 
ATOM     82  C   UNL A   1      38.421  28.623  29.225  1.00  0.00     0.200 A 
ATOM     83  F   UNL A   1      38.999  27.661  31.303  1.00  0.00    -0.200 F 
ATOM     84  F   UNL A   1      37.141  28.718  29.608  1.00  0.00    -0.200 F 
ENDBRANCH  50  74
BRANCH  62  85
ATOM     85  C   UNL A   1      46.424  32.940  28.825  1.00  0.00     0.064 A 
ATOM     86  C   UNL A   1      46.787  33.213  30.151  1.00  0.00     0.173 A 
ATOM     87  C   UNL A   1      46.198  34.027  27.967  1.00  0.00     0.173 A 
ATOM     88  F   UNL A   1      46.998  32.208  31.014  1.00  0.00    -0.203 F 
ATOM     89  C   UNL A   1      46.898  34.525  30.606  1.00  0.00     0.198 A 
ATOM     90  C   UNL A   1      46.337  35.336  28.418  1.00  0.00     0.198 A 
ATOM     91  F   UNL A   1      45.855  33.818  26.687  1.00  0.00    -0.203 F 
ATOM     92  F   UNL A   1      47.203  34.764  31.889  1.00  0.00    -0.200 F 
ATOM     93  C   UNL A   1      46.679  35.584  29.738  1.00  0.00     0.200 A 
ATOM     94  F   UNL A   1      46.137  36.359  27.574  1.00  0.00    -0.200 F 
ATOM     95  F   UNL A   1      46.794  36.846  30.176  1.00  0.00    -0.200 F 
ENDBRANCH  62  85
ENDBRANCH  36  37
ENDBRANCH  29  31
ENDBRANCH  28  29
ENDBRANCH  27  28
ENDBRANCH  26  27
ENDBRANCH  25  26
ENDBRANCH   1  25
TORSDOF 21
ENDMDL
