MODEL 1
REMARK VINA RESULT:     -11.8      0.000      0.000
REMARK SMILES C[C@H]1CC[C@@](Nc2ccc(C(N)=O)nn2)(C(=O)OCCOCCOC(=O)c2ccc(-c3c4nc(c(-c5c(F)c(F)c(F)c(F)c5F)c5ccc([nH]5)c(-c5c(F)c(F)c(F)c(F)c5F)c5nc(c(-c6c(F)c(F)c(F)c(F)c6F)c6ccc3[nH]6)C=C5)C=C4)cc2)CC1
REMARK SMILES IDX 20 1 19 2 18 3 16 4 17 5 5 6 1 7 2 8 91 9 3 10 90 11 4 12
REMARK SMILES IDX 6 13 7 15 8 16 15 17 9 18 14 19 10 20 11 21 12 22 13 23
REMARK SMILES IDX 21 26 22 27 23 28 24 29 25 30 26 31 27 32 28 33 89 34 29 35
REMARK SMILES IDX 88 36 30 37 31 38 32 39 82 40 33 41 87 42 81 43 83 44 34 45
REMARK SMILES IDX 86 46 80 47 79 48 35 50 67 51 47 52 66 53 48 54 51 55 65 56
REMARK SMILES IDX 84 57 49 58 50 59 64 61 85 62 52 63 36 64 37 65 45 66 38 67
REMARK SMILES IDX 39 68 43 69 46 70 40 71 41 72 44 73 42 74 68 75 69 76 77 77
REMARK SMILES IDX 70 78 71 79 75 80 78 81 72 82 73 83 76 84 74 85 53 86 54 87
REMARK SMILES IDX 62 88 55 89 56 90 60 91 63 92 57 93 58 94 61 95 59 96
REMARK H PARENT 6 14 12 24 12 25 83 49 51 60
REMARK Flexibility Score: inf
ROOT
ATOM      1  C   UNL A   1      34.913  22.498  25.536  1.00  0.00     0.202 C 
ENDROOT
BRANCH   1   2
ATOM      2  C   UNL A   1      34.063  23.231  26.575  1.00  0.00     0.261 C 
BRANCH   2   3
ATOM      3  O   UNL A   1      33.533  24.493  26.124  1.00  0.00    -0.461 OA
BRANCH   3   4
ATOM      4  C   UNL A   1      32.175  24.610  26.217  1.00  0.00     0.331 C 
ATOM      5  O   UNL A   1      31.547  24.396  27.250  1.00  0.00    -0.249 OA
BRANCH   4   6
ATOM      6  C   UNL A   1      31.494  24.916  24.847  1.00  0.00     0.137 C 
ATOM      7  C   UNL A   1      32.704  29.156  24.836  1.00  0.00     0.007 C 
ATOM      8  C   UNL A   1      32.022  27.862  24.386  1.00  0.00    -0.014 C 
ATOM      9  C   UNL A   1      31.060  27.360  25.466  1.00  0.00     0.006 C 
ATOM     10  C   UNL A   1      33.073  26.806  24.026  1.00  0.00     0.006 C 
ATOM     11  C   UNL A   1      30.431  26.016  25.082  1.00  0.00     0.041 C 
ATOM     12  C   UNL A   1      32.484  25.420  23.766  1.00  0.00     0.041 C 
BRANCH   6  13
ATOM     13  N   UNL A   1      30.787  23.721  24.279  1.00  0.00    -0.353 N 
ATOM     14  H   UNL A   1      29.871  23.818  23.933  1.00  0.00     0.163 HD
BRANCH  13  15
ATOM     15  C   UNL A   1      31.407  22.482  24.232  1.00  0.00     0.149 A 
ATOM     16  C   UNL A   1      32.051  22.018  23.093  1.00  0.00     0.051 A 
ATOM     17  N   UNL A   1      31.316  21.698  25.328  1.00  0.00    -0.132 NA
ATOM     18  C   UNL A   1      32.522  20.709  23.053  1.00  0.00     0.040 A 
ATOM     19  N   UNL A   1      31.781  20.405  25.307  1.00  0.00    -0.143 NA
ATOM     20  C   UNL A   1      32.352  19.927  24.177  1.00  0.00     0.150 A 
BRANCH  20  21
ATOM     21  C   UNL A   1      32.761  18.496  24.184  1.00  0.00     0.269 C 
ATOM     22  N   UNL A   1      32.206  17.702  23.216  1.00  0.00    -0.364 N 
ATOM     23  O   UNL A   1      33.557  18.048  25.000  1.00  0.00    -0.268 OA
ATOM     24  H   UNL A   1      31.569  18.084  22.571  1.00  0.00     0.160 HD
ATOM     25  H   UNL A   1      32.445  16.748  23.165  1.00  0.00     0.160 HD
ENDBRANCH  20  21
ENDBRANCH  13  15
ENDBRANCH   6  13
ENDBRANCH   4   6
ENDBRANCH   3   4
ENDBRANCH   2   3
ENDBRANCH   1   2
BRANCH   1  26
ATOM     26  O   UNL A   1      35.664  21.373  25.983  1.00  0.00    -0.374 OA
BRANCH  26  27
ATOM     27  C   UNL A   1      36.124  20.448  25.001  1.00  0.00     0.202 C 
BRANCH  27  28
ATOM     28  C   UNL A   1      37.635  20.196  24.962  1.00  0.00     0.261 C 
BRANCH  28  29
ATOM     29  O   UNL A   1      38.385  21.383  25.276  1.00  0.00    -0.460 OA
BRANCH  29  30
ATOM     30  C   UNL A   1      39.420  21.174  26.125  1.00  0.00     0.338 C 
ATOM     31  O   UNL A   1      40.058  20.149  26.282  1.00  0.00    -0.246 OA
BRANCH  30  32
ATOM     32  C   UNL A   1      39.816  22.441  26.762  1.00  0.00     0.060 A 
ATOM     33  C   UNL A   1      39.152  23.605  26.356  1.00  0.00     0.016 A 
ATOM     34  C   UNL A   1      40.902  22.505  27.638  1.00  0.00     0.016 A 
ATOM     35  C   UNL A   1      39.604  24.849  26.791  1.00  0.00     0.010 A 
ATOM     36  C   UNL A   1      41.360  23.757  28.063  1.00  0.00     0.010 A 
ATOM     37  C   UNL A   1      40.735  24.934  27.612  1.00  0.00    -0.014 A 
BRANCH  37  38
ATOM     38  C   UNL A   1      41.334  26.264  27.883  1.00  0.00     0.031 A 
ATOM     39  C   UNL A   1      42.729  26.552  27.407  1.00  0.00     0.074 A 
ATOM     40  C   UNL A   1      40.623  27.216  28.509  1.00  0.00     0.049 A 
ATOM     41  N   UNL A   1      43.437  27.647  27.520  1.00  0.00    -0.248 NA
ATOM     42  C   UNL A   1      43.421  25.459  26.703  1.00  0.00     0.031 C 
ATOM     43  C   UNL A   1      39.250  27.066  28.986  1.00  0.00     0.029 A 
ATOM     44  N   UNL A   1      40.961  28.502  28.851  1.00  0.00    -0.354 N 
ATOM     45  C   UNL A   1      44.650  27.380  26.900  1.00  0.00     0.074 A 
ATOM     46  C   UNL A   1      44.597  26.011  26.436  1.00  0.00     0.031 C 
ATOM     47  C   UNL A   1      38.864  28.214  29.570  1.00  0.00     0.029 A 
ATOM     48  C   UNL A   1      39.971  29.169  29.527  1.00  0.00     0.049 A 
ATOM     49  H   UNL A   1      41.832  28.907  28.631  1.00  0.00     0.167 HD
ATOM     50  C   UNL A   1      45.709  28.207  26.725  1.00  0.00     0.037 A 
ATOM     51  C   UNL A   1      39.967  30.404  30.065  1.00  0.00     0.037 A 
ATOM     52  C   UNL A   1      45.762  29.569  27.189  1.00  0.00     0.049 A 
ATOM     53  C   UNL A   1      41.185  31.277  29.921  1.00  0.00     0.074 A 
ATOM     54  C   UNL A   1      46.777  30.496  27.032  1.00  0.00     0.029 A 
ATOM     55  N   UNL A   1      44.758  30.194  27.913  1.00  0.00    -0.354 N 
ATOM     56  N   UNL A   1      42.312  31.031  29.299  1.00  0.00    -0.248 NA
ATOM     57  C   UNL A   1      41.128  32.604  30.553  1.00  0.00     0.031 C 
ATOM     58  C   UNL A   1      46.407  31.667  27.702  1.00  0.00     0.029 A 
ATOM     59  C   UNL A   1      45.143  31.484  28.239  1.00  0.00     0.049 A 
ATOM     60  H   UNL A   1      43.897  29.782  28.158  1.00  0.00     0.167 HD
ATOM     61  C   UNL A   1      43.090  32.171  29.448  1.00  0.00     0.074 A 
ATOM     62  C   UNL A   1      42.300  33.118  30.206  1.00  0.00     0.031 C 
ATOM     63  C   UNL A   1      44.346  32.411  29.000  1.00  0.00     0.037 A 
BRANCH  50  64
ATOM     64  C   UNL A   1      46.910  27.655  26.019  1.00  0.00     0.064 A 
ATOM     65  C   UNL A   1      47.027  27.704  24.621  1.00  0.00     0.173 A 
ATOM     66  C   UNL A   1      47.975  27.110  26.749  1.00  0.00     0.173 A 
ATOM     67  F   UNL A   1      46.030  28.205  23.877  1.00  0.00    -0.203 F 
ATOM     68  C   UNL A   1      48.162  27.210  23.981  1.00  0.00     0.198 A 
ATOM     69  C   UNL A   1      49.116  26.637  26.108  1.00  0.00     0.198 A 
ATOM     70  F   UNL A   1      47.912  27.043  28.088  1.00  0.00    -0.203 F 
ATOM     71  F   UNL A   1      48.238  27.235  22.643  1.00  0.00    -0.200 F 
ATOM     72  C   UNL A   1      49.207  26.683  24.725  1.00  0.00     0.200 A 
ATOM     73  F   UNL A   1      50.130  26.136  26.828  1.00  0.00    -0.200 F 
ATOM     74  F   UNL A   1      50.301  26.214  24.108  1.00  0.00    -0.200 F 
ENDBRANCH  50  64
BRANCH  51  75
ATOM     75  C   UNL A   1      38.773  30.881  30.808  1.00  0.00     0.064 A 
ATOM     76  C   UNL A   1      38.667  30.714  32.195  1.00  0.00     0.173 A 
ATOM     77  C   UNL A   1      37.708  31.504  30.141  1.00  0.00     0.173 A 
ATOM     78  F   UNL A   1      39.647  30.100  32.873  1.00  0.00    -0.203 F 
ATOM     79  C   UNL A   1      37.535  31.144  32.885  1.00  0.00     0.198 A 
ATOM     80  C   UNL A   1      36.589  31.957  30.836  1.00  0.00     0.198 A 
ATOM     81  F   UNL A   1      37.760  31.684  28.813  1.00  0.00    -0.203 F 
ATOM     82  F   UNL A   1      37.440  30.940  34.206  1.00  0.00    -0.200 F 
ATOM     83  C   UNL A   1      36.501  31.771  32.206  1.00  0.00     0.200 A 
ATOM     84  F   UNL A   1      35.599  32.575  30.178  1.00  0.00    -0.200 F 
ATOM     85  F   UNL A   1      35.417  32.192  32.872  1.00  0.00    -0.200 F 
ENDBRANCH  51  75
BRANCH  63  86
ATOM     86  C   UNL A   1      44.940  33.754  29.308  1.00  0.00     0.064 A 
ATOM     87  C   UNL A   1      45.716  33.963  30.458  1.00  0.00     0.173 A 
ATOM     88  C   UNL A   1      44.765  34.831  28.426  1.00  0.00     0.173 A 
ATOM     89  F   UNL A   1      45.898  32.968  31.338  1.00  0.00    -0.203 F 
ATOM     90  C   UNL A   1      46.279  35.209  30.724  1.00  0.00     0.198 A 
ATOM     91  C   UNL A   1      45.351  36.068  28.683  1.00  0.00     0.198 A 
ATOM     92  F   UNL A   1      44.037  34.680  27.311  1.00  0.00    -0.203 F 
ATOM     93  F   UNL A   1      46.982  35.398  31.848  1.00  0.00    -0.200 F 
ATOM     94  C   UNL A   1      46.102  36.258  29.833  1.00  0.00     0.200 A 
ATOM     95  F   UNL A   1      45.188  37.077  27.816  1.00  0.00    -0.200 F 
ATOM     96  F   UNL A   1      46.649  37.454  30.088  1.00  0.00    -0.200 F 
ENDBRANCH  63  86
ENDBRANCH  37  38
ENDBRANCH  30  32
ENDBRANCH  29  30
ENDBRANCH  28  29
ENDBRANCH  27  28
ENDBRANCH  26  27
ENDBRANCH   1  26
TORSDOF 17
ENDMDL
MODEL 2
REMARK VINA RESULT:     -11.8      4.061      6.744
REMARK SMILES C[C@H]1CC[C@@](Nc2ccc(C(N)=O)nn2)(C(=O)OCCOCCOC(=O)c2ccc(-c3c4nc(c(-c5c(F)c(F)c(F)c(F)c5F)c5ccc([nH]5)c(-c5c(F)c(F)c(F)c(F)c5F)c5nc(c(-c6c(F)c(F)c(F)c(F)c6F)c6ccc3[nH]6)C=C5)C=C4)cc2)CC1
REMARK SMILES IDX 20 1 19 2 18 3 16 4 17 5 5 6 1 7 2 8 91 9 3 10 90 11 4 12
REMARK SMILES IDX 6 13 7 15 8 16 15 17 9 18 14 19 10 20 11 21 12 22 13 23
REMARK SMILES IDX 21 26 22 27 23 28 24 29 25 30 26 31 27 32 28 33 89 34 29 35
REMARK SMILES IDX 88 36 30 37 31 38 32 39 82 40 33 41 87 42 81 43 83 44 34 45
REMARK SMILES IDX 86 46 80 47 79 48 35 50 67 51 47 52 66 53 48 54 51 55 65 56
REMARK SMILES IDX 84 57 49 58 50 59 64 61 85 62 52 63 36 64 37 65 45 66 38 67
REMARK SMILES IDX 39 68 43 69 46 70 40 71 41 72 44 73 42 74 68 75 69 76 77 77
REMARK SMILES IDX 70 78 71 79 75 80 78 81 72 82 73 83 76 84 74 85 53 86 54 87
REMARK SMILES IDX 62 88 55 89 56 90 60 91 63 92 57 93 58 94 61 95 59 96
REMARK H PARENT 6 14 12 24 12 25 83 49 51 60
REMARK Flexibility Score: inf
ROOT
ATOM      1  C   UNL A   1      32.962  26.615  24.212  1.00  0.00     0.202 C 
ENDROOT
BRANCH   1   2
ATOM      2  C   UNL A   1      32.358  25.461  25.013  1.00  0.00     0.261 C 
BRANCH   2   3
ATOM      3  O   UNL A   1      32.694  24.152  24.513  1.00  0.00    -0.461 OA
BRANCH   3   4
ATOM      4  C   UNL A   1      33.063  23.251  25.471  1.00  0.00     0.331 C 
ATOM      5  O   UNL A   1      32.861  23.418  26.671  1.00  0.00    -0.249 OA
BRANCH   4   6
ATOM      6  C   UNL A   1      33.881  22.051  24.899  1.00  0.00     0.137 C 
ATOM      7  C   UNL A   1      37.787  23.815  25.934  1.00  0.00     0.007 C 
ATOM      8  C   UNL A   1      36.772  22.833  25.346  1.00  0.00    -0.014 C 
ATOM      9  C   UNL A   1      35.883  23.533  24.316  1.00  0.00     0.006 C 
ATOM     10  C   UNL A   1      35.946  22.189  26.466  1.00  0.00     0.006 C 
ATOM     11  C   UNL A   1      34.797  22.596  23.777  1.00  0.00     0.041 C 
ATOM     12  C   UNL A   1      34.773  21.353  25.958  1.00  0.00     0.041 C 
BRANCH   6  13
ATOM     13  N   UNL A   1      33.004  20.997  24.292  1.00  0.00    -0.353 N 
ATOM     14  H   UNL A   1      32.304  21.257  23.652  1.00  0.00     0.163 HD
BRANCH  13  15
ATOM     15  C   UNL A   1      33.166  19.660  24.620  1.00  0.00     0.149 A 
ATOM     16  C   UNL A   1      34.254  18.916  24.187  1.00  0.00     0.051 A 
ATOM     17  N   UNL A   1      32.187  19.072  25.341  1.00  0.00    -0.132 NA
ATOM     18  C   UNL A   1      34.289  17.545  24.417  1.00  0.00     0.040 A 
ATOM     19  N   UNL A   1      32.208  17.719  25.583  1.00  0.00    -0.143 NA
ATOM     20  C   UNL A   1      33.235  16.980  25.106  1.00  0.00     0.150 A 
BRANCH  20  21
ATOM     21  C   UNL A   1      33.163  15.509  25.325  1.00  0.00     0.269 C 
ATOM     22  N   UNL A   1      31.914  14.986  25.529  1.00  0.00    -0.364 N 
ATOM     23  O   UNL A   1      34.161  14.798  25.314  1.00  0.00    -0.268 OA
ATOM     24  H   UNL A   1      31.128  15.577  25.532  1.00  0.00     0.160 HD
ATOM     25  H   UNL A   1      31.803  14.018  25.671  1.00  0.00     0.160 HD
ENDBRANCH  20  21
ENDBRANCH  13  15
ENDBRANCH   6  13
ENDBRANCH   4   6
ENDBRANCH   3   4
ENDBRANCH   2   3
ENDBRANCH   1   2
BRANCH   1  26
ATOM     26  O   UNL A   1      32.711  27.937  24.679  1.00  0.00    -0.374 OA
BRANCH  26  27
ATOM     27  C   UNL A   1      31.813  28.096  25.775  1.00  0.00     0.202 C 
BRANCH  27  28
ATOM     28  C   UNL A   1      31.778  29.483  26.427  1.00  0.00     0.261 C 
BRANCH  28  29
ATOM     29  O   UNL A   1      32.919  30.279  26.058  1.00  0.00    -0.460 OA
BRANCH  29  30
ATOM     30  C   UNL A   1      33.267  31.206  26.981  1.00  0.00     0.338 C 
ATOM     31  O   UNL A   1      32.563  32.074  27.467  1.00  0.00    -0.246 OA
BRANCH  30  32
ATOM     32  C   UNL A   1      34.625  30.937  27.482  1.00  0.00     0.060 A 
ATOM     33  C   UNL A   1      35.002  29.598  27.642  1.00  0.00     0.016 A 
ATOM     34  C   UNL A   1      35.459  31.972  27.909  1.00  0.00     0.016 A 
ATOM     35  C   UNL A   1      36.202  29.286  28.277  1.00  0.00     0.010 A 
ATOM     36  C   UNL A   1      36.659  31.654  28.556  1.00  0.00     0.010 A 
ATOM     37  C   UNL A   1      37.017  30.311  28.775  1.00  0.00    -0.014 A 
BRANCH  37  38
ATOM     38  C   UNL A   1      38.171  29.963  29.638  1.00  0.00     0.031 A 
ATOM     39  C   UNL A   1      39.204  28.997  29.130  1.00  0.00     0.074 A 
ATOM     40  C   UNL A   1      38.317  30.537  30.845  1.00  0.00     0.049 A 
ATOM     41  N   UNL A   1      40.296  28.568  29.710  1.00  0.00    -0.248 NA
ATOM     42  C   UNL A   1      38.978  28.442  27.786  1.00  0.00     0.031 C 
ATOM     43  C   UNL A   1      37.400  31.513  31.429  1.00  0.00     0.029 A 
ATOM     44  N   UNL A   1      39.294  30.378  31.795  1.00  0.00    -0.354 N 
ATOM     45  C   UNL A   1      40.889  27.700  28.802  1.00  0.00     0.074 A 
ATOM     46  C   UNL A   1      40.024  27.640  27.645  1.00  0.00     0.031 C 
ATOM     47  C   UNL A   1      37.853  31.860  32.646  1.00  0.00     0.029 A 
ATOM     48  C   UNL A   1      39.078  31.113  32.933  1.00  0.00     0.049 A 
ATOM     49  H   UNL A   1      40.077  29.793  31.672  1.00  0.00     0.167 HD
ATOM     50  C   UNL A   1      42.057  27.023  28.922  1.00  0.00     0.037 A 
ATOM     51  C   UNL A   1      39.780  31.163  34.081  1.00  0.00     0.037 A 
ATOM     52  C   UNL A   1      42.916  27.081  30.075  1.00  0.00     0.049 A 
ATOM     53  C   UNL A   1      41.035  30.343  34.217  1.00  0.00     0.074 A 
ATOM     54  C   UNL A   1      44.135  26.457  30.276  1.00  0.00     0.029 A 
ATOM     55  N   UNL A   1      42.639  27.800  31.228  1.00  0.00    -0.354 N 
ATOM     56  N   UNL A   1      41.610  29.557  33.339  1.00  0.00    -0.248 NA
ATOM     57  C   UNL A   1      41.742  30.420  35.504  1.00  0.00     0.031 C 
ATOM     58  C   UNL A   1      44.572  26.760  31.572  1.00  0.00     0.029 A 
ATOM     59  C   UNL A   1      43.647  27.608  32.158  1.00  0.00     0.049 A 
ATOM     60  H   UNL A   1      41.843  28.364  31.365  1.00  0.00     0.167 HD
ATOM     61  C   UNL A   1      42.749  29.061  33.957  1.00  0.00     0.074 A 
ATOM     62  C   UNL A   1      42.796  29.647  35.280  1.00  0.00     0.031 C 
ATOM     63  C   UNL A   1      43.674  28.194  33.474  1.00  0.00     0.037 A 
BRANCH  50  64
ATOM     64  C   UNL A   1      42.465  26.140  27.781  1.00  0.00     0.064 A 
ATOM     65  C   UNL A   1      41.859  24.893  27.565  1.00  0.00     0.173 A 
ATOM     66  C   UNL A   1      43.443  26.563  26.871  1.00  0.00     0.173 A 
ATOM     67  F   UNL A   1      40.926  24.439  28.416  1.00  0.00    -0.203 F 
ATOM     68  C   UNL A   1      42.231  24.095  26.485  1.00  0.00     0.198 A 
ATOM     69  C   UNL A   1      43.796  25.772  25.781  1.00  0.00     0.198 A 
ATOM     70  F   UNL A   1      44.050  27.748  27.033  1.00  0.00    -0.203 F 
ATOM     71  F   UNL A   1      41.663  22.892  26.316  1.00  0.00    -0.200 F 
ATOM     72  C   UNL A   1      43.194  24.538  25.591  1.00  0.00     0.200 A 
ATOM     73  F   UNL A   1      44.721  26.205  24.912  1.00  0.00    -0.200 F 
ATOM     74  F   UNL A   1      43.547  23.771  24.549  1.00  0.00    -0.200 F 
ENDBRANCH  50  64
BRANCH  51  75
ATOM     75  C   UNL A   1      39.299  32.008  35.204  1.00  0.00     0.064 A 
ATOM     76  C   UNL A   1      39.619  33.370  35.275  1.00  0.00     0.173 A 
ATOM     77  C   UNL A   1      38.517  31.465  36.234  1.00  0.00     0.173 A 
ATOM     78  F   UNL A   1      40.386  33.929  34.327  1.00  0.00    -0.203 F 
ATOM     79  C   UNL A   1      39.183  34.155  36.341  1.00  0.00     0.198 A 
ATOM     80  C   UNL A   1      38.060  32.257  37.285  1.00  0.00     0.198 A 
ATOM     81  F   UNL A   1      38.186  30.166  36.214  1.00  0.00    -0.203 F 
ATOM     82  F   UNL A   1      39.534  35.447  36.406  1.00  0.00    -0.200 F 
ATOM     83  C   UNL A   1      38.399  33.600  37.341  1.00  0.00     0.200 A 
ATOM     84  F   UNL A   1      37.291  31.720  38.241  1.00  0.00    -0.200 F 
ATOM     85  F   UNL A   1      37.974  34.358  38.361  1.00  0.00    -0.200 F 
ENDBRANCH  51  75
BRANCH  63  86
ATOM     86  C   UNL A   1      44.818  27.838  34.375  1.00  0.00     0.064 A 
ATOM     87  C   UNL A   1      45.984  28.617  34.418  1.00  0.00     0.173 A 
ATOM     88  C   UNL A   1      44.733  26.731  35.233  1.00  0.00     0.173 A 
ATOM     89  F   UNL A   1      46.118  29.676  33.606  1.00  0.00    -0.203 F 
ATOM     90  C   UNL A   1      47.032  28.288  35.274  1.00  0.00     0.198 A 
ATOM     91  C   UNL A   1      45.774  26.421  36.105  1.00  0.00     0.198 A 
ATOM     92  F   UNL A   1      43.638  25.958  35.233  1.00  0.00    -0.203 F 
ATOM     93  F   UNL A   1      48.154  29.022  35.269  1.00  0.00    -0.200 F 
ATOM     94  C   UNL A   1      46.924  27.196  36.121  1.00  0.00     0.200 A 
ATOM     95  F   UNL A   1      45.663  25.371  36.931  1.00  0.00    -0.200 F 
ATOM     96  F   UNL A   1      47.931  26.884  36.948  1.00  0.00    -0.200 F 
ENDBRANCH  63  86
ENDBRANCH  37  38
ENDBRANCH  30  32
ENDBRANCH  29  30
ENDBRANCH  28  29
ENDBRANCH  27  28
ENDBRANCH  26  27
ENDBRANCH   1  26
TORSDOF 17
ENDMDL
MODEL 3
REMARK VINA RESULT:     -11.7      1.270      1.989
REMARK SMILES C[C@H]1CC[C@@](Nc2ccc(C(N)=O)nn2)(C(=O)OCCOCCOC(=O)c2ccc(-c3c4nc(c(-c5c(F)c(F)c(F)c(F)c5F)c5ccc([nH]5)c(-c5c(F)c(F)c(F)c(F)c5F)c5nc(c(-c6c(F)c(F)c(F)c(F)c6F)c6ccc3[nH]6)C=C5)C=C4)cc2)CC1
REMARK SMILES IDX 20 1 19 2 18 3 16 4 17 5 5 6 1 7 2 8 91 9 3 10 90 11 4 12
REMARK SMILES IDX 6 13 7 15 8 16 15 17 9 18 14 19 10 20 11 21 12 22 13 23
REMARK SMILES IDX 21 26 22 27 23 28 24 29 25 30 26 31 27 32 28 33 89 34 29 35
REMARK SMILES IDX 88 36 30 37 31 38 32 39 82 40 33 41 87 42 81 43 83 44 34 45
REMARK SMILES IDX 86 46 80 47 79 48 35 50 67 51 47 52 66 53 48 54 51 55 65 56
REMARK SMILES IDX 84 57 49 58 50 59 64 61 85 62 52 63 36 64 37 65 45 66 38 67
REMARK SMILES IDX 39 68 43 69 46 70 40 71 41 72 44 73 42 74 68 75 69 76 77 77
REMARK SMILES IDX 70 78 71 79 75 80 78 81 72 82 73 83 76 84 74 85 53 86 54 87
REMARK SMILES IDX 62 88 55 89 56 90 60 91 63 92 57 93 58 94 61 95 59 96
REMARK H PARENT 6 14 12 24 12 25 83 49 51 60
REMARK Flexibility Score: inf
ROOT
ATOM      1  C   UNL A   1      37.363  22.707  24.716  1.00  0.00     0.202 C 
ENDROOT
BRANCH   1   2
ATOM      2  C   UNL A   1      36.241  22.714  23.677  1.00  0.00     0.261 C 
BRANCH   2   3
ATOM      3  O   UNL A   1      35.144  23.593  23.995  1.00  0.00    -0.461 OA
BRANCH   3   4
ATOM      4  C   UNL A   1      33.922  23.164  23.558  1.00  0.00     0.331 C 
ATOM      5  O   UNL A   1      33.684  22.877  22.388  1.00  0.00    -0.249 OA
BRANCH   4   6
ATOM      6  C   UNL A   1      32.829  23.203  24.671  1.00  0.00     0.137 C 
ATOM      7  C   UNL A   1      30.788  26.727  22.981  1.00  0.00     0.007 C 
ATOM      8  C   UNL A   1      31.116  25.596  23.958  1.00  0.00    -0.014 C 
ATOM      9  C   UNL A   1      32.547  25.738  24.481  1.00  0.00     0.006 C 
ATOM     10  C   UNL A   1      30.888  24.235  23.290  1.00  0.00     0.006 C 
ATOM     11  C   UNL A   1      32.935  24.568  25.391  1.00  0.00     0.041 C 
ATOM     12  C   UNL A   1      31.386  23.054  24.122  1.00  0.00     0.041 C 
BRANCH   6  13
ATOM     13  N   UNL A   1      33.023  22.132  25.703  1.00  0.00    -0.353 N 
ATOM     14  H   UNL A   1      33.039  22.374  26.656  1.00  0.00     0.163 HD
BRANCH  13  15
ATOM     15  C   UNL A   1      33.179  20.805  25.333  1.00  0.00     0.149 A 
ATOM     16  C   UNL A   1      34.423  20.250  25.070  1.00  0.00     0.051 A 
ATOM     17  N   UNL A   1      32.059  20.066  25.179  1.00  0.00    -0.132 NA
ATOM     18  C   UNL A   1      34.508  18.959  24.558  1.00  0.00     0.040 A 
ATOM     19  N   UNL A   1      32.125  18.787  24.679  1.00  0.00    -0.143 NA
ATOM     20  C   UNL A   1      33.331  18.265  24.359  1.00  0.00     0.150 A 
BRANCH  20  21
ATOM     21  C   UNL A   1      33.336  16.909  23.745  1.00  0.00     0.269 C 
ATOM     22  N   UNL A   1      32.655  15.933  24.422  1.00  0.00    -0.364 N 
ATOM     23  O   UNL A   1      33.905  16.674  22.686  1.00  0.00    -0.268 OA
ATOM     24  H   UNL A   1      32.204  16.146  25.271  1.00  0.00     0.160 HD
ATOM     25  H   UNL A   1      32.615  15.019  24.060  1.00  0.00     0.160 HD
ENDBRANCH  20  21
ENDBRANCH  13  15
ENDBRANCH   6  13
ENDBRANCH   4   6
ENDBRANCH   3   4
ENDBRANCH   2   3
ENDBRANCH   1   2
BRANCH   1  26
ATOM     26  O   UNL A   1      37.480  21.553  25.544  1.00  0.00    -0.374 OA
BRANCH  26  27
ATOM     27  C   UNL A   1      37.962  20.352  24.947  1.00  0.00     0.202 C 
BRANCH  27  28
ATOM     28  C   UNL A   1      39.104  19.641  25.681  1.00  0.00     0.261 C 
BRANCH  28  29
ATOM     29  O   UNL A   1      40.275  20.470  25.783  1.00  0.00    -0.460 OA
BRANCH  29  30
ATOM     30  C   UNL A   1      40.831  20.490  27.018  1.00  0.00     0.338 C 
ATOM     31  O   UNL A   1      41.261  19.545  27.656  1.00  0.00    -0.246 OA
BRANCH  30  32
ATOM     32  C   UNL A   1      41.016  21.879  27.469  1.00  0.00     0.060 A 
ATOM     33  C   UNL A   1      40.430  22.892  26.699  1.00  0.00     0.016 A 
ATOM     34  C   UNL A   1      41.852  22.189  28.543  1.00  0.00     0.016 A 
ATOM     35  C   UNL A   1      40.719  24.227  26.975  1.00  0.00     0.010 A 
ATOM     36  C   UNL A   1      42.149  23.531  28.809  1.00  0.00     0.010 A 
ATOM     37  C   UNL A   1      41.612  24.552  28.004  1.00  0.00    -0.014 A 
BRANCH  37  38
ATOM     38  C   UNL A   1      42.080  25.952  28.140  1.00  0.00     0.031 A 
ATOM     39  C   UNL A   1      43.406  26.344  27.553  1.00  0.00     0.074 A 
ATOM     40  C   UNL A   1      41.309  26.872  28.744  1.00  0.00     0.049 A 
ATOM     41  N   UNL A   1      43.997  27.512  27.541  1.00  0.00    -0.248 NA
ATOM     42  C   UNL A   1      44.168  25.278  26.883  1.00  0.00     0.031 C 
ATOM     43  C   UNL A   1      39.991  26.619  29.321  1.00  0.00     0.029 A 
ATOM     44  N   UNL A   1      41.527  28.208  28.971  1.00  0.00    -0.354 N 
ATOM     45  C   UNL A   1      45.194  27.324  26.862  1.00  0.00     0.074 A 
ATOM     46  C   UNL A   1      45.260  25.925  26.500  1.00  0.00     0.031 C 
ATOM     47  C   UNL A   1      39.519  27.762  29.847  1.00  0.00     0.029 A 
ATOM     48  C   UNL A   1      40.513  28.820  29.664  1.00  0.00     0.049 A 
ATOM     49  H   UNL A   1      42.335  28.683  28.667  1.00  0.00     0.167 HD
ATOM     50  C   UNL A   1      46.145  28.239  26.560  1.00  0.00     0.037 A 
ATOM     51  C   UNL A   1      40.409  30.085  30.114  1.00  0.00     0.037 A 
ATOM     52  C   UNL A   1      46.080  29.631  26.923  1.00  0.00     0.049 A 
ATOM     53  C   UNL A   1      41.515  31.065  29.828  1.00  0.00     0.074 A 
ATOM     54  C   UNL A   1      46.978  30.642  26.633  1.00  0.00     0.029 A 
ATOM     55  N   UNL A   1      45.059  30.203  27.666  1.00  0.00    -0.354 N 
ATOM     56  N   UNL A   1      42.624  30.889  29.151  1.00  0.00    -0.248 NA
ATOM     57  C   UNL A   1      41.354  32.423  30.367  1.00  0.00     0.031 C 
ATOM     58  C   UNL A   1      46.525  31.817  27.244  1.00  0.00     0.029 A 
ATOM     59  C   UNL A   1      45.322  31.547  27.875  1.00  0.00     0.049 A 
ATOM     60  H   UNL A   1      44.263  29.725  27.997  1.00  0.00     0.167 HD
ATOM     61  C   UNL A   1      43.282  32.111  29.168  1.00  0.00     0.074 A 
ATOM     62  C   UNL A   1      42.442  33.028  29.908  1.00  0.00     0.031 C 
ATOM     63  C   UNL A   1      44.477  32.444  28.621  1.00  0.00     0.037 A 
BRANCH  50  64
ATOM     64  C   UNL A   1      47.355  27.761  25.815  1.00  0.00     0.064 A 
ATOM     65  C   UNL A   1      47.378  27.699  24.414  1.00  0.00     0.173 A 
ATOM     66  C   UNL A   1      48.519  27.400  26.509  1.00  0.00     0.173 A 
ATOM     67  F   UNL A   1      46.286  28.023  23.706  1.00  0.00    -0.203 F 
ATOM     68  C   UNL A   1      48.519  27.277  23.735  1.00  0.00     0.198 A 
ATOM     69  C   UNL A   1      49.664  27.000  25.827  1.00  0.00     0.198 A 
ATOM     70  F   UNL A   1      48.548  27.444  27.849  1.00  0.00    -0.203 F 
ATOM     71  F   UNL A   1      48.509  27.193  22.397  1.00  0.00    -0.200 F 
ATOM     72  C   UNL A   1      49.662  26.933  24.441  1.00  0.00     0.200 A 
ATOM     73  F   UNL A   1      50.771  26.677  26.510  1.00  0.00    -0.200 F 
ATOM     74  F   UNL A   1      50.762  26.533  23.787  1.00  0.00    -0.200 F 
ENDBRANCH  50  64
BRANCH  51  75
ATOM     75  C   UNL A   1      39.216  30.493  30.899  1.00  0.00     0.064 A 
ATOM     76  C   UNL A   1      38.107  31.083  30.280  1.00  0.00     0.173 A 
ATOM     77  C   UNL A   1      39.169  30.308  32.289  1.00  0.00     0.173 A 
ATOM     78  F   UNL A   1      38.116  31.304  28.958  1.00  0.00    -0.203 F 
ATOM     79  C   UNL A   1      36.998  31.483  31.024  1.00  0.00     0.198 A 
ATOM     80  C   UNL A   1      38.049  30.684  33.027  1.00  0.00     0.198 A 
ATOM     81  F   UNL A   1      40.206  29.750  32.929  1.00  0.00    -0.203 F 
ATOM     82  F   UNL A   1      35.964  32.080  30.414  1.00  0.00    -0.200 F 
ATOM     83  C   UNL A   1      36.968  31.277  32.396  1.00  0.00     0.200 A 
ATOM     84  F   UNL A   1      38.018  30.471  34.350  1.00  0.00    -0.200 F 
ATOM     85  F   UNL A   1      35.898  31.655  33.108  1.00  0.00    -0.200 F 
ENDBRANCH  51  75
BRANCH  63  86
ATOM     86  C   UNL A   1      44.940  33.860  28.794  1.00  0.00     0.064 A 
ATOM     87  C   UNL A   1      45.769  34.232  29.863  1.00  0.00     0.173 A 
ATOM     88  C   UNL A   1      44.587  34.846  27.861  1.00  0.00     0.173 A 
ATOM     89  F   UNL A   1      46.122  33.327  30.789  1.00  0.00    -0.203 F 
ATOM     90  C   UNL A   1      46.210  35.545  30.003  1.00  0.00     0.198 A 
ATOM     91  C   UNL A   1      45.050  36.153  27.990  1.00  0.00     0.198 A 
ATOM     92  F   UNL A   1      43.801  34.539  26.818  1.00  0.00    -0.203 F 
ATOM     93  F   UNL A   1      46.967  35.888  31.054  1.00  0.00    -0.200 F 
ATOM     94  C   UNL A   1      45.856  36.502  29.063  1.00  0.00     0.200 A 
ATOM     95  F   UNL A   1      44.717  37.074  27.076  1.00  0.00    -0.200 F 
ATOM     96  F   UNL A   1      46.286  37.764  29.196  1.00  0.00    -0.200 F 
ENDBRANCH  63  86
ENDBRANCH  37  38
ENDBRANCH  30  32
ENDBRANCH  29  30
ENDBRANCH  28  29
ENDBRANCH  27  28
ENDBRANCH  26  27
ENDBRANCH   1  26
TORSDOF 17
ENDMDL
