MODEL 1
REMARK VINA RESULT:     -10.8      0.000      0.000
REMARK SMILES C[C@@H](NC(=O)NCCC(=O)NC1CC1)C(=O)OCCOCCOC(=O)c1ccc(-c2c3nc(c(-c4c(F)c(F)c(F)c(F)c4F)c4ccc([nH]4)c(-c4c(F)c(F)c(F)c(F)c4F)c4nc(c(-c5c(F)c(F)c(F)c(F)c5F)c5ccc2[nH]5)C=C4)C=C3)cc1
REMARK SMILES IDX 18 1 17 2 15 3 16 4 2 5 1 6 3 7 4 8 5 10 6 11 7 13 8 14 9 15
REMARK SMILES IDX 10 16 11 17 12 19 13 20 14 21 19 22 20 23 21 24 22 25 23 26
REMARK SMILES IDX 24 27 25 28 26 29 27 30 88 31 28 32 87 33 29 34 30 35 31 36
REMARK SMILES IDX 81 37 32 38 86 39 80 40 82 41 33 42 85 43 79 44 78 45 34 47
REMARK SMILES IDX 66 48 46 49 65 50 47 51 50 52 64 53 83 54 48 55 49 56 63 58
REMARK SMILES IDX 84 59 51 60 35 61 36 62 44 63 37 64 38 65 42 66 45 67 39 68
REMARK SMILES IDX 40 69 43 70 41 71 67 72 68 73 76 74 69 75 70 76 74 77 77 78
REMARK SMILES IDX 71 79 72 80 75 81 73 82 52 83 53 84 61 85 54 86 55 87 59 88
REMARK SMILES IDX 62 89 56 90 57 91 60 92 58 93
REMARK H PARENT 3 9 6 12 11 18 82 46 50 57
REMARK Flexibility Score: inf
ROOT
ATOM      1  C   UNL A   1      31.740  28.519  27.063  1.00  0.00     0.261 C 
ENDROOT
BRANCH   1   2
ATOM      2  O   UNL A   1      31.571  27.087  27.189  1.00  0.00    -0.462 OA
BRANCH   2   3
ATOM      3  C   UNL A   1      31.151  26.299  26.168  1.00  0.00     0.328 C 
ATOM      4  O   UNL A   1      30.082  26.418  25.579  1.00  0.00    -0.250 OA
BRANCH   3   5
ATOM      5  C   UNL A   1      32.125  25.147  25.894  1.00  0.00     0.190 C 
ATOM      6  C   UNL A   1      33.567  25.612  25.712  1.00  0.00     0.043 C 
BRANCH   5   7
ATOM      7  N   UNL A   1      31.994  24.008  26.810  1.00  0.00    -0.325 N 
ATOM      8  C   UNL A   1      30.964  23.135  26.728  1.00  0.00     0.315 C 
ATOM      9  H   UNL A   1      32.677  23.874  27.506  1.00  0.00     0.166 HD
ATOM     10  O   UNL A   1      30.013  23.197  27.500  1.00  0.00    -0.249 OA
ATOM     11  N   UNL A   1      31.052  22.128  25.829  1.00  0.00    -0.338 N 
ATOM     12  H   UNL A   1      30.224  21.609  25.707  1.00  0.00     0.165 HD
BRANCH  11  13
ATOM     13  C   UNL A   1      32.182  21.687  25.011  1.00  0.00     0.127 C 
BRANCH  13  14
ATOM     14  C   UNL A   1      32.591  20.218  25.099  1.00  0.00     0.121 C 
BRANCH  14  15
ATOM     15  C   UNL A   1      34.083  20.054  25.170  1.00  0.00     0.221 C 
ATOM     16  O   UNL A   1      34.828  20.979  25.492  1.00  0.00    -0.275 OA
ATOM     17  N   UNL A   1      34.610  18.858  24.760  1.00  0.00    -0.353 N 
ATOM     18  H   UNL A   1      35.585  18.845  24.627  1.00  0.00     0.163 HD
BRANCH  17  19
ATOM     19  C   UNL A   1      33.932  17.627  24.501  1.00  0.00     0.082 C 
ATOM     20  C   UNL A   1      32.800  17.391  23.538  1.00  0.00     0.027 C 
ATOM     21  C   UNL A   1      34.174  16.916  23.193  1.00  0.00     0.027 C 
ENDBRANCH  17  19
ENDBRANCH  14  15
ENDBRANCH  13  14
ENDBRANCH  11  13
ENDBRANCH   5   7
ENDBRANCH   3   5
ENDBRANCH   2   3
ENDBRANCH   1   2
BRANCH   1  22
ATOM     22  C   UNL A   1      32.600  29.138  25.949  1.00  0.00     0.202 C 
BRANCH  22  23
ATOM     23  O   UNL A   1      32.556  30.548  25.767  1.00  0.00    -0.374 OA
BRANCH  23  24
ATOM     24  C   UNL A   1      31.953  31.273  26.828  1.00  0.00     0.202 C 
BRANCH  24  25
ATOM     25  C   UNL A   1      32.267  32.775  26.752  1.00  0.00     0.261 C 
BRANCH  25  26
ATOM     26  O   UNL A   1      32.453  33.383  28.045  1.00  0.00    -0.460 OA
BRANCH  26  27
ATOM     27  C   UNL A   1      33.601  34.084  28.174  1.00  0.00     0.338 C 
ATOM     28  O   UNL A   1      33.725  35.310  28.159  1.00  0.00    -0.246 OA
BRANCH  27  29
ATOM     29  C   UNL A   1      34.733  33.177  28.435  1.00  0.00     0.060 A 
ATOM     30  C   UNL A   1      34.488  31.973  29.109  1.00  0.00     0.016 A 
ATOM     31  C   UNL A   1      36.039  33.542  28.100  1.00  0.00     0.016 A 
ATOM     32  C   UNL A   1      35.555  31.172  29.521  1.00  0.00     0.010 A 
ATOM     33  C   UNL A   1      37.109  32.745  28.525  1.00  0.00     0.010 A 
ATOM     34  C   UNL A   1      36.874  31.581  29.279  1.00  0.00    -0.014 A 
BRANCH  34  35
ATOM     35  C   UNL A   1      37.997  30.903  29.980  1.00  0.00     0.031 A 
ATOM     36  C   UNL A   1      38.258  31.246  31.424  1.00  0.00     0.074 A 
ATOM     37  C   UNL A   1      38.751  29.975  29.366  1.00  0.00     0.049 A 
ATOM     38  N   UNL A   1      39.191  30.807  32.232  1.00  0.00    -0.248 NA
ATOM     39  C   UNL A   1      37.338  32.216  32.041  1.00  0.00     0.031 C 
ATOM     40  C   UNL A   1      38.573  29.519  27.990  1.00  0.00     0.029 A 
ATOM     41  N   UNL A   1      39.826  29.251  29.826  1.00  0.00    -0.354 N 
ATOM     42  C   UNL A   1      38.970  31.444  33.446  1.00  0.00     0.074 A 
ATOM     43  C   UNL A   1      37.833  32.321  33.265  1.00  0.00     0.031 C 
ATOM     44  C   UNL A   1      39.516  28.599  27.711  1.00  0.00     0.029 A 
ATOM     45  C   UNL A   1      40.380  28.426  28.878  1.00  0.00     0.049 A 
ATOM     46  H   UNL A   1      40.165  29.318  30.748  1.00  0.00     0.167 HD
ATOM     47  C   UNL A   1      39.649  31.306  34.610  1.00  0.00     0.037 A 
ATOM     48  C   UNL A   1      41.475  27.643  28.941  1.00  0.00     0.037 A 
ATOM     49  C   UNL A   1      40.780  30.434  34.793  1.00  0.00     0.049 A 
ATOM     50  C   UNL A   1      42.263  27.567  30.227  1.00  0.00     0.074 A 
ATOM     51  C   UNL A   1      41.524  30.215  35.939  1.00  0.00     0.029 A 
ATOM     52  N   UNL A   1      41.336  29.645  33.797  1.00  0.00    -0.354 N 
ATOM     53  N   UNL A   1      42.032  28.152  31.377  1.00  0.00    -0.248 NA
ATOM     54  C   UNL A   1      43.465  26.719  30.222  1.00  0.00     0.031 C 
ATOM     55  C   UNL A   1      42.564  29.334  35.623  1.00  0.00     0.029 A 
ATOM     56  C   UNL A   1      42.432  28.959  34.296  1.00  0.00     0.049 A 
ATOM     57  H   UNL A   1      41.000  29.579  32.874  1.00  0.00     0.167 HD
ATOM     58  C   UNL A   1      43.035  27.721  32.236  1.00  0.00     0.074 A 
ATOM     59  C   UNL A   1      43.869  26.812  31.480  1.00  0.00     0.031 C 
ATOM     60  C   UNL A   1      43.248  28.048  33.535  1.00  0.00     0.037 A 
BRANCH  47  61
ATOM     61  C   UNL A   1      39.206  32.137  35.779  1.00  0.00     0.064 A 
ATOM     62  C   UNL A   1      38.284  31.656  36.721  1.00  0.00     0.173 A 
ATOM     63  C   UNL A   1      39.753  33.412  35.988  1.00  0.00     0.173 A 
ATOM     64  F   UNL A   1      37.724  30.448  36.561  1.00  0.00    -0.203 F 
ATOM     65  C   UNL A   1      37.913  32.428  37.819  1.00  0.00     0.198 A 
ATOM     66  C   UNL A   1      39.401  34.170  37.103  1.00  0.00     0.198 A 
ATOM     67  F   UNL A   1      40.643  33.917  35.120  1.00  0.00    -0.203 F 
ATOM     68  F   UNL A   1      37.004  31.963  38.687  1.00  0.00    -0.200 F 
ATOM     69  C   UNL A   1      38.478  33.680  38.014  1.00  0.00     0.200 A 
ATOM     70  F   UNL A   1      39.960  35.373  37.295  1.00  0.00    -0.200 F 
ATOM     71  F   UNL A   1      38.131  34.416  39.078  1.00  0.00    -0.200 F 
ENDBRANCH  47  61
BRANCH  48  72
ATOM     72  C   UNL A   1      41.919  26.878  27.743  1.00  0.00     0.064 A 
ATOM     73  C   UNL A   1      41.514  25.552  27.533  1.00  0.00     0.173 A 
ATOM     74  C   UNL A   1      42.799  27.444  26.808  1.00  0.00     0.173 A 
ATOM     75  F   UNL A   1      40.699  24.953  28.413  1.00  0.00    -0.203 F 
ATOM     76  C   UNL A   1      41.991  24.815  26.450  1.00  0.00     0.198 A 
ATOM     77  C   UNL A   1      43.249  26.716  25.708  1.00  0.00     0.198 A 
ATOM     78  F   UNL A   1      43.227  28.706  26.965  1.00  0.00    -0.203 F 
ATOM     79  F   UNL A   1      41.635  23.531  26.306  1.00  0.00    -0.200 F 
ATOM     80  C   UNL A   1      42.853  25.400  25.535  1.00  0.00     0.200 A 
ATOM     81  F   UNL A   1      44.076  27.290  24.821  1.00  0.00    -0.200 F 
ATOM     82  F   UNL A   1      43.313  24.690  24.495  1.00  0.00    -0.200 F 
ENDBRANCH  48  72
BRANCH  60  83
ATOM     83  C   UNL A   1      44.402  27.391  34.238  1.00  0.00     0.064 A 
ATOM     84  C   UNL A   1      44.273  26.138  34.857  1.00  0.00     0.173 A 
ATOM     85  C   UNL A   1      45.664  28.003  34.253  1.00  0.00     0.173 A 
ATOM     86  F   UNL A   1      43.085  25.516  34.881  1.00  0.00    -0.203 F 
ATOM     87  C   UNL A   1      45.359  25.537  35.488  1.00  0.00     0.198 A 
ATOM     88  C   UNL A   1      46.756  27.384  34.857  1.00  0.00     0.198 A 
ATOM     89  F   UNL A   1      45.844  29.197  33.668  1.00  0.00    -0.203 F 
ATOM     90  F   UNL A   1      45.202  24.364  36.116  1.00  0.00    -0.200 F 
ATOM     91  C   UNL A   1      46.600  26.156  35.481  1.00  0.00     0.200 A 
ATOM     92  F   UNL A   1      47.958  27.977  34.835  1.00  0.00    -0.200 F 
ATOM     93  F   UNL A   1      47.646  25.572  36.083  1.00  0.00    -0.200 F 
ENDBRANCH  60  83
ENDBRANCH  34  35
ENDBRANCH  27  29
ENDBRANCH  26  27
ENDBRANCH  25  26
ENDBRANCH  24  25
ENDBRANCH  23  24
ENDBRANCH  22  23
ENDBRANCH   1  22
TORSDOF 19
ENDMDL
MODEL 2
REMARK VINA RESULT:     -10.7      2.181      4.218
REMARK SMILES C[C@@H](NC(=O)NCCC(=O)NC1CC1)C(=O)OCCOCCOC(=O)c1ccc(-c2c3nc(c(-c4c(F)c(F)c(F)c(F)c4F)c4ccc([nH]4)c(-c4c(F)c(F)c(F)c(F)c4F)c4nc(c(-c5c(F)c(F)c(F)c(F)c5F)c5ccc2[nH]5)C=C4)C=C3)cc1
REMARK SMILES IDX 18 1 17 2 15 3 16 4 2 5 1 6 3 7 4 8 5 10 6 11 7 13 8 14 9 15
REMARK SMILES IDX 10 16 11 17 12 19 13 20 14 21 19 22 20 23 21 24 22 25 23 26
REMARK SMILES IDX 24 27 25 28 26 29 27 30 88 31 28 32 87 33 29 34 30 35 31 36
REMARK SMILES IDX 81 37 32 38 86 39 80 40 82 41 33 42 85 43 79 44 78 45 34 47
REMARK SMILES IDX 66 48 46 49 65 50 47 51 50 52 64 53 83 54 48 55 49 56 63 58
REMARK SMILES IDX 84 59 51 60 35 61 36 62 44 63 37 64 38 65 42 66 45 67 39 68
REMARK SMILES IDX 40 69 43 70 41 71 67 72 68 73 76 74 69 75 70 76 74 77 77 78
REMARK SMILES IDX 71 79 72 80 75 81 73 82 52 83 53 84 61 85 54 86 55 87 59 88
REMARK SMILES IDX 62 89 56 90 57 91 60 92 58 93
REMARK H PARENT 3 9 6 12 11 18 82 46 50 57
REMARK Flexibility Score: inf
ROOT
ATOM      1  C   UNL A   1      31.600  28.590  26.386  1.00  0.00     0.261 C 
ENDROOT
BRANCH   1   2
ATOM      2  O   UNL A   1      31.414  27.509  25.439  1.00  0.00    -0.462 OA
BRANCH   2   3
ATOM      3  C   UNL A   1      31.996  26.293  25.583  1.00  0.00     0.328 C 
ATOM      4  O   UNL A   1      31.751  25.495  26.481  1.00  0.00    -0.250 OA
BRANCH   3   5
ATOM      5  C   UNL A   1      33.101  26.060  24.546  1.00  0.00     0.190 C 
ATOM      6  C   UNL A   1      33.145  24.624  24.030  1.00  0.00     0.043 C 
BRANCH   5   7
ATOM      7  N   UNL A   1      33.153  27.063  23.475  1.00  0.00    -0.325 N 
ATOM      8  C   UNL A   1      32.857  26.758  22.191  1.00  0.00     0.315 C 
ATOM      9  H   UNL A   1      33.413  27.986  23.698  1.00  0.00     0.166 HD
ATOM     10  O   UNL A   1      33.738  26.580  21.358  1.00  0.00    -0.249 OA
ATOM     11  N   UNL A   1      31.555  26.745  21.824  1.00  0.00    -0.338 N 
ATOM     12  H   UNL A   1      31.382  26.381  20.925  1.00  0.00     0.165 HD
BRANCH  11  13
ATOM     13  C   UNL A   1      30.364  27.189  22.549  1.00  0.00     0.127 C 
BRANCH  13  14
ATOM     14  C   UNL A   1      29.979  28.663  22.446  1.00  0.00     0.121 C 
BRANCH  14  15
ATOM     15  C   UNL A   1      28.500  28.870  22.616  1.00  0.00     0.221 C 
ATOM     16  O   UNL A   1      27.790  28.059  23.211  1.00  0.00    -0.275 OA
ATOM     17  N   UNL A   1      27.935  29.951  21.994  1.00  0.00    -0.353 N 
ATOM     18  H   UNL A   1      26.951  29.954  21.953  1.00  0.00     0.163 HD
BRANCH  17  19
ATOM     19  C   UNL A   1      28.583  31.076  21.396  1.00  0.00     0.082 C 
ATOM     20  C   UNL A   1      27.937  32.219  20.660  1.00  0.00     0.027 C 
ATOM     21  C   UNL A   1      28.453  32.430  22.047  1.00  0.00     0.027 C 
ENDBRANCH  17  19
ENDBRANCH  14  15
ENDBRANCH  13  14
ENDBRANCH  11  13
ENDBRANCH   5   7
ENDBRANCH   3   5
ENDBRANCH   2   3
ENDBRANCH   1   2
BRANCH   1  22
ATOM     22  C   UNL A   1      32.826  29.515  26.328  1.00  0.00     0.202 C 
BRANCH  22  23
ATOM     23  O   UNL A   1      32.620  30.888  26.020  1.00  0.00    -0.374 OA
BRANCH  23  24
ATOM     24  C   UNL A   1      31.502  31.488  26.658  1.00  0.00     0.202 C 
BRANCH  24  25
ATOM     25  C   UNL A   1      31.728  32.981  26.934  1.00  0.00     0.261 C 
BRANCH  25  26
ATOM     26  O   UNL A   1      33.116  33.364  26.892  1.00  0.00    -0.460 OA
BRANCH  26  27
ATOM     27  C   UNL A   1      33.642  33.696  28.092  1.00  0.00     0.338 C 
ATOM     28  O   UNL A   1      33.163  34.471  28.921  1.00  0.00    -0.246 OA
BRANCH  27  29
ATOM     29  C   UNL A   1      34.869  32.921  28.349  1.00  0.00     0.060 A 
ATOM     30  C   UNL A   1      34.751  31.559  28.660  1.00  0.00     0.016 A 
ATOM     31  C   UNL A   1      36.120  33.542  28.372  1.00  0.00     0.016 A 
ATOM     32  C   UNL A   1      35.873  30.837  29.073  1.00  0.00     0.010 A 
ATOM     33  C   UNL A   1      37.241  32.819  28.798  1.00  0.00     0.010 A 
ATOM     34  C   UNL A   1      37.114  31.477  29.198  1.00  0.00    -0.014 A 
BRANCH  34  35
ATOM     35  C   UNL A   1      38.221  30.802  29.926  1.00  0.00     0.031 A 
ATOM     36  C   UNL A   1      38.435  31.134  31.379  1.00  0.00     0.074 A 
ATOM     37  C   UNL A   1      39.002  29.887  29.325  1.00  0.00     0.049 A 
ATOM     38  N   UNL A   1      39.348  30.696  32.211  1.00  0.00    -0.248 NA
ATOM     39  C   UNL A   1      37.488  32.089  31.978  1.00  0.00     0.031 C 
ATOM     40  C   UNL A   1      38.871  29.443  27.940  1.00  0.00     0.029 A 
ATOM     41  N   UNL A   1      40.070  29.169  29.811  1.00  0.00    -0.354 N 
ATOM     42  C   UNL A   1      39.085  31.319  33.424  1.00  0.00     0.074 A 
ATOM     43  C   UNL A   1      37.946  32.187  33.217  1.00  0.00     0.031 C 
ATOM     44  C   UNL A   1      39.830  28.535  27.682  1.00  0.00     0.029 A 
ATOM     45  C   UNL A   1      40.661  28.359  28.872  1.00  0.00     0.049 A 
ATOM     46  H   UNL A   1      40.381  29.231  30.743  1.00  0.00     0.167 HD
ATOM     47  C   UNL A   1      39.730  31.176  34.606  1.00  0.00     0.037 A 
ATOM     48  C   UNL A   1      41.761  27.585  28.960  1.00  0.00     0.037 A 
ATOM     49  C   UNL A   1      40.863  30.313  34.815  1.00  0.00     0.049 A 
ATOM     50  C   UNL A   1      42.510  27.505  30.269  1.00  0.00     0.074 A 
ATOM     51  C   UNL A   1      41.575  30.090  35.980  1.00  0.00     0.029 A 
ATOM     52  N   UNL A   1      41.456  29.539  33.829  1.00  0.00    -0.354 N 
ATOM     53  N   UNL A   1      42.239  28.076  31.417  1.00  0.00    -0.248 NA
ATOM     54  C   UNL A   1      43.720  26.668  30.292  1.00  0.00     0.031 C 
ATOM     55  C   UNL A   1      42.633  29.222  35.688  1.00  0.00     0.029 A 
ATOM     56  C   UNL A   1      42.544  28.859  34.355  1.00  0.00     0.049 A 
ATOM     57  H   UNL A   1      41.149  29.479  32.895  1.00  0.00     0.167 HD
ATOM     58  C   UNL A   1      43.220  27.646  32.302  1.00  0.00     0.074 A 
ATOM     59  C   UNL A   1      44.086  26.753  31.563  1.00  0.00     0.031 C 
ATOM     60  C   UNL A   1      43.391  27.962  33.610  1.00  0.00     0.037 A 
BRANCH  47  61
ATOM     61  C   UNL A   1      39.244  31.991  35.770  1.00  0.00     0.064 A 
ATOM     62  C   UNL A   1      38.345  31.471  36.713  1.00  0.00     0.173 A 
ATOM     63  C   UNL A   1      39.727  33.293  35.972  1.00  0.00     0.173 A 
ATOM     64  F   UNL A   1      37.845  30.236  36.559  1.00  0.00    -0.203 F 
ATOM     65  C   UNL A   1      37.934  32.231  37.805  1.00  0.00     0.198 A 
ATOM     66  C   UNL A   1      39.337  34.039  37.081  1.00  0.00     0.198 A 
ATOM     67  F   UNL A   1      40.593  33.835  35.103  1.00  0.00    -0.203 F 
ATOM     68  F   UNL A   1      37.047  31.728  38.674  1.00  0.00    -0.200 F 
ATOM     69  C   UNL A   1      38.437  33.510  37.993  1.00  0.00     0.200 A 
ATOM     70  F   UNL A   1      39.835  35.269  37.267  1.00  0.00    -0.200 F 
ATOM     71  F   UNL A   1      38.051  34.235  39.052  1.00  0.00    -0.200 F 
ENDBRANCH  47  61
BRANCH  48  72
ATOM     72  C   UNL A   1      42.248  26.836  27.769  1.00  0.00     0.064 A 
ATOM     73  C   UNL A   1      41.809  25.532  27.498  1.00  0.00     0.173 A 
ATOM     74  C   UNL A   1      43.202  27.393  26.904  1.00  0.00     0.173 A 
ATOM     75  F   UNL A   1      40.921  24.942  28.311  1.00  0.00    -0.203 F 
ATOM     76  C   UNL A   1      42.323  24.808  26.424  1.00  0.00     0.198 A 
ATOM     77  C   UNL A   1      43.691  26.679  25.812  1.00  0.00     0.198 A 
ATOM     78  F   UNL A   1      43.665  28.634  27.123  1.00  0.00    -0.203 F 
ATOM     79  F   UNL A   1      41.930  23.542  26.223  1.00  0.00    -0.200 F 
ATOM     80  C   UNL A   1      43.259  25.384  25.578  1.00  0.00     0.200 A 
ATOM     81  F   UNL A   1      44.589  27.244  24.993  1.00  0.00    -0.200 F 
ATOM     82  F   UNL A   1      43.755  24.685  24.548  1.00  0.00    -0.200 F 
ENDBRANCH  48  72
BRANCH  60  83
ATOM     83  C   UNL A   1      44.530  27.309  34.340  1.00  0.00     0.064 A 
ATOM     84  C   UNL A   1      45.788  27.922  34.444  1.00  0.00     0.173 A 
ATOM     85  C   UNL A   1      44.346  26.075  34.982  1.00  0.00     0.173 A 
ATOM     86  F   UNL A   1      46.020  29.096  33.838  1.00  0.00    -0.203 F 
ATOM     87  C   UNL A   1      46.827  27.309  35.140  1.00  0.00     0.198 A 
ATOM     88  C   UNL A   1      45.377  25.481  35.705  1.00  0.00     0.198 A 
ATOM     89  F   UNL A   1      43.160  25.452  34.922  1.00  0.00    -0.203 F 
ATOM     90  F   UNL A   1      48.034  27.888  35.185  1.00  0.00    -0.200 F 
ATOM     91  C   UNL A   1      46.619  26.094  35.776  1.00  0.00     0.200 A 
ATOM     92  F   UNL A   1      45.169  24.315  36.332  1.00  0.00    -0.200 F 
ATOM     93  F   UNL A   1      47.618  25.510  36.452  1.00  0.00    -0.200 F 
ENDBRANCH  60  83
ENDBRANCH  34  35
ENDBRANCH  27  29
ENDBRANCH  26  27
ENDBRANCH  25  26
ENDBRANCH  24  25
ENDBRANCH  23  24
ENDBRANCH  22  23
ENDBRANCH   1  22
TORSDOF 19
ENDMDL
MODEL 3
REMARK VINA RESULT:     -10.6      1.215      2.162
REMARK SMILES C[C@@H](NC(=O)NCCC(=O)NC1CC1)C(=O)OCCOCCOC(=O)c1ccc(-c2c3nc(c(-c4c(F)c(F)c(F)c(F)c4F)c4ccc([nH]4)c(-c4c(F)c(F)c(F)c(F)c4F)c4nc(c(-c5c(F)c(F)c(F)c(F)c5F)c5ccc2[nH]5)C=C4)C=C3)cc1
REMARK SMILES IDX 18 1 17 2 15 3 16 4 2 5 1 6 3 7 4 8 5 10 6 11 7 13 8 14 9 15
REMARK SMILES IDX 10 16 11 17 12 19 13 20 14 21 19 22 20 23 21 24 22 25 23 26
REMARK SMILES IDX 24 27 25 28 26 29 27 30 88 31 28 32 87 33 29 34 30 35 31 36
REMARK SMILES IDX 81 37 32 38 86 39 80 40 82 41 33 42 85 43 79 44 78 45 34 47
REMARK SMILES IDX 66 48 46 49 65 50 47 51 50 52 64 53 83 54 48 55 49 56 63 58
REMARK SMILES IDX 84 59 51 60 35 61 36 62 44 63 37 64 38 65 42 66 45 67 39 68
REMARK SMILES IDX 40 69 43 70 41 71 67 72 68 73 76 74 69 75 70 76 74 77 77 78
REMARK SMILES IDX 71 79 72 80 75 81 73 82 52 83 53 84 61 85 54 86 55 87 59 88
REMARK SMILES IDX 62 89 56 90 57 91 60 92 58 93
REMARK H PARENT 3 9 6 12 11 18 82 46 50 57
REMARK Flexibility Score: inf
ROOT
ATOM      1  C   UNL A   1      30.851  28.780  23.721  1.00  0.00     0.261 C 
ENDROOT
BRANCH   1   2
ATOM      2  O   UNL A   1      30.738  27.360  23.461  1.00  0.00    -0.462 OA
BRANCH   2   3
ATOM      3  C   UNL A   1      31.799  26.586  23.119  1.00  0.00     0.328 C 
ATOM      4  O   UNL A   1      32.705  26.923  22.366  1.00  0.00    -0.250 OA
BRANCH   3   5
ATOM      5  C   UNL A   1      31.685  25.170  23.698  1.00  0.00     0.190 C 
ATOM      6  C   UNL A   1      30.507  25.007  24.654  1.00  0.00     0.043 C 
BRANCH   5   7
ATOM      7  N   UNL A   1      31.777  24.095  22.703  1.00  0.00    -0.325 N 
ATOM      8  C   UNL A   1      32.886  23.331  22.573  1.00  0.00     0.315 C 
ATOM      9  H   UNL A   1      31.009  23.925  22.111  1.00  0.00     0.166 HD
ATOM     10  O   UNL A   1      33.694  23.527  21.672  1.00  0.00    -0.249 OA
ATOM     11  N   UNL A   1      33.035  22.278  23.410  1.00  0.00    -0.338 N 
ATOM     12  H   UNL A   1      33.917  21.842  23.373  1.00  0.00     0.165 HD
BRANCH  11  13
ATOM     13  C   UNL A   1      32.094  21.684  24.360  1.00  0.00     0.127 C 
BRANCH  13  14
ATOM     14  C   UNL A   1      32.641  20.669  25.360  1.00  0.00     0.121 C 
BRANCH  14  15
ATOM     15  C   UNL A   1      34.092  20.365  25.115  1.00  0.00     0.221 C 
ATOM     16  O   UNL A   1      34.976  21.201  25.302  1.00  0.00    -0.275 OA
ATOM     17  N   UNL A   1      34.403  19.147  24.570  1.00  0.00    -0.353 N 
ATOM     18  H   UNL A   1      35.324  19.051  24.237  1.00  0.00     0.163 HD
BRANCH  17  19
ATOM     19  C   UNL A   1      33.567  17.998  24.422  1.00  0.00     0.082 C 
ATOM     20  C   UNL A   1      33.140  17.337  23.139  1.00  0.00     0.027 C 
ATOM     21  C   UNL A   1      34.184  16.691  23.991  1.00  0.00     0.027 C 
ENDBRANCH  17  19
ENDBRANCH  14  15
ENDBRANCH  13  14
ENDBRANCH  11  13
ENDBRANCH   5   7
ENDBRANCH   3   5
ENDBRANCH   2   3
ENDBRANCH   1   2
BRANCH   1  22
ATOM     22  C   UNL A   1      31.583  29.321  24.959  1.00  0.00     0.202 C 
BRANCH  22  23
ATOM     23  O   UNL A   1      31.307  30.652  25.378  1.00  0.00    -0.374 OA
BRANCH  23  24
ATOM     24  C   UNL A   1      31.795  30.992  26.667  1.00  0.00     0.202 C 
BRANCH  24  25
ATOM     25  C   UNL A   1      31.820  32.511  26.892  1.00  0.00     0.261 C 
BRANCH  25  26
ATOM     26  O   UNL A   1      33.148  33.070  26.849  1.00  0.00    -0.460 OA
BRANCH  26  27
ATOM     27  C   UNL A   1      33.652  33.407  28.056  1.00  0.00     0.338 C 
ATOM     28  O   UNL A   1      33.150  34.173  28.881  1.00  0.00    -0.246 OA
BRANCH  27  29
ATOM     29  C   UNL A   1      34.889  32.652  28.328  1.00  0.00     0.060 A 
ATOM     30  C   UNL A   1      34.790  31.287  28.629  1.00  0.00     0.016 A 
ATOM     31  C   UNL A   1      36.128  33.294  28.374  1.00  0.00     0.016 A 
ATOM     32  C   UNL A   1      35.917  30.581  29.056  1.00  0.00     0.010 A 
ATOM     33  C   UNL A   1      37.255  32.588  28.813  1.00  0.00     0.010 A 
ATOM     34  C   UNL A   1      37.145  31.241  29.203  1.00  0.00    -0.014 A 
BRANCH  34  35
ATOM     35  C   UNL A   1      38.253  30.582  29.944  1.00  0.00     0.031 A 
ATOM     36  C   UNL A   1      38.466  30.941  31.391  1.00  0.00     0.074 A 
ATOM     37  C   UNL A   1      39.035  29.656  29.361  1.00  0.00     0.049 A 
ATOM     38  N   UNL A   1      39.379  30.520  32.231  1.00  0.00    -0.248 NA
ATOM     39  C   UNL A   1      37.518  31.907  31.971  1.00  0.00     0.031 C 
ATOM     40  C   UNL A   1      38.904  29.185  27.985  1.00  0.00     0.029 A 
ATOM     41  N   UNL A   1      40.103  28.948  29.860  1.00  0.00    -0.354 N 
ATOM     42  C   UNL A   1      39.115  31.165  33.432  1.00  0.00     0.074 A 
ATOM     43  C   UNL A   1      37.975  32.028  33.208  1.00  0.00     0.031 C 
ATOM     44  C   UNL A   1      39.864  28.274  27.744  1.00  0.00     0.029 A 
ATOM     45  C   UNL A   1      40.695  28.121  28.938  1.00  0.00     0.049 A 
ATOM     46  H   UNL A   1      40.413  29.028  30.791  1.00  0.00     0.167 HD
ATOM     47  C   UNL A   1      39.759  31.045  34.617  1.00  0.00     0.037 A 
ATOM     48  C   UNL A   1      41.795  27.350  29.041  1.00  0.00     0.037 A 
ATOM     49  C   UNL A   1      40.893  30.188  34.842  1.00  0.00     0.049 A 
ATOM     50  C   UNL A   1      42.544  27.295  30.351  1.00  0.00     0.074 A 
ATOM     51  C   UNL A   1      41.605  29.987  36.012  1.00  0.00     0.029 A 
ATOM     52  N   UNL A   1      41.487  29.395  33.872  1.00  0.00    -0.354 N 
ATOM     53  N   UNL A   1      42.272  27.887  31.488  1.00  0.00    -0.248 NA
ATOM     54  C   UNL A   1      43.754  26.459  30.390  1.00  0.00     0.031 C 
ATOM     55  C   UNL A   1      42.663  29.115  35.736  1.00  0.00     0.029 A 
ATOM     56  C   UNL A   1      42.575  28.726  34.410  1.00  0.00     0.049 A 
ATOM     57  H   UNL A   1      41.180  29.317  32.939  1.00  0.00     0.167 HD
ATOM     58  C   UNL A   1      43.253  27.475  32.381  1.00  0.00     0.074 A 
ATOM     59  C   UNL A   1      44.119  26.568  31.660  1.00  0.00     0.031 C 
ATOM     60  C   UNL A   1      43.423  27.816  33.683  1.00  0.00     0.037 A 
BRANCH  47  61
ATOM     61  C   UNL A   1      39.272  31.882  35.765  1.00  0.00     0.064 A 
ATOM     62  C   UNL A   1      39.707  33.202  35.953  1.00  0.00     0.173 A 
ATOM     63  C   UNL A   1      38.315  31.373  36.656  1.00  0.00     0.173 A 
ATOM     64  F   UNL A   1      40.630  33.733  35.136  1.00  0.00    -0.203 F 
ATOM     65  C   UNL A   1      39.215  33.975  37.003  1.00  0.00     0.198 A 
ATOM     66  C   UNL A   1      37.804  32.158  37.686  1.00  0.00     0.198 A 
ATOM     67  F   UNL A   1      37.861  30.118  36.515  1.00  0.00    -0.203 F 
ATOM     68  F   UNL A   1      39.672  35.222  37.186  1.00  0.00    -0.200 F 
ATOM     69  C   UNL A   1      38.258  33.456  37.862  1.00  0.00     0.200 A 
ATOM     70  F   UNL A   1      36.869  31.657  38.506  1.00  0.00    -0.200 F 
ATOM     71  F   UNL A   1      37.776  34.205  38.863  1.00  0.00    -0.200 F 
ENDBRANCH  47  61
BRANCH  48  72
ATOM     72  C   UNL A   1      42.283  26.578  27.865  1.00  0.00     0.064 A 
ATOM     73  C   UNL A   1      43.245  27.109  26.993  1.00  0.00     0.173 A 
ATOM     74  C   UNL A   1      41.760  25.312  27.562  1.00  0.00     0.173 A 
ATOM     75  F   UNL A   1      43.753  28.329  27.219  1.00  0.00    -0.203 F 
ATOM     76  C   UNL A   1      43.644  26.415  25.852  1.00  0.00     0.198 A 
ATOM     77  C   UNL A   1      42.185  24.605  26.439  1.00  0.00     0.198 A 
ATOM     78  F   UNL A   1      40.831  24.761  28.357  1.00  0.00    -0.203 F 
ATOM     79  F   UNL A   1      44.520  26.971  25.004  1.00  0.00    -0.200 F 
ATOM     80  C   UNL A   1      43.119  25.161  25.579  1.00  0.00     0.200 A 
ATOM     81  F   UNL A   1      41.680  23.389  26.185  1.00  0.00    -0.200 F 
ATOM     82  F   UNL A   1      43.502  24.495  24.481  1.00  0.00    -0.200 F 
ENDBRANCH  48  72
BRANCH  60  83
ATOM     83  C   UNL A   1      44.562  27.178  34.426  1.00  0.00     0.064 A 
ATOM     84  C   UNL A   1      44.425  25.935  35.062  1.00  0.00     0.173 A 
ATOM     85  C   UNL A   1      45.820  27.799  34.465  1.00  0.00     0.173 A 
ATOM     86  F   UNL A   1      43.240  25.306  35.066  1.00  0.00    -0.203 F 
ATOM     87  C   UNL A   1      45.497  25.352  35.732  1.00  0.00     0.198 A 
ATOM     88  C   UNL A   1      46.899  27.197  35.107  1.00  0.00     0.198 A 
ATOM     89  F   UNL A   1      46.008  28.984  33.865  1.00  0.00    -0.203 F 
ATOM     90  F   UNL A   1      45.330  24.187  36.374  1.00  0.00    -0.200 F 
ATOM     91  C   UNL A   1      46.734  25.979  35.747  1.00  0.00     0.200 A 
ATOM     92  F   UNL A   1      48.097  27.797  35.107  1.00  0.00    -0.200 F 
ATOM     93  F   UNL A   1      47.767  25.411  36.386  1.00  0.00    -0.200 F 
ENDBRANCH  60  83
ENDBRANCH  34  35
ENDBRANCH  27  29
ENDBRANCH  26  27
ENDBRANCH  25  26
ENDBRANCH  24  25
ENDBRANCH  23  24
ENDBRANCH  22  23
ENDBRANCH   1  22
TORSDOF 19
ENDMDL
