MODEL 1
REMARK VINA RESULT:     -11.6      0.000      0.000
REMARK SMILES Cc1nn(C)c(=O)c(C(=O)N2CC[C@@H](C(=O)OCCOCCOC(=O)c3ccc(-c4c5nc(c(-c6c(F)c(F)c(F)c(F)c6F)c6ccc([nH]6)c(-c6c(F)c(F)c(F)c(F)c6F)c6nc(c(-c7c(F)c(F)c(F)c(F)c7F)c7ccc4[nH]7)C=C6)C=C5)cc3)[C@@H]2C)c1C
REMARK SMILES IDX 20 1 19 2 18 3 17 4 15 5 16 6 14 7 11 8 12 9 89 10 13 11
REMARK SMILES IDX 90 12 9 13 10 14 8 15 1 16 2 17 3 18 91 19 4 20 92 21 5 22
REMARK SMILES IDX 6 23 7 24 21 25 22 26 23 27 24 28 25 29 26 30 27 31 88 32
REMARK SMILES IDX 28 33 87 34 29 35 30 36 31 37 81 38 32 39 86 40 80 41 82 42
REMARK SMILES IDX 33 43 85 44 79 45 78 46 34 48 66 49 46 50 65 51 47 52 50 53
REMARK SMILES IDX 64 54 83 55 48 56 49 57 63 59 84 60 51 61 35 62 36 63 44 64
REMARK SMILES IDX 37 65 38 66 42 67 45 68 39 69 40 70 43 71 41 72 67 73 68 74
REMARK SMILES IDX 76 75 69 76 70 77 74 78 77 79 71 80 72 81 75 82 73 83 52 84
REMARK SMILES IDX 53 85 61 86 54 87 55 88 59 89 62 90 56 91 57 92 60 93 58 94
REMARK H PARENT 82 47 50 58
REMARK Flexibility Score: inf
ROOT
ATOM      1  O   UNL A   1      40.991  19.883  26.169  1.00  0.00    -0.374 OA
ENDROOT
BRANCH   1   2
ATOM      2  C   UNL A   1      40.950  21.308  26.121  1.00  0.00     0.202 C 
BRANCH   2   3
ATOM      3  C   UNL A   1      39.615  21.946  26.508  1.00  0.00     0.261 C 
BRANCH   3   4
ATOM      4  O   UNL A   1      38.637  21.765  25.463  1.00  0.00    -0.463 OA
BRANCH   4   5
ATOM      5  C   UNL A   1      37.527  22.541  25.532  1.00  0.00     0.311 C 
ATOM      6  O   UNL A   1      37.518  23.757  25.397  1.00  0.00    -0.252 OA
BRANCH   5   7
ATOM      7  C   UNL A   1      36.277  21.749  25.851  1.00  0.00     0.123 C 
ATOM      8  N   UNL A   1      34.135  21.513  24.820  1.00  0.00    -0.335 N 
ATOM      9  C   UNL A   1      34.733  20.196  24.889  1.00  0.00     0.121 C 
ATOM     10  C   UNL A   1      34.905  22.456  25.646  1.00  0.00     0.096 C 
ATOM     11  C   UNL A   1      36.216  20.491  24.983  1.00  0.00     0.039 C 
ATOM     12  C   UNL A   1      34.219  22.651  27.004  1.00  0.00     0.032 C 
BRANCH   8  13
ATOM     13  C   UNL A   1      32.917  21.636  24.181  1.00  0.00     0.260 C 
ATOM     14  O   UNL A   1      32.443  20.638  23.630  1.00  0.00    -0.269 OA
BRANCH  13  15
ATOM     15  C   UNL A   1      32.274  22.978  23.919  1.00  0.00     0.111 A 
ATOM     16  C   UNL A   1      30.104  25.683  25.452  1.00  0.00     0.069 C 
ATOM     17  C   UNL A   1      31.089  24.995  24.543  1.00  0.00     0.062 A 
ATOM     18  N   UNL A   1      31.680  25.758  23.692  1.00  0.00    -0.175 NA
ATOM     19  C   UNL A   1      31.359  23.539  24.740  1.00  0.00    -0.010 A 
ATOM     20  N   UNL A   1      32.616  25.202  22.884  1.00  0.00    -0.232 N 
ATOM     21  C   UNL A   1      30.651  22.925  25.905  1.00  0.00     0.047 C 
ATOM     22  C   UNL A   1      33.291  26.146  22.006  1.00  0.00     0.178 C 
ATOM     23  C   UNL A   1      32.908  23.842  22.850  1.00  0.00     0.279 A 
ATOM     24  O   UNL A   1      33.636  23.356  21.986  1.00  0.00    -0.267 OA
ENDBRANCH  13  15
ENDBRANCH   8  13
ENDBRANCH   5   7
ENDBRANCH   4   5
ENDBRANCH   3   4
ENDBRANCH   2   3
ENDBRANCH   1   2
BRANCH   1  25
ATOM     25  C   UNL A   1      42.158  19.295  26.739  1.00  0.00     0.202 C 
BRANCH  25  26
ATOM     26  C   UNL A   1      43.072  18.526  25.779  1.00  0.00     0.261 C 
BRANCH  26  27
ATOM     27  O   UNL A   1      43.317  19.242  24.556  1.00  0.00    -0.460 OA
BRANCH  27  28
ATOM     28  C   UNL A   1      44.620  19.529  24.321  1.00  0.00     0.338 C 
ATOM     29  O   UNL A   1      45.449  18.834  23.754  1.00  0.00    -0.246 OA
BRANCH  28  30
ATOM     30  C   UNL A   1      44.881  20.924  24.714  1.00  0.00     0.060 A 
ATOM     31  C   UNL A   1      45.392  21.174  25.994  1.00  0.00     0.016 A 
ATOM     32  C   UNL A   1      44.597  21.976  23.846  1.00  0.00     0.016 A 
ATOM     33  C   UNL A   1      45.619  22.486  26.417  1.00  0.00     0.010 A 
ATOM     34  C   UNL A   1      44.824  23.287  24.276  1.00  0.00     0.010 A 
ATOM     35  C   UNL A   1      45.326  23.561  25.568  1.00  0.00    -0.014 A 
BRANCH  35  36
ATOM     36  C   UNL A   1      45.409  24.969  26.056  1.00  0.00     0.031 A 
ATOM     37  C   UNL A   1      46.737  25.676  25.974  1.00  0.00     0.074 A 
ATOM     38  C   UNL A   1      44.347  25.623  26.573  1.00  0.00     0.049 A 
ATOM     39  N   UNL A   1      47.082  26.860  26.412  1.00  0.00    -0.248 NA
ATOM     40  C   UNL A   1      47.835  24.929  25.339  1.00  0.00     0.031 C 
ATOM     41  C   UNL A   1      42.999  25.079  26.720  1.00  0.00     0.029 A 
ATOM     42  N   UNL A   1      44.243  26.899  27.080  1.00  0.00    -0.354 N 
ATOM     43  C   UNL A   1      48.438  26.978  26.135  1.00  0.00     0.074 A 
ATOM     44  C   UNL A   1      48.868  25.720  25.568  1.00  0.00     0.031 C 
ATOM     45  C   UNL A   1      42.202  26.012  27.272  1.00  0.00     0.029 A 
ATOM     46  C   UNL A   1      42.985  27.219  27.536  1.00  0.00     0.049 A 
ATOM     47  H   UNL A   1      45.000  27.526  27.113  1.00  0.00     0.167 HD
ATOM     48  C   UNL A   1      49.248  28.050  26.291  1.00  0.00     0.037 A 
ATOM     49  C   UNL A   1      42.516  28.352  28.100  1.00  0.00     0.037 A 
ATOM     50  C   UNL A   1      48.817  29.323  26.793  1.00  0.00     0.049 A 
ATOM     51  C   UNL A   1      43.439  29.532  28.286  1.00  0.00     0.074 A 
ATOM     52  C   UNL A   1      49.552  30.487  26.925  1.00  0.00     0.029 A 
ATOM     53  N   UNL A   1      47.534  29.602  27.240  1.00  0.00    -0.354 N 
ATOM     54  N   UNL A   1      44.705  29.649  27.967  1.00  0.00    -0.248 NA
ATOM     55  C   UNL A   1      42.867  30.739  28.903  1.00  0.00     0.031 C 
ATOM     56  C   UNL A   1      48.729  31.456  27.502  1.00  0.00     0.029 A 
ATOM     57  C   UNL A   1      47.465  30.915  27.673  1.00  0.00     0.049 A 
ATOM     58  H   UNL A   1      46.787  28.963  27.248  1.00  0.00     0.167 HD
ATOM     59  C   UNL A   1      45.072  30.944  28.317  1.00  0.00     0.074 A 
ATOM     60  C   UNL A   1      43.892  31.581  28.860  1.00  0.00     0.031 C 
ATOM     61  C   UNL A   1      46.281  31.547  28.200  1.00  0.00     0.037 A 
BRANCH  48  62
ATOM     62  C   UNL A   1      50.686  27.887  25.894  1.00  0.00     0.064 A 
ATOM     63  C   UNL A   1      51.098  27.987  24.556  1.00  0.00     0.173 A 
ATOM     64  C   UNL A   1      51.668  27.643  26.867  1.00  0.00     0.173 A 
ATOM     65  F   UNL A   1      50.196  28.202  23.586  1.00  0.00    -0.203 F 
ATOM     66  C   UNL A   1      52.432  27.807  24.201  1.00  0.00     0.198 A 
ATOM     67  C   UNL A   1      53.007  27.504  26.513  1.00  0.00     0.198 A 
ATOM     68  F   UNL A   1      51.330  27.544  28.161  1.00  0.00    -0.203 F 
ATOM     69  F   UNL A   1      52.789  27.838  22.910  1.00  0.00    -0.200 F 
ATOM     70  C   UNL A   1      53.386  27.575  25.180  1.00  0.00     0.200 A 
ATOM     71  F   UNL A   1      53.930  27.294  27.461  1.00  0.00    -0.200 F 
ATOM     72  F   UNL A   1      54.671  27.409  24.838  1.00  0.00    -0.200 F 
ENDBRANCH  48  62
BRANCH  49  73
ATOM     73  C   UNL A   1      41.083  28.447  28.499  1.00  0.00     0.064 A 
ATOM     74  C   UNL A   1      40.660  28.034  29.771  1.00  0.00     0.173 A 
ATOM     75  C   UNL A   1      40.109  28.951  27.623  1.00  0.00     0.173 A 
ATOM     76  F   UNL A   1      41.546  27.520  30.636  1.00  0.00    -0.203 F 
ATOM     77  C   UNL A   1      39.321  28.114  30.150  1.00  0.00     0.198 A 
ATOM     78  C   UNL A   1      38.773  29.055  28.012  1.00  0.00     0.198 A 
ATOM     79  F   UNL A   1      40.457  29.357  26.395  1.00  0.00    -0.203 F 
ATOM     80  F   UNL A   1      38.941  27.680  31.359  1.00  0.00    -0.200 F 
ATOM     81  C   UNL A   1      38.380  28.633  29.273  1.00  0.00     0.200 A 
ATOM     82  F   UNL A   1      37.869  29.569  27.167  1.00  0.00    -0.200 F 
ATOM     83  F   UNL A   1      37.094  28.724  29.642  1.00  0.00    -0.200 F 
ENDBRANCH  49  73
BRANCH  61  84
ATOM     84  C   UNL A   1      46.410  32.978  28.641  1.00  0.00     0.064 A 
ATOM     85  C   UNL A   1      46.822  33.312  29.938  1.00  0.00     0.173 A 
ATOM     86  C   UNL A   1      46.228  34.024  27.721  1.00  0.00     0.173 A 
ATOM     87  F   UNL A   1      47.001  32.352  30.858  1.00  0.00    -0.203 F 
ATOM     88  C   UNL A   1      47.046  34.639  30.299  1.00  0.00     0.198 A 
ATOM     89  C   UNL A   1      46.484  35.345  28.076  1.00  0.00     0.198 A 
ATOM     90  F   UNL A   1      45.844  33.758  26.463  1.00  0.00    -0.203 F 
ATOM     91  F   UNL A   1      47.418  34.936  31.552  1.00  0.00    -0.200 F 
ATOM     92  C   UNL A   1      46.891  35.652  29.365  1.00  0.00     0.200 A 
ATOM     93  F   UNL A   1      46.354  36.320  27.164  1.00  0.00    -0.200 F 
ATOM     94  F   UNL A   1      47.135  36.924  29.706  1.00  0.00    -0.200 F 
ENDBRANCH  61  84
ENDBRANCH  35  36
ENDBRANCH  28  30
ENDBRANCH  27  28
ENDBRANCH  26  27
ENDBRANCH  25  26
ENDBRANCH   1  25
TORSDOF 16
ENDMDL
MODEL 2
REMARK VINA RESULT:     -11.6      2.627      4.214
REMARK SMILES Cc1nn(C)c(=O)c(C(=O)N2CC[C@@H](C(=O)OCCOCCOC(=O)c3ccc(-c4c5nc(c(-c6c(F)c(F)c(F)c(F)c6F)c6ccc([nH]6)c(-c6c(F)c(F)c(F)c(F)c6F)c6nc(c(-c7c(F)c(F)c(F)c(F)c7F)c7ccc4[nH]7)C=C6)C=C5)cc3)[C@@H]2C)c1C
REMARK SMILES IDX 20 1 19 2 18 3 17 4 15 5 16 6 14 7 11 8 12 9 89 10 13 11
REMARK SMILES IDX 90 12 9 13 10 14 8 15 1 16 2 17 3 18 91 19 4 20 92 21 5 22
REMARK SMILES IDX 6 23 7 24 21 25 22 26 23 27 24 28 25 29 26 30 27 31 88 32
REMARK SMILES IDX 28 33 87 34 29 35 30 36 31 37 81 38 32 39 86 40 80 41 82 42
REMARK SMILES IDX 33 43 85 44 79 45 78 46 34 48 66 49 46 50 65 51 47 52 50 53
REMARK SMILES IDX 64 54 83 55 48 56 49 57 63 59 84 60 51 61 35 62 36 63 44 64
REMARK SMILES IDX 37 65 38 66 42 67 45 68 39 69 40 70 43 71 41 72 67 73 68 74
REMARK SMILES IDX 76 75 69 76 70 77 74 78 77 79 71 80 72 81 75 82 73 83 52 84
REMARK SMILES IDX 53 85 61 86 54 87 55 88 59 89 62 90 56 91 57 92 60 93 58 94
REMARK H PARENT 82 47 50 58
REMARK Flexibility Score: inf
ROOT
ATOM      1  O   UNL A   1      36.786  19.821  25.011  1.00  0.00    -0.374 OA
ENDROOT
BRANCH   1   2
ATOM      2  C   UNL A   1      35.687  20.720  25.147  1.00  0.00     0.202 C 
BRANCH   2   3
ATOM      3  C   UNL A   1      34.304  20.122  24.879  1.00  0.00     0.261 C 
BRANCH   3   4
ATOM      4  O   UNL A   1      33.380  20.476  25.928  1.00  0.00    -0.463 OA
BRANCH   4   5
ATOM      5  C   UNL A   1      33.590  21.667  26.542  1.00  0.00     0.311 C 
ATOM      6  O   UNL A   1      33.922  21.798  27.713  1.00  0.00    -0.252 OA
BRANCH   5   7
ATOM      7  C   UNL A   1      33.318  22.850  25.638  1.00  0.00     0.123 C 
ATOM      8  N   UNL A   1      32.091  24.887  25.866  1.00  0.00    -0.335 N 
ATOM      9  C   UNL A   1      33.463  25.236  25.560  1.00  0.00     0.121 C 
ATOM     10  C   UNL A   1      31.880  23.448  25.646  1.00  0.00     0.096 C 
ATOM     11  C   UNL A   1      34.241  24.014  26.003  1.00  0.00     0.039 C 
ATOM     12  C   UNL A   1      31.218  23.213  24.282  1.00  0.00     0.032 C 
BRANCH   8  13
ATOM     13  C   UNL A   1      31.206  25.915  26.125  1.00  0.00     0.260 C 
ATOM     14  O   UNL A   1      30.162  25.649  26.727  1.00  0.00    -0.269 OA
BRANCH  13  15
ATOM     15  C   UNL A   1      31.345  27.280  25.490  1.00  0.00     0.111 A 
ATOM     16  C   UNL A   1      30.048  29.506  22.708  1.00  0.00     0.069 C 
ATOM     17  C   UNL A   1      30.702  29.071  23.995  1.00  0.00     0.062 A 
ATOM     18  N   UNL A   1      31.093  30.026  24.764  1.00  0.00    -0.175 NA
ATOM     19  C   UNL A   1      30.777  27.613  24.310  1.00  0.00    -0.010 A 
ATOM     20  N   UNL A   1      31.642  29.693  25.958  1.00  0.00    -0.232 N 
ATOM     21  C   UNL A   1      30.104  26.723  23.315  1.00  0.00     0.047 C 
ATOM     22  C   UNL A   1      31.986  30.829  26.799  1.00  0.00     0.178 C 
ATOM     23  C   UNL A   1      31.896  28.386  26.363  1.00  0.00     0.279 A 
ATOM     24  O   UNL A   1      32.550  28.136  27.374  1.00  0.00    -0.267 OA
ENDBRANCH  13  15
ENDBRANCH   8  13
ENDBRANCH   5   7
ENDBRANCH   4   5
ENDBRANCH   3   4
ENDBRANCH   2   3
ENDBRANCH   1   2
BRANCH   1  25
ATOM     25  C   UNL A   1      38.087  20.402  24.977  1.00  0.00     0.202 C 
BRANCH  25  26
ATOM     26  C   UNL A   1      39.204  19.612  25.667  1.00  0.00     0.261 C 
BRANCH  26  27
ATOM     27  O   UNL A   1      40.382  20.406  25.895  1.00  0.00    -0.460 OA
BRANCH  27  28
ATOM     28  C   UNL A   1      40.751  20.509  27.195  1.00  0.00     0.338 C 
ATOM     29  O   UNL A   1      40.965  19.604  27.987  1.00  0.00    -0.246 OA
BRANCH  28  30
ATOM     30  C   UNL A   1      41.029  21.922  27.502  1.00  0.00     0.060 A 
ATOM     31  C   UNL A   1      40.386  22.911  26.745  1.00  0.00     0.016 A 
ATOM     32  C   UNL A   1      41.935  22.271  28.500  1.00  0.00     0.016 A 
ATOM     33  C   UNL A   1      40.652  24.261  26.982  1.00  0.00     0.010 A 
ATOM     34  C   UNL A   1      42.200  23.624  28.731  1.00  0.00     0.010 A 
ATOM     35  C   UNL A   1      41.572  24.637  27.970  1.00  0.00    -0.014 A 
BRANCH  35  36
ATOM     36  C   UNL A   1      41.989  26.061  28.129  1.00  0.00     0.031 A 
ATOM     37  C   UNL A   1      43.308  26.489  27.539  1.00  0.00     0.074 A 
ATOM     38  C   UNL A   1      41.237  26.969  28.786  1.00  0.00     0.049 A 
ATOM     39  N   UNL A   1      43.926  27.639  27.622  1.00  0.00    -0.248 NA
ATOM     40  C   UNL A   1      44.044  25.466  26.779  1.00  0.00     0.031 C 
ATOM     41  C   UNL A   1      39.941  26.713  29.411  1.00  0.00     0.029 A 
ATOM     42  N   UNL A   1      41.466  28.303  29.042  1.00  0.00    -0.354 N 
ATOM     43  C   UNL A   1      45.132  27.461  26.956  1.00  0.00     0.074 A 
ATOM     44  C   UNL A   1      45.193  26.076  26.548  1.00  0.00     0.031 C 
ATOM     45  C   UNL A   1      39.487  27.849  29.971  1.00  0.00     0.029 A 
ATOM     46  C   UNL A   1      40.466  28.914  29.762  1.00  0.00     0.049 A 
ATOM     47  H   UNL A   1      42.273  28.776  28.736  1.00  0.00     0.167 HD
ATOM     48  C   UNL A   1      46.086  28.375  26.664  1.00  0.00     0.037 A 
ATOM     49  C   UNL A   1      40.351  30.185  30.202  1.00  0.00     0.037 A 
ATOM     50  C   UNL A   1      46.005  29.765  27.009  1.00  0.00     0.049 A 
ATOM     51  C   UNL A   1      41.434  31.187  29.886  1.00  0.00     0.074 A 
ATOM     52  C   UNL A   1      46.893  30.779  26.698  1.00  0.00     0.029 A 
ATOM     53  N   UNL A   1      44.974  30.341  27.735  1.00  0.00    -0.354 N 
ATOM     54  N   UNL A   1      42.543  31.019  29.206  1.00  0.00    -0.248 NA
ATOM     55  C   UNL A   1      41.248  32.557  30.390  1.00  0.00     0.031 C 
ATOM     56  C   UNL A   1      46.427  31.959  27.281  1.00  0.00     0.029 A 
ATOM     57  C   UNL A   1      45.218  31.693  27.904  1.00  0.00     0.049 A 
ATOM     58  H   UNL A   1      44.188  29.860  28.078  1.00  0.00     0.167 HD
ATOM     59  C   UNL A   1      43.169  32.261  29.178  1.00  0.00     0.074 A 
ATOM     60  C   UNL A   1      42.312  33.178  29.896  1.00  0.00     0.031 C 
ATOM     61  C   UNL A   1      44.351  32.604  28.609  1.00  0.00     0.037 A 
BRANCH  48  62
ATOM     62  C   UNL A   1      47.295  27.891  25.918  1.00  0.00     0.064 A 
ATOM     63  C   UNL A   1      47.304  27.785  24.518  1.00  0.00     0.173 A 
ATOM     64  C   UNL A   1      48.465  27.544  26.610  1.00  0.00     0.173 A 
ATOM     65  F   UNL A   1      46.205  28.089  23.811  1.00  0.00    -0.203 F 
ATOM     66  C   UNL A   1      48.424  27.310  23.843  1.00  0.00     0.198 A 
ATOM     67  C   UNL A   1      49.597  27.107  25.929  1.00  0.00     0.198 A 
ATOM     68  F   UNL A   1      48.511  27.632  27.948  1.00  0.00    -0.203 F 
ATOM     69  F   UNL A   1      48.384  27.151  22.513  1.00  0.00    -0.200 F 
ATOM     70  C   UNL A   1      49.572  26.979  24.547  1.00  0.00     0.200 A 
ATOM     71  F   UNL A   1      50.710  26.802  26.609  1.00  0.00    -0.200 F 
ATOM     72  F   UNL A   1      50.652  26.528  23.895  1.00  0.00    -0.200 F 
ENDBRANCH  48  62
BRANCH  49  73
ATOM     73  C   UNL A   1      39.138  30.603  30.962  1.00  0.00     0.064 A 
ATOM     74  C   UNL A   1      39.082  30.471  32.357  1.00  0.00     0.173 A 
ATOM     75  C   UNL A   1      38.015  31.141  30.315  1.00  0.00     0.173 A 
ATOM     76  F   UNL A   1      40.117  29.937  33.021  1.00  0.00    -0.203 F 
ATOM     77  C   UNL A   1      37.949  30.853  33.075  1.00  0.00     0.198 A 
ATOM     78  C   UNL A   1      36.892  31.547  31.037  1.00  0.00     0.198 A 
ATOM     79  F   UNL A   1      38.014  31.286  28.983  1.00  0.00    -0.203 F 
ATOM     80  F   UNL A   1      37.910  30.683  34.403  1.00  0.00    -0.200 F 
ATOM     81  C   UNL A   1      36.858  31.399  32.415  1.00  0.00     0.200 A 
ATOM     82  F   UNL A   1      35.847  32.087  30.397  1.00  0.00    -0.200 F 
ATOM     83  F   UNL A   1      35.776  31.781  33.106  1.00  0.00    -0.200 F 
ENDBRANCH  49  73
BRANCH  61  84
ATOM     84  C   UNL A   1      44.800  34.035  28.707  1.00  0.00     0.064 A 
ATOM     85  C   UNL A   1      44.395  34.996  27.770  1.00  0.00     0.173 A 
ATOM     86  C   UNL A   1      45.548  34.471  29.813  1.00  0.00     0.173 A 
ATOM     87  F   UNL A   1      43.688  34.632  26.691  1.00  0.00    -0.203 F 
ATOM     88  C   UNL A   1      44.725  36.340  27.936  1.00  0.00     0.198 A 
ATOM     89  C   UNL A   1      45.847  35.819  29.992  1.00  0.00     0.198 A 
ATOM     90  F   UNL A   1      45.951  33.594  30.744  1.00  0.00    -0.203 F 
ATOM     91  F   UNL A   1      44.347  37.237  27.015  1.00  0.00    -0.200 F 
ATOM     92  C   UNL A   1      45.437  36.752  29.052  1.00  0.00     0.200 A 
ATOM     93  F   UNL A   1      46.517  36.217  31.083  1.00  0.00    -0.200 F 
ATOM     94  F   UNL A   1      45.727  38.048  29.224  1.00  0.00    -0.200 F 
ENDBRANCH  61  84
ENDBRANCH  35  36
ENDBRANCH  28  30
ENDBRANCH  27  28
ENDBRANCH  26  27
ENDBRANCH  25  26
ENDBRANCH   1  25
TORSDOF 16
ENDMDL
MODEL 3
REMARK VINA RESULT:     -11.6      0.940      2.157
REMARK SMILES Cc1nn(C)c(=O)c(C(=O)N2CC[C@@H](C(=O)OCCOCCOC(=O)c3ccc(-c4c5nc(c(-c6c(F)c(F)c(F)c(F)c6F)c6ccc([nH]6)c(-c6c(F)c(F)c(F)c(F)c6F)c6nc(c(-c7c(F)c(F)c(F)c(F)c7F)c7ccc4[nH]7)C=C6)C=C5)cc3)[C@@H]2C)c1C
REMARK SMILES IDX 20 1 19 2 18 3 17 4 15 5 16 6 14 7 11 8 12 9 89 10 13 11
REMARK SMILES IDX 90 12 9 13 10 14 8 15 1 16 2 17 3 18 91 19 4 20 92 21 5 22
REMARK SMILES IDX 6 23 7 24 21 25 22 26 23 27 24 28 25 29 26 30 27 31 88 32
REMARK SMILES IDX 28 33 87 34 29 35 30 36 31 37 81 38 32 39 86 40 80 41 82 42
REMARK SMILES IDX 33 43 85 44 79 45 78 46 34 48 66 49 46 50 65 51 47 52 50 53
REMARK SMILES IDX 64 54 83 55 48 56 49 57 63 59 84 60 51 61 35 62 36 63 44 64
REMARK SMILES IDX 37 65 38 66 42 67 45 68 39 69 40 70 43 71 41 72 67 73 68 74
REMARK SMILES IDX 76 75 69 76 70 77 74 78 77 79 71 80 72 81 75 82 73 83 52 84
REMARK SMILES IDX 53 85 61 86 54 87 55 88 59 89 62 90 56 91 57 92 60 93 58 94
REMARK H PARENT 82 47 50 58
REMARK Flexibility Score: inf
ROOT
ATOM      1  O   UNL A   1      41.659  20.527  26.211  1.00  0.00    -0.374 OA
ENDROOT
BRANCH   1   2
ATOM      2  C   UNL A   1      40.930  21.295  27.167  1.00  0.00     0.202 C 
BRANCH   2   3
ATOM      3  C   UNL A   1      40.026  22.386  26.590  1.00  0.00     0.261 C 
BRANCH   3   4
ATOM      4  O   UNL A   1      38.846  21.812  25.992  1.00  0.00    -0.463 OA
BRANCH   4   5
ATOM      5  C   UNL A   1      37.820  22.662  25.739  1.00  0.00     0.311 C 
ATOM      6  O   UNL A   1      37.627  23.716  26.331  1.00  0.00    -0.252 OA
BRANCH   5   7
ATOM      7  C   UNL A   1      36.885  22.151  24.665  1.00  0.00     0.123 C 
ATOM      8  N   UNL A   1      34.603  22.566  24.093  1.00  0.00    -0.335 N 
ATOM      9  C   UNL A   1      35.410  22.899  22.938  1.00  0.00     0.121 C 
ATOM     10  C   UNL A   1      35.416  21.837  25.078  1.00  0.00     0.096 C 
ATOM     11  C   UNL A   1      36.775  23.173  23.532  1.00  0.00     0.039 C 
ATOM     12  C   UNL A   1      35.161  20.328  24.962  1.00  0.00     0.032 C 
BRANCH   8  13
ATOM     13  C   UNL A   1      33.245  22.807  24.024  1.00  0.00     0.260 C 
ATOM     14  O   UNL A   1      32.680  22.654  22.937  1.00  0.00    -0.269 OA
BRANCH  13  15
ATOM     15  C   UNL A   1      32.485  23.481  25.143  1.00  0.00     0.111 A 
ATOM     16  C   UNL A   1      31.414  26.847  26.521  1.00  0.00     0.069 C 
ATOM     17  C   UNL A   1      31.454  25.362  26.263  1.00  0.00     0.062 A 
ATOM     18  N   UNL A   1      30.501  24.685  26.800  1.00  0.00    -0.175 NA
ATOM     19  C   UNL A   1      32.515  24.813  25.367  1.00  0.00    -0.010 A 
ATOM     20  N   UNL A   1      30.457  23.351  26.557  1.00  0.00    -0.232 N 
ATOM     21  C   UNL A   1      33.403  25.843  24.746  1.00  0.00     0.047 C 
ATOM     22  C   UNL A   1      29.308  22.672  27.137  1.00  0.00     0.178 C 
ATOM     23  C   UNL A   1      31.428  22.655  25.844  1.00  0.00     0.279 A 
ATOM     24  O   UNL A   1      31.441  21.426  25.795  1.00  0.00    -0.267 OA
ENDBRANCH  13  15
ENDBRANCH   8  13
ENDBRANCH   5   7
ENDBRANCH   4   5
ENDBRANCH   3   4
ENDBRANCH   2   3
ENDBRANCH   1   2
BRANCH   1  25
ATOM     25  C   UNL A   1      42.176  19.276  26.657  1.00  0.00     0.202 C 
BRANCH  25  26
ATOM     26  C   UNL A   1      43.162  18.572  25.717  1.00  0.00     0.261 C 
BRANCH  26  27
ATOM     27  O   UNL A   1      43.394  19.312  24.506  1.00  0.00    -0.460 OA
BRANCH  27  28
ATOM     28  C   UNL A   1      44.694  19.608  24.265  1.00  0.00     0.338 C 
ATOM     29  O   UNL A   1      45.523  18.924  23.685  1.00  0.00    -0.246 OA
BRANCH  28  30
ATOM     30  C   UNL A   1      44.950  21.000  24.673  1.00  0.00     0.060 A 
ATOM     31  C   UNL A   1      45.487  21.237  25.946  1.00  0.00     0.016 A 
ATOM     32  C   UNL A   1      44.638  22.061  23.827  1.00  0.00     0.016 A 
ATOM     33  C   UNL A   1      45.710  22.544  26.382  1.00  0.00     0.010 A 
ATOM     34  C   UNL A   1      44.860  23.368  24.271  1.00  0.00     0.010 A 
ATOM     35  C   UNL A   1      45.389  23.629  25.556  1.00  0.00    -0.014 A 
BRANCH  35  36
ATOM     36  C   UNL A   1      45.468  25.031  26.062  1.00  0.00     0.031 A 
ATOM     37  C   UNL A   1      46.796  25.739  25.996  1.00  0.00     0.074 A 
ATOM     38  C   UNL A   1      44.404  25.677  26.583  1.00  0.00     0.049 A 
ATOM     39  N   UNL A   1      47.139  26.917  26.451  1.00  0.00    -0.248 NA
ATOM     40  C   UNL A   1      47.898  25.001  25.356  1.00  0.00     0.031 C 
ATOM     41  C   UNL A   1      43.055  25.131  26.716  1.00  0.00     0.029 A 
ATOM     42  N   UNL A   1      44.296  26.947  27.106  1.00  0.00    -0.354 N 
ATOM     43  C   UNL A   1      48.496  27.039  26.181  1.00  0.00     0.074 A 
ATOM     44  C   UNL A   1      48.929  25.789  25.600  1.00  0.00     0.031 C 
ATOM     45  C   UNL A   1      42.256  26.057  27.276  1.00  0.00     0.029 A 
ATOM     46  C   UNL A   1      43.037  27.260  27.559  1.00  0.00     0.049 A 
ATOM     47  H   UNL A   1      45.054  27.574  27.150  1.00  0.00     0.167 HD
ATOM     48  C   UNL A   1      49.305  28.109  26.355  1.00  0.00     0.037 A 
ATOM     49  C   UNL A   1      42.564  28.386  28.136  1.00  0.00     0.037 A 
ATOM     50  C   UNL A   1      48.871  29.375  26.872  1.00  0.00     0.049 A 
ATOM     51  C   UNL A   1      43.486  29.564  28.341  1.00  0.00     0.074 A 
ATOM     52  C   UNL A   1      49.605  30.538  27.022  1.00  0.00     0.029 A 
ATOM     53  N   UNL A   1      47.586  29.649  27.316  1.00  0.00    -0.354 N 
ATOM     54  N   UNL A   1      44.754  29.685  28.030  1.00  0.00    -0.248 NA
ATOM     55  C   UNL A   1      42.911  30.763  28.971  1.00  0.00     0.031 C 
ATOM     56  C   UNL A   1      48.779  31.500  27.607  1.00  0.00     0.029 A 
ATOM     57  C   UNL A   1      47.514  30.956  27.765  1.00  0.00     0.049 A 
ATOM     58  H   UNL A   1      46.839  29.009  27.312  1.00  0.00     0.167 HD
ATOM     59  C   UNL A   1      45.118  30.976  28.398  1.00  0.00     0.074 A 
ATOM     60  C   UNL A   1      43.935  31.605  28.944  1.00  0.00     0.031 C 
ATOM     61  C   UNL A   1      46.328  31.580  28.295  1.00  0.00     0.037 A 
BRANCH  48  62
ATOM     62  C   UNL A   1      50.745  27.952  25.963  1.00  0.00     0.064 A 
ATOM     63  C   UNL A   1      51.164  28.070  24.628  1.00  0.00     0.173 A 
ATOM     64  C   UNL A   1      51.722  27.695  26.937  1.00  0.00     0.173 A 
ATOM     65  F   UNL A   1      50.266  28.299  23.657  1.00  0.00    -0.203 F 
ATOM     66  C   UNL A   1      52.499  27.896  24.277  1.00  0.00     0.198 A 
ATOM     67  C   UNL A   1      53.063  27.561  26.587  1.00  0.00     0.198 A 
ATOM     68  F   UNL A   1      51.378  27.578  28.227  1.00  0.00    -0.203 F 
ATOM     69  F   UNL A   1      52.862  27.944  22.989  1.00  0.00    -0.200 F 
ATOM     70  C   UNL A   1      53.448  27.650  25.257  1.00  0.00     0.200 A 
ATOM     71  F   UNL A   1      53.982  27.338  27.537  1.00  0.00    -0.200 F 
ATOM     72  F   UNL A   1      54.735  27.489  24.919  1.00  0.00    -0.200 F 
ENDBRANCH  48  62
BRANCH  49  73
ATOM     73  C   UNL A   1      41.129  28.475  28.529  1.00  0.00     0.064 A 
ATOM     74  C   UNL A   1      40.169  28.978  27.640  1.00  0.00     0.173 A 
ATOM     75  C   UNL A   1      40.688  28.061  29.796  1.00  0.00     0.173 A 
ATOM     76  F   UNL A   1      40.542  29.413  26.428  1.00  0.00    -0.203 F 
ATOM     77  C   UNL A   1      38.825  29.071  28.003  1.00  0.00     0.198 A 
ATOM     78  C   UNL A   1      39.340  28.130  30.148  1.00  0.00     0.198 A 
ATOM     79  F   UNL A   1      41.564  27.576  30.686  1.00  0.00    -0.203 F 
ATOM     80  F   UNL A   1      37.936  29.588  27.145  1.00  0.00    -0.200 F 
ATOM     81  C   UNL A   1      38.411  28.639  29.254  1.00  0.00     0.200 A 
ATOM     82  F   UNL A   1      38.942  27.699  31.352  1.00  0.00    -0.200 F 
ATOM     83  F   UNL A   1      37.117  28.713  29.597  1.00  0.00    -0.200 F 
ENDBRANCH  49  73
BRANCH  61  84
ATOM     84  C   UNL A   1      46.453  33.006  28.755  1.00  0.00     0.064 A 
ATOM     85  C   UNL A   1      46.189  34.080  27.894  1.00  0.00     0.173 A 
ATOM     86  C   UNL A   1      46.730  33.296  30.101  1.00  0.00     0.173 A 
ATOM     87  F   UNL A   1      45.928  33.859  26.597  1.00  0.00    -0.203 F 
ATOM     88  C   UNL A   1      46.199  35.392  28.363  1.00  0.00     0.198 A 
ATOM     89  C   UNL A   1      46.707  34.605  30.573  1.00  0.00     0.198 A 
ATOM     90  F   UNL A   1      46.980  32.304  30.968  1.00  0.00    -0.203 F 
ATOM     91  F   UNL A   1      45.966  36.405  27.518  1.00  0.00    -0.200 F 
ATOM     92  C   UNL A   1      46.443  35.652  29.704  1.00  0.00     0.200 A 
ATOM     93  F   UNL A   1      46.922  34.852  31.873  1.00  0.00    -0.200 F 
ATOM     94  F   UNL A   1      46.423  36.912  30.158  1.00  0.00    -0.200 F 
ENDBRANCH  61  84
ENDBRANCH  35  36
ENDBRANCH  28  30
ENDBRANCH  27  28
ENDBRANCH  26  27
ENDBRANCH  25  26
ENDBRANCH   1  25
TORSDOF 16
ENDMDL
