MODEL 1
REMARK VINA RESULT:     -12.2      0.000      0.000
REMARK SMILES Cc1cc(C(=O)OCCOCCOC(=O)c2ccc(-c3c4nc(c(-c5c(F)c(F)c(F)c(F)c5F)c5ccc([nH]5)c(-c5c(F)c(F)c(F)c(F)c5F)c5nc(c(-c6c(F)c(F)c(F)c(F)c6F)c6ccc3[nH]6)C=C5)C=C4)cc2)cc(S(=O)(=O)NNC(=O)c2c[nH]c3ccccc23)c1C
REMARK SMILES IDX 9 1 8 2 7 3 5 4 6 5 4 6 1 7 2 8 3 9 97 10 80 11 98 12 79 13
REMARK SMILES IDX 81 14 82 15 83 16 84 17 85 19 86 20 87 22 88 23 89 24 96 25
REMARK SMILES IDX 90 26 91 27 95 28 92 30 94 31 93 32 10 33 11 34 12 35 13 36
REMARK SMILES IDX 14 37 15 38 16 39 17 40 78 41 18 42 77 43 19 44 20 45 21 46
REMARK SMILES IDX 71 47 22 48 76 49 70 50 72 51 23 52 75 53 69 54 68 55 24 57
REMARK SMILES IDX 56 58 36 59 55 60 37 61 40 62 54 63 73 64 38 65 39 66 53 68
REMARK SMILES IDX 74 69 41 70 25 71 26 72 34 73 27 74 28 75 32 76 35 77 29 78
REMARK SMILES IDX 30 79 33 80 31 81 57 82 58 83 66 84 59 85 60 86 64 87 67 88
REMARK SMILES IDX 61 89 62 90 65 91 63 92 42 93 43 94 51 95 44 96 45 97 49 98
REMARK SMILES IDX 52 99 46 100 47 101 50 102 48 103
REMARK H PARENT 84 18 85 21 90 29 72 56 40 67
REMARK Flexibility Score: inf
ROOT
ATOM      1  C   UNL A   1      44.154  19.471  25.412  1.00  0.00     0.202 C 
ENDROOT
BRANCH   1   2
ATOM      2  C   UNL A   1      42.823  19.013  26.024  1.00  0.00     0.261 C 
BRANCH   2   3
ATOM      3  O   UNL A   1      41.759  19.958  25.850  1.00  0.00    -0.460 OA
BRANCH   3   4
ATOM      4  C   UNL A   1      41.599  20.829  26.882  1.00  0.00     0.338 C 
ATOM      5  O   UNL A   1      42.373  21.038  27.796  1.00  0.00    -0.246 OA
BRANCH   4   6
ATOM      6  C   UNL A   1      40.381  21.644  26.665  1.00  0.00     0.061 A 
ATOM      7  C   UNL A   1      39.149  25.157  27.396  1.00  0.00     0.044 C 
ATOM      8  C   UNL A   1      39.168  23.741  26.878  1.00  0.00    -0.046 A 
ATOM      9  C   UNL A   1      40.297  22.955  27.145  1.00  0.00     0.019 A 
ATOM     10  C   UNL A   1      38.112  23.196  26.104  1.00  0.00    -0.028 A 
ATOM     11  C   UNL A   1      38.160  21.822  25.728  1.00  0.00     0.088 A 
ATOM     12  C   UNL A   1      36.985  24.081  25.621  1.00  0.00     0.046 C 
ATOM     13  C   UNL A   1      39.303  21.061  25.981  1.00  0.00     0.037 A 
BRANCH  11  14
ATOM     14  S   UNL A   1      36.708  21.063  25.002  1.00  0.00     0.257 S 
ATOM     15  O   UNL A   1      36.366  21.851  23.830  1.00  0.00    -0.205 OA
ATOM     16  O   UNL A   1      36.974  19.648  24.917  1.00  0.00    -0.205 OA
BRANCH  14  17
ATOM     17  N   UNL A   1      35.404  21.210  26.090  1.00  0.00    -0.123 NA
ATOM     18  H   UNL A   1      35.573  22.053  26.640  1.00  0.00     0.167 HD
BRANCH  17  19
ATOM     19  N   UNL A   1      34.031  21.303  25.583  1.00  0.00    -0.273 N 
ATOM     20  C   UNL A   1      33.479  22.501  25.144  1.00  0.00     0.268 C 
ATOM     21  H   UNL A   1      33.481  20.487  25.552  1.00  0.00     0.186 HD
ATOM     22  O   UNL A   1      33.061  22.605  23.992  1.00  0.00    -0.268 OA
BRANCH  20  23
ATOM     23  C   UNL A   1      33.092  23.444  26.205  1.00  0.00     0.066 A 
ATOM     24  C   UNL A   1      32.128  23.237  27.178  1.00  0.00     0.097 A 
ATOM     25  C   UNL A   1      33.111  24.879  26.125  1.00  0.00     0.012 A 
ATOM     26  N   UNL A   1      31.147  24.141  26.865  1.00  0.00    -0.360 N 
ATOM     27  C   UNL A   1      31.788  25.260  26.383  1.00  0.00     0.046 A 
ATOM     28  C   UNL A   1      34.027  25.879  25.746  1.00  0.00     0.011 A 
ATOM     29  H   UNL A   1      30.176  24.016  26.965  1.00  0.00     0.166 HD
ATOM     30  C   UNL A   1      31.305  26.552  26.175  1.00  0.00     0.027 A 
ATOM     31  C   UNL A   1      33.585  27.210  25.666  1.00  0.00     0.001 A 
ATOM     32  C   UNL A   1      32.239  27.530  25.837  1.00  0.00     0.002 A 
ENDBRANCH  20  23
ENDBRANCH  17  19
ENDBRANCH  14  17
ENDBRANCH  11  14
ENDBRANCH   4   6
ENDBRANCH   3   4
ENDBRANCH   2   3
ENDBRANCH   1   2
BRANCH   1  33
ATOM     33  O   UNL A   1      44.124  20.339  24.284  1.00  0.00    -0.374 OA
BRANCH  33  34
ATOM     34  C   UNL A   1      44.625  21.665  24.427  1.00  0.00     0.202 C 
BRANCH  34  35
ATOM     35  C   UNL A   1      43.638  22.817  24.648  1.00  0.00     0.261 C 
BRANCH  35  36
ATOM     36  O   UNL A   1      44.237  24.120  24.555  1.00  0.00    -0.460 OA
BRANCH  36  37
ATOM     37  C   UNL A   1      44.943  24.485  25.655  1.00  0.00     0.338 C 
ATOM     38  O   UNL A   1      46.124  24.295  25.879  1.00  0.00    -0.246 OA
BRANCH  37  39
ATOM     39  C   UNL A   1      44.103  25.302  26.546  1.00  0.00     0.060 A 
ATOM     40  C   UNL A   1      44.281  26.690  26.518  1.00  0.00     0.016 A 
ATOM     41  C   UNL A   1      43.256  24.708  27.481  1.00  0.00     0.016 A 
ATOM     42  C   UNL A   1      43.635  27.492  27.457  1.00  0.00     0.010 A 
ATOM     43  C   UNL A   1      42.616  25.514  28.428  1.00  0.00     0.010 A 
ATOM     44  C   UNL A   1      42.827  26.905  28.440  1.00  0.00    -0.014 A 
BRANCH  44  45
ATOM     45  C   UNL A   1      42.301  27.734  29.551  1.00  0.00     0.031 A 
ATOM     46  C   UNL A   1      43.019  27.738  30.872  1.00  0.00     0.074 A 
ATOM     47  C   UNL A   1      41.204  28.492  29.373  1.00  0.00     0.049 A 
ATOM     48  N   UNL A   1      42.705  28.348  31.987  1.00  0.00    -0.248 NA
ATOM     49  C   UNL A   1      44.256  26.945  30.947  1.00  0.00     0.031 C 
ATOM     50  C   UNL A   1      40.448  28.600  28.128  1.00  0.00     0.029 A 
ATOM     51  N   UNL A   1      40.533  29.308  30.249  1.00  0.00    -0.354 N 
ATOM     52  C   UNL A   1      43.698  28.008  32.896  1.00  0.00     0.074 A 
ATOM     53  C   UNL A   1      44.609  27.114  32.213  1.00  0.00     0.031 C 
ATOM     54  C   UNL A   1      39.407  29.428  28.322  1.00  0.00     0.029 A 
ATOM     55  C   UNL A   1      39.405  29.878  29.713  1.00  0.00     0.049 A 
ATOM     56  H   UNL A   1      40.833  29.469  31.173  1.00  0.00     0.167 HD
ATOM     57  C   UNL A   1      43.841  28.414  34.180  1.00  0.00     0.037 A 
ATOM     58  C   UNL A   1      38.466  30.651  30.288  1.00  0.00     0.037 A 
ATOM     59  C   UNL A   1      42.935  29.308  34.853  1.00  0.00     0.049 A 
ATOM     60  C   UNL A   1      38.610  31.029  31.741  1.00  0.00     0.074 A 
ATOM     61  C   UNL A   1      43.006  29.798  36.145  1.00  0.00     0.029 A 
ATOM     62  N   UNL A   1      41.785  29.840  34.287  1.00  0.00    -0.354 N 
ATOM     63  N   UNL A   1      39.566  30.727  32.585  1.00  0.00    -0.248 NA
ATOM     64  C   UNL A   1      37.541  31.857  32.318  1.00  0.00     0.031 C 
ATOM     65  C   UNL A   1      41.871  30.581  36.380  1.00  0.00     0.029 A 
ATOM     66  C   UNL A   1      41.122  30.629  35.214  1.00  0.00     0.049 A 
ATOM     67  H   UNL A   1      41.485  29.681  33.363  1.00  0.00     0.167 HD
ATOM     68  C   UNL A   1      39.231  31.351  33.781  1.00  0.00     0.074 A 
ATOM     69  C   UNL A   1      37.992  32.060  33.549  1.00  0.00     0.031 C 
ATOM     70  C   UNL A   1      39.893  31.336  34.965  1.00  0.00     0.037 A 
BRANCH  57  71
ATOM     71  C   UNL A   1      45.011  27.878  34.955  1.00  0.00     0.064 A 
ATOM     72  C   UNL A   1      44.927  26.684  35.686  1.00  0.00     0.173 A 
ATOM     73  C   UNL A   1      46.244  28.546  34.929  1.00  0.00     0.173 A 
ATOM     74  F   UNL A   1      43.767  26.013  35.754  1.00  0.00    -0.203 F 
ATOM     75  C   UNL A   1      46.029  26.190  36.381  1.00  0.00     0.198 A 
ATOM     76  C   UNL A   1      47.352  28.033  35.600  1.00  0.00     0.198 A 
ATOM     77  F   UNL A   1      46.380  29.690  34.242  1.00  0.00    -0.203 F 
ATOM     78  F   UNL A   1      45.915  25.069  37.107  1.00  0.00    -0.200 F 
ATOM     79  C   UNL A   1      47.241  26.861  36.330  1.00  0.00     0.200 A 
ATOM     80  F   UNL A   1      48.526  28.677  35.539  1.00  0.00    -0.200 F 
ATOM     81  F   UNL A   1      48.304  26.378  36.990  1.00  0.00    -0.200 F 
ENDBRANCH  57  71
BRANCH  58  82
ATOM     82  C   UNL A   1      37.293  31.112  29.498  1.00  0.00     0.064 A 
ATOM     83  C   UNL A   1      36.255  30.233  29.163  1.00  0.00     0.173 A 
ATOM     84  C   UNL A   1      37.202  32.435  29.039  1.00  0.00     0.173 A 
ATOM     85  F   UNL A   1      36.308  28.952  29.557  1.00  0.00    -0.203 F 
ATOM     86  C   UNL A   1      35.180  30.653  28.382  1.00  0.00     0.198 A 
ATOM     87  C   UNL A   1      36.111  32.862  28.285  1.00  0.00     0.198 A 
ATOM     88  F   UNL A   1      38.170  33.316  29.331  1.00  0.00    -0.203 F 
ATOM     89  F   UNL A   1      34.227  29.779  28.033  1.00  0.00    -0.200 F 
ATOM     90  C   UNL A   1      35.107  31.968  27.948  1.00  0.00     0.200 A 
ATOM     91  F   UNL A   1      36.038  34.137  27.879  1.00  0.00    -0.200 F 
ATOM     92  F   UNL A   1      34.073  32.371  27.198  1.00  0.00    -0.200 F 
ENDBRANCH  58  82
BRANCH  70  93
ATOM     93  C   UNL A   1      39.309  32.141  36.091  1.00  0.00     0.064 A 
ATOM     94  C   UNL A   1      38.338  31.608  36.953  1.00  0.00     0.173 A 
ATOM     95  C   UNL A   1      39.760  33.446  36.339  1.00  0.00     0.173 A 
ATOM     96  F   UNL A   1      37.862  30.371  36.751  1.00  0.00    -0.203 F 
ATOM     97  C   UNL A   1      37.822  32.364  38.004  1.00  0.00     0.198 A 
ATOM     98  C   UNL A   1      39.266  34.186  37.410  1.00  0.00     0.198 A 
ATOM     99  F   UNL A   1      40.694  34.000  35.550  1.00  0.00    -0.203 F 
ATOM    100  F   UNL A   1      36.859  31.853  38.783  1.00  0.00    -0.200 F 
ATOM    101  C   UNL A   1      38.291  33.649  38.235  1.00  0.00     0.200 A 
ATOM    102  F   UNL A   1      39.732  35.422  37.641  1.00  0.00    -0.200 F 
ATOM    103  F   UNL A   1      37.800  34.370  39.252  1.00  0.00    -0.200 F 
ENDBRANCH  70  93
ENDBRANCH  44  45
ENDBRANCH  37  39
ENDBRANCH  36  37
ENDBRANCH  35  36
ENDBRANCH  34  35
ENDBRANCH  33  34
ENDBRANCH   1  33
TORSDOF 18
ENDMDL
MODEL 2
REMARK VINA RESULT:     -12.0      0.570      6.903
REMARK SMILES Cc1cc(C(=O)OCCOCCOC(=O)c2ccc(-c3c4nc(c(-c5c(F)c(F)c(F)c(F)c5F)c5ccc([nH]5)c(-c5c(F)c(F)c(F)c(F)c5F)c5nc(c(-c6c(F)c(F)c(F)c(F)c6F)c6ccc3[nH]6)C=C5)C=C4)cc2)cc(S(=O)(=O)NNC(=O)c2c[nH]c3ccccc23)c1C
REMARK SMILES IDX 9 1 8 2 7 3 5 4 6 5 4 6 1 7 2 8 3 9 97 10 80 11 98 12 79 13
REMARK SMILES IDX 81 14 82 15 83 16 84 17 85 19 86 20 87 22 88 23 89 24 96 25
REMARK SMILES IDX 90 26 91 27 95 28 92 30 94 31 93 32 10 33 11 34 12 35 13 36
REMARK SMILES IDX 14 37 15 38 16 39 17 40 78 41 18 42 77 43 19 44 20 45 21 46
REMARK SMILES IDX 71 47 22 48 76 49 70 50 72 51 23 52 75 53 69 54 68 55 24 57
REMARK SMILES IDX 56 58 36 59 55 60 37 61 40 62 54 63 73 64 38 65 39 66 53 68
REMARK SMILES IDX 74 69 41 70 25 71 26 72 34 73 27 74 28 75 32 76 35 77 29 78
REMARK SMILES IDX 30 79 33 80 31 81 57 82 58 83 66 84 59 85 60 86 64 87 67 88
REMARK SMILES IDX 61 89 62 90 65 91 63 92 42 93 43 94 51 95 44 96 45 97 49 98
REMARK SMILES IDX 52 99 46 100 47 101 50 102 48 103
REMARK H PARENT 84 18 85 21 90 29 72 56 40 67
REMARK Flexibility Score: inf
ROOT
ATOM      1  C   UNL A   1      44.721  19.452  25.158  1.00  0.00     0.202 C 
ENDROOT
BRANCH   1   2
ATOM      2  C   UNL A   1      43.307  18.888  25.361  1.00  0.00     0.261 C 
BRANCH   2   3
ATOM      3  O   UNL A   1      42.290  19.897  25.402  1.00  0.00    -0.460 OA
BRANCH   3   4
ATOM      4  C   UNL A   1      41.714  20.073  26.621  1.00  0.00     0.338 C 
ATOM      5  O   UNL A   1      42.114  19.657  27.691  1.00  0.00    -0.246 OA
BRANCH   4   6
ATOM      6  C   UNL A   1      40.569  21.006  26.505  1.00  0.00     0.061 A 
ATOM      7  C   UNL A   1      39.706  24.573  27.465  1.00  0.00     0.044 C 
ATOM      8  C   UNL A   1      39.569  23.191  26.879  1.00  0.00    -0.046 A 
ATOM      9  C   UNL A   1      40.631  22.292  27.052  1.00  0.00     0.019 A 
ATOM     10  C   UNL A   1      38.433  22.786  26.133  1.00  0.00    -0.028 A 
ATOM     11  C   UNL A   1      38.335  21.436  25.690  1.00  0.00     0.088 A 
ATOM     12  C   UNL A   1      37.374  23.795  25.750  1.00  0.00     0.046 C 
ATOM     13  C   UNL A   1      39.412  20.560  25.848  1.00  0.00     0.037 A 
BRANCH  11  14
ATOM     14  S   UNL A   1      36.787  20.851  25.000  1.00  0.00     0.257 S 
ATOM     15  O   UNL A   1      36.512  21.673  23.834  1.00  0.00    -0.205 OA
ATOM     16  O   UNL A   1      36.883  19.415  24.914  1.00  0.00    -0.205 OA
BRANCH  14  17
ATOM     17  N   UNL A   1      35.536  21.151  26.119  1.00  0.00    -0.123 NA
ATOM     18  H   UNL A   1      35.722  22.065  26.532  1.00  0.00     0.167 HD
BRANCH  17  19
ATOM     19  N   UNL A   1      34.139  21.165  25.672  1.00  0.00    -0.273 N 
ATOM     20  C   UNL A   1      33.521  22.314  25.194  1.00  0.00     0.268 C 
ATOM     21  H   UNL A   1      33.621  20.328  25.712  1.00  0.00     0.186 HD
ATOM     22  O   UNL A   1      33.048  22.338  24.060  1.00  0.00    -0.268 OA
BRANCH  20  23
ATOM     23  C   UNL A   1      33.144  23.301  26.220  1.00  0.00     0.066 A 
ATOM     24  C   UNL A   1      32.197  23.130  27.216  1.00  0.00     0.097 A 
ATOM     25  C   UNL A   1      33.152  24.730  26.076  1.00  0.00     0.012 A 
ATOM     26  N   UNL A   1      31.206  24.014  26.880  1.00  0.00    -0.360 N 
ATOM     27  C   UNL A   1      31.831  25.115  26.339  1.00  0.00     0.046 A 
ATOM     28  C   UNL A   1      34.055  25.719  25.639  1.00  0.00     0.011 A 
ATOM     29  H   UNL A   1      30.237  23.887  27.002  1.00  0.00     0.166 HD
ATOM     30  C   UNL A   1      31.336  26.393  26.083  1.00  0.00     0.027 A 
ATOM     31  C   UNL A   1      33.603  27.042  25.508  1.00  0.00     0.001 A 
ATOM     32  C   UNL A   1      32.258  27.361  25.687  1.00  0.00     0.002 A 
ENDBRANCH  20  23
ENDBRANCH  17  19
ENDBRANCH  14  17
ENDBRANCH  11  14
ENDBRANCH   4   6
ENDBRANCH   3   4
ENDBRANCH   2   3
ENDBRANCH   1   2
BRANCH   1  33
ATOM     33  O   UNL A   1      44.939  20.842  25.375  1.00  0.00    -0.374 OA
BRANCH  33  34
ATOM     34  C   UNL A   1      45.323  21.655  24.271  1.00  0.00     0.202 C 
BRANCH  34  35
ATOM     35  C   UNL A   1      44.855  23.115  24.219  1.00  0.00     0.261 C 
BRANCH  35  36
ATOM     36  O   UNL A   1      44.874  23.776  25.494  1.00  0.00    -0.460 OA
BRANCH  36  37
ATOM     37  C   UNL A   1      45.070  25.116  25.421  1.00  0.00     0.338 C 
ATOM     38  O   UNL A   1      45.761  25.726  24.626  1.00  0.00    -0.246 OA
BRANCH  37  39
ATOM     39  C   UNL A   1      44.199  25.808  26.384  1.00  0.00     0.060 A 
ATOM     40  C   UNL A   1      44.301  27.201  26.474  1.00  0.00     0.016 A 
ATOM     41  C   UNL A   1      43.396  25.091  27.272  1.00  0.00     0.016 A 
ATOM     42  C   UNL A   1      43.624  27.884  27.483  1.00  0.00     0.010 A 
ATOM     43  C   UNL A   1      42.725  25.778  28.289  1.00  0.00     0.010 A 
ATOM     44  C   UNL A   1      42.861  27.172  28.418  1.00  0.00    -0.014 A 
BRANCH  44  45
ATOM     45  C   UNL A   1      42.305  27.874  29.601  1.00  0.00     0.031 A 
ATOM     46  C   UNL A   1      40.996  28.602  29.477  1.00  0.00     0.074 A 
ATOM     47  C   UNL A   1      42.954  27.841  30.778  1.00  0.00     0.049 A 
ATOM     48  N   UNL A   1      40.356  29.319  30.366  1.00  0.00    -0.248 NA
ATOM     49  C   UNL A   1      40.317  28.512  28.175  1.00  0.00     0.031 C 
ATOM     50  C   UNL A   1      44.209  27.136  31.029  1.00  0.00     0.029 A 
ATOM     51  N   UNL A   1      42.648  28.425  31.981  1.00  0.00    -0.354 N 
ATOM     52  C   UNL A   1      39.207  29.771  29.731  1.00  0.00     0.074 A 
ATOM     53  C   UNL A   1      39.250  29.273  28.373  1.00  0.00     0.031 C 
ATOM     54  C   UNL A   1      44.573  27.337  32.306  1.00  0.00     0.029 A 
ATOM     55  C   UNL A   1      43.596  28.214  32.951  1.00  0.00     0.049 A 
ATOM     56  H   UNL A   1      41.826  28.946  32.134  1.00  0.00     0.167 HD
ATOM     57  C   UNL A   1      38.202  30.524  30.240  1.00  0.00     0.037 A 
ATOM     58  C   UNL A   1      43.678  28.696  34.205  1.00  0.00     0.037 A 
ATOM     59  C   UNL A   1      38.162  31.012  31.594  1.00  0.00     0.049 A 
ATOM     60  C   UNL A   1      42.583  29.593  34.724  1.00  0.00     0.074 A 
ATOM     61  C   UNL A   1      37.177  31.762  32.212  1.00  0.00     0.029 A 
ATOM     62  N   UNL A   1      39.157  30.803  32.538  1.00  0.00    -0.354 N 
ATOM     63  N   UNL A   1      41.487  29.992  34.127  1.00  0.00    -0.248 NA
ATOM     64  C   UNL A   1      42.740  30.105  36.093  1.00  0.00     0.031 C 
ATOM     65  C   UNL A   1      37.601  32.056  33.512  1.00  0.00     0.029 A 
ATOM     66  C   UNL A   1      38.823  31.437  33.725  1.00  0.00     0.049 A 
ATOM     67  H   UNL A   1      39.979  30.282  32.388  1.00  0.00     0.167 HD
ATOM     68  C   UNL A   1      40.809  30.775  35.054  1.00  0.00     0.074 A 
ATOM     69  C   UNL A   1      41.612  30.782  36.258  1.00  0.00     0.031 C 
ATOM     70  C   UNL A   1      39.628  31.429  34.919  1.00  0.00     0.037 A 
BRANCH  57  71
ATOM     71  C   UNL A   1      37.071  30.889  29.323  1.00  0.00     0.064 A 
ATOM     72  C   UNL A   1      36.079  29.962  28.969  1.00  0.00     0.173 A 
ATOM     73  C   UNL A   1      36.953  32.196  28.829  1.00  0.00     0.173 A 
ATOM     74  F   UNL A   1      36.151  28.695  29.405  1.00  0.00    -0.203 F 
ATOM     75  C   UNL A   1      35.023  30.325  28.136  1.00  0.00     0.198 A 
ATOM     76  C   UNL A   1      35.879  32.564  28.021  1.00  0.00     0.198 A 
ATOM     77  F   UNL A   1      37.871  33.123  29.141  1.00  0.00    -0.203 F 
ATOM     78  F   UNL A   1      34.109  29.412  27.777  1.00  0.00    -0.200 F 
ATOM     79  C   UNL A   1      34.921  31.627  27.670  1.00  0.00     0.200 A 
ATOM     80  F   UNL A   1      35.775  33.826  27.582  1.00  0.00    -0.200 F 
ATOM     81  F   UNL A   1      33.898  31.978  26.877  1.00  0.00    -0.200 F 
ENDBRANCH  57  71
BRANCH  58  82
ATOM     82  C   UNL A   1      44.847  28.355  35.059  1.00  0.00     0.064 A 
ATOM     83  C   UNL A   1      44.809  27.267  35.940  1.00  0.00     0.173 A 
ATOM     84  C   UNL A   1      46.018  29.129  35.028  1.00  0.00     0.173 A 
ATOM     85  F   UNL A   1      43.704  26.512  36.025  1.00  0.00    -0.203 F 
ATOM     86  C   UNL A   1      45.887  26.978  36.774  1.00  0.00     0.198 A 
ATOM     87  C   UNL A   1      47.107  28.820  35.839  1.00  0.00     0.198 A 
ATOM     88  F   UNL A   1      46.106  30.183  34.202  1.00  0.00    -0.203 F 
ATOM     89  F   UNL A   1      45.805  25.963  37.645  1.00  0.00    -0.200 F 
ATOM     90  C   UNL A   1      47.037  27.752  36.720  1.00  0.00     0.200 A 
ATOM     91  F   UNL A   1      48.221  29.563  35.773  1.00  0.00    -0.200 F 
ATOM     92  F   UNL A   1      48.074  27.472  37.520  1.00  0.00    -0.200 F 
ENDBRANCH  58  82
BRANCH  70  93
ATOM     93  C   UNL A   1      39.114  32.177  36.115  1.00  0.00     0.064 A 
ATOM     94  C   UNL A   1      38.228  31.587  37.030  1.00  0.00     0.173 A 
ATOM     95  C   UNL A   1      39.548  33.486  36.374  1.00  0.00     0.173 A 
ATOM     96  F   UNL A   1      37.771  30.344  36.821  1.00  0.00    -0.203 F 
ATOM     97  C   UNL A   1      37.776  32.291  38.144  1.00  0.00     0.198 A 
ATOM     98  C   UNL A   1      39.120  34.174  37.507  1.00  0.00     0.198 A 
ATOM     99  F   UNL A   1      40.402  34.094  35.536  1.00  0.00    -0.203 F 
ATOM    100  F   UNL A   1      36.892  31.726  38.977  1.00  0.00    -0.200 F 
ATOM    101  C   UNL A   1      38.228  33.580  38.385  1.00  0.00     0.200 A 
ATOM    102  F   UNL A   1      39.570  35.414  37.745  1.00  0.00    -0.200 F 
ATOM    103  F   UNL A   1      37.799  34.252  39.462  1.00  0.00    -0.200 F 
ENDBRANCH  70  93
ENDBRANCH  44  45
ENDBRANCH  37  39
ENDBRANCH  36  37
ENDBRANCH  35  36
ENDBRANCH  34  35
ENDBRANCH  33  34
ENDBRANCH   1  33
TORSDOF 18
ENDMDL
MODEL 3
REMARK VINA RESULT:     -11.8      3.594      9.033
REMARK SMILES Cc1cc(C(=O)OCCOCCOC(=O)c2ccc(-c3c4nc(c(-c5c(F)c(F)c(F)c(F)c5F)c5ccc([nH]5)c(-c5c(F)c(F)c(F)c(F)c5F)c5nc(c(-c6c(F)c(F)c(F)c(F)c6F)c6ccc3[nH]6)C=C5)C=C4)cc2)cc(S(=O)(=O)NNC(=O)c2c[nH]c3ccccc23)c1C
REMARK SMILES IDX 9 1 8 2 7 3 5 4 6 5 4 6 1 7 2 8 3 9 97 10 80 11 98 12 79 13
REMARK SMILES IDX 81 14 82 15 83 16 84 17 85 19 86 20 87 22 88 23 89 24 96 25
REMARK SMILES IDX 90 26 91 27 95 28 92 30 94 31 93 32 10 33 11 34 12 35 13 36
REMARK SMILES IDX 14 37 15 38 16 39 17 40 78 41 18 42 77 43 19 44 20 45 21 46
REMARK SMILES IDX 71 47 22 48 76 49 70 50 72 51 23 52 75 53 69 54 68 55 24 57
REMARK SMILES IDX 56 58 36 59 55 60 37 61 40 62 54 63 73 64 38 65 39 66 53 68
REMARK SMILES IDX 74 69 41 70 25 71 26 72 34 73 27 74 28 75 32 76 35 77 29 78
REMARK SMILES IDX 30 79 33 80 31 81 57 82 58 83 66 84 59 85 60 86 64 87 67 88
REMARK SMILES IDX 61 89 62 90 65 91 63 92 42 93 43 94 51 95 44 96 45 97 49 98
REMARK SMILES IDX 52 99 46 100 47 101 50 102 48 103
REMARK H PARENT 84 18 85 21 90 29 72 56 40 67
REMARK Flexibility Score: inf
ROOT
ATOM      1  C   UNL A   1      32.909  30.271  27.010  1.00  0.00     0.202 C 
ENDROOT
BRANCH   1   2
ATOM      2  C   UNL A   1      33.784  29.385  26.113  1.00  0.00     0.261 C 
BRANCH   2   3
ATOM      3  O   UNL A   1      33.643  29.671  24.715  1.00  0.00    -0.460 OA
BRANCH   3   4
ATOM      4  C   UNL A   1      33.507  28.575  23.922  1.00  0.00     0.338 C 
ATOM      5  O   UNL A   1      34.380  28.007  23.295  1.00  0.00    -0.246 OA
BRANCH   4   6
ATOM      6  C   UNL A   1      32.131  28.037  24.042  1.00  0.00     0.061 A 
ATOM      7  C   UNL A   1      28.625  28.934  22.907  1.00  0.00     0.044 C 
ATOM      8  C   UNL A   1      29.754  28.168  23.548  1.00  0.00    -0.046 A 
ATOM      9  C   UNL A   1      31.043  28.718  23.489  1.00  0.00     0.019 A 
ATOM     10  C   UNL A   1      29.567  26.906  24.167  1.00  0.00    -0.028 A 
ATOM     11  C   UNL A   1      30.664  26.286  24.831  1.00  0.00     0.088 A 
ATOM     12  C   UNL A   1      28.238  26.194  24.059  1.00  0.00     0.046 C 
ATOM     13  C   UNL A   1      31.946  26.835  24.741  1.00  0.00     0.037 A 
BRANCH  11  14
ATOM     14  S   UNL A   1      30.367  24.841  25.851  1.00  0.00     0.257 S 
ATOM     15  O   UNL A   1      29.228  25.155  26.697  1.00  0.00    -0.205 OA
ATOM     16  O   UNL A   1      30.371  23.700  24.969  1.00  0.00    -0.205 OA
BRANCH  14  17
ATOM     17  N   UNL A   1      31.701  24.612  26.887  1.00  0.00    -0.123 NA
ATOM     18  H   UNL A   1      31.404  24.901  27.819  1.00  0.00     0.167 HD
BRANCH  17  19
ATOM     19  N   UNL A   1      32.301  23.282  27.027  1.00  0.00    -0.273 N 
ATOM     20  C   UNL A   1      33.677  23.086  27.079  1.00  0.00     0.268 C 
ATOM     21  H   UNL A   1      31.708  22.498  27.087  1.00  0.00     0.186 HD
ATOM     22  O   UNL A   1      34.189  22.543  28.056  1.00  0.00    -0.268 OA
BRANCH  20  23
ATOM     23  C   UNL A   1      34.380  23.207  25.792  1.00  0.00     0.066 A 
ATOM     24  C   UNL A   1      35.353  24.140  25.471  1.00  0.00     0.097 A 
ATOM     25  C   UNL A   1      33.852  22.888  24.495  1.00  0.00     0.012 A 
ATOM     26  N   UNL A   1      34.755  24.921  24.519  1.00  0.00    -0.360 N 
ATOM     27  C   UNL A   1      33.955  24.084  23.773  1.00  0.00     0.046 A 
ATOM     28  C   UNL A   1      33.193  21.802  23.887  1.00  0.00     0.011 A 
ATOM     29  H   UNL A   1      34.873  25.890  24.391  1.00  0.00     0.166 HD
ATOM     30  C   UNL A   1      33.343  24.293  22.537  1.00  0.00     0.027 A 
ATOM     31  C   UNL A   1      32.690  21.955  22.585  1.00  0.00     0.001 A 
ATOM     32  C   UNL A   1      32.728  23.192  21.942  1.00  0.00     0.002 A 
ENDBRANCH  20  23
ENDBRANCH  17  19
ENDBRANCH  14  17
ENDBRANCH  11  14
ENDBRANCH   4   6
ENDBRANCH   3   4
ENDBRANCH   2   3
ENDBRANCH   1   2
BRANCH   1  33
ATOM     33  O   UNL A   1      31.679  30.765  26.492  1.00  0.00    -0.374 OA
BRANCH  33  34
ATOM     34  C   UNL A   1      31.326  32.122  26.741  1.00  0.00     0.202 C 
BRANCH  34  35
ATOM     35  C   UNL A   1      32.438  33.163  26.925  1.00  0.00     0.261 C 
BRANCH  35  36
ATOM     36  O   UNL A   1      32.420  33.811  28.206  1.00  0.00    -0.460 OA
BRANCH  36  37
ATOM     37  C   UNL A   1      33.524  34.555  28.467  1.00  0.00     0.338 C 
ATOM     38  O   UNL A   1      33.602  35.767  28.550  1.00  0.00    -0.246 OA
BRANCH  37  39
ATOM     39  C   UNL A   1      34.661  33.678  28.788  1.00  0.00     0.060 A 
ATOM     40  C   UNL A   1      34.394  32.491  29.481  1.00  0.00     0.016 A 
ATOM     41  C   UNL A   1      35.972  34.077  28.533  1.00  0.00     0.016 A 
ATOM     42  C   UNL A   1      35.447  31.712  29.956  1.00  0.00     0.010 A 
ATOM     43  C   UNL A   1      37.028  33.298  29.017  1.00  0.00     0.010 A 
ATOM     44  C   UNL A   1      36.770  32.130  29.758  1.00  0.00    -0.014 A 
BRANCH  44  45
ATOM     45  C   UNL A   1      37.878  31.407  30.429  1.00  0.00     0.031 A 
ATOM     46  C   UNL A   1      38.208  31.730  31.860  1.00  0.00     0.074 A 
ATOM     47  C   UNL A   1      38.567  30.459  29.771  1.00  0.00     0.049 A 
ATOM     48  N   UNL A   1      39.163  31.257  32.619  1.00  0.00    -0.248 NA
ATOM     49  C   UNL A   1      37.346  32.720  32.523  1.00  0.00     0.031 C 
ATOM     50  C   UNL A   1      38.313  30.032  28.397  1.00  0.00     0.029 A 
ATOM     51  N   UNL A   1      39.628  29.687  30.173  1.00  0.00    -0.354 N 
ATOM     52  C   UNL A   1      39.024  31.895  33.844  1.00  0.00     0.074 A 
ATOM     53  C   UNL A   1      37.911  32.811  33.719  1.00  0.00     0.031 C 
ATOM     54  C   UNL A   1      39.203  29.082  28.064  1.00  0.00     0.029 A 
ATOM     55  C   UNL A   1      40.110  28.860  29.189  1.00  0.00     0.049 A 
ATOM     56  H   UNL A   1      40.009  29.724  31.081  1.00  0.00     0.167 HD
ATOM     57  C   UNL A   1      39.752  31.723  34.973  1.00  0.00     0.037 A 
ATOM     58  C   UNL A   1      41.177  28.039  29.190  1.00  0.00     0.037 A 
ATOM     59  C   UNL A   1      40.855  30.806  35.093  1.00  0.00     0.049 A 
ATOM     60  C   UNL A   1      42.016  27.922  30.437  1.00  0.00     0.074 A 
ATOM     61  C   UNL A   1      41.642  30.542  36.201  1.00  0.00     0.029 A 
ATOM     62  N   UNL A   1      41.334  30.008  34.065  1.00  0.00    -0.354 N 
ATOM     63  N   UNL A   1      41.861  28.507  31.599  1.00  0.00    -0.248 NA
ATOM     64  C   UNL A   1      43.180  27.026  30.368  1.00  0.00     0.031 C 
ATOM     65  C   UNL A   1      42.631  29.626  35.828  1.00  0.00     0.029 A 
ATOM     66  C   UNL A   1      42.425  29.273  34.504  1.00  0.00     0.049 A 
ATOM     67  H   UNL A   1      40.955  29.968  33.157  1.00  0.00     0.167 HD
ATOM     68  C   UNL A   1      42.885  28.030  32.408  1.00  0.00     0.074 A 
ATOM     69  C   UNL A   1      43.647  27.096  31.608  1.00  0.00     0.031 C 
ATOM     70  C   UNL A   1      43.168  28.339  33.698  1.00  0.00     0.037 A 
BRANCH  57  71
ATOM     71  C   UNL A   1      39.397  32.561  36.167  1.00  0.00     0.064 A 
ATOM     72  C   UNL A   1      38.491  32.114  37.141  1.00  0.00     0.173 A 
ATOM     73  C   UNL A   1      40.005  33.811  36.363  1.00  0.00     0.173 A 
ATOM     74  F   UNL A   1      37.872  30.932  36.995  1.00  0.00    -0.203 F 
ATOM     75  C   UNL A   1      38.191  32.895  38.254  1.00  0.00     0.198 A 
ATOM     76  C   UNL A   1      39.726  34.576  37.492  1.00  0.00     0.198 A 
ATOM     77  F   UNL A   1      40.882  34.284  35.465  1.00  0.00    -0.203 F 
ATOM     78  F   UNL A   1      37.291  32.466  39.150  1.00  0.00    -0.200 F 
ATOM     79  C   UNL A   1      38.815  34.121  38.432  1.00  0.00     0.200 A 
ATOM     80  F   UNL A   1      40.340  35.754  37.669  1.00  0.00    -0.200 F 
ATOM     81  F   UNL A   1      38.533  34.868  39.510  1.00  0.00    -0.200 F 
ENDBRANCH  57  71
BRANCH  58  82
ATOM     82  C   UNL A   1      41.526  27.272  27.965  1.00  0.00     0.064 A 
ATOM     83  C   UNL A   1      40.967  26.012  27.714  1.00  0.00     0.173 A 
ATOM     84  C   UNL A   1      42.448  27.774  27.033  1.00  0.00     0.173 A 
ATOM     85  F   UNL A   1      40.101  25.478  28.588  1.00  0.00    -0.203 F 
ATOM     86  C   UNL A   1      41.332  25.273  26.591  1.00  0.00     0.198 A 
ATOM     87  C   UNL A   1      42.788  27.048  25.894  1.00  0.00     0.198 A 
ATOM     88  F   UNL A   1      43.014  28.975  27.226  1.00  0.00    -0.203 F 
ATOM     89  F   UNL A   1      40.822  24.049  26.402  1.00  0.00    -0.200 F 
ATOM     90  C   UNL A   1      42.239  25.794  25.679  1.00  0.00     0.200 A 
ATOM     91  F   UNL A   1      43.654  27.561  25.009  1.00  0.00    -0.200 F 
ATOM     92  F   UNL A   1      42.587  25.083  24.598  1.00  0.00    -0.200 F 
ENDBRANCH  58  82
BRANCH  70  93
ATOM     93  C   UNL A   1      44.330  27.634  34.337  1.00  0.00     0.064 A 
ATOM     94  C   UNL A   1      45.610  28.206  34.379  1.00  0.00     0.173 A 
ATOM     95  C   UNL A   1      44.149  26.387  34.956  1.00  0.00     0.173 A 
ATOM     96  F   UNL A   1      45.839  29.389  33.789  1.00  0.00    -0.203 F 
ATOM     97  C   UNL A   1      46.671  27.545  34.993  1.00  0.00     0.198 A 
ATOM     98  C   UNL A   1      45.204  25.744  35.598  1.00  0.00     0.198 A 
ATOM     99  F   UNL A   1      42.943  25.799  34.953  1.00  0.00    -0.203 F 
ATOM    100  F   UNL A   1      47.895  28.087  34.977  1.00  0.00    -0.200 F 
ATOM    101  C   UNL A   1      46.465  26.318  35.608  1.00  0.00     0.200 A 
ATOM    102  F   UNL A   1      44.999  24.566  36.205  1.00  0.00    -0.200 F 
ATOM    103  F   UNL A   1      47.485  25.687  36.206  1.00  0.00    -0.200 F 
ENDBRANCH  70  93
ENDBRANCH  44  45
ENDBRANCH  37  39
ENDBRANCH  36  37
ENDBRANCH  35  36
ENDBRANCH  34  35
ENDBRANCH  33  34
ENDBRANCH   1  33
TORSDOF 18
ENDMDL
