MODEL 1
REMARK VINA RESULT:     -10.6      0.000      0.000
REMARK SMILES CC[NH2+][C@]1(C(=O)OCCOCCOC(=O)c2ccc(-c3c4nc(c(-c5c(F)c(F)c(F)c(F)c5F)c5ccc([nH]5)c(-c5c(F)c(F)c(F)c(F)c5F)c5nc(c(-c6c(F)c(F)c(F)c(F)c6F)c6ccc3[nH]6)C=C5)C=C4)cc2)CCC[C@@H]([N@@H+](C)CC2CCCC2)C1
REMARK SMILES IDX 9 1 8 2 7 3 5 4 6 5 4 6 79 7 91 8 80 9 82 10 81 11 3 12 2 15
REMARK SMILES IDX 1 16 83 17 84 18 85 20 86 21 87 22 90 23 88 24 89 25 10 26
REMARK SMILES IDX 11 27 12 28 13 29 14 30 15 31 16 32 17 33 78 34 18 35 77 36
REMARK SMILES IDX 19 37 20 38 21 39 71 40 22 41 76 42 70 43 72 44 23 45 75 46
REMARK SMILES IDX 69 47 68 48 24 50 56 51 36 52 55 53 37 54 40 55 54 56 73 57
REMARK SMILES IDX 38 58 39 59 53 61 74 62 41 63 25 64 26 65 34 66 27 67 28 68
REMARK SMILES IDX 32 69 35 70 29 71 30 72 33 73 31 74 57 75 58 76 66 77 59 78
REMARK SMILES IDX 60 79 64 80 67 81 61 82 62 83 65 84 63 85 42 86 43 87 51 88
REMARK SMILES IDX 44 89 45 90 49 91 52 92 46 93 47 94 50 95 48 96
REMARK H PARENT 3 13 3 14 83 19 72 49 40 60
REMARK Flexibility Score: inf
ROOT
ATOM      1  C   UNL A   1      33.691  19.528  24.632  1.00  0.00     0.202 C 
ENDROOT
BRANCH   1   2
ATOM      2  C   UNL A   1      32.318  20.130  24.952  1.00  0.00     0.261 C 
BRANCH   2   3
ATOM      3  O   UNL A   1      32.088  21.395  24.300  1.00  0.00    -0.459 OA
BRANCH   3   4
ATOM      4  C   UNL A   1      31.847  22.449  25.139  1.00  0.00     0.368 C 
ATOM      5  O   UNL A   1      30.893  22.508  25.908  1.00  0.00    -0.245 OA
BRANCH   4   6
ATOM      6  C   UNL A   1      32.957  23.538  25.062  1.00  0.00     0.200 C 
ATOM      7  C   UNL A   1      33.025  24.048  23.609  1.00  0.00     0.081 C 
ATOM      8  C   UNL A   1      32.515  24.736  25.937  1.00  0.00     0.146 C 
ATOM      9  C   UNL A   1      34.072  25.136  23.428  1.00  0.00     0.013 C 
ATOM     10  C   UNL A   1      33.376  26.006  25.797  1.00  0.00     0.190 C 
ATOM     11  C   UNL A   1      33.934  26.305  24.396  1.00  0.00     0.065 C 
BRANCH   6  12
ATOM     12  N   UNL A   1      34.268  23.035  25.564  1.00  0.00    -0.332 N 
ATOM     13  H   UNL A   1      34.360  22.060  25.283  1.00  0.00     0.347 HD
ATOM     14  H   UNL A   1      34.977  23.647  25.159  1.00  0.00     0.347 HD
BRANCH  12  15
ATOM     15  C   UNL A   1      34.453  23.107  27.013  1.00  0.00     0.257 C 
ATOM     16  C   UNL A   1      34.109  21.760  27.630  1.00  0.00     0.071 C 
ENDBRANCH  12  15
ENDBRANCH   6  12
BRANCH  10  17
ATOM     17  N   UNL A   1      32.766  27.187  26.449  1.00  0.00    -0.334 N 
ATOM     18  C   UNL A   1      33.671  28.324  26.572  1.00  0.00     0.332 C 
ATOM     19  H   UNL A   1      32.628  26.767  27.369  1.00  0.00     0.348 HD
BRANCH  17  20
ATOM     20  C   UNL A   1      31.357  27.551  26.237  1.00  0.00     0.265 C 
BRANCH  20  21
ATOM     21  C   UNL A   1      30.712  27.942  24.881  1.00  0.00     0.044 C 
ATOM     22  C   UNL A   1      31.464  28.933  23.993  1.00  0.00     0.009 C 
ATOM     23  C   UNL A   1      30.281  26.790  23.963  1.00  0.00     0.009 C 
ATOM     24  C   UNL A   1      30.955  28.656  22.583  1.00  0.00     0.001 C 
ATOM     25  C   UNL A   1      30.724  27.156  22.550  1.00  0.00     0.001 C 
ENDBRANCH  20  21
ENDBRANCH  17  20
ENDBRANCH  10  17
ENDBRANCH   4   6
ENDBRANCH   3   4
ENDBRANCH   2   3
ENDBRANCH   1   2
BRANCH   1  26
ATOM     26  O   UNL A   1      34.800  20.423  24.577  1.00  0.00    -0.374 OA
BRANCH  26  27
ATOM     27  C   UNL A   1      36.058  19.902  25.003  1.00  0.00     0.202 C 
BRANCH  27  28
ATOM     28  C   UNL A   1      37.307  20.690  24.593  1.00  0.00     0.261 C 
BRANCH  28  29
ATOM     29  O   UNL A   1      37.728  21.599  25.627  1.00  0.00    -0.460 OA
BRANCH  29  30
ATOM     30  C   UNL A   1      38.978  21.375  26.096  1.00  0.00     0.338 C 
ATOM     31  O   UNL A   1      39.659  20.376  25.950  1.00  0.00    -0.246 OA
BRANCH  30  32
ATOM     32  C   UNL A   1      39.520  22.613  26.690  1.00  0.00     0.060 A 
ATOM     33  C   UNL A   1      38.994  23.825  26.229  1.00  0.00     0.016 A 
ATOM     34  C   UNL A   1      40.565  22.597  27.618  1.00  0.00     0.016 A 
ATOM     35  C   UNL A   1      39.553  25.030  26.643  1.00  0.00     0.010 A 
ATOM     36  C   UNL A   1      41.130  23.810  28.027  1.00  0.00     0.010 A 
ATOM     37  C   UNL A   1      40.653  25.028  27.509  1.00  0.00    -0.014 A 
BRANCH  37  38
ATOM     38  C   UNL A   1      41.400  26.289  27.733  1.00  0.00     0.031 A 
ATOM     39  C   UNL A   1      40.735  27.401  28.497  1.00  0.00     0.074 A 
ATOM     40  C   UNL A   1      42.669  26.423  27.310  1.00  0.00     0.049 A 
ATOM     41  N   UNL A   1      41.190  28.589  28.803  1.00  0.00    -0.248 NA
ATOM     42  C   UNL A   1      39.370  27.137  28.978  1.00  0.00     0.031 C 
ATOM     43  C   UNL A   1      43.434  25.398  26.604  1.00  0.00     0.029 A 
ATOM     44  N   UNL A   1      43.536  27.481  27.415  1.00  0.00    -0.354 N 
ATOM     45  C   UNL A   1      40.169  29.213  29.507  1.00  0.00     0.074 A 
ATOM     46  C   UNL A   1      39.058  28.288  29.553  1.00  0.00     0.031 C 
ATOM     47  C   UNL A   1      44.658  25.880  26.332  1.00  0.00     0.029 A 
ATOM     48  C   UNL A   1      44.751  27.256  26.818  1.00  0.00     0.049 A 
ATOM     49  H   UNL A   1      43.308  28.322  27.874  1.00  0.00     0.167 HD
ATOM     50  C   UNL A   1      40.163  30.443  30.075  1.00  0.00     0.037 A 
ATOM     51  C   UNL A   1      45.809  28.077  26.667  1.00  0.00     0.037 A 
ATOM     52  C   UNL A   1      41.270  31.362  30.027  1.00  0.00     0.049 A 
ATOM     53  C   UNL A   1      45.749  29.470  27.238  1.00  0.00     0.074 A 
ATOM     54  C   UNL A   1      41.372  32.623  30.584  1.00  0.00     0.029 A 
ATOM     55  N   UNL A   1      42.469  31.116  29.372  1.00  0.00    -0.354 N 
ATOM     56  N   UNL A   1      44.790  30.045  27.923  1.00  0.00    -0.248 NA
ATOM     57  C   UNL A   1      46.922  30.327  27.017  1.00  0.00     0.031 C 
ATOM     58  C   UNL A   1      42.611  33.163  30.221  1.00  0.00     0.029 A 
ATOM     59  C   UNL A   1      43.305  32.215  29.487  1.00  0.00     0.049 A 
ATOM     60  H   UNL A   1      42.693  30.283  28.897  1.00  0.00     0.167 HD
ATOM     61  C   UNL A   1      45.251  31.317  28.237  1.00  0.00     0.074 A 
ATOM     62  C   UNL A   1      46.584  31.424  27.679  1.00  0.00     0.031 C 
ATOM     63  C   UNL A   1      44.630  32.306  28.926  1.00  0.00     0.037 A 
BRANCH  50  64
ATOM     64  C   UNL A   1      38.905  30.877  30.769  1.00  0.00     0.064 A 
ATOM     65  C   UNL A   1      37.859  31.510  30.080  1.00  0.00     0.173 A 
ATOM     66  C   UNL A   1      38.736  30.641  32.143  1.00  0.00     0.173 A 
ATOM     67  F   UNL A   1      37.976  31.773  28.770  1.00  0.00    -0.203 F 
ATOM     68  C   UNL A   1      36.705  31.918  30.746  1.00  0.00     0.198 A 
ATOM     69  C   UNL A   1      37.568  31.022  32.798  1.00  0.00     0.198 A 
ATOM     70  F   UNL A   1      39.702  30.036  32.849  1.00  0.00    -0.203 F 
ATOM     71  F   UNL A   1      35.742  32.568  30.077  1.00  0.00    -0.200 F 
ATOM     72  C   UNL A   1      36.558  31.668  32.102  1.00  0.00     0.200 A 
ATOM     73  F   UNL A   1      37.422  30.768  34.106  1.00  0.00    -0.200 F 
ATOM     74  F   UNL A   1      35.446  32.058  32.740  1.00  0.00    -0.200 F 
ENDBRANCH  50  64
BRANCH  51  75
ATOM     75  C   UNL A   1      47.013  27.603  25.937  1.00  0.00     0.064 A 
ATOM     76  C   UNL A   1      48.103  27.048  26.623  1.00  0.00     0.173 A 
ATOM     77  C   UNL A   1      47.103  27.702  24.541  1.00  0.00     0.173 A 
ATOM     78  F   UNL A   1      48.075  26.956  27.960  1.00  0.00    -0.203 F 
ATOM     79  C   UNL A   1      49.241  26.622  25.940  1.00  0.00     0.198 A 
ATOM     80  C   UNL A   1      48.229  27.250  23.857  1.00  0.00     0.198 A 
ATOM     81  F   UNL A   1      46.089  28.228  23.839  1.00  0.00    -0.203 F 
ATOM     82  F   UNL A   1      50.284  26.133  26.623  1.00  0.00    -0.200 F 
ATOM     83  C   UNL A   1      49.300  26.717  24.558  1.00  0.00     0.200 A 
ATOM     84  F   UNL A   1      48.277  27.331  22.521  1.00  0.00    -0.200 F 
ATOM     85  F   UNL A   1      50.391  26.300  23.902  1.00  0.00    -0.200 F 
ENDBRANCH  51  75
BRANCH  63  86
ATOM     86  C   UNL A   1      45.395  33.580  29.145  1.00  0.00     0.064 A 
ATOM     87  C   UNL A   1      45.302  34.658  28.252  1.00  0.00     0.173 A 
ATOM     88  C   UNL A   1      46.199  33.739  30.283  1.00  0.00     0.173 A 
ATOM     89  F   UNL A   1      44.558  34.552  27.140  1.00  0.00    -0.203 F 
ATOM     90  C   UNL A   1      46.006  35.838  28.479  1.00  0.00     0.198 A 
ATOM     91  C   UNL A   1      46.876  34.931  30.524  1.00  0.00     0.198 A 
ATOM     92  F   UNL A   1      46.316  32.742  31.174  1.00  0.00    -0.203 F 
ATOM     93  F   UNL A   1      45.941  36.837  27.587  1.00  0.00    -0.200 F 
ATOM     94  C   UNL A   1      46.786  35.976  29.617  1.00  0.00     0.200 A 
ATOM     95  F   UNL A   1      47.618  35.068  31.632  1.00  0.00    -0.200 F 
ATOM     96  F   UNL A   1      47.457  37.115  29.837  1.00  0.00    -0.200 F 
ENDBRANCH  63  86
ENDBRANCH  37  38
ENDBRANCH  30  32
ENDBRANCH  29  30
ENDBRANCH  28  29
ENDBRANCH  27  28
ENDBRANCH  26  27
ENDBRANCH   1  26
TORSDOF 19
ENDMDL
MODEL 2
REMARK VINA RESULT:     -10.6      1.026      7.567
REMARK SMILES CC[NH2+][C@]1(C(=O)OCCOCCOC(=O)c2ccc(-c3c4nc(c(-c5c(F)c(F)c(F)c(F)c5F)c5ccc([nH]5)c(-c5c(F)c(F)c(F)c(F)c5F)c5nc(c(-c6c(F)c(F)c(F)c(F)c6F)c6ccc3[nH]6)C=C5)C=C4)cc2)CCC[C@@H]([N@@H+](C)CC2CCCC2)C1
REMARK SMILES IDX 9 1 8 2 7 3 5 4 6 5 4 6 79 7 91 8 80 9 82 10 81 11 3 12 2 15
REMARK SMILES IDX 1 16 83 17 84 18 85 20 86 21 87 22 90 23 88 24 89 25 10 26
REMARK SMILES IDX 11 27 12 28 13 29 14 30 15 31 16 32 17 33 78 34 18 35 77 36
REMARK SMILES IDX 19 37 20 38 21 39 71 40 22 41 76 42 70 43 72 44 23 45 75 46
REMARK SMILES IDX 69 47 68 48 24 50 56 51 36 52 55 53 37 54 40 55 54 56 73 57
REMARK SMILES IDX 38 58 39 59 53 61 74 62 41 63 25 64 26 65 34 66 27 67 28 68
REMARK SMILES IDX 32 69 35 70 29 71 30 72 33 73 31 74 57 75 58 76 66 77 59 78
REMARK SMILES IDX 60 79 64 80 67 81 61 82 62 83 65 84 63 85 42 86 43 87 51 88
REMARK SMILES IDX 44 89 45 90 49 91 52 92 46 93 47 94 50 95 48 96
REMARK H PARENT 3 13 3 14 83 19 72 49 40 60
REMARK Flexibility Score: inf
ROOT
ATOM      1  C   UNL A   1      34.185  21.422  26.496  1.00  0.00     0.202 C 
ENDROOT
BRANCH   1   2
ATOM      2  C   UNL A   1      33.683  22.460  27.507  1.00  0.00     0.261 C 
BRANCH   2   3
ATOM      3  O   UNL A   1      33.462  23.759  26.923  1.00  0.00    -0.459 OA
BRANCH   3   4
ATOM      4  C   UNL A   1      32.177  24.008  26.523  1.00  0.00     0.368 C 
ATOM      5  O   UNL A   1      31.187  23.748  27.199  1.00  0.00    -0.245 OA
BRANCH   4   6
ATOM      6  C   UNL A   1      32.111  24.726  25.143  1.00  0.00     0.200 C 
ATOM      7  C   UNL A   1      30.741  24.415  24.509  1.00  0.00     0.081 C 
ATOM      8  C   UNL A   1      32.150  26.253  25.396  1.00  0.00     0.146 C 
ATOM      9  C   UNL A   1      30.565  25.090  23.157  1.00  0.00     0.013 C 
ATOM     10  C   UNL A   1      31.857  27.132  24.165  1.00  0.00     0.190 C 
ATOM     11  C   UNL A   1      30.815  26.593  23.171  1.00  0.00     0.065 C 
BRANCH   6  12
ATOM     12  N   UNL A   1      33.257  24.356  24.265  1.00  0.00    -0.332 N 
ATOM     13  H   UNL A   1      33.277  25.008  23.481  1.00  0.00     0.347 HD
ATOM     14  H   UNL A   1      34.088  24.399  24.855  1.00  0.00     0.347 HD
BRANCH  12  15
ATOM     15  C   UNL A   1      33.217  22.999  23.720  1.00  0.00     0.257 C 
ATOM     16  C   UNL A   1      33.161  23.069  22.202  1.00  0.00     0.071 C 
ENDBRANCH  12  15
ENDBRANCH   6  12
BRANCH  10  17
ATOM     17  N   UNL A   1      31.654  28.557  24.512  1.00  0.00    -0.334 N 
ATOM     18  C   UNL A   1      30.450  29.138  23.931  1.00  0.00     0.332 C 
ATOM     19  H   UNL A   1      32.473  28.923  24.025  1.00  0.00     0.348 HD
BRANCH  17  20
ATOM     20  C   UNL A   1      32.012  29.093  25.834  1.00  0.00     0.265 C 
BRANCH  20  21
ATOM     21  C   UNL A   1      33.354  29.777  26.206  1.00  0.00     0.044 C 
ATOM     22  C   UNL A   1      33.334  30.830  27.313  1.00  0.00     0.009 C 
ATOM     23  C   UNL A   1      34.537  28.852  26.519  1.00  0.00     0.009 C 
ATOM     24  C   UNL A   1      34.760  30.857  27.852  1.00  0.00     0.001 C 
ATOM     25  C   UNL A   1      35.229  29.415  27.758  1.00  0.00     0.001 C 
ENDBRANCH  20  21
ENDBRANCH  17  20
ENDBRANCH  10  17
ENDBRANCH   4   6
ENDBRANCH   3   4
ENDBRANCH   2   3
ENDBRANCH   1   2
BRANCH   1  26
ATOM     26  O   UNL A   1      35.566  21.469  26.142  1.00  0.00    -0.374 OA
BRANCH  26  27
ATOM     27  C   UNL A   1      35.990  20.570  25.119  1.00  0.00     0.202 C 
BRANCH  27  28
ATOM     28  C   UNL A   1      37.502  20.424  24.910  1.00  0.00     0.261 C 
BRANCH  28  29
ATOM     29  O   UNL A   1      38.214  21.603  25.325  1.00  0.00    -0.460 OA
BRANCH  29  30
ATOM     30  C   UNL A   1      39.312  21.359  26.081  1.00  0.00     0.338 C 
ATOM     31  O   UNL A   1      39.975  20.338  26.120  1.00  0.00    -0.246 OA
BRANCH  30  32
ATOM     32  C   UNL A   1      39.741  22.598  26.758  1.00  0.00     0.060 A 
ATOM     33  C   UNL A   1      39.059  23.775  26.426  1.00  0.00     0.016 A 
ATOM     34  C   UNL A   1      40.825  22.627  27.639  1.00  0.00     0.016 A 
ATOM     35  C   UNL A   1      39.500  24.999  26.921  1.00  0.00     0.010 A 
ATOM     36  C   UNL A   1      41.270  23.859  28.130  1.00  0.00     0.010 A 
ATOM     37  C   UNL A   1      40.635  25.052  27.739  1.00  0.00    -0.014 A 
BRANCH  37  38
ATOM     38  C   UNL A   1      41.246  26.368  28.044  1.00  0.00     0.031 A 
ATOM     39  C   UNL A   1      42.653  26.639  27.587  1.00  0.00     0.074 A 
ATOM     40  C   UNL A   1      40.542  27.326  28.671  1.00  0.00     0.049 A 
ATOM     41  N   UNL A   1      43.390  27.708  27.748  1.00  0.00    -0.248 NA
ATOM     42  C   UNL A   1      43.319  25.554  26.848  1.00  0.00     0.031 C 
ATOM     43  C   UNL A   1      39.158  27.197  29.119  1.00  0.00     0.029 A 
ATOM     44  N   UNL A   1      40.902  28.598  29.041  1.00  0.00    -0.354 N 
ATOM     45  C   UNL A   1      44.604  27.424  27.136  1.00  0.00     0.074 A 
ATOM     46  C   UNL A   1      44.519  26.072  26.632  1.00  0.00     0.031 C 
ATOM     47  C   UNL A   1      38.783  28.345  29.709  1.00  0.00     0.029 A 
ATOM     48  C   UNL A   1      39.912  29.275  29.708  1.00  0.00     0.049 A 
ATOM     49  H   UNL A   1      41.785  28.987  28.846  1.00  0.00     0.167 HD
ATOM     50  C   UNL A   1      45.689  28.224  26.998  1.00  0.00     0.037 A 
ATOM     51  C   UNL A   1      39.926  30.500  30.270  1.00  0.00     0.037 A 
ATOM     52  C   UNL A   1      45.769  29.571  27.502  1.00  0.00     0.049 A 
ATOM     53  C   UNL A   1      41.171  31.342  30.172  1.00  0.00     0.074 A 
ATOM     54  C   UNL A   1      46.814  30.471  27.399  1.00  0.00     0.029 A 
ATOM     55  N   UNL A   1      44.763  30.207  28.214  1.00  0.00    -0.354 N 
ATOM     56  N   UNL A   1      42.307  31.077  29.573  1.00  0.00    -0.248 NA
ATOM     57  C   UNL A   1      41.135  32.657  30.828  1.00  0.00     0.031 C 
ATOM     58  C   UNL A   1      46.462  31.632  28.095  1.00  0.00     0.029 A 
ATOM     59  C   UNL A   1      45.174  31.478  28.583  1.00  0.00     0.049 A 
ATOM     60  H   UNL A   1      43.885  29.814  28.426  1.00  0.00     0.167 HD
ATOM     61  C   UNL A   1      43.108  32.197  29.755  1.00  0.00     0.074 A 
ATOM     62  C   UNL A   1      42.322  33.151  30.510  1.00  0.00     0.031 C 
ATOM     63  C   UNL A   1      44.378  32.417  29.333  1.00  0.00     0.037 A 
BRANCH  50  64
ATOM     64  C   UNL A   1      46.887  27.650  26.300  1.00  0.00     0.064 A 
ATOM     65  C   UNL A   1      47.040  27.730  24.907  1.00  0.00     0.173 A 
ATOM     66  C   UNL A   1      47.906  27.026  27.037  1.00  0.00     0.173 A 
ATOM     67  F   UNL A   1      46.089  28.303  24.155  1.00  0.00    -0.203 F 
ATOM     68  C   UNL A   1      48.153  27.179  24.276  1.00  0.00     0.198 A 
ATOM     69  C   UNL A   1      49.031  26.504  26.405  1.00  0.00     0.198 A 
ATOM     70  F   UNL A   1      47.812  26.926  28.371  1.00  0.00    -0.203 F 
ATOM     71  F   UNL A   1      48.252  27.220  22.940  1.00  0.00    -0.200 F 
ATOM     72  C   UNL A   1      49.150  26.572  25.025  1.00  0.00     0.200 A 
ATOM     73  F   UNL A   1      49.999  25.930  27.132  1.00  0.00    -0.200 F 
ATOM     74  F   UNL A   1      50.222  26.045  24.417  1.00  0.00    -0.200 F 
ENDBRANCH  50  64
BRANCH  51  75
ATOM     75  C   UNL A   1      38.721  31.000  30.981  1.00  0.00     0.064 A 
ATOM     76  C   UNL A   1      37.698  31.667  30.291  1.00  0.00     0.173 A 
ATOM     77  C   UNL A   1      38.569  30.829  32.364  1.00  0.00     0.173 A 
ATOM     78  F   UNL A   1      37.809  31.877  28.971  1.00  0.00    -0.203 F 
ATOM     79  C   UNL A   1      36.577  32.154  30.960  1.00  0.00     0.198 A 
ATOM     80  C   UNL A   1      37.435  31.291  33.028  1.00  0.00     0.198 A 
ATOM     81  F   UNL A   1      39.520  30.200  33.071  1.00  0.00    -0.203 F 
ATOM     82  F   UNL A   1      35.635  32.823  30.283  1.00  0.00    -0.200 F 
ATOM     83  C   UNL A   1      36.443  31.959  32.326  1.00  0.00     0.200 A 
ATOM     84  F   UNL A   1      37.304  31.090  34.346  1.00  0.00    -0.200 F 
ATOM     85  F   UNL A   1      35.362  32.421  32.969  1.00  0.00    -0.200 F 
ENDBRANCH  51  75
BRANCH  63  86
ATOM     86  C   UNL A   1      44.988  33.752  29.651  1.00  0.00     0.064 A 
ATOM     87  C   UNL A   1      45.725  33.966  30.825  1.00  0.00     0.173 A 
ATOM     88  C   UNL A   1      44.869  34.819  28.748  1.00  0.00     0.173 A 
ATOM     89  F   UNL A   1      45.857  32.982  31.728  1.00  0.00    -0.203 F 
ATOM     90  C   UNL A   1      46.297  35.206  31.095  1.00  0.00     0.198 A 
ATOM     91  C   UNL A   1      45.469  36.049  29.006  1.00  0.00     0.198 A 
ATOM     92  F   UNL A   1      44.182  34.666  27.606  1.00  0.00    -0.203 F 
ATOM     93  F   UNL A   1      46.955  35.403  32.247  1.00  0.00    -0.200 F 
ATOM     94  C   UNL A   1      46.175  36.244  30.183  1.00  0.00     0.200 A 
ATOM     95  F   UNL A   1      45.362  37.045  28.116  1.00  0.00    -0.200 F 
ATOM     96  F   UNL A   1      46.733  37.435  30.441  1.00  0.00    -0.200 F 
ENDBRANCH  63  86
ENDBRANCH  37  38
ENDBRANCH  30  32
ENDBRANCH  29  30
ENDBRANCH  28  29
ENDBRANCH  27  28
ENDBRANCH  26  27
ENDBRANCH   1  26
TORSDOF 19
ENDMDL
MODEL 3
REMARK VINA RESULT:     -10.5      5.014     10.291
REMARK SMILES CC[NH2+][C@]1(C(=O)OCCOCCOC(=O)c2ccc(-c3c4nc(c(-c5c(F)c(F)c(F)c(F)c5F)c5ccc([nH]5)c(-c5c(F)c(F)c(F)c(F)c5F)c5nc(c(-c6c(F)c(F)c(F)c(F)c6F)c6ccc3[nH]6)C=C5)C=C4)cc2)CCC[C@@H]([N@@H+](C)CC2CCCC2)C1
REMARK SMILES IDX 9 1 8 2 7 3 5 4 6 5 4 6 79 7 91 8 80 9 82 10 81 11 3 12 2 15
REMARK SMILES IDX 1 16 83 17 84 18 85 20 86 21 87 22 90 23 88 24 89 25 10 26
REMARK SMILES IDX 11 27 12 28 13 29 14 30 15 31 16 32 17 33 78 34 18 35 77 36
REMARK SMILES IDX 19 37 20 38 21 39 71 40 22 41 76 42 70 43 72 44 23 45 75 46
REMARK SMILES IDX 69 47 68 48 24 50 56 51 36 52 55 53 37 54 40 55 54 56 73 57
REMARK SMILES IDX 38 58 39 59 53 61 74 62 41 63 25 64 26 65 34 66 27 67 28 68
REMARK SMILES IDX 32 69 35 70 29 71 30 72 33 73 31 74 57 75 58 76 66 77 59 78
REMARK SMILES IDX 60 79 64 80 67 81 61 82 62 83 65 84 63 85 42 86 43 87 51 88
REMARK SMILES IDX 44 89 45 90 49 91 52 92 46 93 47 94 50 95 48 96
REMARK H PARENT 3 13 3 14 83 19 72 49 40 60
REMARK Flexibility Score: inf
ROOT
ATOM      1  C   UNL A   1      34.803  30.478  27.360  1.00  0.00     0.202 C 
ENDROOT
BRANCH   1   2
ATOM      2  C   UNL A   1      34.866  28.951  27.230  1.00  0.00     0.261 C 
BRANCH   2   3
ATOM      3  O   UNL A   1      34.085  28.443  26.131  1.00  0.00    -0.459 OA
BRANCH   3   4
ATOM      4  C   UNL A   1      33.006  27.678  26.485  1.00  0.00     0.368 C 
ATOM      5  O   UNL A   1      32.352  27.850  27.508  1.00  0.00    -0.245 OA
BRANCH   4   6
ATOM      6  C   UNL A   1      32.655  26.610  25.409  1.00  0.00     0.200 C 
ATOM      7  C   UNL A   1      33.808  26.564  24.388  1.00  0.00     0.081 C 
ATOM      8  C   UNL A   1      32.616  25.226  26.103  1.00  0.00     0.146 C 
ATOM      9  C   UNL A   1      33.573  25.530  23.297  1.00  0.00     0.013 C 
ATOM     10  C   UNL A   1      32.516  24.016  25.154  1.00  0.00     0.190 C 
ATOM     11  C   UNL A   1      33.267  24.131  23.817  1.00  0.00     0.065 C 
BRANCH   6  12
ATOM     12  N   UNL A   1      31.329  26.866  24.778  1.00  0.00    -0.332 N 
ATOM     13  H   UNL A   1      31.186  26.167  24.049  1.00  0.00     0.347 HD
ATOM     14  H   UNL A   1      30.645  26.817  25.532  1.00  0.00     0.347 HD
BRANCH  12  15
ATOM     15  C   UNL A   1      31.168  28.188  24.172  1.00  0.00     0.257 C 
ATOM     16  C   UNL A   1      29.991  28.159  23.209  1.00  0.00     0.071 C 
ENDBRANCH  12  15
ENDBRANCH   6  12
BRANCH  10  17
ATOM     17  N   UNL A   1      32.741  22.725  25.844  1.00  0.00    -0.334 N 
ATOM     18  C   UNL A   1      32.269  21.568  25.094  1.00  0.00     0.332 C 
ATOM     19  H   UNL A   1      32.116  22.893  26.632  1.00  0.00     0.348 HD
BRANCH  17  20
ATOM     20  C   UNL A   1      33.943  22.477  26.654  1.00  0.00     0.265 C 
BRANCH  20  21
ATOM     21  C   UNL A   1      35.393  22.356  26.119  1.00  0.00     0.044 C 
ATOM     22  C   UNL A   1      35.614  21.566  24.829  1.00  0.00     0.009 C 
ATOM     23  C   UNL A   1      36.182  23.662  25.958  1.00  0.00     0.009 C 
ATOM     24  C   UNL A   1      36.917  22.111  24.256  1.00  0.00     0.001 C 
ATOM     25  C   UNL A   1      36.903  23.586  24.615  1.00  0.00     0.001 C 
ENDBRANCH  20  21
ENDBRANCH  17  20
ENDBRANCH  10  17
ENDBRANCH   4   6
ENDBRANCH   3   4
ENDBRANCH   2   3
ENDBRANCH   1   2
BRANCH   1  26
ATOM     26  O   UNL A   1      33.667  31.030  28.022  1.00  0.00    -0.374 OA
BRANCH  26  27
ATOM     27  C   UNL A   1      32.579  31.428  27.189  1.00  0.00     0.202 C 
BRANCH  27  28
ATOM     28  C   UNL A   1      32.158  32.900  27.258  1.00  0.00     0.261 C 
BRANCH  28  29
ATOM     29  O   UNL A   1      33.294  33.775  27.374  1.00  0.00    -0.460 OA
BRANCH  29  30
ATOM     30  C   UNL A   1      33.261  34.598  28.450  1.00  0.00     0.338 C 
ATOM     31  O   UNL A   1      32.403  35.415  28.734  1.00  0.00    -0.246 OA
BRANCH  30  32
ATOM     32  C   UNL A   1      34.354  34.253  29.379  1.00  0.00     0.060 A 
ATOM     33  C   UNL A   1      35.664  34.441  28.922  1.00  0.00     0.016 A 
ATOM     34  C   UNL A   1      34.113  33.693  30.636  1.00  0.00     0.016 A 
ATOM     35  C   UNL A   1      36.740  34.009  29.691  1.00  0.00     0.010 A 
ATOM     36  C   UNL A   1      35.196  33.253  31.406  1.00  0.00     0.010 A 
ATOM     37  C   UNL A   1      36.510  33.371  30.917  1.00  0.00    -0.014 A 
BRANCH  37  38
ATOM     38  C   UNL A   1      37.634  32.686  31.598  1.00  0.00     0.031 A 
ATOM     39  C   UNL A   1      38.276  31.502  30.929  1.00  0.00     0.074 A 
ATOM     40  C   UNL A   1      38.109  33.141  32.770  1.00  0.00     0.049 A 
ATOM     41  N   UNL A   1      39.262  30.746  31.340  1.00  0.00    -0.248 NA
ATOM     42  C   UNL A   1      37.731  31.119  29.617  1.00  0.00     0.031 C 
ATOM     43  C   UNL A   1      37.601  34.306  33.490  1.00  0.00     0.029 A 
ATOM     44  N   UNL A   1      39.129  32.673  33.559  1.00  0.00    -0.354 N 
ATOM     45  C   UNL A   1      39.451  29.799  30.343  1.00  0.00     0.074 A 
ATOM     46  C   UNL A   1      38.457  30.051  29.323  1.00  0.00     0.031 C 
ATOM     47  C   UNL A   1      38.308  34.460  34.622  1.00  0.00     0.029 A 
ATOM     48  C   UNL A   1      39.298  33.387  34.719  1.00  0.00     0.049 A 
ATOM     49  H   UNL A   1      39.687  31.899  33.317  1.00  0.00     0.167 HD
ATOM     50  C   UNL A   1      40.378  28.813  30.278  1.00  0.00     0.037 A 
ATOM     51  C   UNL A   1      40.142  33.184  35.749  1.00  0.00     0.037 A 
ATOM     52  C   UNL A   1      41.366  28.564  31.296  1.00  0.00     0.049 A 
ATOM     53  C   UNL A   1      41.112  32.033  35.691  1.00  0.00     0.074 A 
ATOM     54  C   UNL A   1      42.361  27.604  31.318  1.00  0.00     0.029 A 
ATOM     55  N   UNL A   1      41.475  29.281  32.479  1.00  0.00    -0.354 N 
ATOM     56  N   UNL A   1      41.302  31.155  34.735  1.00  0.00    -0.248 NA
ATOM     57  C   UNL A   1      41.988  31.846  36.856  1.00  0.00     0.031 C 
ATOM     58  C   UNL A   1      43.037  27.703  32.539  1.00  0.00     0.029 A 
ATOM     59  C   UNL A   1      42.502  28.764  33.253  1.00  0.00     0.049 A 
ATOM     60  H   UNL A   1      40.907  30.044  32.732  1.00  0.00     0.167 HD
ATOM     61  C   UNL A   1      42.332  30.332  35.168  1.00  0.00     0.074 A 
ATOM     62  C   UNL A   1      42.738  30.823  36.470  1.00  0.00     0.031 C 
ATOM     63  C   UNL A   1      42.894  29.266  34.546  1.00  0.00     0.037 A 
BRANCH  50  64
ATOM     64  C   UNL A   1      40.345  27.911  29.079  1.00  0.00     0.064 A 
ATOM     65  C   UNL A   1      39.578  26.736  29.057  1.00  0.00     0.173 A 
ATOM     66  C   UNL A   1      41.079  28.236  27.927  1.00  0.00     0.173 A 
ATOM     67  F   UNL A   1      38.871  26.372  30.137  1.00  0.00    -0.203 F 
ATOM     68  C   UNL A   1      39.572  25.904  27.940  1.00  0.00     0.198 A 
ATOM     69  C   UNL A   1      41.045  27.418  26.801  1.00  0.00     0.198 A 
ATOM     70  F   UNL A   1      41.826  29.349  27.892  1.00  0.00    -0.203 F 
ATOM     71  F   UNL A   1      38.874  24.760  27.962  1.00  0.00    -0.200 F 
ATOM     72  C   UNL A   1      40.300  26.249  26.811  1.00  0.00     0.200 A 
ATOM     73  F   UNL A   1      41.739  27.760  25.706  1.00  0.00    -0.200 F 
ATOM     74  F   UNL A   1      40.290  25.450  25.735  1.00  0.00    -0.200 F 
ENDBRANCH  50  64
BRANCH  51  75
ATOM     75  C   UNL A   1      40.103  34.090  36.927  1.00  0.00     0.064 A 
ATOM     76  C   UNL A   1      39.257  33.828  38.013  1.00  0.00     0.173 A 
ATOM     77  C   UNL A   1      40.906  35.238  36.987  1.00  0.00     0.173 A 
ATOM     78  F   UNL A   1      38.452  32.756  37.990  1.00  0.00    -0.203 F 
ATOM     79  C   UNL A   1      39.205  34.688  39.108  1.00  0.00     0.198 A 
ATOM     80  C   UNL A   1      40.875  36.082  38.095  1.00  0.00     0.198 A 
ATOM     81  F   UNL A   1      41.731  35.535  35.973  1.00  0.00    -0.203 F 
ATOM     82  F   UNL A   1      38.358  34.436  40.115  1.00  0.00    -0.200 F 
ATOM     83  C   UNL A   1      40.020  35.810  39.152  1.00  0.00     0.200 A 
ATOM     84  F   UNL A   1      41.672  37.157  38.138  1.00  0.00    -0.200 F 
ATOM     85  F   UNL A   1      39.976  36.632  40.208  1.00  0.00    -0.200 F 
ENDBRANCH  51  75
BRANCH  63  86
ATOM     86  C   UNL A   1      44.030  28.577  35.247  1.00  0.00     0.064 A 
ATOM     87  C   UNL A   1      43.815  27.487  36.105  1.00  0.00     0.173 A 
ATOM     88  C   UNL A   1      45.353  28.986  35.026  1.00  0.00     0.173 A 
ATOM     89  F   UNL A   1      42.567  27.066  36.361  1.00  0.00    -0.203 F 
ATOM     90  C   UNL A   1      44.881  26.851  36.734  1.00  0.00     0.198 A 
ATOM     91  C   UNL A   1      46.419  28.328  35.633  1.00  0.00     0.198 A 
ATOM     92  F   UNL A   1      45.615  30.018  34.209  1.00  0.00    -0.203 F 
ATOM     93  F   UNL A   1      44.649  25.844  37.588  1.00  0.00    -0.200 F 
ATOM     94  C   UNL A   1      46.182  27.266  36.492  1.00  0.00     0.200 A 
ATOM     95  F   UNL A   1      47.677  28.721  35.386  1.00  0.00    -0.200 F 
ATOM     96  F   UNL A   1      47.208  26.647  37.094  1.00  0.00    -0.200 F 
ENDBRANCH  63  86
ENDBRANCH  37  38
ENDBRANCH  30  32
ENDBRANCH  29  30
ENDBRANCH  28  29
ENDBRANCH  27  28
ENDBRANCH  26  27
ENDBRANCH   1  26
TORSDOF 19
ENDMDL
