MODEL 1
REMARK VINA RESULT:     -12.0      0.000      0.000
REMARK SMILES CCN(C(=O)Cc1c(C(=O)OCCOCCOC(=O)c2ccc(-c3c4nc(c(-c5c(F)c(F)c(F)c(F)c5F)c5ccc([nH]5)c(-c5c(F)c(F)c(F)c(F)c5F)c5nc(c(-c6c(F)c(F)c(F)c(F)c6F)c6ccc3[nH]6)C=C5)C=C4)cc2)[nH]c2ccccc12)c1cccc(C)c1
REMARK SMILES IDX 13 1 12 2 11 3 9 4 10 5 8 6 7 7 89 8 83 9 84 10 88 11 85 13
REMARK SMILES IDX 87 14 86 15 6 16 4 17 5 18 3 19 2 20 1 21 90 22 91 23 96 24
REMARK SMILES IDX 92 25 94 26 93 27 95 28 14 29 15 30 16 31 17 32 18 33 19 34
REMARK SMILES IDX 20 35 21 36 82 37 22 38 81 39 23 40 24 41 25 42 75 43 26 44
REMARK SMILES IDX 80 45 74 46 76 47 27 48 79 49 73 50 72 51 28 53 60 54 40 55
REMARK SMILES IDX 59 56 41 57 44 58 58 59 77 60 42 61 43 62 57 64 78 65 45 66
REMARK SMILES IDX 29 67 30 68 38 69 31 70 32 71 36 72 39 73 33 74 34 75 37 76
REMARK SMILES IDX 35 77 61 78 62 79 70 80 63 81 64 82 68 83 71 84 65 85 66 86
REMARK SMILES IDX 69 87 67 88 46 89 47 90 55 91 48 92 49 93 53 94 56 95 50 96
REMARK SMILES IDX 51 97 54 98 52 99
REMARK H PARENT 83 12 76 52 44 63
REMARK Flexibility Score: inf
ROOT
ATOM      1  C   UNL A   1      32.946  29.569  27.104  1.00  0.00     0.202 C 
ENDROOT
BRANCH   1   2
ATOM      2  C   UNL A   1      33.538  28.362  26.373  1.00  0.00     0.261 C 
BRANCH   2   3
ATOM      3  O   UNL A   1      33.810  28.733  25.017  1.00  0.00    -0.459 OA
BRANCH   3   4
ATOM      4  C   UNL A   1      33.277  27.870  24.103  1.00  0.00     0.355 C 
ATOM      5  O   UNL A   1      33.846  26.912  23.617  1.00  0.00    -0.244 OA
BRANCH   4   6
ATOM      6  C   UNL A   1      31.913  28.251  23.852  1.00  0.00     0.129 A 
ATOM      7  C   UNL A   1      30.731  27.679  24.323  1.00  0.00     0.002 A 
ATOM      8  C   UNL A   1      29.667  28.331  23.600  1.00  0.00     0.004 A 
ATOM      9  N   UNL A   1      31.579  29.329  23.074  1.00  0.00    -0.349 N 
ATOM     10  C   UNL A   1      30.236  29.339  22.818  1.00  0.00     0.046 A 
ATOM     11  C   UNL A   1      28.272  28.142  23.502  1.00  0.00     0.010 A 
ATOM     12  H   UNL A   1      32.217  30.003  22.745  1.00  0.00     0.167 HD
ATOM     13  C   UNL A   1      29.506  30.154  21.947  1.00  0.00     0.027 A 
ATOM     14  C   UNL A   1      27.527  28.925  22.606  1.00  0.00     0.001 A 
ATOM     15  C   UNL A   1      28.137  29.915  21.840  1.00  0.00     0.002 A 
BRANCH   7  16
ATOM     16  C   UNL A   1      30.619  26.518  25.300  1.00  0.00     0.139 C 
BRANCH  16  17
ATOM     17  C   UNL A   1      30.821  25.117  24.675  1.00  0.00     0.231 C 
ATOM     18  O   UNL A   1      30.262  24.852  23.602  1.00  0.00    -0.274 OA
BRANCH  17  19
ATOM     19  N   UNL A   1      31.645  24.186  25.333  1.00  0.00    -0.312 N 
BRANCH  19  20
ATOM     20  C   UNL A   1      31.401  23.613  26.667  1.00  0.00     0.122 C 
ATOM     21  C   UNL A   1      30.002  23.048  26.843  1.00  0.00     0.028 C 
ENDBRANCH  19  20
BRANCH  19  22
ATOM     22  C   UNL A   1      32.901  23.815  24.754  1.00  0.00     0.044 A 
ATOM     23  C   UNL A   1      32.974  23.402  23.422  1.00  0.00     0.026 A 
ATOM     24  C   UNL A   1      34.087  23.960  25.486  1.00  0.00     0.029 A 
ATOM     25  C   UNL A   1      34.219  23.149  22.835  1.00  0.00     0.002 A 
ATOM     26  C   UNL A   1      35.336  23.662  24.922  1.00  0.00    -0.049 A 
ATOM     27  C   UNL A   1      35.393  23.274  23.582  1.00  0.00     0.003 A 
ATOM     28  C   UNL A   1      36.592  23.740  25.739  1.00  0.00     0.044 C 
ENDBRANCH  19  22
ENDBRANCH  17  19
ENDBRANCH  16  17
ENDBRANCH   7  16
ENDBRANCH   4   6
ENDBRANCH   3   4
ENDBRANCH   2   3
ENDBRANCH   1   2
BRANCH   1  29
ATOM     29  O   UNL A   1      32.758  30.689  26.238  1.00  0.00    -0.374 OA
BRANCH  29  30
ATOM     30  C   UNL A   1      31.692  31.578  26.606  1.00  0.00     0.202 C 
BRANCH  30  31
ATOM     31  C   UNL A   1      32.168  33.002  26.889  1.00  0.00     0.261 C 
BRANCH  31  32
ATOM     32  O   UNL A   1      33.055  32.949  28.014  1.00  0.00    -0.460 OA
BRANCH  32  33
ATOM     33  C   UNL A   1      34.164  33.712  27.912  1.00  0.00     0.338 C 
ATOM     34  O   UNL A   1      34.242  34.896  27.643  1.00  0.00    -0.246 OA
BRANCH  33  35
ATOM     35  C   UNL A   1      35.298  32.914  28.415  1.00  0.00     0.060 A 
ATOM     36  C   UNL A   1      35.057  31.568  28.719  1.00  0.00     0.016 A 
ATOM     37  C   UNL A   1      36.588  33.449  28.508  1.00  0.00     0.016 A 
ATOM     38  C   UNL A   1      36.100  30.759  29.158  1.00  0.00     0.010 A 
ATOM     39  C   UNL A   1      37.632  32.641  28.949  1.00  0.00     0.010 A 
ATOM     40  C   UNL A   1      37.378  31.307  29.308  1.00  0.00    -0.014 A 
BRANCH  40  41
ATOM     41  C   UNL A   1      38.415  30.564  30.050  1.00  0.00     0.031 A 
ATOM     42  C   UNL A   1      38.631  30.930  31.489  1.00  0.00     0.074 A 
ATOM     43  C   UNL A   1      39.153  29.622  29.442  1.00  0.00     0.049 A 
ATOM     44  N   UNL A   1      39.545  30.516  32.324  1.00  0.00    -0.248 NA
ATOM     45  C   UNL A   1      37.691  31.911  32.058  1.00  0.00     0.031 C 
ATOM     46  C   UNL A   1      38.996  29.188  28.056  1.00  0.00     0.029 A 
ATOM     47  N   UNL A   1      40.200  28.877  29.915  1.00  0.00    -0.354 N 
ATOM     48  C   UNL A   1      39.297  31.195  33.510  1.00  0.00     0.074 A 
ATOM     49  C   UNL A   1      38.168  32.067  33.282  1.00  0.00     0.031 C 
ATOM     50  C   UNL A   1      39.932  28.264  27.782  1.00  0.00     0.029 A 
ATOM     51  C   UNL A   1      40.767  28.066  28.964  1.00  0.00     0.049 A 
ATOM     52  H   UNL A   1      40.514  28.919  30.847  1.00  0.00     0.167 HD
ATOM     53  C   UNL A   1      39.958  31.093  34.685  1.00  0.00     0.037 A 
ATOM     54  C   UNL A   1      41.856  27.279  29.048  1.00  0.00     0.037 A 
ATOM     55  C   UNL A   1      41.086  30.226  34.889  1.00  0.00     0.049 A 
ATOM     56  C   UNL A   1      42.597  27.210  30.357  1.00  0.00     0.074 A 
ATOM     57  C   UNL A   1      41.835  30.030  36.034  1.00  0.00     0.029 A 
ATOM     58  N   UNL A   1      41.629  29.410  33.906  1.00  0.00    -0.354 N 
ATOM     59  N   UNL A   1      42.352  27.840  31.482  1.00  0.00    -0.248 NA
ATOM     60  C   UNL A   1      43.766  26.321  30.409  1.00  0.00     0.031 C 
ATOM     61  C   UNL A   1      42.854  29.120  35.733  1.00  0.00     0.029 A 
ATOM     62  C   UNL A   1      42.714  28.719  34.413  1.00  0.00     0.049 A 
ATOM     63  H   UNL A   1      41.292  29.335  32.984  1.00  0.00     0.167 HD
ATOM     64  C   UNL A   1      43.319  27.412  32.380  1.00  0.00     0.074 A 
ATOM     65  C   UNL A   1      44.147  26.456  31.672  1.00  0.00     0.031 C 
ATOM     66  C   UNL A   1      43.511  27.773  33.673  1.00  0.00     0.037 A 
BRANCH  53  67
ATOM     67  C   UNL A   1      39.488  31.960  35.814  1.00  0.00     0.064 A 
ATOM     68  C   UNL A   1      38.477  31.540  36.693  1.00  0.00     0.173 A 
ATOM     69  C   UNL A   1      40.043  33.232  36.011  1.00  0.00     0.173 A 
ATOM     70  F   UNL A   1      37.895  30.343  36.530  1.00  0.00    -0.203 F 
ATOM     71  C   UNL A   1      38.024  32.374  37.713  1.00  0.00     0.198 A 
ATOM     72  C   UNL A   1      39.605  34.053  37.048  1.00  0.00     0.198 A 
ATOM     73  F   UNL A   1      41.007  33.685  35.195  1.00  0.00    -0.203 F 
ATOM     74  F   UNL A   1      37.021  31.973  38.507  1.00  0.00    -0.200 F 
ATOM     75  C   UNL A   1      38.591  33.626  37.893  1.00  0.00     0.200 A 
ATOM     76  F   UNL A   1      40.157  35.261  37.223  1.00  0.00    -0.200 F 
ATOM     77  F   UNL A   1      38.152  34.428  38.872  1.00  0.00    -0.200 F 
ENDBRANCH  53  67
BRANCH  54  78
ATOM     78  C   UNL A   1      42.305  26.503  27.863  1.00  0.00     0.064 A 
ATOM     79  C   UNL A   1      41.792  25.226  27.598  1.00  0.00     0.173 A 
ATOM     80  C   UNL A   1      43.251  27.024  26.969  1.00  0.00     0.173 A 
ATOM     81  F   UNL A   1      40.900  24.677  28.436  1.00  0.00    -0.203 F 
ATOM     82  C   UNL A   1      42.217  24.494  26.491  1.00  0.00     0.198 A 
ATOM     83  C   UNL A   1      43.658  26.301  25.848  1.00  0.00     0.198 A 
ATOM     84  F   UNL A   1      43.772  28.242  27.175  1.00  0.00    -0.203 F 
ATOM     85  F   UNL A   1      41.736  23.261  26.282  1.00  0.00    -0.200 F 
ATOM     86  C   UNL A   1      43.145  25.034  25.613  1.00  0.00     0.200 A 
ATOM     87  F   UNL A   1      44.546  26.832  24.997  1.00  0.00    -0.200 F 
ATOM     88  F   UNL A   1      43.548  24.333  24.546  1.00  0.00    -0.200 F 
ENDBRANCH  54  78
BRANCH  66  89
ATOM     89  C   UNL A   1      44.644  27.113  34.400  1.00  0.00     0.064 A 
ATOM     90  C   UNL A   1      44.476  25.888  35.060  1.00  0.00     0.173 A 
ATOM     91  C   UNL A   1      45.919  27.697  34.400  1.00  0.00     0.173 A 
ATOM     92  F   UNL A   1      43.269  25.302  35.097  1.00  0.00    -0.203 F 
ATOM     93  C   UNL A   1      45.541  25.280  35.716  1.00  0.00     0.198 A 
ATOM     94  C   UNL A   1      46.988  27.073  35.035  1.00  0.00     0.198 A 
ATOM     95  F   UNL A   1      46.129  28.864  33.775  1.00  0.00    -0.203 F 
ATOM     96  F   UNL A   1      45.349  24.131  36.378  1.00  0.00    -0.200 F 
ATOM     97  C   UNL A   1      46.797  25.869  35.699  1.00  0.00     0.200 A 
ATOM     98  F   UNL A   1      48.203  27.637  35.008  1.00  0.00    -0.200 F 
ATOM     99  F   UNL A   1      47.823  25.280  36.328  1.00  0.00    -0.200 F 
ENDBRANCH  66  89
ENDBRANCH  40  41
ENDBRANCH  33  35
ENDBRANCH  32  33
ENDBRANCH  31  32
ENDBRANCH  30  31
ENDBRANCH  29  30
ENDBRANCH   1  29
TORSDOF 19
ENDMDL
MODEL 2
REMARK VINA RESULT:     -11.8      0.654      2.117
REMARK SMILES CCN(C(=O)Cc1c(C(=O)OCCOCCOC(=O)c2ccc(-c3c4nc(c(-c5c(F)c(F)c(F)c(F)c5F)c5ccc([nH]5)c(-c5c(F)c(F)c(F)c(F)c5F)c5nc(c(-c6c(F)c(F)c(F)c(F)c6F)c6ccc3[nH]6)C=C5)C=C4)cc2)[nH]c2ccccc12)c1cccc(C)c1
REMARK SMILES IDX 13 1 12 2 11 3 9 4 10 5 8 6 7 7 89 8 83 9 84 10 88 11 85 13
REMARK SMILES IDX 87 14 86 15 6 16 4 17 5 18 3 19 2 20 1 21 90 22 91 23 96 24
REMARK SMILES IDX 92 25 94 26 93 27 95 28 14 29 15 30 16 31 17 32 18 33 19 34
REMARK SMILES IDX 20 35 21 36 82 37 22 38 81 39 23 40 24 41 25 42 75 43 26 44
REMARK SMILES IDX 80 45 74 46 76 47 27 48 79 49 73 50 72 51 28 53 60 54 40 55
REMARK SMILES IDX 59 56 41 57 44 58 58 59 77 60 42 61 43 62 57 64 78 65 45 66
REMARK SMILES IDX 29 67 30 68 38 69 31 70 32 71 36 72 39 73 33 74 34 75 37 76
REMARK SMILES IDX 35 77 61 78 62 79 70 80 63 81 64 82 68 83 71 84 65 85 66 86
REMARK SMILES IDX 69 87 67 88 46 89 47 90 55 91 48 92 49 93 53 94 56 95 50 96
REMARK SMILES IDX 51 97 54 98 52 99
REMARK H PARENT 83 12 76 52 44 63
REMARK Flexibility Score: inf
ROOT
ATOM      1  C   UNL A   1      32.703  29.699  27.091  1.00  0.00     0.202 C 
ENDROOT
BRANCH   1   2
ATOM      2  C   UNL A   1      33.521  28.648  26.339  1.00  0.00     0.261 C 
BRANCH   2   3
ATOM      3  O   UNL A   1      33.803  29.139  25.024  1.00  0.00    -0.459 OA
BRANCH   3   4
ATOM      4  C   UNL A   1      33.345  28.321  24.031  1.00  0.00     0.355 C 
ATOM      5  O   UNL A   1      34.022  27.551  23.379  1.00  0.00    -0.244 OA
BRANCH   4   6
ATOM      6  C   UNL A   1      31.921  28.484  23.922  1.00  0.00     0.129 A 
ATOM      7  C   UNL A   1      30.908  27.530  24.026  1.00  0.00     0.002 A 
ATOM      8  C   UNL A   1      29.694  28.205  23.635  1.00  0.00     0.004 A 
ATOM      9  N   UNL A   1      31.331  29.704  23.711  1.00  0.00    -0.349 N 
ATOM     10  C   UNL A   1      30.002  29.551  23.428  1.00  0.00     0.046 A 
ATOM     11  C   UNL A   1      28.364  27.799  23.399  1.00  0.00     0.010 A 
ATOM     12  H   UNL A   1      31.799  30.569  23.755  1.00  0.00     0.167 HD
ATOM     13  C   UNL A   1      29.073  30.505  22.995  1.00  0.00     0.027 A 
ATOM     14  C   UNL A   1      27.426  28.731  22.929  1.00  0.00     0.001 A 
ATOM     15  C   UNL A   1      27.778  30.064  22.730  1.00  0.00     0.002 A 
BRANCH   7  16
ATOM     16  C   UNL A   1      31.090  26.056  24.355  1.00  0.00     0.139 C 
BRANCH  16  17
ATOM     17  C   UNL A   1      31.548  25.173  23.171  1.00  0.00     0.231 C 
ATOM     18  O   UNL A   1      31.494  25.634  22.022  1.00  0.00    -0.274 OA
BRANCH  17  19
ATOM     19  N   UNL A   1      32.029  23.877  23.429  1.00  0.00    -0.312 N 
BRANCH  19  20
ATOM     20  C   UNL A   1      31.397  22.622  22.991  1.00  0.00     0.122 C 
ATOM     21  C   UNL A   1      32.349  21.439  22.950  1.00  0.00     0.028 C 
ENDBRANCH  19  20
BRANCH  19  22
ATOM     22  C   UNL A   1      33.164  23.697  24.283  1.00  0.00     0.044 A 
ATOM     23  C   UNL A   1      34.437  24.086  23.863  1.00  0.00     0.026 A 
ATOM     24  C   UNL A   1      32.996  23.222  25.591  1.00  0.00     0.029 A 
ATOM     25  C   UNL A   1      35.520  24.009  24.747  1.00  0.00     0.002 A 
ATOM     26  C   UNL A   1      34.082  23.095  26.469  1.00  0.00    -0.049 A 
ATOM     27  C   UNL A   1      35.344  23.512  26.041  1.00  0.00     0.003 A 
ATOM     28  C   UNL A   1      33.905  22.509  27.838  1.00  0.00     0.044 C 
ENDBRANCH  19  22
ENDBRANCH  17  19
ENDBRANCH  16  17
ENDBRANCH   7  16
ENDBRANCH   4   6
ENDBRANCH   3   4
ENDBRANCH   2   3
ENDBRANCH   1   2
BRANCH   1  29
ATOM     29  O   UNL A   1      32.557  30.909  26.347  1.00  0.00    -0.374 OA
BRANCH  29  30
ATOM     30  C   UNL A   1      31.611  31.849  26.881  1.00  0.00     0.202 C 
BRANCH  30  31
ATOM     31  C   UNL A   1      32.185  33.257  27.030  1.00  0.00     0.261 C 
BRANCH  31  32
ATOM     32  O   UNL A   1      33.088  33.245  28.143  1.00  0.00    -0.460 OA
BRANCH  32  33
ATOM     33  C   UNL A   1      34.223  33.958  27.974  1.00  0.00     0.338 C 
ATOM     34  O   UNL A   1      34.338  35.128  27.662  1.00  0.00    -0.246 OA
BRANCH  33  35
ATOM     35  C   UNL A   1      35.341  33.129  28.464  1.00  0.00     0.060 A 
ATOM     36  C   UNL A   1      35.061  31.799  28.804  1.00  0.00     0.016 A 
ATOM     37  C   UNL A   1      36.652  33.619  28.510  1.00  0.00     0.016 A 
ATOM     38  C   UNL A   1      36.086  30.963  29.233  1.00  0.00     0.010 A 
ATOM     39  C   UNL A   1      37.677  32.783  28.941  1.00  0.00     0.010 A 
ATOM     40  C   UNL A   1      37.387  31.468  29.336  1.00  0.00    -0.014 A 
BRANCH  40  41
ATOM     41  C   UNL A   1      38.416  30.703  30.065  1.00  0.00     0.031 A 
ATOM     42  C   UNL A   1      38.627  31.035  31.513  1.00  0.00     0.074 A 
ATOM     43  C   UNL A   1      39.154  29.772  29.441  1.00  0.00     0.049 A 
ATOM     44  N   UNL A   1      39.535  30.599  32.344  1.00  0.00    -0.248 NA
ATOM     45  C   UNL A   1      37.688  32.008  32.100  1.00  0.00     0.031 C 
ATOM     46  C   UNL A   1      39.001  29.370  28.044  1.00  0.00     0.029 A 
ATOM     47  N   UNL A   1      40.195  29.011  29.901  1.00  0.00    -0.354 N 
ATOM     48  C   UNL A   1      39.284  31.252  33.543  1.00  0.00     0.074 A 
ATOM     49  C   UNL A   1      38.160  32.133  33.330  1.00  0.00     0.031 C 
ATOM     50  C   UNL A   1      39.935  28.448  27.753  1.00  0.00     0.029 A 
ATOM     51  C   UNL A   1      40.763  28.220  28.935  1.00  0.00     0.049 A 
ATOM     52  H   UNL A   1      40.505  29.031  30.835  1.00  0.00     0.167 HD
ATOM     53  C   UNL A   1      39.940  31.120  34.719  1.00  0.00     0.037 A 
ATOM     54  C   UNL A   1      41.848  27.426  29.006  1.00  0.00     0.037 A 
ATOM     55  C   UNL A   1      41.062  30.244  34.908  1.00  0.00     0.049 A 
ATOM     56  C   UNL A   1      42.583  27.325  30.316  1.00  0.00     0.074 A 
ATOM     57  C   UNL A   1      41.805  30.019  36.052  1.00  0.00     0.029 A 
ATOM     58  N   UNL A   1      41.606  29.448  33.910  1.00  0.00    -0.354 N 
ATOM     59  N   UNL A   1      42.335  27.930  31.454  1.00  0.00    -0.248 NA
ATOM     60  C   UNL A   1      43.747  26.429  30.354  1.00  0.00     0.031 C 
ATOM     61  C   UNL A   1      42.822  29.111  35.736  1.00  0.00     0.029 A 
ATOM     62  C   UNL A   1      42.686  28.740  34.406  1.00  0.00     0.049 A 
ATOM     63  H   UNL A   1      41.274  29.395  32.985  1.00  0.00     0.167 HD
ATOM     64  C   UNL A   1      43.295  27.477  32.348  1.00  0.00     0.074 A 
ATOM     65  C   UNL A   1      44.123  26.533  31.622  1.00  0.00     0.031 C 
ATOM     66  C   UNL A   1      43.483  27.808  33.649  1.00  0.00     0.037 A 
BRANCH  53  67
ATOM     67  C   UNL A   1      39.467  31.964  35.865  1.00  0.00     0.064 A 
ATOM     68  C   UNL A   1      40.041  33.215  36.144  1.00  0.00     0.173 A 
ATOM     69  C   UNL A   1      38.439  31.512  36.703  1.00  0.00     0.173 A 
ATOM     70  F   UNL A   1      41.047  33.680  35.387  1.00  0.00    -0.203 F 
ATOM     71  C   UNL A   1      39.618  33.969  37.235  1.00  0.00     0.198 A 
ATOM     72  C   UNL A   1      38.000  32.281  37.779  1.00  0.00     0.198 A 
ATOM     73  F   UNL A   1      37.861  30.321  36.485  1.00  0.00    -0.203 F 
ATOM     74  F   UNL A   1      40.217  35.136  37.513  1.00  0.00    -0.200 F 
ATOM     75  C   UNL A   1      38.595  33.505  38.048  1.00  0.00     0.200 A 
ATOM     76  F   UNL A   1      37.009  31.833  38.561  1.00  0.00    -0.200 F 
ATOM     77  F   UNL A   1      38.191  34.230  39.099  1.00  0.00    -0.200 F 
ENDBRANCH  53  67
BRANCH  54  78
ATOM     78  C   UNL A   1      42.299  26.675  27.806  1.00  0.00     0.064 A 
ATOM     79  C   UNL A   1      43.225  27.229  26.913  1.00  0.00     0.173 A 
ATOM     80  C   UNL A   1      41.819  25.386  27.531  1.00  0.00     0.173 A 
ATOM     81  F   UNL A   1      43.697  28.467  27.122  1.00  0.00    -0.203 F 
ATOM     82  C   UNL A   1      43.644  26.530  25.783  1.00  0.00     0.198 A 
ATOM     83  C   UNL A   1      42.257  24.677  26.414  1.00  0.00     0.198 A 
ATOM     84  F   UNL A   1      40.933  24.808  28.356  1.00  0.00    -0.203 F 
ATOM     85  F   UNL A   1      44.504  27.098  24.926  1.00  0.00    -0.200 F 
ATOM     86  C   UNL A   1      43.165  25.251  25.538  1.00  0.00     0.200 A 
ATOM     87  F   UNL A   1      41.800  23.438  26.188  1.00  0.00    -0.200 F 
ATOM     88  F   UNL A   1      43.574  24.576  24.455  1.00  0.00    -0.200 F 
ENDBRANCH  54  78
BRANCH  66  89
ATOM     89  C   UNL A   1      44.609  27.127  34.366  1.00  0.00     0.064 A 
ATOM     90  C   UNL A   1      45.886  27.699  34.435  1.00  0.00     0.173 A 
ATOM     91  C   UNL A   1      44.392  25.907  35.025  1.00  0.00     0.173 A 
ATOM     92  F   UNL A   1      46.141  28.856  33.807  1.00  0.00    -0.203 F 
ATOM     93  C   UNL A   1      46.916  27.061  35.119  1.00  0.00     0.198 A 
ATOM     94  C   UNL A   1      45.417  25.285  35.730  1.00  0.00     0.198 A 
ATOM     95  F   UNL A   1      43.184  25.326  34.993  1.00  0.00    -0.203 F 
ATOM     96  F   UNL A   1      48.142  27.603  35.135  1.00  0.00    -0.200 F 
ATOM     97  C   UNL A   1      46.680  25.859  35.770  1.00  0.00     0.200 A 
ATOM     98  F   UNL A   1      45.185  24.131  36.368  1.00  0.00    -0.200 F 
ATOM     99  F   UNL A   1      47.673  25.248  36.432  1.00  0.00    -0.200 F 
ENDBRANCH  66  89
ENDBRANCH  40  41
ENDBRANCH  33  35
ENDBRANCH  32  33
ENDBRANCH  31  32
ENDBRANCH  30  31
ENDBRANCH  29  30
ENDBRANCH   1  29
TORSDOF 19
ENDMDL
MODEL 3
REMARK VINA RESULT:     -11.7      1.546      2.444
REMARK SMILES CCN(C(=O)Cc1c(C(=O)OCCOCCOC(=O)c2ccc(-c3c4nc(c(-c5c(F)c(F)c(F)c(F)c5F)c5ccc([nH]5)c(-c5c(F)c(F)c(F)c(F)c5F)c5nc(c(-c6c(F)c(F)c(F)c(F)c6F)c6ccc3[nH]6)C=C5)C=C4)cc2)[nH]c2ccccc12)c1cccc(C)c1
REMARK SMILES IDX 13 1 12 2 11 3 9 4 10 5 8 6 7 7 89 8 83 9 84 10 88 11 85 13
REMARK SMILES IDX 87 14 86 15 6 16 4 17 5 18 3 19 2 20 1 21 90 22 91 23 96 24
REMARK SMILES IDX 92 25 94 26 93 27 95 28 14 29 15 30 16 31 17 32 18 33 19 34
REMARK SMILES IDX 20 35 21 36 82 37 22 38 81 39 23 40 24 41 25 42 75 43 26 44
REMARK SMILES IDX 80 45 74 46 76 47 27 48 79 49 73 50 72 51 28 53 60 54 40 55
REMARK SMILES IDX 59 56 41 57 44 58 58 59 77 60 42 61 43 62 57 64 78 65 45 66
REMARK SMILES IDX 29 67 30 68 38 69 31 70 32 71 36 72 39 73 33 74 34 75 37 76
REMARK SMILES IDX 35 77 61 78 62 79 70 80 63 81 64 82 68 83 71 84 65 85 66 86
REMARK SMILES IDX 69 87 67 88 46 89 47 90 55 91 48 92 49 93 53 94 56 95 50 96
REMARK SMILES IDX 51 97 54 98 52 99
REMARK H PARENT 83 12 76 52 44 63
REMARK Flexibility Score: inf
ROOT
ATOM      1  C   UNL A   1      32.860  30.250  27.258  1.00  0.00     0.202 C 
ENDROOT
BRANCH   1   2
ATOM      2  C   UNL A   1      33.886  29.697  26.267  1.00  0.00     0.261 C 
BRANCH   2   3
ATOM      3  O   UNL A   1      33.449  28.407  25.826  1.00  0.00    -0.459 OA
BRANCH   3   4
ATOM      4  C   UNL A   1      33.234  28.340  24.479  1.00  0.00     0.355 C 
ATOM      5  O   UNL A   1      34.086  28.146  23.634  1.00  0.00    -0.244 OA
BRANCH   4   6
ATOM      6  C   UNL A   1      31.825  28.485  24.231  1.00  0.00     0.129 A 
ATOM      7  C   UNL A   1      30.801  27.545  24.354  1.00  0.00     0.002 A 
ATOM      8  C   UNL A   1      29.629  28.168  23.788  1.00  0.00     0.004 A 
ATOM      9  N   UNL A   1      31.263  29.671  23.834  1.00  0.00    -0.349 N 
ATOM     10  C   UNL A   1      29.962  29.483  23.458  1.00  0.00     0.046 A 
ATOM     11  C   UNL A   1      28.322  27.732  23.486  1.00  0.00     0.010 A 
ATOM     12  H   UNL A   1      31.731  30.537  23.821  1.00  0.00     0.167 HD
ATOM     13  C   UNL A   1      29.080  30.378  22.843  1.00  0.00     0.027 A 
ATOM     14  C   UNL A   1      27.433  28.603  22.836  1.00  0.00     0.001 A 
ATOM     15  C   UNL A   1      27.809  29.906  22.519  1.00  0.00     0.002 A 
BRANCH   7  16
ATOM     16  C   UNL A   1      30.945  26.119  24.862  1.00  0.00     0.139 C 
BRANCH  16  17
ATOM     17  C   UNL A   1      31.130  25.048  23.761  1.00  0.00     0.231 C 
ATOM     18  O   UNL A   1      30.126  24.526  23.257  1.00  0.00    -0.274 OA
BRANCH  17  19
ATOM     19  N   UNL A   1      32.431  24.706  23.350  1.00  0.00    -0.312 N 
BRANCH  19  20
ATOM     20  C   UNL A   1      32.935  24.750  21.967  1.00  0.00     0.122 C 
ATOM     21  C   UNL A   1      32.530  26.002  21.209  1.00  0.00     0.028 C 
ENDBRANCH  19  20
BRANCH  19  22
ATOM     22  C   UNL A   1      33.352  24.151  24.295  1.00  0.00     0.044 A 
ATOM     23  C   UNL A   1      34.511  24.844  24.647  1.00  0.00     0.026 A 
ATOM     24  C   UNL A   1      33.051  22.951  24.954  1.00  0.00     0.029 A 
ATOM     25  C   UNL A   1      35.347  24.345  25.653  1.00  0.00     0.002 A 
ATOM     26  C   UNL A   1      33.907  22.417  25.928  1.00  0.00    -0.049 A 
ATOM     27  C   UNL A   1      35.049  23.136  26.287  1.00  0.00     0.003 A 
ATOM     28  C   UNL A   1      33.618  21.091  26.569  1.00  0.00     0.044 C 
ENDBRANCH  19  22
ENDBRANCH  17  19
ENDBRANCH  16  17
ENDBRANCH   7  16
ENDBRANCH   4   6
ENDBRANCH   3   4
ENDBRANCH   2   3
ENDBRANCH   1   2
BRANCH   1  29
ATOM     29  O   UNL A   1      31.776  30.913  26.606  1.00  0.00    -0.374 OA
BRANCH  29  30
ATOM     30  C   UNL A   1      31.734  32.339  26.778  1.00  0.00     0.202 C 
BRANCH  30  31
ATOM     31  C   UNL A   1      32.771  32.853  27.775  1.00  0.00     0.261 C 
BRANCH  31  32
ATOM     32  O   UNL A   1      32.910  34.265  27.570  1.00  0.00    -0.460 OA
BRANCH  32  33
ATOM     33  C   UNL A   1      33.122  34.992  28.688  1.00  0.00     0.338 C 
ATOM     34  O   UNL A   1      32.439  35.890  29.143  1.00  0.00    -0.246 OA
BRANCH  33  35
ATOM     35  C   UNL A   1      34.232  34.359  29.424  1.00  0.00     0.060 A 
ATOM     36  C   UNL A   1      35.515  34.453  28.868  1.00  0.00     0.016 A 
ATOM     37  C   UNL A   1      34.036  33.757  30.673  1.00  0.00     0.016 A 
ATOM     38  C   UNL A   1      36.603  33.909  29.541  1.00  0.00     0.010 A 
ATOM     39  C   UNL A   1      35.125  33.210  31.345  1.00  0.00     0.010 A 
ATOM     40  C   UNL A   1      36.401  33.255  30.761  1.00  0.00    -0.014 A 
BRANCH  40  41
ATOM     41  C   UNL A   1      37.472  32.418  31.334  1.00  0.00     0.031 A 
ATOM     42  C   UNL A   1      37.965  32.771  32.706  1.00  0.00     0.074 A 
ATOM     43  C   UNL A   1      38.002  31.403  30.633  1.00  0.00     0.049 A 
ATOM     44  N   UNL A   1      38.964  32.276  33.385  1.00  0.00    -0.248 NA
ATOM     45  C   UNL A   1      37.235  33.845  33.403  1.00  0.00     0.031 C 
ATOM     46  C   UNL A   1      37.569  30.977  29.304  1.00  0.00     0.029 A 
ATOM     47  N   UNL A   1      39.038  30.562  30.940  1.00  0.00    -0.354 N 
ATOM     48  C   UNL A   1      38.989  32.984  34.579  1.00  0.00     0.074 A 
ATOM     49  C   UNL A   1      37.926  33.961  34.524  1.00  0.00     0.031 C 
ATOM     50  C   UNL A   1      38.351  29.963  28.898  1.00  0.00     0.029 A 
ATOM     51  C   UNL A   1      39.354  29.692  29.926  1.00  0.00     0.049 A 
ATOM     52  H   UNL A   1      39.509  30.579  31.804  1.00  0.00     0.167 HD
ATOM     53  C   UNL A   1      39.829  32.826  35.627  1.00  0.00     0.037 A 
ATOM     54  C   UNL A   1      40.359  28.802  29.843  1.00  0.00     0.037 A 
ATOM     55  C   UNL A   1      40.886  31.854  35.658  1.00  0.00     0.049 A 
ATOM     56  C   UNL A   1      41.304  28.670  31.009  1.00  0.00     0.074 A 
ATOM     57  C   UNL A   1      41.797  31.593  36.663  1.00  0.00     0.029 A 
ATOM     58  N   UNL A   1      41.172  30.981  34.617  1.00  0.00    -0.354 N 
ATOM     59  N   UNL A   1      41.317  29.329  32.144  1.00  0.00    -0.248 NA
ATOM     60  C   UNL A   1      42.374  27.671  30.884  1.00  0.00     0.031 C 
ATOM     61  C   UNL A   1      42.658  30.584  36.217  1.00  0.00     0.029 A 
ATOM     62  C   UNL A   1      42.256  30.189  34.949  1.00  0.00     0.049 A 
ATOM     63  H   UNL A   1      40.677  30.933  33.767  1.00  0.00     0.167 HD
ATOM     64  C   UNL A   1      42.377  28.814  32.876  1.00  0.00     0.074 A 
ATOM     65  C   UNL A   1      42.976  27.776  32.061  1.00  0.00     0.031 C 
ATOM     66  C   UNL A   1      42.821  29.164  34.108  1.00  0.00     0.037 A 
BRANCH  53  67
ATOM     67  C   UNL A   1      39.643  33.744  36.798  1.00  0.00     0.064 A 
ATOM     68  C   UNL A   1      38.827  33.395  37.885  1.00  0.00     0.173 A 
ATOM     69  C   UNL A   1      40.278  34.994  36.828  1.00  0.00     0.173 A 
ATOM     70  F   UNL A   1      38.178  32.221  37.892  1.00  0.00    -0.203 F 
ATOM     71  C   UNL A   1      38.634  34.275  38.947  1.00  0.00     0.198 A 
ATOM     72  C   UNL A   1      40.102  35.861  37.904  1.00  0.00     0.198 A 
ATOM     73  F   UNL A   1      41.062  35.380  35.811  1.00  0.00    -0.203 F 
ATOM     74  F   UNL A   1      37.808  33.941  39.950  1.00  0.00    -0.200 F 
ATOM     75  C   UNL A   1      39.275  35.504  38.958  1.00  0.00     0.200 A 
ATOM     76  F   UNL A   1      40.725  37.047  37.915  1.00  0.00    -0.200 F 
ATOM     77  F   UNL A   1      39.086  36.351  39.980  1.00  0.00    -0.200 F 
ENDBRANCH  53  67
BRANCH  54  78
ATOM     78  C   UNL A   1      40.523  27.977  28.619  1.00  0.00     0.064 A 
ATOM     79  C   UNL A   1      39.915  26.720  28.508  1.00  0.00     0.173 A 
ATOM     80  C   UNL A   1      41.286  28.430  27.532  1.00  0.00     0.173 A 
ATOM     81  F   UNL A   1      39.193  26.234  29.528  1.00  0.00    -0.203 F 
ATOM     82  C   UNL A   1      40.073  25.941  27.363  1.00  0.00     0.198 A 
ATOM     83  C   UNL A   1      41.423  27.662  26.377  1.00  0.00     0.198 A 
ATOM     84  F   UNL A   1      41.887  29.628  27.586  1.00  0.00    -0.203 F 
ATOM     85  F   UNL A   1      39.509  24.727  27.298  1.00  0.00    -0.200 F 
ATOM     86  C   UNL A   1      40.821  26.416  26.296  1.00  0.00     0.200 A 
ATOM     87  F   UNL A   1      42.138  28.129  25.345  1.00  0.00    -0.200 F 
ATOM     88  F   UNL A   1      40.967  25.670  25.193  1.00  0.00    -0.200 F 
ENDBRANCH  54  78
BRANCH  66  89
ATOM     89  C   UNL A   1      43.992  28.401  34.649  1.00  0.00     0.064 A 
ATOM     90  C   UNL A   1      45.306  28.858  34.479  1.00  0.00     0.173 A 
ATOM     91  C   UNL A   1      43.790  27.220  35.378  1.00  0.00     0.173 A 
ATOM     92  F   UNL A   1      45.545  29.975  33.776  1.00  0.00    -0.203 F 
ATOM     93  C   UNL A   1      46.381  28.147  35.002  1.00  0.00     0.198 A 
ATOM     94  C   UNL A   1      44.866  26.525  35.921  1.00  0.00     0.198 A 
ATOM     95  F   UNL A   1      42.550  26.748  35.572  1.00  0.00    -0.203 F 
ATOM     96  F   UNL A   1      47.632  28.577  34.791  1.00  0.00    -0.200 F 
ATOM     97  C   UNL A   1      46.160  26.984  35.726  1.00  0.00     0.200 A 
ATOM     98  F   UNL A   1      44.651  25.409  36.631  1.00  0.00    -0.200 F 
ATOM     99  F   UNL A   1      47.197  26.302  36.232  1.00  0.00    -0.200 F 
ENDBRANCH  66  89
ENDBRANCH  40  41
ENDBRANCH  33  35
ENDBRANCH  32  33
ENDBRANCH  31  32
ENDBRANCH  30  31
ENDBRANCH  29  30
ENDBRANCH   1  29
TORSDOF 19
ENDMDL
