MODEL 1
REMARK VINA RESULT:     -11.5      0.000      0.000
REMARK SMILES C[NH+]1CC[NH+]([C@]2(C(=O)OCCOCCOC(=O)c3ccc(-c4c5nc(c(-c6c(F)c(F)c(F)c(F)c6F)c6ccc([nH]6)c(-c6c(F)c(F)c(F)c(F)c6F)c6nc(c(-c7c(F)c(F)c(F)c(F)c7F)c7ccc4[nH]7)C=C6)C=C5)cc3)CCCC2(C)C)CC1
REMARK SMILES IDX 13 1 12 2 11 3 10 4 9 5 7 6 8 7 6 8 81 9 84 10 82 11 83 12
REMARK SMILES IDX 85 13 86 14 5 15 1 16 2 17 3 18 88 19 4 21 87 22 14 24 15 25
REMARK SMILES IDX 16 26 17 27 18 28 19 29 80 30 20 31 79 32 21 33 22 34 23 35
REMARK SMILES IDX 73 36 24 37 78 38 72 39 74 40 25 41 77 42 71 43 70 44 26 46
REMARK SMILES IDX 58 47 38 48 57 49 39 50 42 51 56 52 75 53 40 54 41 55 55 57
REMARK SMILES IDX 76 58 43 59 27 60 28 61 36 62 29 63 30 64 34 65 37 66 31 67
REMARK SMILES IDX 32 68 35 69 33 70 59 71 60 72 68 73 61 74 62 75 66 76 69 77
REMARK SMILES IDX 63 78 64 79 67 80 65 81 44 82 45 83 53 84 46 85 47 86 51 87
REMARK SMILES IDX 54 88 48 89 49 90 52 91 50 92
REMARK H PARENT 2 20 5 23 74 45 42 56
REMARK Flexibility Score: inf
ROOT
ATOM      1  C   UNL A   1      31.395  30.371  25.385  1.00  0.00     0.202 C 
ENDROOT
BRANCH   1   2
ATOM      2  O   UNL A   1      31.503  29.005  25.782  1.00  0.00    -0.374 OA
BRANCH   2   3
ATOM      3  C   UNL A   1      32.746  28.354  25.529  1.00  0.00     0.202 C 
BRANCH   3   4
ATOM      4  C   UNL A   1      33.130  27.179  26.440  1.00  0.00     0.261 C 
BRANCH   4   5
ATOM      5  O   UNL A   1      33.713  26.062  25.740  1.00  0.00    -0.459 OA
BRANCH   5   6
ATOM      6  C   UNL A   1      32.926  24.962  25.644  1.00  0.00     0.368 C 
ATOM      7  O   UNL A   1      32.332  24.520  26.628  1.00  0.00    -0.245 OA
BRANCH   6   8
ATOM      8  C   UNL A   1      32.752  24.354  24.161  1.00  0.00     0.201 C 
ATOM      9  C   UNL A   1      34.143  24.663  23.493  1.00  0.00     0.082 C 
ATOM     10  C   UNL A   1      32.732  22.742  24.130  1.00  0.00     0.031 C 
ATOM     11  C   UNL A   1      35.001  23.396  23.591  1.00  0.00     0.008 C 
ATOM     12  C   UNL A   1      34.211  22.403  24.432  1.00  0.00     0.014 C 
ATOM     13  C   UNL A   1      31.783  22.049  25.126  1.00  0.00     0.018 C 
ATOM     14  C   UNL A   1      32.422  22.094  22.754  1.00  0.00     0.018 C 
BRANCH   8  15
ATOM     15  N   UNL A   1      31.572  25.098  23.513  1.00  0.00    -0.311 N 
ATOM     16  C   UNL A   1      28.800  28.502  23.126  1.00  0.00     0.333 C 
ATOM     17  N   UNL A   1      29.892  27.618  23.520  1.00  0.00    -0.328 N 
ATOM     18  C   UNL A   1      30.733  27.259  22.374  1.00  0.00     0.324 C 
ATOM     19  C   UNL A   1      29.367  26.372  24.081  1.00  0.00     0.324 C 
ATOM     20  H   UNL A   1      30.444  28.124  24.211  1.00  0.00     0.348 HD
ATOM     21  C   UNL A   1      31.916  26.349  22.794  1.00  0.00     0.325 C 
ATOM     22  C   UNL A   1      30.496  25.411  24.505  1.00  0.00     0.325 C 
ATOM     23  H   UNL A   1      31.244  24.432  22.813  1.00  0.00     0.349 HD
ENDBRANCH   8  15
ENDBRANCH   6   8
ENDBRANCH   5   6
ENDBRANCH   4   5
ENDBRANCH   3   4
ENDBRANCH   2   3
ENDBRANCH   1   2
BRANCH   1  24
ATOM     24  C   UNL A   1      31.611  31.403  26.492  1.00  0.00     0.261 C 
BRANCH  24  25
ATOM     25  O   UNL A   1      32.771  31.060  27.272  1.00  0.00    -0.460 OA
BRANCH  25  26
ATOM     26  C   UNL A   1      33.550  32.111  27.607  1.00  0.00     0.338 C 
ATOM     27  O   UNL A   1      33.196  33.268  27.794  1.00  0.00    -0.246 OA
BRANCH  26  28
ATOM     28  C   UNL A   1      34.915  31.652  27.915  1.00  0.00     0.060 A 
ATOM     29  C   UNL A   1      35.098  30.272  28.070  1.00  0.00     0.016 A 
ATOM     30  C   UNL A   1      35.978  32.538  28.115  1.00  0.00     0.016 A 
ATOM     31  C   UNL A   1      36.319  29.775  28.510  1.00  0.00     0.010 A 
ATOM     32  C   UNL A   1      37.204  32.038  28.566  1.00  0.00     0.010 A 
ATOM     33  C   UNL A   1      37.359  30.661  28.814  1.00  0.00    -0.014 A 
BRANCH  33  34
ATOM     34  C   UNL A   1      38.520  30.153  29.583  1.00  0.00     0.031 A 
ATOM     35  C   UNL A   1      38.700  30.617  31.003  1.00  0.00     0.074 A 
ATOM     36  C   UNL A   1      39.352  29.239  29.056  1.00  0.00     0.049 A 
ATOM     37  N   UNL A   1      39.620  30.293  31.875  1.00  0.00    -0.248 NA
ATOM     38  C   UNL A   1      37.701  31.574  31.509  1.00  0.00     0.031 C 
ATOM     39  C   UNL A   1      39.247  28.679  27.711  1.00  0.00     0.029 A 
ATOM     40  N   UNL A   1      40.449  28.619  29.598  1.00  0.00    -0.354 N 
ATOM     41  C   UNL A   1      39.313  31.005  33.028  1.00  0.00     0.074 A 
ATOM     42  C   UNL A   1      38.142  31.804  32.737  1.00  0.00     0.031 C 
ATOM     43  C   UNL A   1      40.246  27.798  27.528  1.00  0.00     0.029 A 
ATOM     44  C   UNL A   1      41.073  27.755  28.734  1.00  0.00     0.049 A 
ATOM     45  H   UNL A   1      40.759  28.779  30.518  1.00  0.00     0.167 HD
ATOM     46  C   UNL A   1      39.945  30.986  34.224  1.00  0.00     0.037 A 
ATOM     47  C   UNL A   1      42.194  27.026  28.897  1.00  0.00     0.037 A 
ATOM     48  C   UNL A   1      41.107  30.189  34.512  1.00  0.00     0.049 A 
ATOM     49  C   UNL A   1      42.920  27.076  30.217  1.00  0.00     0.074 A 
ATOM     50  C   UNL A   1      41.813  30.086  35.697  1.00  0.00     0.029 A 
ATOM     51  N   UNL A   1      41.736  29.358  33.596  1.00  0.00    -0.354 N 
ATOM     52  N   UNL A   1      42.612  27.734  31.308  1.00  0.00    -0.248 NA
ATOM     53  C   UNL A   1      44.149  26.276  30.327  1.00  0.00     0.031 C 
ATOM     54  C   UNL A   1      42.900  29.232  35.484  1.00  0.00     0.029 A 
ATOM     55  C   UNL A   1      42.840  28.760  34.182  1.00  0.00     0.049 A 
ATOM     56  H   UNL A   1      41.442  29.214  32.668  1.00  0.00     0.167 HD
ATOM     57  C   UNL A   1      43.589  27.408  32.240  1.00  0.00     0.074 A 
ATOM     58  C   UNL A   1      44.492  26.482  31.590  1.00  0.00     0.031 C 
ATOM     59  C   UNL A   1      43.725  27.835  33.520  1.00  0.00     0.037 A 
BRANCH  46  60
ATOM     60  C   UNL A   1      39.407  31.877  35.305  1.00  0.00     0.064 A 
ATOM     61  C   UNL A   1      39.749  33.235  35.383  1.00  0.00     0.173 A 
ATOM     62  C   UNL A   1      38.513  31.369  36.261  1.00  0.00     0.173 A 
ATOM     63  F   UNL A   1      40.612  33.766  34.503  1.00  0.00    -0.203 F 
ATOM     64  C   UNL A   1      39.235  34.046  36.391  1.00  0.00     0.198 A 
ATOM     65  C   UNL A   1      37.980  32.190  37.251  1.00  0.00     0.198 A 
ATOM     66  F   UNL A   1      38.153  30.077  36.230  1.00  0.00    -0.203 F 
ATOM     67  F   UNL A   1      39.610  35.330  36.473  1.00  0.00    -0.200 F 
ATOM     68  C   UNL A   1      38.346  33.525  37.320  1.00  0.00     0.200 A 
ATOM     69  F   UNL A   1      37.113  31.686  38.141  1.00  0.00    -0.200 F 
ATOM     70  F   UNL A   1      37.847  34.309  38.285  1.00  0.00    -0.200 F 
ENDBRANCH  46  60
BRANCH  47  71
ATOM     71  C   UNL A   1      42.706  26.194  27.777  1.00  0.00     0.064 A 
ATOM     72  C   UNL A   1      43.629  26.705  26.856  1.00  0.00     0.173 A 
ATOM     73  C   UNL A   1      42.269  24.873  27.599  1.00  0.00     0.173 A 
ATOM     74  F   UNL A   1      44.058  27.970  26.970  1.00  0.00    -0.203 F 
ATOM     75  C   UNL A   1      44.084  25.932  25.788  1.00  0.00     0.198 A 
ATOM     76  C   UNL A   1      42.744  24.093  26.548  1.00  0.00     0.198 A 
ATOM     77  F   UNL A   1      41.383  24.338  28.452  1.00  0.00    -0.203 F 
ATOM     78  F   UNL A   1      44.932  26.460  24.895  1.00  0.00    -0.200 F 
ATOM     79  C   UNL A   1      43.646  24.625  25.639  1.00  0.00     0.200 A 
ATOM     80  F   UNL A   1      42.326  22.826  26.414  1.00  0.00    -0.200 F 
ATOM     81  F   UNL A   1      44.085  23.881  24.615  1.00  0.00    -0.200 F 
ENDBRANCH  47  71
BRANCH  59  82
ATOM     82  C   UNL A   1      44.873  27.284  34.314  1.00  0.00     0.064 A 
ATOM     83  C   UNL A   1      44.761  26.087  35.038  1.00  0.00     0.173 A 
ATOM     84  C   UNL A   1      46.114  27.939  34.315  1.00  0.00     0.173 A 
ATOM     85  F   UNL A   1      43.591  25.432  35.079  1.00  0.00    -0.203 F 
ATOM     86  C   UNL A   1      45.842  25.580  35.752  1.00  0.00     0.198 A 
ATOM     87  C   UNL A   1      47.202  27.413  35.006  1.00  0.00     0.198 A 
ATOM     88  F   UNL A   1      46.277  29.081  33.631  1.00  0.00    -0.203 F 
ATOM     89  F   UNL A   1      45.698  24.460  36.475  1.00  0.00    -0.200 F 
ATOM     90  C   UNL A   1      47.063  26.238  35.731  1.00  0.00     0.200 A 
ATOM     91  F   UNL A   1      48.384  28.042  34.972  1.00  0.00    -0.200 F 
ATOM     92  F   UNL A   1      48.105  25.744  36.414  1.00  0.00    -0.200 F 
ENDBRANCH  59  82
ENDBRANCH  33  34
ENDBRANCH  26  28
ENDBRANCH  25  26
ENDBRANCH  24  25
ENDBRANCH   1  24
TORSDOF 15
ENDMDL
MODEL 2
REMARK VINA RESULT:     -11.4      4.162      9.658
REMARK SMILES C[NH+]1CC[NH+]([C@]2(C(=O)OCCOCCOC(=O)c3ccc(-c4c5nc(c(-c6c(F)c(F)c(F)c(F)c6F)c6ccc([nH]6)c(-c6c(F)c(F)c(F)c(F)c6F)c6nc(c(-c7c(F)c(F)c(F)c(F)c7F)c7ccc4[nH]7)C=C6)C=C5)cc3)CCCC2(C)C)CC1
REMARK SMILES IDX 13 1 12 2 11 3 10 4 9 5 7 6 8 7 6 8 81 9 84 10 82 11 83 12
REMARK SMILES IDX 85 13 86 14 5 15 1 16 2 17 3 18 88 19 4 21 87 22 14 24 15 25
REMARK SMILES IDX 16 26 17 27 18 28 19 29 80 30 20 31 79 32 21 33 22 34 23 35
REMARK SMILES IDX 73 36 24 37 78 38 72 39 74 40 25 41 77 42 71 43 70 44 26 46
REMARK SMILES IDX 58 47 38 48 57 49 39 50 42 51 56 52 75 53 40 54 41 55 55 57
REMARK SMILES IDX 76 58 43 59 27 60 28 61 36 62 29 63 30 64 34 65 37 66 31 67
REMARK SMILES IDX 32 68 35 69 33 70 59 71 60 72 68 73 61 74 62 75 66 76 69 77
REMARK SMILES IDX 63 78 64 79 67 80 65 81 44 82 45 83 53 84 46 85 47 86 51 87
REMARK SMILES IDX 54 88 48 89 49 90 52 91 50 92
REMARK H PARENT 2 20 5 23 74 45 42 56
REMARK Flexibility Score: inf
ROOT
ATOM      1  C   UNL A   1      36.165  20.664  25.261  1.00  0.00     0.202 C 
ENDROOT
BRANCH   1   2
ATOM      2  O   UNL A   1      35.718  21.936  24.794  1.00  0.00    -0.374 OA
BRANCH   2   3
ATOM      3  C   UNL A   1      35.573  22.968  25.767  1.00  0.00     0.202 C 
BRANCH   3   4
ATOM      4  C   UNL A   1      35.516  24.416  25.261  1.00  0.00     0.261 C 
BRANCH   4   5
ATOM      5  O   UNL A   1      34.339  25.137  25.677  1.00  0.00    -0.459 OA
BRANCH   5   6
ATOM      6  C   UNL A   1      33.542  25.577  24.673  1.00  0.00     0.368 C 
ATOM      7  O   UNL A   1      34.023  26.011  23.626  1.00  0.00    -0.245 OA
BRANCH   6   8
ATOM      8  C   UNL A   1      31.957  25.397  24.909  1.00  0.00     0.201 C 
ATOM      9  C   UNL A   1      31.784  25.787  26.424  1.00  0.00     0.082 C 
ATOM     10  C   UNL A   1      31.071  26.532  24.183  1.00  0.00     0.031 C 
ATOM     11  C   UNL A   1      31.328  27.249  26.482  1.00  0.00     0.008 C 
ATOM     12  C   UNL A   1      31.376  27.774  25.054  1.00  0.00     0.014 C 
ATOM     13  C   UNL A   1      31.383  26.799  22.698  1.00  0.00     0.018 C 
ATOM     14  C   UNL A   1      29.533  26.337  24.247  1.00  0.00     0.018 C 
BRANCH   8  15
ATOM     15  N   UNL A   1      31.627  23.927  24.603  1.00  0.00    -0.311 N 
ATOM     16  C   UNL A   1      32.701  19.695  24.004  1.00  0.00     0.333 C 
ATOM     17  N   UNL A   1      32.730  21.122  24.308  1.00  0.00    -0.328 N 
ATOM     18  C   UNL A   1      31.780  21.465  25.370  1.00  0.00     0.324 C 
ATOM     19  C   UNL A   1      32.364  21.905  23.126  1.00  0.00     0.324 C 
ATOM     20  H   UNL A   1      33.680  21.338  24.607  1.00  0.00     0.348 HD
ATOM     21  C   UNL A   1      31.834  22.974  25.721  1.00  0.00     0.325 C 
ATOM     22  C   UNL A   1      32.381  23.421  23.414  1.00  0.00     0.325 C 
ATOM     23  H   UNL A   1      30.624  23.955  24.418  1.00  0.00     0.349 HD
ENDBRANCH   8  15
ENDBRANCH   6   8
ENDBRANCH   5   6
ENDBRANCH   4   5
ENDBRANCH   3   4
ENDBRANCH   2   3
ENDBRANCH   1   2
BRANCH   1  24
ATOM     24  C   UNL A   1      37.637  20.341  25.002  1.00  0.00     0.261 C 
BRANCH  24  25
ATOM     25  O   UNL A   1      38.456  21.489  25.290  1.00  0.00    -0.460 OA
BRANCH  25  26
ATOM     26  C   UNL A   1      39.490  21.243  26.122  1.00  0.00     0.338 C 
ATOM     27  O   UNL A   1      40.157  20.218  26.196  1.00  0.00    -0.246 OA
BRANCH  26  28
ATOM     28  C   UNL A   1      39.865  22.472  26.843  1.00  0.00     0.060 A 
ATOM     29  C   UNL A   1      39.157  23.636  26.518  1.00  0.00     0.016 A 
ATOM     30  C   UNL A   1      40.918  22.513  27.762  1.00  0.00     0.016 A 
ATOM     31  C   UNL A   1      39.550  24.861  27.041  1.00  0.00     0.010 A 
ATOM     32  C   UNL A   1      41.320  23.748  28.280  1.00  0.00     0.010 A 
ATOM     33  C   UNL A   1      40.669  24.930  27.880  1.00  0.00    -0.014 A 
BRANCH  33  34
ATOM     34  C   UNL A   1      41.266  26.258  28.157  1.00  0.00     0.031 A 
ATOM     35  C   UNL A   1      42.661  26.534  27.667  1.00  0.00     0.074 A 
ATOM     36  C   UNL A   1      40.554  27.223  28.763  1.00  0.00     0.049 A 
ATOM     37  N   UNL A   1      43.379  27.624  27.769  1.00  0.00    -0.248 NA
ATOM     38  C   UNL A   1      43.337  25.433  26.962  1.00  0.00     0.031 C 
ATOM     39  C   UNL A   1      39.179  27.087  29.234  1.00  0.00     0.029 A 
ATOM     40  N   UNL A   1      40.896  28.513  29.079  1.00  0.00    -0.354 N 
ATOM     41  C   UNL A   1      44.587  27.338  27.145  1.00  0.00     0.074 A 
ATOM     42  C   UNL A   1      44.520  25.964  26.695  1.00  0.00     0.031 C 
ATOM     43  C   UNL A   1      38.792  28.249  29.787  1.00  0.00     0.029 A 
ATOM     44  C   UNL A   1      39.902  29.199  29.731  1.00  0.00     0.049 A 
ATOM     45  H   UNL A   1      41.769  28.909  28.859  1.00  0.00     0.167 HD
ATOM     46  C   UNL A   1      45.651  28.152  26.954  1.00  0.00     0.037 A 
ATOM     47  C   UNL A   1      39.900  30.448  30.237  1.00  0.00     0.037 A 
ATOM     48  C   UNL A   1      45.713  29.518  27.398  1.00  0.00     0.049 A 
ATOM     49  C   UNL A   1      41.125  31.312  30.073  1.00  0.00     0.074 A 
ATOM     50  C   UNL A   1      46.739  30.433  27.242  1.00  0.00     0.029 A 
ATOM     51  N   UNL A   1      44.703  30.165  28.094  1.00  0.00    -0.354 N 
ATOM     52  N   UNL A   1      42.253  31.042  29.463  1.00  0.00    -0.248 NA
ATOM     53  C   UNL A   1      41.070  32.656  30.666  1.00  0.00     0.031 C 
ATOM     54  C   UNL A   1      46.371  31.618  27.887  1.00  0.00     0.029 A 
ATOM     55  C   UNL A   1      45.092  31.459  28.399  1.00  0.00     0.049 A 
ATOM     56  H   UNL A   1      43.837  29.765  28.336  1.00  0.00     0.167 HD
ATOM     57  C   UNL A   1      43.031  32.188  29.574  1.00  0.00     0.074 A 
ATOM     58  C   UNL A   1      42.239  33.160  30.298  1.00  0.00     0.031 C 
ATOM     59  C   UNL A   1      44.287  32.415  29.116  1.00  0.00     0.037 A 
BRANCH  46  60
ATOM     60  C   UNL A   1      46.847  27.575  26.256  1.00  0.00     0.064 A 
ATOM     61  C   UNL A   1      47.861  26.905  26.957  1.00  0.00     0.173 A 
ATOM     62  C   UNL A   1      46.966  27.670  24.860  1.00  0.00     0.173 A 
ATOM     63  F   UNL A   1      47.803  26.802  28.293  1.00  0.00    -0.203 F 
ATOM     64  C   UNL A   1      48.961  26.373  26.290  1.00  0.00     0.198 A 
ATOM     65  C   UNL A   1      48.054  27.111  24.194  1.00  0.00     0.198 A 
ATOM     66  F   UNL A   1      46.024  28.298  24.143  1.00  0.00    -0.203 F 
ATOM     67  F   UNL A   1      49.940  25.776  26.985  1.00  0.00    -0.200 F 
ATOM     68  C   UNL A   1      49.053  26.470  24.910  1.00  0.00     0.200 A 
ATOM     69  F   UNL A   1      48.135  27.197  22.859  1.00  0.00    -0.200 F 
ATOM     70  F   UNL A   1      50.109  25.950  24.269  1.00  0.00    -0.200 F 
ENDBRANCH  46  60
BRANCH  47  71
ATOM     71  C   UNL A   1      38.703  30.954  30.957  1.00  0.00     0.064 A 
ATOM     72  C   UNL A   1      38.615  30.892  32.354  1.00  0.00     0.173 A 
ATOM     73  C   UNL A   1      37.614  31.496  30.259  1.00  0.00     0.173 A 
ATOM     74  F   UNL A   1      39.620  30.359  33.065  1.00  0.00    -0.203 F 
ATOM     75  C   UNL A   1      37.478  31.338  33.024  1.00  0.00     0.198 A 
ATOM     76  C   UNL A   1      36.489  31.966  30.931  1.00  0.00     0.198 A 
ATOM     77  F   UNL A   1      37.647  31.574  28.920  1.00  0.00    -0.203 F 
ATOM     78  F   UNL A   1      37.400  31.225  34.357  1.00  0.00    -0.200 F 
ATOM     79  C   UNL A   1      36.418  31.881  32.313  1.00  0.00     0.200 A 
ATOM     80  F   UNL A   1      35.472  32.500  30.240  1.00  0.00    -0.200 F 
ATOM     81  F   UNL A   1      35.325  32.312  32.957  1.00  0.00    -0.200 F 
ENDBRANCH  47  71
BRANCH  59  82
ATOM     82  C   UNL A   1      44.873  33.776  29.355  1.00  0.00     0.064 A 
ATOM     83  C   UNL A   1      45.661  34.051  30.482  1.00  0.00     0.173 A 
ATOM     84  C   UNL A   1      44.679  34.806  28.421  1.00  0.00     0.173 A 
ATOM     85  F   UNL A   1      45.864  33.104  31.411  1.00  0.00    -0.203 F 
ATOM     86  C   UNL A   1      46.212  35.315  30.678  1.00  0.00     0.198 A 
ATOM     87  C   UNL A   1      45.256  36.059  28.605  1.00  0.00     0.198 A 
ATOM     88  F   UNL A   1      43.941  34.592  27.321  1.00  0.00    -0.203 F 
ATOM     89  F   UNL A   1      46.923  35.568  31.786  1.00  0.00    -0.200 F 
ATOM     90  C   UNL A   1      46.016  36.315  29.737  1.00  0.00     0.200 A 
ATOM     91  F   UNL A   1      45.078  37.020  27.688  1.00  0.00    -0.200 F 
ATOM     92  F   UNL A   1      46.554  37.528  29.925  1.00  0.00    -0.200 F 
ENDBRANCH  59  82
ENDBRANCH  33  34
ENDBRANCH  26  28
ENDBRANCH  25  26
ENDBRANCH  24  25
ENDBRANCH   1  24
TORSDOF 15
ENDMDL
MODEL 3
REMARK VINA RESULT:     -11.4      1.200      3.153
REMARK SMILES C[NH+]1CC[NH+]([C@]2(C(=O)OCCOCCOC(=O)c3ccc(-c4c5nc(c(-c6c(F)c(F)c(F)c(F)c6F)c6ccc([nH]6)c(-c6c(F)c(F)c(F)c(F)c6F)c6nc(c(-c7c(F)c(F)c(F)c(F)c7F)c7ccc4[nH]7)C=C6)C=C5)cc3)CCCC2(C)C)CC1
REMARK SMILES IDX 13 1 12 2 11 3 10 4 9 5 7 6 8 7 6 8 81 9 84 10 82 11 83 12
REMARK SMILES IDX 85 13 86 14 5 15 1 16 2 17 3 18 88 19 4 21 87 22 14 24 15 25
REMARK SMILES IDX 16 26 17 27 18 28 19 29 80 30 20 31 79 32 21 33 22 34 23 35
REMARK SMILES IDX 73 36 24 37 78 38 72 39 74 40 25 41 77 42 71 43 70 44 26 46
REMARK SMILES IDX 58 47 38 48 57 49 39 50 42 51 56 52 75 53 40 54 41 55 55 57
REMARK SMILES IDX 76 58 43 59 27 60 28 61 36 62 29 63 30 64 34 65 37 66 31 67
REMARK SMILES IDX 32 68 35 69 33 70 59 71 60 72 68 73 61 74 62 75 66 76 69 77
REMARK SMILES IDX 63 78 64 79 67 80 65 81 44 82 45 83 53 84 46 85 47 86 51 87
REMARK SMILES IDX 54 88 48 89 49 90 52 91 50 92
REMARK H PARENT 2 20 5 23 74 45 42 56
REMARK Flexibility Score: inf
ROOT
ATOM      1  C   UNL A   1      31.662  29.919  25.608  1.00  0.00     0.202 C 
ENDROOT
BRANCH   1   2
ATOM      2  O   UNL A   1      32.790  29.617  24.787  1.00  0.00    -0.374 OA
BRANCH   2   3
ATOM      3  C   UNL A   1      32.538  28.908  23.576  1.00  0.00     0.202 C 
BRANCH   3   4
ATOM      4  C   UNL A   1      33.662  28.015  23.030  1.00  0.00     0.261 C 
BRANCH   4   5
ATOM      5  O   UNL A   1      34.008  26.916  23.895  1.00  0.00    -0.459 OA
BRANCH   5   6
ATOM      6  C   UNL A   1      33.497  25.712  23.538  1.00  0.00     0.368 C 
ATOM      7  O   UNL A   1      33.468  25.361  22.358  1.00  0.00    -0.245 OA
BRANCH   6   8
ATOM      8  C   UNL A   1      33.036  24.759  24.754  1.00  0.00     0.201 C 
ATOM      9  C   UNL A   1      33.266  25.672  26.016  1.00  0.00     0.082 C 
ATOM     10  C   UNL A   1      31.442  24.526  24.813  1.00  0.00     0.031 C 
ATOM     11  C   UNL A   1      31.919  26.302  26.390  1.00  0.00     0.008 C 
ATOM     12  C   UNL A   1      30.939  25.908  25.293  1.00  0.00     0.014 C 
ATOM     13  C   UNL A   1      30.761  24.109  23.496  1.00  0.00     0.018 C 
ATOM     14  C   UNL A   1      30.944  23.504  25.870  1.00  0.00     0.018 C 
BRANCH   8  15
ATOM     15  N   UNL A   1      33.941  23.517  24.711  1.00  0.00    -0.311 N 
ATOM     16  C   UNL A   1      37.775  21.418  25.271  1.00  0.00     0.333 C 
ATOM     17  N   UNL A   1      36.706  22.411  25.260  1.00  0.00    -0.328 N 
ATOM     18  C   UNL A   1      35.532  21.947  26.004  1.00  0.00     0.324 C 
ATOM     19  C   UNL A   1      36.272  22.682  23.888  1.00  0.00     0.324 C 
ATOM     20  H   UNL A   1      37.084  23.253  25.694  1.00  0.00     0.348 HD
ATOM     21  C   UNL A   1      34.408  23.015  26.026  1.00  0.00     0.325 C 
ATOM     22  C   UNL A   1      35.138  23.727  23.840  1.00  0.00     0.325 C 
ATOM     23  H   UNL A   1      33.324  22.804  24.322  1.00  0.00     0.349 HD
ENDBRANCH   8  15
ENDBRANCH   6   8
ENDBRANCH   5   6
ENDBRANCH   4   5
ENDBRANCH   3   4
ENDBRANCH   2   3
ENDBRANCH   1   2
BRANCH   1  24
ATOM     24  C   UNL A   1      31.770  31.196  26.441  1.00  0.00     0.261 C 
BRANCH  24  25
ATOM     25  O   UNL A   1      32.765  31.037  27.469  1.00  0.00    -0.460 OA
BRANCH  25  26
ATOM     26  C   UNL A   1      33.582  32.100  27.625  1.00  0.00     0.338 C 
ATOM     27  O   UNL A   1      33.263  33.281  27.678  1.00  0.00    -0.246 OA
BRANCH  26  28
ATOM     28  C   UNL A   1      34.951  31.647  27.924  1.00  0.00     0.060 A 
ATOM     29  C   UNL A   1      35.152  30.264  28.022  1.00  0.00     0.016 A 
ATOM     30  C   UNL A   1      36.001  32.538  28.167  1.00  0.00     0.016 A 
ATOM     31  C   UNL A   1      36.377  29.766  28.449  1.00  0.00     0.010 A 
ATOM     32  C   UNL A   1      37.231  32.036  28.605  1.00  0.00     0.010 A 
ATOM     33  C   UNL A   1      37.403  30.652  28.797  1.00  0.00    -0.014 A 
BRANCH  33  34
ATOM     34  C   UNL A   1      38.566  30.128  29.551  1.00  0.00     0.031 A 
ATOM     35  C   UNL A   1      38.763  30.581  30.972  1.00  0.00     0.074 A 
ATOM     36  C   UNL A   1      39.385  29.211  29.010  1.00  0.00     0.049 A 
ATOM     37  N   UNL A   1      39.688  30.242  31.834  1.00  0.00    -0.248 NA
ATOM     38  C   UNL A   1      37.778  31.542  31.495  1.00  0.00     0.031 C 
ATOM     39  C   UNL A   1      39.263  28.661  27.662  1.00  0.00     0.029 A 
ATOM     40  N   UNL A   1      40.481  28.577  29.538  1.00  0.00    -0.354 N 
ATOM     41  C   UNL A   1      39.398  30.949  32.994  1.00  0.00     0.074 A 
ATOM     42  C   UNL A   1      38.232  31.760  32.720  1.00  0.00     0.031 C 
ATOM     43  C   UNL A   1      40.252  27.773  27.464  1.00  0.00     0.029 A 
ATOM     44  C   UNL A   1      41.089  27.713  28.662  1.00  0.00     0.049 A 
ATOM     45  H   UNL A   1      40.801  28.727  30.456  1.00  0.00     0.167 HD
ATOM     46  C   UNL A   1      40.041  30.916  34.185  1.00  0.00     0.037 A 
ATOM     47  C   UNL A   1      42.205  26.973  28.809  1.00  0.00     0.037 A 
ATOM     48  C   UNL A   1      41.198  30.105  34.456  1.00  0.00     0.049 A 
ATOM     49  C   UNL A   1      42.944  27.007  30.123  1.00  0.00     0.074 A 
ATOM     50  C   UNL A   1      41.914  29.988  35.634  1.00  0.00     0.029 A 
ATOM     51  N   UNL A   1      41.811  29.275  33.529  1.00  0.00    -0.354 N 
ATOM     52  N   UNL A   1      42.651  27.660  31.221  1.00  0.00    -0.248 NA
ATOM     53  C   UNL A   1      44.166  26.195  30.216  1.00  0.00     0.031 C 
ATOM     54  C   UNL A   1      42.992  29.125  35.405  1.00  0.00     0.029 A 
ATOM     55  C   UNL A   1      42.915  28.664  34.100  1.00  0.00     0.049 A 
ATOM     56  H   UNL A   1      41.508  29.141  32.602  1.00  0.00     0.167 HD
ATOM     57  C   UNL A   1      43.634  27.319  32.142  1.00  0.00     0.074 A 
ATOM     58  C   UNL A   1      44.523  26.389  31.478  1.00  0.00     0.031 C 
ATOM     59  C   UNL A   1      43.785  27.735  33.424  1.00  0.00     0.037 A 
BRANCH  46  60
ATOM     60  C   UNL A   1      39.521  31.803  35.277  1.00  0.00     0.064 A 
ATOM     61  C   UNL A   1      38.614  31.336  36.240  1.00  0.00     0.173 A 
ATOM     62  C   UNL A   1      39.959  33.133  35.378  1.00  0.00     0.173 A 
ATOM     63  F   UNL A   1      38.151  30.078  36.178  1.00  0.00    -0.203 F 
ATOM     64  C   UNL A   1      38.146  32.174  37.249  1.00  0.00     0.198 A 
ATOM     65  C   UNL A   1      39.511  33.959  36.405  1.00  0.00     0.198 A 
ATOM     66  F   UNL A   1      40.827  33.628  34.483  1.00  0.00    -0.203 F 
ATOM     67  F   UNL A   1      37.246  31.720  38.132  1.00  0.00    -0.200 F 
ATOM     68  C   UNL A   1      38.600  33.482  37.334  1.00  0.00     0.200 A 
ATOM     69  F   UNL A   1      39.959  35.220  36.491  1.00  0.00    -0.200 F 
ATOM     70  F   UNL A   1      38.155  34.285  38.311  1.00  0.00    -0.200 F 
ENDBRANCH  46  60
BRANCH  47  71
ATOM     71  C   UNL A   1      42.700  26.144  27.679  1.00  0.00     0.064 A 
ATOM     72  C   UNL A   1      42.260  24.827  27.498  1.00  0.00     0.173 A 
ATOM     73  C   UNL A   1      43.636  26.651  26.766  1.00  0.00     0.173 A 
ATOM     74  F   UNL A   1      41.384  24.289  28.359  1.00  0.00    -0.203 F 
ATOM     75  C   UNL A   1      42.750  24.041  26.456  1.00  0.00     0.198 A 
ATOM     76  C   UNL A   1      44.105  25.875  25.709  1.00  0.00     0.198 A 
ATOM     77  F   UNL A   1      44.092  27.906  26.898  1.00  0.00    -0.203 F 
ATOM     78  F   UNL A   1      42.347  22.769  26.332  1.00  0.00    -0.200 F 
ATOM     79  C   UNL A   1      43.667  24.568  25.559  1.00  0.00     0.200 A 
ATOM     80  F   UNL A   1      44.984  26.392  24.838  1.00  0.00    -0.200 F 
ATOM     81  F   UNL A   1      44.136  23.814  24.555  1.00  0.00    -0.200 F 
ENDBRANCH  47  71
BRANCH  59  82
ATOM     82  C   UNL A   1      44.936  27.168  34.203  1.00  0.00     0.064 A 
ATOM     83  C   UNL A   1      46.177  27.818  34.262  1.00  0.00     0.173 A 
ATOM     84  C   UNL A   1      44.780  25.980  34.934  1.00  0.00     0.173 A 
ATOM     85  F   UNL A   1      46.380  28.948  33.569  1.00  0.00    -0.203 F 
ATOM     86  C   UNL A   1      47.228  27.286  35.006  1.00  0.00     0.198 A 
ATOM     87  C   UNL A   1      45.822  25.468  35.700  1.00  0.00     0.198 A 
ATOM     88  F   UNL A   1      43.609  25.324  34.918  1.00  0.00    -0.203 F 
ATOM     89  F   UNL A   1      48.420  27.900  35.011  1.00  0.00    -0.200 F 
ATOM     90  C   UNL A   1      47.048  26.117  35.729  1.00  0.00     0.200 A 
ATOM     91  F   UNL A   1      45.643  24.346  36.411  1.00  0.00    -0.200 F 
ATOM     92  F   UNL A   1      48.059  25.611  36.450  1.00  0.00    -0.200 F 
ENDBRANCH  59  82
ENDBRANCH  33  34
ENDBRANCH  26  28
ENDBRANCH  25  26
ENDBRANCH  24  25
ENDBRANCH   1  24
TORSDOF 15
ENDMDL
