MODEL 1
REMARK VINA RESULT:     -10.3      0.000      0.000
REMARK SMILES C=CCN(CC(=O)OCCOCCOC(=O)c1ccc(-c2c3nc(c(-c4c(F)c(F)c(F)c(F)c4F)c4ccc([nH]4)c(-c4c(F)c(F)c(F)c(F)c4F)c4nc(c(-c5c(F)c(F)c(F)c(F)c5F)c5ccc2[nH]5)C=C4)C=C3)cc1)S(=O)(=O)c1ccccc1OC
REMARK SMILES IDX 10 1 9 2 8 3 6 4 7 5 5 6 4 7 3 8 2 9 1 10 80 11 81 12 82 13
REMARK SMILES IDX 83 14 84 15 88 16 85 17 87 18 86 19 89 20 90 21 11 22 12 23
REMARK SMILES IDX 13 24 14 25 15 26 16 27 17 28 18 29 79 30 19 31 78 32 20 33
REMARK SMILES IDX 21 34 22 35 72 36 23 37 77 38 71 39 73 40 24 41 76 42 70 43
REMARK SMILES IDX 69 44 25 46 57 47 37 48 56 49 38 50 41 51 55 52 74 53 39 54
REMARK SMILES IDX 40 55 54 57 75 58 42 59 26 60 27 61 35 62 28 63 29 64 33 65
REMARK SMILES IDX 36 66 30 67 31 68 34 69 32 70 58 71 59 72 67 73 60 74 61 75
REMARK SMILES IDX 65 76 68 77 62 78 63 79 66 80 64 81 43 82 44 83 52 84 45 85
REMARK SMILES IDX 46 86 50 87 53 88 47 89 48 90 51 91 49 92
REMARK H PARENT 73 45 41 56
REMARK Flexibility Score: inf
ROOT
ATOM      1  C   UNL A   1      34.588  20.518  25.028  1.00  0.00     0.202 C 
ENDROOT
BRANCH   1   2
ATOM      2  C   UNL A   1      33.157  20.583  24.486  1.00  0.00     0.261 C 
BRANCH   2   3
ATOM      3  O   UNL A   1      32.611  21.902  24.678  1.00  0.00    -0.462 OA
BRANCH   3   4
ATOM      4  C   UNL A   1      32.080  22.484  23.569  1.00  0.00     0.321 C 
ATOM      5  O   UNL A   1      32.275  22.090  22.425  1.00  0.00    -0.251 OA
BRANCH   4   6
ATOM      6  C   UNL A   1      31.097  23.592  23.900  1.00  0.00     0.225 C 
BRANCH   6   7
ATOM      7  N   UNL A   1      31.596  24.829  24.584  1.00  0.00    -0.183 NA
BRANCH   7   8
ATOM      8  C   UNL A   1      32.629  25.499  23.714  1.00  0.00     0.130 C 
BRANCH   8   9
ATOM      9  C   UNL A   1      34.000  25.636  24.296  1.00  0.00    -0.018 C 
ATOM     10  C   UNL A   1      34.370  25.176  25.497  1.00  0.00     0.005 C 
ENDBRANCH   8   9
ENDBRANCH   7   8
BRANCH   7  11
ATOM     11  S   UNL A   1      30.357  25.846  25.218  1.00  0.00     0.247 S 
ATOM     12  O   UNL A   1      29.350  26.031  24.197  1.00  0.00    -0.207 OA
ATOM     13  O   UNL A   1      29.994  25.277  26.504  1.00  0.00    -0.207 OA
BRANCH  11  14
ATOM     14  C   UNL A   1      31.120  27.423  25.574  1.00  0.00     0.124 A 
ATOM     15  C   UNL A   1      31.736  27.561  26.832  1.00  0.00     0.026 A 
ATOM     16  C   UNL A   1      31.024  28.527  24.720  1.00  0.00     0.138 A 
ATOM     17  C   UNL A   1      32.280  28.780  27.226  1.00  0.00     0.002 A 
ATOM     18  C   UNL A   1      31.542  29.760  25.147  1.00  0.00     0.048 A 
ATOM     19  C   UNL A   1      32.176  29.882  26.387  1.00  0.00     0.004 A 
BRANCH  16  20
ATOM     20  O   UNL A   1      30.368  28.408  23.530  1.00  0.00    -0.495 OA
ATOM     21  C   UNL A   1      31.023  28.994  22.410  1.00  0.00     0.278 C 
ENDBRANCH  16  20
ENDBRANCH  11  14
ENDBRANCH   7  11
ENDBRANCH   6   7
ENDBRANCH   4   6
ENDBRANCH   3   4
ENDBRANCH   2   3
ENDBRANCH   1   2
BRANCH   1  22
ATOM     22  O   UNL A   1      35.346  21.732  24.962  1.00  0.00    -0.374 OA
BRANCH  22  23
ATOM     23  C   UNL A   1      36.583  21.699  24.256  1.00  0.00     0.202 C 
BRANCH  23  24
ATOM     24  C   UNL A   1      37.741  20.931  24.907  1.00  0.00     0.261 C 
BRANCH  24  25
ATOM     25  O   UNL A   1      38.169  21.473  26.158  1.00  0.00    -0.460 OA
BRANCH  25  26
ATOM     26  C   UNL A   1      39.505  21.466  26.351  1.00  0.00     0.338 C 
ATOM     27  O   UNL A   1      40.304  20.569  26.131  1.00  0.00    -0.246 OA
BRANCH  26  28
ATOM     28  C   UNL A   1      39.900  22.779  26.866  1.00  0.00     0.060 A 
ATOM     29  C   UNL A   1      39.338  23.930  26.310  1.00  0.00     0.016 A 
ATOM     30  C   UNL A   1      40.896  22.859  27.838  1.00  0.00     0.016 A 
ATOM     31  C   UNL A   1      39.803  25.179  26.717  1.00  0.00     0.010 A 
ATOM     32  C   UNL A   1      41.326  24.109  28.279  1.00  0.00     0.010 A 
ATOM     33  C   UNL A   1      40.813  25.276  27.689  1.00  0.00    -0.014 A 
BRANCH  33  34
ATOM     34  C   UNL A   1      41.428  26.591  27.991  1.00  0.00     0.031 A 
ATOM     35  C   UNL A   1      42.826  26.873  27.513  1.00  0.00     0.074 A 
ATOM     36  C   UNL A   1      40.736  27.525  28.667  1.00  0.00     0.049 A 
ATOM     37  N   UNL A   1      43.553  27.951  27.659  1.00  0.00    -0.248 NA
ATOM     38  C   UNL A   1      43.500  25.789  26.779  1.00  0.00     0.031 C 
ATOM     39  C   UNL A   1      39.377  27.360  29.181  1.00  0.00     0.029 A 
ATOM     40  N   UNL A   1      41.083  28.800  29.035  1.00  0.00    -0.354 N 
ATOM     41  C   UNL A   1      44.767  27.673  27.045  1.00  0.00     0.074 A 
ATOM     42  C   UNL A   1      44.697  26.312  26.561  1.00  0.00     0.031 C 
ATOM     43  C   UNL A   1      38.999  28.498  29.786  1.00  0.00     0.029 A 
ATOM     44  C   UNL A   1      40.096  29.461  29.723  1.00  0.00     0.049 A 
ATOM     45  H   UNL A   1      41.958  29.203  28.826  1.00  0.00     0.167 HD
ATOM     46  C   UNL A   1      45.837  28.486  26.882  1.00  0.00     0.037 A 
ATOM     47  C   UNL A   1      40.085  30.705  30.240  1.00  0.00     0.037 A 
ATOM     48  C   UNL A   1      45.896  29.844  27.354  1.00  0.00     0.049 A 
ATOM     49  C   UNL A   1      41.293  31.584  30.061  1.00  0.00     0.074 A 
ATOM     50  C   UNL A   1      46.923  30.761  27.222  1.00  0.00     0.029 A 
ATOM     51  N   UNL A   1      44.877  30.477  28.049  1.00  0.00    -0.354 N 
ATOM     52  N   UNL A   1      42.421  31.324  29.446  1.00  0.00    -0.248 NA
ATOM     53  C   UNL A   1      41.224  32.931  30.643  1.00  0.00     0.031 C 
ATOM     54  C   UNL A   1      46.538  31.942  27.868  1.00  0.00     0.029 A 
ATOM     55  C   UNL A   1      45.256  31.770  28.368  1.00  0.00     0.049 A 
ATOM     56  H   UNL A   1      44.013  30.068  28.283  1.00  0.00     0.167 HD
ATOM     57  C   UNL A   1      43.186  32.477  29.547  1.00  0.00     0.074 A 
ATOM     58  C   UNL A   1      42.388  33.446  30.271  1.00  0.00     0.031 C 
ATOM     59  C   UNL A   1      44.439  32.715  29.084  1.00  0.00     0.037 A 
BRANCH  46  60
ATOM     60  C   UNL A   1      47.030  27.919  26.172  1.00  0.00     0.064 A 
ATOM     61  C   UNL A   1      47.078  27.832  24.772  1.00  0.00     0.173 A 
ATOM     62  C   UNL A   1      48.143  27.468  26.896  1.00  0.00     0.173 A 
ATOM     63  F   UNL A   1      46.032  28.236  24.034  1.00  0.00    -0.203 F 
ATOM     64  C   UNL A   1      48.185  27.287  24.126  1.00  0.00     0.198 A 
ATOM     65  C   UNL A   1      49.259  26.947  26.245  1.00  0.00     0.198 A 
ATOM     66  F   UNL A   1      48.150  27.532  28.236  1.00  0.00    -0.203 F 
ATOM     67  F   UNL A   1      48.188  27.170  22.790  1.00  0.00    -0.200 F 
ATOM     68  C   UNL A   1      49.276  26.850  24.862  1.00  0.00     0.200 A 
ATOM     69  F   UNL A   1      50.316  26.533  26.957  1.00  0.00    -0.200 F 
ATOM     70  F   UNL A   1      50.340  26.326  24.238  1.00  0.00    -0.200 F 
ENDBRANCH  46  60
BRANCH  47  71
ATOM     71  C   UNL A   1      38.879  31.197  30.953  1.00  0.00     0.064 A 
ATOM     72  C   UNL A   1      38.711  30.970  32.327  1.00  0.00     0.173 A 
ATOM     73  C   UNL A   1      37.873  31.907  30.281  1.00  0.00     0.173 A 
ATOM     74  F   UNL A   1      39.635  30.277  33.008  1.00  0.00    -0.203 F 
ATOM     75  C   UNL A   1      37.578  31.426  32.998  1.00  0.00     0.198 A 
ATOM     76  C   UNL A   1      36.753  32.383  30.959  1.00  0.00     0.198 A 
ATOM     77  F   UNL A   1      37.988  32.151  28.968  1.00  0.00    -0.203 F 
ATOM     78  F   UNL A   1      37.427  31.167  34.304  1.00  0.00    -0.200 F 
ATOM     79  C   UNL A   1      36.603  32.138  32.315  1.00  0.00     0.200 A 
ATOM     80  F   UNL A   1      35.819  33.081  30.298  1.00  0.00    -0.200 F 
ATOM     81  F   UNL A   1      35.518  32.584  32.963  1.00  0.00    -0.200 F 
ENDBRANCH  47  71
BRANCH  59  82
ATOM     82  C   UNL A   1      45.009  34.080  29.326  1.00  0.00     0.064 A 
ATOM     83  C   UNL A   1      45.742  34.371  30.484  1.00  0.00     0.173 A 
ATOM     84  C   UNL A   1      44.857  35.094  28.367  1.00  0.00     0.173 A 
ATOM     85  F   UNL A   1      45.901  33.438  31.435  1.00  0.00    -0.203 F 
ATOM     86  C   UNL A   1      46.289  35.636  30.684  1.00  0.00     0.198 A 
ATOM     87  C   UNL A   1      45.425  36.349  28.559  1.00  0.00     0.198 A 
ATOM     88  F   UNL A   1      44.169  34.860  27.240  1.00  0.00    -0.203 F 
ATOM     89  F   UNL A   1      46.953  35.906  31.816  1.00  0.00    -0.200 F 
ATOM     90  C   UNL A   1      46.135  36.621  29.719  1.00  0.00     0.200 A 
ATOM     91  F   UNL A   1      45.283  37.297  27.623  1.00  0.00    -0.200 F 
ATOM     92  F   UNL A   1      46.666  37.837  29.911  1.00  0.00    -0.200 F 
ENDBRANCH  59  82
ENDBRANCH  33  34
ENDBRANCH  26  28
ENDBRANCH  25  26
ENDBRANCH  24  25
ENDBRANCH  23  24
ENDBRANCH  22  23
ENDBRANCH   1  22
TORSDOF 20
ENDMDL
MODEL 2
REMARK VINA RESULT:      -9.9      0.572      7.300
REMARK SMILES C=CCN(CC(=O)OCCOCCOC(=O)c1ccc(-c2c3nc(c(-c4c(F)c(F)c(F)c(F)c4F)c4ccc([nH]4)c(-c4c(F)c(F)c(F)c(F)c4F)c4nc(c(-c5c(F)c(F)c(F)c(F)c5F)c5ccc2[nH]5)C=C4)C=C3)cc1)S(=O)(=O)c1ccccc1OC
REMARK SMILES IDX 10 1 9 2 8 3 6 4 7 5 5 6 4 7 3 8 2 9 1 10 80 11 81 12 82 13
REMARK SMILES IDX 83 14 84 15 88 16 85 17 87 18 86 19 89 20 90 21 11 22 12 23
REMARK SMILES IDX 13 24 14 25 15 26 16 27 17 28 18 29 79 30 19 31 78 32 20 33
REMARK SMILES IDX 21 34 22 35 72 36 23 37 77 38 71 39 73 40 24 41 76 42 70 43
REMARK SMILES IDX 69 44 25 46 57 47 37 48 56 49 38 50 41 51 55 52 74 53 39 54
REMARK SMILES IDX 40 55 54 57 75 58 42 59 26 60 27 61 35 62 28 63 29 64 33 65
REMARK SMILES IDX 36 66 30 67 31 68 34 69 32 70 58 71 59 72 67 73 60 74 61 75
REMARK SMILES IDX 65 76 68 77 62 78 63 79 66 80 64 81 43 82 44 83 52 84 45 85
REMARK SMILES IDX 46 86 50 87 53 88 47 89 48 90 51 91 49 92
REMARK H PARENT 73 45 41 56
REMARK Flexibility Score: inf
ROOT
ATOM      1  C   UNL A   1      34.451  20.543  25.048  1.00  0.00     0.202 C 
ENDROOT
BRANCH   1   2
ATOM      2  C   UNL A   1      33.017  20.544  24.511  1.00  0.00     0.261 C 
BRANCH   2   3
ATOM      3  O   UNL A   1      32.398  21.824  24.741  1.00  0.00    -0.462 OA
BRANCH   3   4
ATOM      4  C   UNL A   1      31.866  22.425  23.643  1.00  0.00     0.321 C 
ATOM      5  O   UNL A   1      32.052  22.043  22.493  1.00  0.00    -0.251 OA
BRANCH   4   6
ATOM      6  C   UNL A   1      30.896  23.537  23.993  1.00  0.00     0.225 C 
BRANCH   6   7
ATOM      7  N   UNL A   1      31.394  24.724  24.764  1.00  0.00    -0.183 NA
BRANCH   7   8
ATOM      8  C   UNL A   1      32.587  25.314  24.057  1.00  0.00     0.130 C 
BRANCH   8   9
ATOM      9  C   UNL A   1      33.888  25.264  24.793  1.00  0.00    -0.018 C 
ATOM     10  C   UNL A   1      34.434  26.293  25.451  1.00  0.00     0.005 C 
ENDBRANCH   8   9
ENDBRANCH   7   8
BRANCH   7  11
ATOM     11  S   UNL A   1      30.165  25.833  25.244  1.00  0.00     0.247 S 
ATOM     12  O   UNL A   1      29.314  26.093  24.104  1.00  0.00    -0.207 OA
ATOM     13  O   UNL A   1      29.598  25.293  26.468  1.00  0.00    -0.207 OA
BRANCH  11  14
ATOM     14  C   UNL A   1      30.993  27.346  25.710  1.00  0.00     0.124 A 
ATOM     15  C   UNL A   1      31.347  27.486  27.065  1.00  0.00     0.026 A 
ATOM     16  C   UNL A   1      31.189  28.412  24.825  1.00  0.00     0.138 A 
ATOM     17  C   UNL A   1      31.918  28.666  27.531  1.00  0.00     0.002 A 
ATOM     18  C   UNL A   1      31.729  29.611  25.317  1.00  0.00     0.048 A 
ATOM     19  C   UNL A   1      32.103  29.732  26.659  1.00  0.00     0.004 A 
BRANCH  16  20
ATOM     20  O   UNL A   1      30.784  28.298  23.528  1.00  0.00    -0.495 OA
ATOM     21  C   UNL A   1      31.714  28.761  22.554  1.00  0.00     0.278 C 
ENDBRANCH  16  20
ENDBRANCH  11  14
ENDBRANCH   7  11
ENDBRANCH   6   7
ENDBRANCH   4   6
ENDBRANCH   3   4
ENDBRANCH   2   3
ENDBRANCH   1   2
BRANCH   1  22
ATOM     22  O   UNL A   1      35.160  21.786  24.963  1.00  0.00    -0.374 OA
BRANCH  22  23
ATOM     23  C   UNL A   1      36.398  21.792  24.258  1.00  0.00     0.202 C 
BRANCH  23  24
ATOM     24  C   UNL A   1      37.560  21.005  24.878  1.00  0.00     0.261 C 
BRANCH  24  25
ATOM     25  O   UNL A   1      38.011  21.523  26.131  1.00  0.00    -0.460 OA
BRANCH  25  26
ATOM     26  C   UNL A   1      39.338  21.402  26.349  1.00  0.00     0.338 C 
ATOM     27  O   UNL A   1      40.050  20.422  26.199  1.00  0.00    -0.246 OA
BRANCH  26  28
ATOM     28  C   UNL A   1      39.849  22.700  26.794  1.00  0.00     0.060 A 
ATOM     29  C   UNL A   1      39.368  23.867  26.196  1.00  0.00     0.016 A 
ATOM     30  C   UNL A   1      40.872  22.743  27.740  1.00  0.00     0.016 A 
ATOM     31  C   UNL A   1      39.942  25.091  26.534  1.00  0.00     0.010 A 
ATOM     32  C   UNL A   1      41.412  23.973  28.112  1.00  0.00     0.010 A 
ATOM     33  C   UNL A   1      40.979  25.150  27.479  1.00  0.00    -0.014 A 
BRANCH  33  34
ATOM     34  C   UNL A   1      41.705  26.423  27.705  1.00  0.00     0.031 A 
ATOM     35  C   UNL A   1      41.045  27.511  28.505  1.00  0.00     0.074 A 
ATOM     36  C   UNL A   1      42.946  26.593  27.214  1.00  0.00     0.049 A 
ATOM     37  N   UNL A   1      41.496  28.696  28.828  1.00  0.00    -0.248 NA
ATOM     38  C   UNL A   1      39.688  27.230  29.002  1.00  0.00     0.031 C 
ATOM     39  C   UNL A   1      43.681  25.608  26.422  1.00  0.00     0.029 A 
ATOM     40  N   UNL A   1      43.806  27.656  27.314  1.00  0.00    -0.354 N 
ATOM     41  C   UNL A   1      40.479  29.301  29.555  1.00  0.00     0.074 A 
ATOM     42  C   UNL A   1      39.372  28.372  29.592  1.00  0.00     0.031 C 
ATOM     43  C   UNL A   1      44.891  26.108  26.119  1.00  0.00     0.029 A 
ATOM     44  C   UNL A   1      45.004  27.455  26.675  1.00  0.00     0.049 A 
ATOM     45  H   UNL A   1      43.586  28.486  27.797  1.00  0.00     0.167 HD
ATOM     46  C   UNL A   1      40.477  30.515  30.154  1.00  0.00     0.037 A 
ATOM     47  C   UNL A   1      46.071  28.269  26.556  1.00  0.00     0.037 A 
ATOM     48  C   UNL A   1      41.586  31.430  30.126  1.00  0.00     0.049 A 
ATOM     49  C   UNL A   1      46.037  29.621  27.217  1.00  0.00     0.074 A 
ATOM     50  C   UNL A   1      41.697  32.675  30.719  1.00  0.00     0.029 A 
ATOM     51  N   UNL A   1      42.782  31.192  29.466  1.00  0.00    -0.354 N 
ATOM     52  N   UNL A   1      45.086  30.168  27.935  1.00  0.00    -0.248 NA
ATOM     53  C   UNL A   1      47.229  30.466  27.058  1.00  0.00     0.031 C 
ATOM     54  C   UNL A   1      42.949  33.205  30.389  1.00  0.00     0.029 A 
ATOM     55  C   UNL A   1      43.632  32.273  29.623  1.00  0.00     0.049 A 
ATOM     56  H   UNL A   1      42.995  30.375  28.958  1.00  0.00     0.167 HD
ATOM     57  C   UNL A   1      45.568  31.407  28.329  1.00  0.00     0.074 A 
ATOM     58  C   UNL A   1      46.906  31.528  27.783  1.00  0.00     0.031 C 
ATOM     59  C   UNL A   1      44.961  32.363  29.074  1.00  0.00     0.037 A 
BRANCH  46  60
ATOM     60  C   UNL A   1      39.229  30.921  30.882  1.00  0.00     0.064 A 
ATOM     61  C   UNL A   1      38.171  31.565  30.223  1.00  0.00     0.173 A 
ATOM     62  C   UNL A   1      39.083  30.652  32.250  1.00  0.00     0.173 A 
ATOM     63  F   UNL A   1      38.268  31.858  28.916  1.00  0.00    -0.203 F 
ATOM     64  C   UNL A   1      37.025  31.951  30.914  1.00  0.00     0.198 A 
ATOM     65  C   UNL A   1      37.925  31.017  32.933  1.00  0.00     0.198 A 
ATOM     66  F   UNL A   1      40.063  30.036  32.928  1.00  0.00    -0.203 F 
ATOM     67  F   UNL A   1      36.049  32.609  30.272  1.00  0.00    -0.200 F 
ATOM     68  C   UNL A   1      36.901  31.673  32.266  1.00  0.00     0.200 A 
ATOM     69  F   UNL A   1      37.802  30.740  34.238  1.00  0.00    -0.200 F 
ATOM     70  F   UNL A   1      35.797  32.046  32.929  1.00  0.00    -0.200 F 
ENDBRANCH  46  60
BRANCH  47  71
ATOM     71  C   UNL A   1      47.266  27.815  25.801  1.00  0.00     0.064 A 
ATOM     72  C   UNL A   1      48.403  27.338  26.470  1.00  0.00     0.173 A 
ATOM     73  C   UNL A   1      47.297  27.843  24.399  1.00  0.00     0.173 A 
ATOM     74  F   UNL A   1      48.429  27.312  27.810  1.00  0.00    -0.203 F 
ATOM     75  C   UNL A   1      49.528  26.916  25.764  1.00  0.00     0.198 A 
ATOM     76  C   UNL A   1      48.414  27.398  23.695  1.00  0.00     0.198 A 
ATOM     77  F   UNL A   1      46.235  28.290  23.714  1.00  0.00    -0.203 F 
ATOM     78  F   UNL A   1      50.613  26.495  26.428  1.00  0.00    -0.200 F 
ATOM     79  C   UNL A   1      49.530  26.940  24.377  1.00  0.00     0.200 A 
ATOM     80  F   UNL A   1      48.407  27.412  22.355  1.00  0.00    -0.200 F 
ATOM     81  F   UNL A   1      50.609  26.526  23.699  1.00  0.00    -0.200 F 
ENDBRANCH  47  71
BRANCH  59  82
ATOM     82  C   UNL A   1      45.745  33.608  29.362  1.00  0.00     0.064 A 
ATOM     83  C   UNL A   1      45.699  34.715  28.504  1.00  0.00     0.173 A 
ATOM     84  C   UNL A   1      46.515  33.708  30.531  1.00  0.00     0.173 A 
ATOM     85  F   UNL A   1      44.989  34.661  27.367  1.00  0.00    -0.203 F 
ATOM     86  C   UNL A   1      46.413  35.875  28.797  1.00  0.00     0.198 A 
ATOM     87  C   UNL A   1      47.208  34.877  30.831  1.00  0.00     0.198 A 
ATOM     88  F   UNL A   1      46.585  32.676  31.385  1.00  0.00    -0.203 F 
ATOM     89  F   UNL A   1      46.387  36.908  27.944  1.00  0.00    -0.200 F 
ATOM     90  C   UNL A   1      47.160  35.957  29.962  1.00  0.00     0.200 A 
ATOM     91  F   UNL A   1      47.922  34.958  31.962  1.00  0.00    -0.200 F 
ATOM     92  F   UNL A   1      47.842  37.075  30.245  1.00  0.00    -0.200 F 
ENDBRANCH  59  82
ENDBRANCH  33  34
ENDBRANCH  26  28
ENDBRANCH  25  26
ENDBRANCH  24  25
ENDBRANCH  23  24
ENDBRANCH  22  23
ENDBRANCH   1  22
TORSDOF 20
ENDMDL
MODEL 3
REMARK VINA RESULT:      -9.9      4.380      7.755
REMARK SMILES C=CCN(CC(=O)OCCOCCOC(=O)c1ccc(-c2c3nc(c(-c4c(F)c(F)c(F)c(F)c4F)c4ccc([nH]4)c(-c4c(F)c(F)c(F)c(F)c4F)c4nc(c(-c5c(F)c(F)c(F)c(F)c5F)c5ccc2[nH]5)C=C4)C=C3)cc1)S(=O)(=O)c1ccccc1OC
REMARK SMILES IDX 10 1 9 2 8 3 6 4 7 5 5 6 4 7 3 8 2 9 1 10 80 11 81 12 82 13
REMARK SMILES IDX 83 14 84 15 88 16 85 17 87 18 86 19 89 20 90 21 11 22 12 23
REMARK SMILES IDX 13 24 14 25 15 26 16 27 17 28 18 29 79 30 19 31 78 32 20 33
REMARK SMILES IDX 21 34 22 35 72 36 23 37 77 38 71 39 73 40 24 41 76 42 70 43
REMARK SMILES IDX 69 44 25 46 57 47 37 48 56 49 38 50 41 51 55 52 74 53 39 54
REMARK SMILES IDX 40 55 54 57 75 58 42 59 26 60 27 61 35 62 28 63 29 64 33 65
REMARK SMILES IDX 36 66 30 67 31 68 34 69 32 70 58 71 59 72 67 73 60 74 61 75
REMARK SMILES IDX 65 76 68 77 62 78 63 79 66 80 64 81 43 82 44 83 52 84 45 85
REMARK SMILES IDX 46 86 50 87 53 88 47 89 48 90 51 91 49 92
REMARK H PARENT 73 45 41 56
REMARK Flexibility Score: inf
ROOT
ATOM      1  C   UNL A   1      33.055  29.048  26.840  1.00  0.00     0.202 C 
ENDROOT
BRANCH   1   2
ATOM      2  C   UNL A   1      32.573  27.921  25.920  1.00  0.00     0.261 C 
BRANCH   2   3
ATOM      3  O   UNL A   1      33.564  27.642  24.913  1.00  0.00    -0.462 OA
BRANCH   3   4
ATOM      4  C   UNL A   1      33.157  27.812  23.626  1.00  0.00     0.321 C 
ATOM      5  O   UNL A   1      32.908  28.901  23.122  1.00  0.00    -0.251 OA
BRANCH   4   6
ATOM      6  C   UNL A   1      33.179  26.522  22.827  1.00  0.00     0.225 C 
BRANCH   6   7
ATOM      7  N   UNL A   1      32.304  25.382  23.259  1.00  0.00    -0.183 NA
BRANCH   7   8
ATOM      8  C   UNL A   1      30.875  25.677  22.879  1.00  0.00     0.130 C 
BRANCH   8   9
ATOM      9  C   UNL A   1      29.942  25.999  24.003  1.00  0.00    -0.018 C 
ATOM     10  C   UNL A   1      28.813  26.707  23.879  1.00  0.00     0.005 C 
ENDBRANCH   8   9
ENDBRANCH   7   8
BRANCH   7  11
ATOM     11  S   UNL A   1      32.901  23.822  22.834  1.00  0.00     0.247 S 
ATOM     12  O   UNL A   1      31.831  22.863  23.000  1.00  0.00    -0.207 OA
ATOM     13  O   UNL A   1      33.542  23.980  21.540  1.00  0.00    -0.207 OA
BRANCH  11  14
ATOM     14  C   UNL A   1      34.209  23.441  23.990  1.00  0.00     0.124 A 
ATOM     15  C   UNL A   1      35.472  23.142  23.445  1.00  0.00     0.026 A 
ATOM     16  C   UNL A   1      33.997  23.317  25.368  1.00  0.00     0.138 A 
ATOM     17  C   UNL A   1      36.525  22.751  24.267  1.00  0.00     0.002 A 
ATOM     18  C   UNL A   1      35.058  22.884  26.180  1.00  0.00     0.048 A 
ATOM     19  C   UNL A   1      36.316  22.615  25.634  1.00  0.00     0.004 A 
BRANCH  16  20
ATOM     20  O   UNL A   1      32.756  23.542  25.885  1.00  0.00    -0.495 OA
ATOM     21  C   UNL A   1      32.538  23.028  27.195  1.00  0.00     0.278 C 
ENDBRANCH  16  20
ENDBRANCH  11  14
ENDBRANCH   7  11
ENDBRANCH   6   7
ENDBRANCH   4   6
ENDBRANCH   3   4
ENDBRANCH   2   3
ENDBRANCH   1   2
BRANCH   1  22
ATOM     22  O   UNL A   1      32.066  30.006  27.238  1.00  0.00    -0.374 OA
BRANCH  22  23
ATOM     23  C   UNL A   1      31.733  31.033  26.309  1.00  0.00     0.202 C 
BRANCH  23  24
ATOM     24  C   UNL A   1      31.693  32.472  26.841  1.00  0.00     0.261 C 
BRANCH  24  25
ATOM     25  O   UNL A   1      32.961  33.132  26.830  1.00  0.00    -0.460 OA
BRANCH  25  26
ATOM     26  C   UNL A   1      33.306  33.713  27.998  1.00  0.00     0.338 C 
ATOM     27  O   UNL A   1      32.755  34.629  28.588  1.00  0.00    -0.246 OA
BRANCH  26  28
ATOM     28  C   UNL A   1      34.496  33.033  28.514  1.00  0.00     0.060 A 
ATOM     29  C   UNL A   1      34.398  31.705  28.936  1.00  0.00     0.016 A 
ATOM     30  C   UNL A   1      35.683  33.749  28.658  1.00  0.00     0.016 A 
ATOM     31  C   UNL A   1      35.498  31.099  29.537  1.00  0.00     0.010 A 
ATOM     32  C   UNL A   1      36.798  33.126  29.216  1.00  0.00     0.010 A 
ATOM     33  C   UNL A   1      36.699  31.811  29.698  1.00  0.00    -0.014 A 
BRANCH  33  34
ATOM     34  C   UNL A   1      37.806  31.227  30.493  1.00  0.00     0.031 A 
ATOM     35  C   UNL A   1      38.728  30.231  29.845  1.00  0.00     0.074 A 
ATOM     36  C   UNL A   1      37.992  31.598  31.772  1.00  0.00     0.049 A 
ATOM     37  N   UNL A   1      39.759  29.602  30.349  1.00  0.00    -0.248 NA
ATOM     38  C   UNL A   1      38.444  29.890  28.441  1.00  0.00     0.031 C 
ATOM     39  C   UNL A   1      37.159  32.551  32.503  1.00  0.00     0.029 A 
ATOM     40  N   UNL A   1      38.946  31.217  32.681  1.00  0.00    -0.354 N 
ATOM     41  C   UNL A   1      40.239  28.790  29.330  1.00  0.00     0.074 A 
ATOM     42  C   UNL A   1      39.365  28.972  28.192  1.00  0.00     0.031 C 
ATOM     43  C   UNL A   1      37.647  32.694  33.746  1.00  0.00     0.029 A 
ATOM     44  C   UNL A   1      38.811  31.824  33.905  1.00  0.00     0.049 A 
ATOM     45  H   UNL A   1      39.660  30.570  32.476  1.00  0.00     0.167 HD
ATOM     46  C   UNL A   1      41.323  27.979  29.337  1.00  0.00     0.037 A 
ATOM     47  C   UNL A   1      39.548  31.690  35.025  1.00  0.00     0.037 A 
ATOM     48  C   UNL A   1      42.198  27.812  30.466  1.00  0.00     0.049 A 
ATOM     49  C   UNL A   1      40.738  30.770  35.012  1.00  0.00     0.074 A 
ATOM     50  C   UNL A   1      43.337  27.034  30.571  1.00  0.00     0.029 A 
ATOM     51  N   UNL A   1      42.026  28.441  31.690  1.00  0.00    -0.354 N 
ATOM     52  N   UNL A   1      41.206  30.036  34.032  1.00  0.00    -0.248 NA
ATOM     53  C   UNL A   1      41.508  30.664  36.260  1.00  0.00     0.031 C 
ATOM     54  C   UNL A   1      43.836  27.166  31.872  1.00  0.00     0.029 A 
ATOM     55  C   UNL A   1      43.030  28.057  32.563  1.00  0.00     0.049 A 
ATOM     56  H   UNL A   1      41.298  29.067  31.907  1.00  0.00     0.167 HD
ATOM     57  C   UNL A   1      42.332  29.399  34.535  1.00  0.00     0.074 A 
ATOM     58  C   UNL A   1      42.488  29.845  35.905  1.00  0.00     0.031 C 
ATOM     59  C   UNL A   1      43.164  28.522  33.920  1.00  0.00     0.037 A 
BRANCH  46  60
ATOM     60  C   UNL A   1      41.613  27.207  28.083  1.00  0.00     0.064 A 
ATOM     61  C   UNL A   1      41.027  25.955  27.840  1.00  0.00     0.173 A 
ATOM     62  C   UNL A   1      42.475  27.728  27.108  1.00  0.00     0.173 A 
ATOM     63  F   UNL A   1      40.206  25.406  28.749  1.00  0.00    -0.203 F 
ATOM     64  C   UNL A   1      41.317  25.241  26.680  1.00  0.00     0.198 A 
ATOM     65  C   UNL A   1      42.743  27.023  25.937  1.00  0.00     0.198 A 
ATOM     66  F   UNL A   1      43.059  28.922  27.290  1.00  0.00    -0.203 F 
ATOM     67  F   UNL A   1      40.783  24.026  26.492  1.00  0.00    -0.200 F 
ATOM     68  C   UNL A   1      42.171  25.777  25.728  1.00  0.00     0.200 A 
ATOM     69  F   UNL A   1      43.562  27.546  25.014  1.00  0.00    -0.200 F 
ATOM     70  F   UNL A   1      42.449  25.089  24.612  1.00  0.00    -0.200 F 
ENDBRANCH  46  60
BRANCH  47  71
ATOM     71  C   UNL A   1      39.192  32.466  36.240  1.00  0.00     0.064 A 
ATOM     72  C   UNL A   1      38.269  31.967  37.170  1.00  0.00     0.173 A 
ATOM     73  C   UNL A   1      39.771  33.717  36.502  1.00  0.00     0.173 A 
ATOM     74  F   UNL A   1      37.674  30.785  36.953  1.00  0.00    -0.203 F 
ATOM     75  C   UNL A   1      37.930  32.695  38.309  1.00  0.00     0.198 A 
ATOM     76  C   UNL A   1      39.448  34.432  37.653  1.00  0.00     0.198 A 
ATOM     77  F   UNL A   1      40.660  34.237  35.644  1.00  0.00    -0.203 F 
ATOM     78  F   UNL A   1      37.019  32.210  39.164  1.00  0.00    -0.200 F 
ATOM     79  C   UNL A   1      38.525  33.924  38.552  1.00  0.00     0.200 A 
ATOM     80  F   UNL A   1      40.034  35.614  37.891  1.00  0.00    -0.200 F 
ATOM     81  F   UNL A   1      38.204  34.619  39.652  1.00  0.00    -0.200 F 
ENDBRANCH  47  71
BRANCH  59  82
ATOM     82  C   UNL A   1      44.326  28.009  34.716  1.00  0.00     0.064 A 
ATOM     83  C   UNL A   1      44.235  26.826  35.462  1.00  0.00     0.173 A 
ATOM     84  C   UNL A   1      45.555  28.685  34.694  1.00  0.00     0.173 A 
ATOM     85  F   UNL A   1      43.076  26.153  35.524  1.00  0.00    -0.203 F 
ATOM     86  C   UNL A   1      45.331  26.347  36.176  1.00  0.00     0.198 A 
ATOM     87  C   UNL A   1      46.654  28.191  35.390  1.00  0.00     0.198 A 
ATOM     88  F   UNL A   1      45.691  29.819  33.989  1.00  0.00    -0.203 F 
ATOM     89  F   UNL A   1      45.212  25.235  36.914  1.00  0.00    -0.200 F 
ATOM     90  C   UNL A   1      46.540  27.026  36.134  1.00  0.00     0.200 A 
ATOM     91  F   UNL A   1      47.824  28.843  35.341  1.00  0.00    -0.200 F 
ATOM     92  F   UNL A   1      47.595  26.561  36.817  1.00  0.00    -0.200 F 
ENDBRANCH  59  82
ENDBRANCH  33  34
ENDBRANCH  26  28
ENDBRANCH  25  26
ENDBRANCH  24  25
ENDBRANCH  23  24
ENDBRANCH  22  23
ENDBRANCH   1  22
TORSDOF 20
ENDMDL
