MODEL 1
REMARK VINA RESULT:     -12.0      0.000      0.000
REMARK SMILES CCc1nc2sc(C(=O)NCC(=O)OCCOCCOC(=O)c3ccc(-c4c5nc(c(-c6c(F)c(F)c(F)c(F)c6F)c6ccc([nH]6)c(-c6c(F)c(F)c(F)c(F)c6F)c6nc(c(-c7c(F)c(F)c(F)c(F)c7F)c7ccc4[nH]7)C=C6)C=C5)cc3)c(N)c2c(C(F)(F)F)c1C
REMARK SMILES IDX 16 1 15 2 14 3 12 4 13 5 11 6 10 7 8 8 9 9 7 11 3 12 4 13
REMARK SMILES IDX 94 14 5 15 89 16 95 17 6 18 88 19 86 20 2 21 1 22 90 23
REMARK SMILES IDX 91 24 92 25 93 26 87 27 17 30 18 31 19 32 20 33 21 34 22 35
REMARK SMILES IDX 23 36 24 37 85 38 25 39 84 40 26 41 27 42 28 43 78 44 29 45
REMARK SMILES IDX 83 46 77 47 79 48 30 49 82 50 76 51 75 52 31 54 63 55 43 56
REMARK SMILES IDX 62 57 44 58 47 59 61 60 80 61 45 62 46 63 60 65 81 66 48 67
REMARK SMILES IDX 32 68 33 69 41 70 34 71 35 72 39 73 42 74 36 75 37 76 40 77
REMARK SMILES IDX 38 78 64 79 65 80 73 81 66 82 67 83 71 84 74 85 68 86 69 87
REMARK SMILES IDX 72 88 70 89 49 90 50 91 58 92 51 93 52 94 56 95 59 96 53 97
REMARK SMILES IDX 54 98 57 99 55 100
REMARK H PARENT 10 10 87 28 87 29 79 53 47 64
REMARK Flexibility Score: inf
ROOT
ATOM      1  C   UNL A   1      37.730  21.723  25.586  1.00  0.00     0.202 C 
ENDROOT
BRANCH   1   2
ATOM      2  C   UNL A   1      36.498  20.978  25.060  1.00  0.00     0.261 C 
BRANCH   2   3
ATOM      3  O   UNL A   1      35.434  21.849  24.641  1.00  0.00    -0.462 OA
BRANCH   3   4
ATOM      4  C   UNL A   1      34.286  21.733  25.362  1.00  0.00     0.325 C 
ATOM      5  O   UNL A   1      34.250  21.597  26.583  1.00  0.00    -0.250 OA
BRANCH   4   6
ATOM      6  C   UNL A   1      33.026  21.993  24.532  1.00  0.00     0.239 C 
BRANCH   6   7
ATOM      7  N   UNL A   1      33.189  22.478  23.177  1.00  0.00    -0.340 N 
ATOM      8  C   UNL A   1      33.325  23.751  22.676  1.00  0.00     0.264 C 
ATOM      9  O   UNL A   1      33.679  23.763  21.491  1.00  0.00    -0.268 OA
ATOM     10  H   UNL A   1      33.203  21.770  22.493  1.00  0.00     0.164 HD
BRANCH   8  11
ATOM     11  C   UNL A   1      33.058  24.977  23.437  1.00  0.00     0.118 A 
ATOM     12  C   UNL A   1      33.288  28.807  26.205  1.00  0.00     0.045 A 
ATOM     13  N   UNL A   1      33.948  27.643  26.011  1.00  0.00    -0.242 NA
ATOM     14  C   UNL A   1      32.168  29.211  25.456  1.00  0.00    -0.017 A 
ATOM     15  C   UNL A   1      33.460  26.844  25.051  1.00  0.00     0.127 A 
ATOM     16  C   UNL A   1      31.636  28.310  24.495  1.00  0.00     0.073 A 
ATOM     17  C   UNL A   1      31.507  30.552  25.644  1.00  0.00     0.047 C 
ATOM     18  S   UNL A   1      34.223  25.377  24.665  1.00  0.00    -0.108 S 
ATOM     19  C   UNL A   1      32.336  27.082  24.293  1.00  0.00     0.048 A 
ATOM     20  C   UNL A   1      32.092  25.967  23.424  1.00  0.00     0.066 A 
BRANCH  12  21
ATOM     21  C   UNL A   1      33.860  29.617  27.347  1.00  0.00     0.053 C 
ATOM     22  C   UNL A   1      35.344  29.348  27.544  1.00  0.00     0.011 C 
ENDBRANCH  12  21
BRANCH  16  23
ATOM     23  C   UNL A   1      30.385  28.595  23.688  1.00  0.00     0.417 C 
ATOM     24  F   UNL A   1      30.622  28.569  22.341  1.00  0.00    -0.166 F 
ATOM     25  F   UNL A   1      29.408  27.663  23.907  1.00  0.00    -0.166 F 
ATOM     26  F   UNL A   1      29.777  29.789  23.914  1.00  0.00    -0.166 F 
ENDBRANCH  16  23
BRANCH  20  27
ATOM     27  N   UNL A   1      30.991  25.979  22.658  1.00  0.00    -0.397 N 
ATOM     28  H   UNL A   1      30.644  26.831  22.307  1.00  0.00     0.156 HD
ATOM     29  H   UNL A   1      30.529  25.135  22.446  1.00  0.00     0.156 HD
ENDBRANCH  20  27
ENDBRANCH   8  11
ENDBRANCH   6   7
ENDBRANCH   4   6
ENDBRANCH   3   4
ENDBRANCH   2   3
ENDBRANCH   1   2
BRANCH   1  30
ATOM     30  O   UNL A   1      39.030  21.140  25.520  1.00  0.00    -0.374 OA
BRANCH  30  31
ATOM     31  C   UNL A   1      40.062  21.435  26.451  1.00  0.00     0.202 C 
BRANCH  31  32
ATOM     32  C   UNL A   1      41.500  21.637  25.977  1.00  0.00     0.261 C 
BRANCH  32  33
ATOM     33  O   UNL A   1      42.188  22.619  26.730  1.00  0.00    -0.460 OA
BRANCH  33  34
ATOM     34  C   UNL A   1      42.284  23.797  26.071  1.00  0.00     0.338 C 
ATOM     35  O   UNL A   1      43.159  24.141  25.299  1.00  0.00    -0.246 OA
BRANCH  34  36
ATOM     36  C   UNL A   1      41.194  24.685  26.497  1.00  0.00     0.060 A 
ATOM     37  C   UNL A   1      41.057  25.847  25.735  1.00  0.00     0.016 A 
ATOM     38  C   UNL A   1      40.716  24.578  27.806  1.00  0.00     0.016 A 
ATOM     39  C   UNL A   1      40.795  27.014  26.405  1.00  0.00     0.010 A 
ATOM     40  C   UNL A   1      40.460  25.742  28.475  1.00  0.00     0.010 A 
ATOM     41  C   UNL A   1      40.648  26.942  27.790  1.00  0.00    -0.014 A 
BRANCH  41  42
ATOM     42  C   UNL A   1      40.753  28.163  28.553  1.00  0.00     0.031 A 
ATOM     43  C   UNL A   1      41.909  28.988  28.152  1.00  0.00     0.074 A 
ATOM     44  C   UNL A   1      39.776  28.503  29.417  1.00  0.00     0.049 A 
ATOM     45  N   UNL A   1      42.931  29.328  28.865  1.00  0.00    -0.248 NA
ATOM     46  C   UNL A   1      42.029  29.320  26.721  1.00  0.00     0.031 C 
ATOM     47  C   UNL A   1      38.488  27.838  29.650  1.00  0.00     0.029 A 
ATOM     48  N   UNL A   1      39.683  29.616  30.191  1.00  0.00    -0.354 N 
ATOM     49  C   UNL A   1      43.731  30.075  28.009  1.00  0.00     0.074 A 
ATOM     50  C   UNL A   1      43.247  29.852  26.674  1.00  0.00     0.031 C 
ATOM     51  C   UNL A   1      37.660  28.684  30.307  1.00  0.00     0.029 A 
ATOM     52  C   UNL A   1      38.394  29.888  30.643  1.00  0.00     0.049 A 
ATOM     53  H   UNL A   1      40.459  30.181  30.413  1.00  0.00     0.167 HD
ATOM     54  C   UNL A   1      44.561  31.046  28.470  1.00  0.00     0.037 A 
ATOM     55  C   UNL A   1      37.990  31.095  31.117  1.00  0.00     0.037 A 
ATOM     56  C   UNL A   1      44.813  30.920  29.877  1.00  0.00     0.049 A 
ATOM     57  C   UNL A   1      39.227  31.846  31.483  1.00  0.00     0.074 A 
ATOM     58  C   UNL A   1      45.429  29.961  30.656  1.00  0.00     0.029 A 
ATOM     59  N   UNL A   1      44.045  31.668  30.736  1.00  0.00    -0.354 N 
ATOM     60  N   UNL A   1      40.020  31.497  32.460  1.00  0.00    -0.248 NA
ATOM     61  C   UNL A   1      39.834  32.667  30.444  1.00  0.00     0.031 C 
ATOM     62  C   UNL A   1      44.638  29.880  31.839  1.00  0.00     0.029 A 
ATOM     63  C   UNL A   1      43.627  30.837  31.746  1.00  0.00     0.049 A 
ATOM     64  H   UNL A   1      43.833  32.625  30.645  1.00  0.00     0.167 HD
ATOM     65  C   UNL A   1      41.303  31.699  31.964  1.00  0.00     0.074 A 
ATOM     66  C   UNL A   1      41.122  32.460  30.730  1.00  0.00     0.031 C 
ATOM     67  C   UNL A   1      42.366  30.984  32.434  1.00  0.00     0.037 A 
BRANCH  54  68
ATOM     68  C   UNL A   1      44.846  32.289  27.685  1.00  0.00     0.064 A 
ATOM     69  C   UNL A   1      46.059  32.424  26.996  1.00  0.00     0.173 A 
ATOM     70  C   UNL A   1      44.055  33.458  27.785  1.00  0.00     0.173 A 
ATOM     71  F   UNL A   1      46.902  31.385  26.895  1.00  0.00    -0.203 F 
ATOM     72  C   UNL A   1      46.457  33.649  26.454  1.00  0.00     0.198 A 
ATOM     73  C   UNL A   1      44.421  34.657  27.188  1.00  0.00     0.198 A 
ATOM     74  F   UNL A   1      42.955  33.503  28.549  1.00  0.00    -0.203 F 
ATOM     75  F   UNL A   1      47.664  33.764  25.887  1.00  0.00    -0.200 F 
ATOM     76  C   UNL A   1      45.634  34.760  26.542  1.00  0.00     0.200 A 
ATOM     77  F   UNL A   1      43.620  35.725  27.306  1.00  0.00    -0.200 F 
ATOM     78  F   UNL A   1      46.031  35.942  26.052  1.00  0.00    -0.200 F 
ENDBRANCH  54  68
BRANCH  55  79
ATOM     79  C   UNL A   1      36.702  31.783  30.846  1.00  0.00     0.064 A 
ATOM     80  C   UNL A   1      35.862  32.186  31.898  1.00  0.00     0.173 A 
ATOM     81  C   UNL A   1      36.405  32.315  29.575  1.00  0.00     0.173 A 
ATOM     82  F   UNL A   1      36.101  31.765  33.149  1.00  0.00    -0.203 F 
ATOM     83  C   UNL A   1      34.808  33.086  31.695  1.00  0.00     0.198 A 
ATOM     84  C   UNL A   1      35.351  33.206  29.372  1.00  0.00     0.198 A 
ATOM     85  F   UNL A   1      37.191  32.057  28.520  1.00  0.00    -0.203 F 
ATOM     86  F   UNL A   1      34.065  33.494  32.733  1.00  0.00    -0.200 F 
ATOM     87  C   UNL A   1      34.561  33.603  30.434  1.00  0.00     0.200 A 
ATOM     88  F   UNL A   1      35.147  33.727  28.153  1.00  0.00    -0.200 F 
ATOM     89  F   UNL A   1      33.593  34.512  30.249  1.00  0.00    -0.200 F 
ENDBRANCH  55  79
BRANCH  67  90
ATOM     90  C   UNL A   1      42.142  30.105  33.635  1.00  0.00     0.064 A 
ATOM     91  C   UNL A   1      41.720  28.766  33.557  1.00  0.00     0.173 A 
ATOM     92  C   UNL A   1      42.529  30.584  34.894  1.00  0.00     0.173 A 
ATOM     93  F   UNL A   1      41.431  28.205  32.377  1.00  0.00    -0.203 F 
ATOM     94  C   UNL A   1      41.653  27.958  34.692  1.00  0.00     0.198 A 
ATOM     95  C   UNL A   1      42.498  29.765  36.019  1.00  0.00     0.198 A 
ATOM     96  F   UNL A   1      42.996  31.835  35.020  1.00  0.00    -0.203 F 
ATOM     97  F   UNL A   1      41.242  26.686  34.590  1.00  0.00    -0.200 F 
ATOM     98  C   UNL A   1      42.050  28.457  35.921  1.00  0.00     0.200 A 
ATOM     99  F   UNL A   1      42.932  30.236  37.195  1.00  0.00    -0.200 F 
ATOM    100  F   UNL A   1      42.033  27.670  37.006  1.00  0.00    -0.200 F 
ENDBRANCH  67  90
ENDBRANCH  41  42
ENDBRANCH  34  36
ENDBRANCH  33  34
ENDBRANCH  32  33
ENDBRANCH  31  32
ENDBRANCH  30  31
ENDBRANCH   1  30
TORSDOF 19
ENDMDL
MODEL 2
REMARK VINA RESULT:     -11.9      4.014      8.195
REMARK SMILES CCc1nc2sc(C(=O)NCC(=O)OCCOCCOC(=O)c3ccc(-c4c5nc(c(-c6c(F)c(F)c(F)c(F)c6F)c6ccc([nH]6)c(-c6c(F)c(F)c(F)c(F)c6F)c6nc(c(-c7c(F)c(F)c(F)c(F)c7F)c7ccc4[nH]7)C=C6)C=C5)cc3)c(N)c2c(C(F)(F)F)c1C
REMARK SMILES IDX 16 1 15 2 14 3 12 4 13 5 11 6 10 7 8 8 9 9 7 11 3 12 4 13
REMARK SMILES IDX 94 14 5 15 89 16 95 17 6 18 88 19 86 20 2 21 1 22 90 23
REMARK SMILES IDX 91 24 92 25 93 26 87 27 17 30 18 31 19 32 20 33 21 34 22 35
REMARK SMILES IDX 23 36 24 37 85 38 25 39 84 40 26 41 27 42 28 43 78 44 29 45
REMARK SMILES IDX 83 46 77 47 79 48 30 49 82 50 76 51 75 52 31 54 63 55 43 56
REMARK SMILES IDX 62 57 44 58 47 59 61 60 80 61 45 62 46 63 60 65 81 66 48 67
REMARK SMILES IDX 32 68 33 69 41 70 34 71 35 72 39 73 42 74 36 75 37 76 40 77
REMARK SMILES IDX 38 78 64 79 65 80 73 81 66 82 67 83 71 84 74 85 68 86 69 87
REMARK SMILES IDX 72 88 70 89 49 90 50 91 58 92 51 93 52 94 56 95 59 96 53 97
REMARK SMILES IDX 54 98 57 99 55 100
REMARK H PARENT 10 10 87 28 87 29 79 53 47 64
REMARK Flexibility Score: inf
ROOT
ATOM      1  C   UNL A   1      43.218  18.540  25.745  1.00  0.00     0.202 C 
ENDROOT
BRANCH   1   2
ATOM      2  C   UNL A   1      44.385  18.822  24.794  1.00  0.00     0.261 C 
BRANCH   2   3
ATOM      3  O   UNL A   1      44.446  20.187  24.346  1.00  0.00    -0.462 OA
BRANCH   3   4
ATOM      4  C   UNL A   1      45.211  21.005  25.117  1.00  0.00     0.325 C 
ATOM      5  O   UNL A   1      46.433  20.914  25.217  1.00  0.00    -0.250 OA
BRANCH   4   6
ATOM      6  C   UNL A   1      44.431  22.189  25.695  1.00  0.00     0.239 C 
BRANCH   6   7
ATOM      7  N   UNL A   1      44.737  22.616  27.045  1.00  0.00    -0.340 N 
ATOM      8  C   UNL A   1      45.571  23.599  27.522  1.00  0.00     0.264 C 
ATOM      9  O   UNL A   1      45.396  23.832  28.725  1.00  0.00    -0.268 OA
ATOM     10  H   UNL A   1      44.263  22.112  27.745  1.00  0.00     0.164 HD
BRANCH   8  11
ATOM     11  C   UNL A   1      46.584  24.292  26.718  1.00  0.00     0.118 A 
ATOM     12  C   UNL A   1      48.985  26.654  23.396  1.00  0.00     0.045 A 
ATOM     13  N   UNL A   1      47.851  25.928  23.518  1.00  0.00    -0.242 NA
ATOM     14  C   UNL A   1      49.864  26.926  24.460  1.00  0.00    -0.017 A 
ATOM     15  C   UNL A   1      47.597  25.437  24.739  1.00  0.00     0.127 A 
ATOM     16  C   UNL A   1      49.600  26.333  25.724  1.00  0.00     0.073 A 
ATOM     17  C   UNL A   1      51.077  27.808  24.306  1.00  0.00     0.047 C 
ATOM     18  S   UNL A   1      46.180  24.553  25.047  1.00  0.00    -0.108 S 
ATOM     19  C   UNL A   1      48.403  25.567  25.848  1.00  0.00     0.048 A 
ATOM     20  C   UNL A   1      47.831  24.846  26.950  1.00  0.00     0.066 A 
BRANCH  12  21
ATOM     21  C   UNL A   1      49.233  27.113  21.976  1.00  0.00     0.053 C 
ATOM     22  C   UNL A   1      48.249  28.192  21.552  1.00  0.00     0.011 C 
ENDBRANCH  12  21
BRANCH  16  23
ATOM     23  C   UNL A   1      50.517  26.481  26.921  1.00  0.00     0.417 C 
ATOM     24  F   UNL A   1      49.884  27.055  27.989  1.00  0.00    -0.166 F 
ATOM     25  F   UNL A   1      50.974  25.273  27.372  1.00  0.00    -0.166 F 
ATOM     26  F   UNL A   1      51.639  27.225  26.738  1.00  0.00    -0.166 F 
ENDBRANCH  16  23
BRANCH  20  27
ATOM     27  N   UNL A   1      48.514  24.790  28.104  1.00  0.00    -0.397 N 
ATOM     28  H   UNL A   1      49.096  25.538  28.368  1.00  0.00     0.156 HD
ATOM     29  H   UNL A   1      48.432  24.000  28.685  1.00  0.00     0.156 HD
ENDBRANCH  20  27
ENDBRANCH   8  11
ENDBRANCH   6   7
ENDBRANCH   4   6
ENDBRANCH   3   4
ENDBRANCH   2   3
ENDBRANCH   1   2
BRANCH   1  30
ATOM     30  O   UNL A   1      41.993  19.261  25.647  1.00  0.00    -0.374 OA
BRANCH  30  31
ATOM     31  C   UNL A   1      41.495  20.094  26.685  1.00  0.00     0.202 C 
BRANCH  31  32
ATOM     32  C   UNL A   1      40.308  21.023  26.434  1.00  0.00     0.261 C 
BRANCH  32  33
ATOM     33  O   UNL A   1      40.218  22.062  27.391  1.00  0.00    -0.460 OA
BRANCH  33  34
ATOM     34  C   UNL A   1      39.656  23.182  26.881  1.00  0.00     0.338 C 
ATOM     35  O   UNL A   1      38.528  23.307  26.444  1.00  0.00    -0.246 OA
BRANCH  34  36
ATOM     36  C   UNL A   1      40.658  24.254  26.837  1.00  0.00     0.060 A 
ATOM     37  C   UNL A   1      41.560  24.255  27.903  1.00  0.00     0.016 A 
ATOM     38  C   UNL A   1      40.385  25.396  26.077  1.00  0.00     0.016 A 
ATOM     39  C   UNL A   1      41.890  25.468  28.451  1.00  0.00     0.010 A 
ATOM     40  C   UNL A   1      40.708  26.605  26.627  1.00  0.00     0.010 A 
ATOM     41  C   UNL A   1      41.329  26.607  27.875  1.00  0.00    -0.014 A 
BRANCH  41  42
ATOM     42  C   UNL A   1      41.341  27.834  28.637  1.00  0.00     0.031 A 
ATOM     43  C   UNL A   1      42.463  28.720  28.275  1.00  0.00     0.074 A 
ATOM     44  C   UNL A   1      40.316  28.122  29.463  1.00  0.00     0.049 A 
ATOM     45  N   UNL A   1      43.439  29.116  29.023  1.00  0.00    -0.248 NA
ATOM     46  C   UNL A   1      42.617  29.055  26.848  1.00  0.00     0.031 C 
ATOM     47  C   UNL A   1      39.058  27.389  29.653  1.00  0.00     0.029 A 
ATOM     48  N   UNL A   1      40.134  29.230  30.229  1.00  0.00    -0.354 N 
ATOM     49  C   UNL A   1      44.228  29.904  28.194  1.00  0.00     0.074 A 
ATOM     50  C   UNL A   1      43.806  29.652  26.843  1.00  0.00     0.031 C 
ATOM     51  C   UNL A   1      38.161  28.190  30.276  1.00  0.00     0.029 A 
ATOM     52  C   UNL A   1      38.817  29.432  30.633  1.00  0.00     0.049 A 
ATOM     53  H   UNL A   1      40.869  29.837  30.477  1.00  0.00     0.167 HD
ATOM     54  C   UNL A   1      44.986  30.919  28.680  1.00  0.00     0.037 A 
ATOM     55  C   UNL A   1      38.331  30.617  31.087  1.00  0.00     0.037 A 
ATOM     56  C   UNL A   1      45.193  30.810  30.096  1.00  0.00     0.049 A 
ATOM     57  C   UNL A   1      39.511  31.435  31.495  1.00  0.00     0.074 A 
ATOM     58  C   UNL A   1      45.832  29.887  30.901  1.00  0.00     0.029 A 
ATOM     59  N   UNL A   1      44.355  31.518  30.924  1.00  0.00    -0.354 N 
ATOM     60  N   UNL A   1      40.286  31.132  32.501  1.00  0.00    -0.248 NA
ATOM     61  C   UNL A   1      40.110  32.286  30.475  1.00  0.00     0.031 C 
ATOM     62  C   UNL A   1      45.004  29.766  32.055  1.00  0.00     0.029 A 
ATOM     63  C   UNL A   1      43.947  30.667  31.921  1.00  0.00     0.049 A 
ATOM     64  H   UNL A   1      44.096  32.461  30.821  1.00  0.00     0.167 HD
ATOM     65  C   UNL A   1      41.573  31.402  32.051  1.00  0.00     0.074 A 
ATOM     66  C   UNL A   1      41.396  32.149  30.809  1.00  0.00     0.031 C 
ATOM     67  C   UNL A   1      42.656  30.747  32.562  1.00  0.00     0.037 A 
BRANCH  54  68
ATOM     68  C   UNL A   1      45.232  32.175  27.901  1.00  0.00     0.064 A 
ATOM     69  C   UNL A   1      46.511  32.454  27.402  1.00  0.00     0.173 A 
ATOM     70  C   UNL A   1      44.295  33.232  27.834  1.00  0.00     0.173 A 
ATOM     71  F   UNL A   1      47.484  31.533  27.471  1.00  0.00    -0.203 F 
ATOM     72  C   UNL A   1      46.832  33.710  26.880  1.00  0.00     0.198 A 
ATOM     73  C   UNL A   1      44.595  34.457  27.255  1.00  0.00     0.198 A 
ATOM     74  F   UNL A   1      43.092  33.147  28.418  1.00  0.00    -0.203 F 
ATOM     75  F   UNL A   1      48.089  33.971  26.501  1.00  0.00    -0.200 F 
ATOM     76  C   UNL A   1      45.872  34.706  26.798  1.00  0.00     0.200 A 
ATOM     77  F   UNL A   1      43.658  35.414  27.207  1.00  0.00    -0.200 F 
ATOM     78  F   UNL A   1      46.188  35.920  26.330  1.00  0.00    -0.200 F 
ENDBRANCH  54  68
BRANCH  55  79
ATOM     79  C   UNL A   1      37.017  31.233  30.767  1.00  0.00     0.064 A 
ATOM     80  C   UNL A   1      36.123  31.599  31.787  1.00  0.00     0.173 A 
ATOM     81  C   UNL A   1      36.736  31.739  29.481  1.00  0.00     0.173 A 
ATOM     82  F   UNL A   1      36.341  31.201  33.049  1.00  0.00    -0.203 F 
ATOM     83  C   UNL A   1      35.030  32.440  31.540  1.00  0.00     0.198 A 
ATOM     84  C   UNL A   1      35.644  32.572  29.235  1.00  0.00     0.198 A 
ATOM     85  F   UNL A   1      37.570  31.516  28.456  1.00  0.00    -0.203 F 
ATOM     86  F   UNL A   1      34.232  32.816  32.549  1.00  0.00    -0.200 F 
ATOM     87  C   UNL A   1      34.798  32.933  30.266  1.00  0.00     0.200 A 
ATOM     88  F   UNL A   1      35.455  33.072  28.006  1.00  0.00    -0.200 F 
ATOM     89  F   UNL A   1      33.791  33.788  30.041  1.00  0.00    -0.200 F 
ENDBRANCH  55  79
BRANCH  67  90
ATOM     90  C   UNL A   1      42.436  29.860  33.758  1.00  0.00     0.064 A 
ATOM     91  C   UNL A   1      42.031  28.516  33.671  1.00  0.00     0.173 A 
ATOM     92  C   UNL A   1      42.810  30.337  35.021  1.00  0.00     0.173 A 
ATOM     93  F   UNL A   1      41.754  27.957  32.487  1.00  0.00    -0.203 F 
ATOM     94  C   UNL A   1      41.968  27.702  34.802  1.00  0.00     0.198 A 
ATOM     95  C   UNL A   1      42.783  29.512  36.142  1.00  0.00     0.198 A 
ATOM     96  F   UNL A   1      43.261  31.593  35.155  1.00  0.00    -0.203 F 
ATOM     97  F   UNL A   1      41.573  26.425  34.692  1.00  0.00    -0.200 F 
ATOM     98  C   UNL A   1      42.352  28.200  36.036  1.00  0.00     0.200 A 
ATOM     99  F   UNL A   1      43.205  29.983  37.323  1.00  0.00    -0.200 F 
ATOM    100  F   UNL A   1      42.338  27.407  37.117  1.00  0.00    -0.200 F 
ENDBRANCH  67  90
ENDBRANCH  41  42
ENDBRANCH  34  36
ENDBRANCH  33  34
ENDBRANCH  32  33
ENDBRANCH  31  32
ENDBRANCH  30  31
ENDBRANCH   1  30
TORSDOF 19
ENDMDL
MODEL 3
REMARK VINA RESULT:     -11.8      8.919     14.455
REMARK SMILES CCc1nc2sc(C(=O)NCC(=O)OCCOCCOC(=O)c3ccc(-c4c5nc(c(-c6c(F)c(F)c(F)c(F)c6F)c6ccc([nH]6)c(-c6c(F)c(F)c(F)c(F)c6F)c6nc(c(-c7c(F)c(F)c(F)c(F)c7F)c7ccc4[nH]7)C=C6)C=C5)cc3)c(N)c2c(C(F)(F)F)c1C
REMARK SMILES IDX 16 1 15 2 14 3 12 4 13 5 11 6 10 7 8 8 9 9 7 11 3 12 4 13
REMARK SMILES IDX 94 14 5 15 89 16 95 17 6 18 88 19 86 20 2 21 1 22 90 23
REMARK SMILES IDX 91 24 92 25 93 26 87 27 17 30 18 31 19 32 20 33 21 34 22 35
REMARK SMILES IDX 23 36 24 37 85 38 25 39 84 40 26 41 27 42 28 43 78 44 29 45
REMARK SMILES IDX 83 46 77 47 79 48 30 49 82 50 76 51 75 52 31 54 63 55 43 56
REMARK SMILES IDX 62 57 44 58 47 59 61 60 80 61 45 62 46 63 60 65 81 66 48 67
REMARK SMILES IDX 32 68 33 69 41 70 34 71 35 72 39 73 42 74 36 75 37 76 40 77
REMARK SMILES IDX 38 78 64 79 65 80 73 81 66 82 67 83 71 84 74 85 68 86 69 87
REMARK SMILES IDX 72 88 70 89 49 90 50 91 58 92 51 93 52 94 56 95 59 96 53 97
REMARK SMILES IDX 54 98 57 99 55 100
REMARK H PARENT 10 10 87 28 87 29 79 53 47 64
REMARK Flexibility Score: inf
ROOT
ATOM      1  C   UNL A   1      42.202  41.718  24.482  1.00  0.00     0.202 C 
ENDROOT
BRANCH   1   2
ATOM      2  C   UNL A   1      43.511  42.449  24.795  1.00  0.00     0.261 C 
BRANCH   2   3
ATOM      3  O   UNL A   1      44.589  42.105  23.909  1.00  0.00    -0.462 OA
BRANCH   3   4
ATOM      4  C   UNL A   1      44.729  42.930  22.836  1.00  0.00     0.325 C 
ATOM      5  O   UNL A   1      45.027  44.120  22.916  1.00  0.00    -0.250 OA
BRANCH   4   6
ATOM      6  C   UNL A   1      44.682  42.189  21.497  1.00  0.00     0.239 C 
BRANCH   6   7
ATOM      7  N   UNL A   1      45.862  42.217  20.658  1.00  0.00    -0.340 N 
ATOM      8  C   UNL A   1      46.307  43.142  19.743  1.00  0.00     0.264 C 
ATOM      9  O   UNL A   1      47.476  42.942  19.392  1.00  0.00    -0.268 OA
ATOM     10  H   UNL A   1      46.449  41.434  20.761  1.00  0.00     0.164 HD
BRANCH   8  11
ATOM     11  C   UNL A   1      45.493  44.239  19.208  1.00  0.00     0.118 A 
ATOM     12  C   UNL A   1      43.776  48.404  17.764  1.00  0.00     0.045 A 
ATOM     13  N   UNL A   1      44.735  47.921  18.587  1.00  0.00    -0.242 NA
ATOM     14  C   UNL A   1      42.921  47.596  16.993  1.00  0.00    -0.017 A 
ATOM     15  C   UNL A   1      44.826  46.586  18.661  1.00  0.00     0.127 A 
ATOM     16  C   UNL A   1      43.000  46.186  17.148  1.00  0.00     0.073 A 
ATOM     17  C   UNL A   1      41.918  48.169  16.024  1.00  0.00     0.047 C 
ATOM     18  S   UNL A   1      46.020  45.845  19.614  1.00  0.00    -0.108 S 
ATOM     19  C   UNL A   1      44.012  45.681  18.018  1.00  0.00     0.048 A 
ATOM     20  C   UNL A   1      44.374  44.346  18.401  1.00  0.00     0.066 A 
BRANCH  12  21
ATOM     21  C   UNL A   1      43.694  49.914  17.788  1.00  0.00     0.053 C 
ATOM     22  C   UNL A   1      43.399  50.442  19.184  1.00  0.00     0.011 C 
ENDBRANCH  12  21
BRANCH  16  23
ATOM     23  C   UNL A   1      42.076  45.217  16.440  1.00  0.00     0.417 C 
ATOM     24  F   UNL A   1      42.761  44.320  15.667  1.00  0.00    -0.166 F 
ATOM     25  F   UNL A   1      41.348  44.462  17.318  1.00  0.00    -0.166 F 
ATOM     26  F   UNL A   1      41.149  45.760  15.607  1.00  0.00    -0.166 F 
ENDBRANCH  16  23
BRANCH  20  27
ATOM     27  N   UNL A   1      43.640  43.324  17.936  1.00  0.00    -0.397 N 
ATOM     28  H   UNL A   1      43.115  42.770  18.558  1.00  0.00     0.156 HD
ATOM     29  H   UNL A   1      43.627  43.126  16.971  1.00  0.00     0.156 HD
ENDBRANCH  20  27
ENDBRANCH   8  11
ENDBRANCH   6   7
ENDBRANCH   4   6
ENDBRANCH   3   4
ENDBRANCH   2   3
ENDBRANCH   1   2
BRANCH   1  30
ATOM     30  O   UNL A   1      41.311  41.319  25.521  1.00  0.00    -0.374 OA
BRANCH  30  31
ATOM     31  C   UNL A   1      41.469  40.118  26.262  1.00  0.00     0.202 C 
BRANCH  31  32
ATOM     32  C   UNL A   1      41.527  40.148  27.788  1.00  0.00     0.261 C 
BRANCH  32  33
ATOM     33  O   UNL A   1      41.965  38.921  28.342  1.00  0.00    -0.460 OA
BRANCH  33  34
ATOM     34  C   UNL A   1      43.098  39.060  29.067  1.00  0.00     0.338 C 
ATOM     35  O   UNL A   1      43.607  40.097  29.447  1.00  0.00    -0.246 OA
BRANCH  34  36
ATOM     36  C   UNL A   1      43.714  37.742  29.268  1.00  0.00     0.060 A 
ATOM     37  C   UNL A   1      43.656  36.895  28.159  1.00  0.00     0.016 A 
ATOM     38  C   UNL A   1      43.870  37.268  30.574  1.00  0.00     0.016 A 
ATOM     39  C   UNL A   1      43.366  35.575  28.386  1.00  0.00     0.010 A 
ATOM     40  C   UNL A   1      43.574  35.952  30.801  1.00  0.00     0.010 A 
ATOM     41  C   UNL A   1      43.189  35.174  29.710  1.00  0.00    -0.014 A 
BRANCH  41  42
ATOM     42  C   UNL A   1      42.521  33.919  29.961  1.00  0.00     0.031 A 
ATOM     43  C   UNL A   1      41.063  34.071  30.131  1.00  0.00     0.074 A 
ATOM     44  C   UNL A   1      43.210  32.763  29.884  1.00  0.00     0.049 A 
ATOM     45  N   UNL A   1      40.351  33.809  31.176  1.00  0.00    -0.248 NA
ATOM     46  C   UNL A   1      40.337  34.783  29.064  1.00  0.00     0.031 C 
ATOM     47  C   UNL A   1      44.600  32.553  29.461  1.00  0.00     0.029 A 
ATOM     48  N   UNL A   1      42.753  31.495  30.052  1.00  0.00    -0.354 N 
ATOM     49  C   UNL A   1      39.053  34.155  30.821  1.00  0.00     0.074 A 
ATOM     50  C   UNL A   1      39.138  34.940  29.620  1.00  0.00     0.031 C 
ATOM     51  C   UNL A   1      44.788  31.243  29.172  1.00  0.00     0.029 A 
ATOM     52  C   UNL A   1      43.578  30.515  29.504  1.00  0.00     0.049 A 
ATOM     53  H   UNL A   1      41.912  31.285  30.520  1.00  0.00     0.167 HD
ATOM     54  C   UNL A   1      37.973  33.545  31.373  1.00  0.00     0.037 A 
ATOM     55  C   UNL A   1      43.181  29.245  29.234  1.00  0.00     0.037 A 
ATOM     56  C   UNL A   1      38.302  32.859  32.589  1.00  0.00     0.049 A 
ATOM     57  C   UNL A   1      41.944  29.005  30.035  1.00  0.00     0.074 A 
ATOM     58  C   UNL A   1      38.759  33.270  33.826  1.00  0.00     0.029 A 
ATOM     59  N   UNL A   1      38.573  31.514  32.514  1.00  0.00    -0.354 N 
ATOM     60  N   UNL A   1      41.929  28.952  31.339  1.00  0.00    -0.248 NA
ATOM     61  C   UNL A   1      40.673  29.338  29.405  1.00  0.00     0.031 C 
ATOM     62  C   UNL A   1      39.699  32.275  34.223  1.00  0.00     0.029 A 
ATOM     63  C   UNL A   1      39.714  31.282  33.243  1.00  0.00     0.049 A 
ATOM     64  H   UNL A   1      38.047  30.840  32.028  1.00  0.00     0.167 HD
ATOM     65  C   UNL A   1      40.776  29.636  31.708  1.00  0.00     0.074 A 
ATOM     66  C   UNL A   1      40.023  29.815  30.469  1.00  0.00     0.031 C 
ATOM     67  C   UNL A   1      40.673  30.252  32.921  1.00  0.00     0.037 A 
BRANCH  54  68
ATOM     68  C   UNL A   1      36.712  33.306  30.601  1.00  0.00     0.064 A 
ATOM     69  C   UNL A   1      36.730  32.495  29.458  1.00  0.00     0.173 A 
ATOM     70  C   UNL A   1      35.527  34.046  30.818  1.00  0.00     0.173 A 
ATOM     71  F   UNL A   1      37.830  31.796  29.138  1.00  0.00    -0.203 F 
ATOM     72  C   UNL A   1      35.639  32.438  28.588  1.00  0.00     0.198 A 
ATOM     73  C   UNL A   1      34.419  33.938  29.989  1.00  0.00     0.198 A 
ATOM     74  F   UNL A   1      35.441  34.975  31.781  1.00  0.00    -0.203 F 
ATOM     75  F   UNL A   1      35.727  31.728  27.456  1.00  0.00    -0.200 F 
ATOM     76  C   UNL A   1      34.482  33.151  28.859  1.00  0.00     0.200 A 
ATOM     77  F   UNL A   1      33.319  34.655  30.257  1.00  0.00    -0.200 F 
ATOM     78  F   UNL A   1      33.449  33.123  28.006  1.00  0.00    -0.200 F 
ENDBRANCH  54  68
BRANCH  55  79
ATOM     79  C   UNL A   1      43.513  28.433  28.035  1.00  0.00     0.064 A 
ATOM     80  C   UNL A   1      44.255  27.246  28.148  1.00  0.00     0.173 A 
ATOM     81  C   UNL A   1      42.868  28.648  26.800  1.00  0.00     0.173 A 
ATOM     82  F   UNL A   1      44.862  26.940  29.305  1.00  0.00    -0.203 F 
ATOM     83  C   UNL A   1      44.326  26.320  27.100  1.00  0.00     0.198 A 
ATOM     84  C   UNL A   1      42.943  27.727  25.754  1.00  0.00     0.198 A 
ATOM     85  F   UNL A   1      42.070  29.709  26.615  1.00  0.00    -0.203 F 
ATOM     86  F   UNL A   1      44.995  25.170  27.266  1.00  0.00    -0.200 F 
ATOM     87  C   UNL A   1      43.661  26.557  25.909  1.00  0.00     0.200 A 
ATOM     88  F   UNL A   1      42.264  27.953  24.621  1.00  0.00    -0.200 F 
ATOM     89  F   UNL A   1      43.675  25.643  24.928  1.00  0.00    -0.200 F 
ENDBRANCH  55  79
BRANCH  67  90
ATOM     90  C   UNL A   1      41.771  30.012  33.923  1.00  0.00     0.064 A 
ATOM     91  C   UNL A   1      42.835  30.903  34.147  1.00  0.00     0.173 A 
ATOM     92  C   UNL A   1      41.648  28.926  34.800  1.00  0.00     0.173 A 
ATOM     93  F   UNL A   1      42.962  32.018  33.418  1.00  0.00    -0.203 F 
ATOM     94  C   UNL A   1      43.753  30.695  35.177  1.00  0.00     0.198 A 
ATOM     95  C   UNL A   1      42.543  28.740  35.850  1.00  0.00     0.198 A 
ATOM     96  F   UNL A   1      40.619  28.074  34.671  1.00  0.00    -0.203 F 
ATOM     97  F   UNL A   1      44.761  31.559  35.365  1.00  0.00    -0.200 F 
ATOM     98  C   UNL A   1      43.601  29.617  36.032  1.00  0.00     0.200 A 
ATOM     99  F   UNL A   1      42.361  27.725  36.705  1.00  0.00    -0.200 F 
ATOM    100  F   UNL A   1      44.452  29.440  37.052  1.00  0.00    -0.200 F 
ENDBRANCH  67  90
ENDBRANCH  41  42
ENDBRANCH  34  36
ENDBRANCH  33  34
ENDBRANCH  32  33
ENDBRANCH  31  32
ENDBRANCH  30  31
ENDBRANCH   1  30
TORSDOF 19
ENDMDL
