MODEL 1
REMARK VINA RESULT:     -12.4      0.000      0.000
REMARK SMILES Cc1cc(C)c(S(=O)(=O)Nc2ccc(N3CC[NH+](C)CC3)c(C(=O)OCCOCCOC(=O)c3ccc(-c4c5nc(c(-c6c(F)c(F)c(F)c(F)c6F)c6ccc([nH]6)c(-c6c(F)c(F)c(F)c(F)c6F)c6nc(c(-c7c(F)c(F)c(F)c(F)c7F)c7ccc4[nH]7)C=C6)C=C5)cc3)c2)c(C)c1
REMARK SMILES IDX 27 1 26 2 25 3 23 4 24 5 22 6 11 7 12 8 97 9 13 10 14 11
REMARK SMILES IDX 10 12 7 14 8 15 9 16 6 17 1 18 2 19 3 20 100 21 4 22 98 23
REMARK SMILES IDX 5 24 99 25 15 26 16 27 21 28 17 29 20 30 18 31 19 32 28 34
REMARK SMILES IDX 29 35 30 36 31 37 32 38 33 39 34 40 35 41 96 42 36 43 95 44
REMARK SMILES IDX 37 45 38 46 39 47 89 48 40 49 94 50 88 51 90 52 41 53 93 54
REMARK SMILES IDX 87 55 86 56 42 58 74 59 54 60 73 61 55 62 58 63 72 64 91 65
REMARK SMILES IDX 56 66 57 67 71 69 92 70 59 71 43 72 44 73 52 74 45 75 46 76
REMARK SMILES IDX 50 77 53 78 47 79 48 80 51 81 49 82 75 83 76 84 84 85 77 86
REMARK SMILES IDX 78 87 82 88 85 89 79 90 80 91 83 92 81 93 60 94 61 95 69 96
REMARK SMILES IDX 62 97 63 98 67 99 70 100 64 101 65 102 68 103 66 104
REMARK H PARENT 10 13 18 33 90 57 58 68
REMARK Flexibility Score: inf
ROOT
ATOM      1  C   UNL A   1      34.347  29.559  27.320  1.00  0.00     0.202 C 
ENDROOT
BRANCH   1   2
ATOM      2  C   UNL A   1      33.030  28.844  27.616  1.00  0.00     0.261 C 
BRANCH   2   3
ATOM      3  O   UNL A   1      32.334  28.603  26.384  1.00  0.00    -0.460 OA
BRANCH   3   4
ATOM      4  C   UNL A   1      31.858  27.343  26.245  1.00  0.00     0.340 C 
ATOM      5  O   UNL A   1      30.822  26.905  26.712  1.00  0.00    -0.246 OA
BRANCH   4   6
ATOM      6  C   UNL A   1      32.802  26.572  25.406  1.00  0.00     0.085 A 
ATOM      7  C   UNL A   1      34.372  24.763  25.432  1.00  0.00     0.050 A 
ATOM      8  C   UNL A   1      34.248  24.650  24.043  1.00  0.00     0.029 A 
ATOM      9  C   UNL A   1      33.775  25.827  26.087  1.00  0.00     0.044 A 
ATOM     10  C   UNL A   1      33.370  25.481  23.345  1.00  0.00     0.029 A 
ATOM     11  C   UNL A   1      32.576  26.410  24.023  1.00  0.00     0.052 A 
BRANCH   7  12
ATOM     12  N   UNL A   1      34.855  23.614  26.112  1.00  0.00    -0.280 N 
ATOM     13  H   UNL A   1      35.816  23.609  26.331  1.00  0.00     0.180 HD
BRANCH  12  14
ATOM     14  S   UNL A   1      33.983  22.272  26.583  1.00  0.00     0.262 S 
ATOM     15  O   UNL A   1      32.637  22.748  26.846  1.00  0.00    -0.201 OA
ATOM     16  O   UNL A   1      34.776  21.660  27.629  1.00  0.00    -0.201 OA
BRANCH  14  17
ATOM     17  C   UNL A   1      33.845  21.042  25.263  1.00  0.00     0.093 A 
ATOM     18  C   UNL A   1      33.452  17.134  23.451  1.00  0.00     0.044 C 
ATOM     19  C   UNL A   1      33.602  18.508  24.031  1.00  0.00    -0.051 A 
ATOM     20  C   UNL A   1      34.845  18.963  24.459  1.00  0.00     0.008 A 
ATOM     21  C   UNL A   1      32.530  19.403  24.052  1.00  0.00     0.008 A 
ATOM     22  C   UNL A   1      34.988  20.224  25.065  1.00  0.00    -0.030 A 
ATOM     23  C   UNL A   1      32.641  20.693  24.622  1.00  0.00    -0.030 A 
ATOM     24  C   UNL A   1      36.400  20.681  25.339  1.00  0.00     0.046 C 
ATOM     25  C   UNL A   1      31.505  21.633  24.326  1.00  0.00     0.046 C 
ENDBRANCH  14  17
ENDBRANCH  12  14
ENDBRANCH   7  12
BRANCH  11  26
ATOM     26  N   UNL A   1      31.588  27.077  23.341  1.00  0.00    -0.360 N 
ATOM     27  C   UNL A   1      31.827  28.330  22.638  1.00  0.00     0.178 C 
ATOM     28  C   UNL A   1      30.273  26.466  23.125  1.00  0.00     0.178 C 
ATOM     29  C   UNL A   1      30.708  29.331  23.007  1.00  0.00     0.283 C 
ATOM     30  C   UNL A   1      29.147  27.507  23.366  1.00  0.00     0.283 C 
ATOM     31  N   UNL A   1      29.357  28.812  22.686  1.00  0.00    -0.334 N 
ATOM     32  C   UNL A   1      28.340  29.769  23.126  1.00  0.00     0.332 C 
ATOM     33  H   UNL A   1      29.279  28.681  21.677  1.00  0.00     0.347 HD
ENDBRANCH  11  26
ENDBRANCH   4   6
ENDBRANCH   3   4
ENDBRANCH   2   3
ENDBRANCH   1   2
BRANCH   1  34
ATOM     34  O   UNL A   1      34.328  30.988  27.251  1.00  0.00    -0.374 OA
BRANCH  34  35
ATOM     35  C   UNL A   1      33.121  31.664  27.585  1.00  0.00     0.202 C 
BRANCH  35  36
ATOM     36  C   UNL A   1      32.999  33.169  27.302  1.00  0.00     0.261 C 
BRANCH  36  37
ATOM     37  O   UNL A   1      32.275  33.897  28.293  1.00  0.00    -0.460 OA
BRANCH  37  38
ATOM     38  C   UNL A   1      32.961  34.959  28.785  1.00  0.00     0.338 C 
ATOM     39  O   UNL A   1      32.645  36.134  28.749  1.00  0.00    -0.246 OA
BRANCH  38  40
ATOM     40  C   UNL A   1      34.112  34.467  29.556  1.00  0.00     0.060 A 
ATOM     41  C   UNL A   1      35.375  34.603  28.969  1.00  0.00     0.016 A 
ATOM     42  C   UNL A   1      33.958  33.860  30.804  1.00  0.00     0.016 A 
ATOM     43  C   UNL A   1      36.493  34.093  29.616  1.00  0.00     0.010 A 
ATOM     44  C   UNL A   1      35.082  33.335  31.447  1.00  0.00     0.010 A 
ATOM     45  C   UNL A   1      36.346  33.423  30.837  1.00  0.00    -0.014 A 
BRANCH  45  46
ATOM     46  C   UNL A   1      37.516  32.704  31.386  1.00  0.00     0.031 A 
ATOM     47  C   UNL A   1      38.014  33.062  32.755  1.00  0.00     0.074 A 
ATOM     48  C   UNL A   1      38.064  31.687  30.700  1.00  0.00     0.049 A 
ATOM     49  N   UNL A   1      38.951  32.498  33.473  1.00  0.00    -0.248 NA
ATOM     50  C   UNL A   1      37.366  34.213  33.403  1.00  0.00     0.031 C 
ATOM     51  C   UNL A   1      37.646  31.248  29.371  1.00  0.00     0.029 A 
ATOM     52  N   UNL A   1      39.084  30.837  31.037  1.00  0.00    -0.354 N 
ATOM     53  C   UNL A   1      38.993  33.213  34.662  1.00  0.00     0.074 A 
ATOM     54  C   UNL A   1      38.024  34.281  34.551  1.00  0.00     0.031 C 
ATOM     55  C   UNL A   1      38.406  30.203  29.002  1.00  0.00     0.029 A 
ATOM     56  C   UNL A   1      39.370  29.915  30.063  1.00  0.00     0.049 A 
ATOM     57  H   UNL A   1      39.565  30.882  31.895  1.00  0.00     0.167 HD
ATOM     58  C   UNL A   1      39.761  32.985  35.754  1.00  0.00     0.037 A 
ATOM     59  C   UNL A   1      40.308  28.950  30.033  1.00  0.00     0.037 A 
ATOM     60  C   UNL A   1      40.741  31.934  35.845  1.00  0.00     0.049 A 
ATOM     61  C   UNL A   1      41.185  28.746  31.239  1.00  0.00     0.074 A 
ATOM     62  C   UNL A   1      41.570  31.611  36.904  1.00  0.00     0.029 A 
ATOM     63  N   UNL A   1      41.032  31.039  34.823  1.00  0.00    -0.354 N 
ATOM     64  N   UNL A   1      41.194  29.398  32.377  1.00  0.00    -0.248 NA
ATOM     65  C   UNL A   1      42.171  27.661  31.161  1.00  0.00     0.031 C 
ATOM     66  C   UNL A   1      42.398  30.555  36.505  1.00  0.00     0.029 A 
ATOM     67  C   UNL A   1      42.048  30.181  35.217  1.00  0.00     0.049 A 
ATOM     68  H   UNL A   1      40.583  31.017  33.947  1.00  0.00     0.167 HD
ATOM     69  C   UNL A   1      42.175  28.799  33.156  1.00  0.00     0.074 A 
ATOM     70  C   UNL A   1      42.718  27.710  32.368  1.00  0.00     0.031 C 
ATOM     71  C   UNL A   1      42.592  29.119  34.406  1.00  0.00     0.037 A 
BRANCH  58  72
ATOM     72  C   UNL A   1      39.585  33.916  36.919  1.00  0.00     0.064 A 
ATOM     73  C   UNL A   1      40.233  35.161  36.974  1.00  0.00     0.173 A 
ATOM     74  C   UNL A   1      38.764  33.559  37.999  1.00  0.00     0.173 A 
ATOM     75  F   UNL A   1      41.043  35.545  35.975  1.00  0.00    -0.203 F 
ATOM     76  C   UNL A   1      40.095  35.994  38.081  1.00  0.00     0.198 A 
ATOM     77  C   UNL A   1      38.604  34.409  39.091  1.00  0.00     0.198 A 
ATOM     78  F   UNL A   1      38.120  32.383  37.999  1.00  0.00    -0.203 F 
ATOM     79  F   UNL A   1      40.771  37.150  38.137  1.00  0.00    -0.200 F 
ATOM     80  C   UNL A   1      39.277  35.620  39.136  1.00  0.00     0.200 A 
ATOM     81  F   UNL A   1      37.805  34.049  40.105  1.00  0.00    -0.200 F 
ATOM     82  F   UNL A   1      39.147  36.421  40.203  1.00  0.00    -0.200 F 
ENDBRANCH  58  72
BRANCH  59  83
ATOM     83  C   UNL A   1      40.453  28.109  28.819  1.00  0.00     0.064 A 
ATOM     84  C   UNL A   1      39.790  26.882  28.698  1.00  0.00     0.173 A 
ATOM     85  C   UNL A   1      41.247  28.532  27.741  1.00  0.00     0.173 A 
ATOM     86  F   UNL A   1      39.037  26.425  29.709  1.00  0.00    -0.203 F 
ATOM     87  C   UNL A   1      39.919  26.105  27.548  1.00  0.00     0.198 A 
ATOM     88  C   UNL A   1      41.354  27.768  26.582  1.00  0.00     0.198 A 
ATOM     89  F   UNL A   1      41.901  29.702  27.807  1.00  0.00    -0.203 F 
ATOM     90  F   UNL A   1      39.301  24.919  27.470  1.00  0.00    -0.200 F 
ATOM     91  C   UNL A   1      40.695  26.553  26.488  1.00  0.00     0.200 A 
ATOM     92  F   UNL A   1      42.090  28.213  25.554  1.00  0.00    -0.200 F 
ATOM     93  F   UNL A   1      40.807  25.812  25.377  1.00  0.00    -0.200 F 
ENDBRANCH  59  83
BRANCH  71  94
ATOM     94  C   UNL A   1      43.688  28.275  34.993  1.00  0.00     0.064 A 
ATOM     95  C   UNL A   1      45.040  28.622  34.848  1.00  0.00     0.173 A 
ATOM     96  C   UNL A   1      43.384  27.109  35.712  1.00  0.00     0.173 A 
ATOM     97  F   UNL A   1      45.385  29.721  34.158  1.00  0.00    -0.203 F 
ATOM     98  C   UNL A   1      46.048  27.813  35.365  1.00  0.00     0.198 A 
ATOM     99  C   UNL A   1      44.394  26.319  36.256  1.00  0.00     0.198 A 
ATOM    100  F   UNL A   1      42.109  26.735  35.888  1.00  0.00    -0.203 F 
ATOM    101  F   UNL A   1      47.333  28.131  35.157  1.00  0.00    -0.200 F 
ATOM    102  C   UNL A   1      45.724  26.665  36.072  1.00  0.00     0.200 A 
ATOM    103  F   UNL A   1      44.079  25.217  36.952  1.00  0.00    -0.200 F 
ATOM    104  F   UNL A   1      46.694  25.884  36.565  1.00  0.00    -0.200 F 
ENDBRANCH  71  94
ENDBRANCH  45  46
ENDBRANCH  38  40
ENDBRANCH  37  38
ENDBRANCH  36  37
ENDBRANCH  35  36
ENDBRANCH  34  35
ENDBRANCH   1  34
TORSDOF 18
ENDMDL
MODEL 2
REMARK VINA RESULT:     -12.2      5.361     10.397
REMARK SMILES Cc1cc(C)c(S(=O)(=O)Nc2ccc(N3CC[NH+](C)CC3)c(C(=O)OCCOCCOC(=O)c3ccc(-c4c5nc(c(-c6c(F)c(F)c(F)c(F)c6F)c6ccc([nH]6)c(-c6c(F)c(F)c(F)c(F)c6F)c6nc(c(-c7c(F)c(F)c(F)c(F)c7F)c7ccc4[nH]7)C=C6)C=C5)cc3)c2)c(C)c1
REMARK SMILES IDX 27 1 26 2 25 3 23 4 24 5 22 6 11 7 12 8 97 9 13 10 14 11
REMARK SMILES IDX 10 12 7 14 8 15 9 16 6 17 1 18 2 19 3 20 100 21 4 22 98 23
REMARK SMILES IDX 5 24 99 25 15 26 16 27 21 28 17 29 20 30 18 31 19 32 28 34
REMARK SMILES IDX 29 35 30 36 31 37 32 38 33 39 34 40 35 41 96 42 36 43 95 44
REMARK SMILES IDX 37 45 38 46 39 47 89 48 40 49 94 50 88 51 90 52 41 53 93 54
REMARK SMILES IDX 87 55 86 56 42 58 74 59 54 60 73 61 55 62 58 63 72 64 91 65
REMARK SMILES IDX 56 66 57 67 71 69 92 70 59 71 43 72 44 73 52 74 45 75 46 76
REMARK SMILES IDX 50 77 53 78 47 79 48 80 51 81 49 82 75 83 76 84 84 85 77 86
REMARK SMILES IDX 78 87 82 88 85 89 79 90 80 91 83 92 81 93 60 94 61 95 69 96
REMARK SMILES IDX 62 97 63 98 67 99 70 100 64 101 65 102 68 103 66 104
REMARK H PARENT 10 13 18 33 90 57 58 68
REMARK Flexibility Score: inf
ROOT
ATOM      1  C   UNL A   1      37.417  21.670  24.595  1.00  0.00     0.202 C 
ENDROOT
BRANCH   1   2
ATOM      2  C   UNL A   1      36.684  22.579  23.608  1.00  0.00     0.261 C 
BRANCH   2   3
ATOM      3  O   UNL A   1      35.573  23.199  24.271  1.00  0.00    -0.460 OA
BRANCH   3   4
ATOM      4  C   UNL A   1      34.406  23.143  23.585  1.00  0.00     0.340 C 
ATOM      5  O   UNL A   1      34.276  23.194  22.376  1.00  0.00    -0.246 OA
BRANCH   4   6
ATOM      6  C   UNL A   1      33.297  22.991  24.552  1.00  0.00     0.085 A 
ATOM      7  C   UNL A   1      31.486  24.150  25.609  1.00  0.00     0.050 A 
ATOM      8  C   UNL A   1      30.884  22.922  25.898  1.00  0.00     0.029 A 
ATOM      9  C   UNL A   1      32.768  24.176  25.083  1.00  0.00     0.044 A 
ATOM     10  C   UNL A   1      31.478  21.730  25.479  1.00  0.00     0.029 A 
ATOM     11  C   UNL A   1      32.660  21.746  24.734  1.00  0.00     0.052 A 
BRANCH   7  12
ATOM     12  N   UNL A   1      30.628  25.281  25.600  1.00  0.00    -0.280 N 
ATOM     13  H   UNL A   1      30.078  25.418  26.406  1.00  0.00     0.180 HD
BRANCH  12  14
ATOM     14  S   UNL A   1      30.444  26.405  24.380  1.00  0.00     0.262 S 
ATOM     15  O   UNL A   1      29.015  26.620  24.253  1.00  0.00    -0.201 OA
ATOM     16  O   UNL A   1      31.221  25.885  23.274  1.00  0.00    -0.201 OA
BRANCH  14  17
ATOM     17  C   UNL A   1      31.170  28.007  24.804  1.00  0.00     0.093 A 
ATOM     18  C   UNL A   1      31.403  31.979  26.500  1.00  0.00     0.044 C 
ATOM     19  C   UNL A   1      31.366  30.613  25.884  1.00  0.00    -0.051 A 
ATOM     20  C   UNL A   1      30.753  30.409  24.652  1.00  0.00     0.008 A 
ATOM     21  C   UNL A   1      32.041  29.540  26.470  1.00  0.00     0.008 A 
ATOM     22  C   UNL A   1      30.654  29.122  24.095  1.00  0.00    -0.030 A 
ATOM     23  C   UNL A   1      31.995  28.237  25.923  1.00  0.00    -0.030 A 
ATOM     24  C   UNL A   1      30.119  29.040  22.686  1.00  0.00     0.046 C 
ATOM     25  C   UNL A   1      32.982  27.257  26.495  1.00  0.00     0.046 C 
ENDBRANCH  14  17
ENDBRANCH  12  14
ENDBRANCH   7  12
BRANCH  11  26
ATOM     26  N   UNL A   1      33.118  20.579  24.172  1.00  0.00    -0.360 N 
ATOM     27  C   UNL A   1      32.513  19.987  22.987  1.00  0.00     0.178 C 
ATOM     28  C   UNL A   1      34.366  19.959  24.627  1.00  0.00     0.178 C 
ATOM     29  C   UNL A   1      32.296  18.477  23.238  1.00  0.00     0.283 C 
ATOM     30  C   UNL A   1      34.192  18.422  24.754  1.00  0.00     0.283 C 
ATOM     31  N   UNL A   1      33.557  17.774  23.577  1.00  0.00    -0.334 N 
ATOM     32  C   UNL A   1      33.277  16.369  23.876  1.00  0.00     0.332 C 
ATOM     33  H   UNL A   1      34.194  17.826  22.781  1.00  0.00     0.347 HD
ENDBRANCH  11  26
ENDBRANCH   4   6
ENDBRANCH   3   4
ENDBRANCH   2   3
ENDBRANCH   1   2
BRANCH   1  34
ATOM     34  O   UNL A   1      38.063  22.287  25.713  1.00  0.00    -0.374 OA
BRANCH  34  35
ATOM     35  C   UNL A   1      39.267  21.706  26.201  1.00  0.00     0.202 C 
BRANCH  35  36
ATOM     36  C   UNL A   1      39.653  20.289  25.751  1.00  0.00     0.261 C 
BRANCH  36  37
ATOM     37  O   UNL A   1      40.469  19.578  26.683  1.00  0.00    -0.460 OA
BRANCH  37  38
ATOM     38  C   UNL A   1      41.749  19.422  26.264  1.00  0.00     0.338 C 
ATOM     39  O   UNL A   1      42.254  18.440  25.752  1.00  0.00    -0.246 OA
BRANCH  38  40
ATOM     40  C   UNL A   1      42.442  20.716  26.358  1.00  0.00     0.060 A 
ATOM     41  C   UNL A   1      42.547  21.291  27.630  1.00  0.00     0.016 A 
ATOM     42  C   UNL A   1      42.946  21.366  25.230  1.00  0.00     0.016 A 
ATOM     43  C   UNL A   1      43.125  22.544  27.773  1.00  0.00     0.010 A 
ATOM     44  C   UNL A   1      43.515  22.633  25.374  1.00  0.00     0.010 A 
ATOM     45  C   UNL A   1      43.577  23.237  26.642  1.00  0.00    -0.014 A 
BRANCH  45  46
ATOM     46  C   UNL A   1      43.981  24.650  26.802  1.00  0.00     0.031 A 
ATOM     47  C   UNL A   1      42.977  25.642  27.307  1.00  0.00     0.074 A 
ATOM     48  C   UNL A   1      45.255  25.015  26.579  1.00  0.00     0.049 A 
ATOM     49  N   UNL A   1      43.137  26.902  27.622  1.00  0.00    -0.248 NA
ATOM     50  C   UNL A   1      41.603  25.145  27.485  1.00  0.00     0.031 C 
ATOM     51  C   UNL A   1      46.313  24.127  26.102  1.00  0.00     0.029 A 
ATOM     52  N   UNL A   1      45.871  26.228  26.737  1.00  0.00    -0.354 N 
ATOM     53  C   UNL A   1      41.893  27.343  28.049  1.00  0.00     0.074 A 
ATOM     54  C   UNL A   1      40.977  26.233  27.908  1.00  0.00     0.031 C 
ATOM     55  C   UNL A   1      47.455  24.828  26.005  1.00  0.00     0.029 A 
ATOM     56  C   UNL A   1      47.200  26.213  26.398  1.00  0.00     0.049 A 
ATOM     57  H   UNL A   1      45.406  27.033  27.061  1.00  0.00     0.167 HD
ATOM     58  C   UNL A   1      41.553  28.562  28.532  1.00  0.00     0.037 A 
ATOM     59  C   UNL A   1      48.106  27.209  26.404  1.00  0.00     0.037 A 
ATOM     60  C   UNL A   1      42.467  29.668  28.645  1.00  0.00     0.049 A 
ATOM     61  C   UNL A   1      47.693  28.570  26.897  1.00  0.00     0.074 A 
ATOM     62  C   UNL A   1      42.230  30.944  29.123  1.00  0.00     0.029 A 
ATOM     63  N   UNL A   1      43.800  29.629  28.257  1.00  0.00    -0.354 N 
ATOM     64  N   UNL A   1      46.526  28.972  27.340  1.00  0.00    -0.248 NA
ATOM     65  C   UNL A   1      48.729  29.609  26.909  1.00  0.00     0.031 C 
ATOM     66  C   UNL A   1      43.404  31.692  28.977  1.00  0.00     0.029 A 
ATOM     67  C   UNL A   1      44.391  30.868  28.460  1.00  0.00     0.049 A 
ATOM     68  H   UNL A   1      44.259  28.839  27.891  1.00  0.00     0.167 HD
ATOM     69  C   UNL A   1      46.687  30.305  27.692  1.00  0.00     0.074 A 
ATOM     70  C   UNL A   1      48.075  30.634  27.438  1.00  0.00     0.031 C 
ATOM     71  C   UNL A   1      45.770  31.180  28.177  1.00  0.00     0.037 A 
BRANCH  58  72
ATOM     72  C   UNL A   1      40.121  28.758  28.942  1.00  0.00     0.064 A 
ATOM     73  C   UNL A   1      39.135  29.142  28.018  1.00  0.00     0.173 A 
ATOM     74  C   UNL A   1      39.729  28.569  30.275  1.00  0.00     0.173 A 
ATOM     75  F   UNL A   1      39.460  29.353  26.733  1.00  0.00    -0.203 F 
ATOM     76  C   UNL A   1      37.821  29.364  28.421  1.00  0.00     0.198 A 
ATOM     77  C   UNL A   1      38.407  28.761  30.669  1.00  0.00     0.198 A 
ATOM     78  F   UNL A   1      40.629  28.201  31.199  1.00  0.00    -0.203 F 
ATOM     79  F   UNL A   1      36.911  29.788  27.534  1.00  0.00    -0.200 F 
ATOM     80  C   UNL A   1      37.457  29.168  29.745  1.00  0.00     0.200 A 
ATOM     81  F   UNL A   1      38.055  28.563  31.947  1.00  0.00    -0.200 F 
ATOM     82  F   UNL A   1      36.192  29.385  30.133  1.00  0.00    -0.200 F 
ENDBRANCH  58  72
BRANCH  59  83
ATOM     83  C   UNL A   1      49.487  26.944  25.929  1.00  0.00     0.064 A 
ATOM     84  C   UNL A   1      50.478  26.470  26.798  1.00  0.00     0.173 A 
ATOM     85  C   UNL A   1      49.836  27.139  24.584  1.00  0.00     0.173 A 
ATOM     86  F   UNL A   1      50.199  26.287  28.096  1.00  0.00    -0.203 F 
ATOM     87  C   UNL A   1      51.769  26.209  26.341  1.00  0.00     0.198 A 
ATOM     88  C   UNL A   1      51.118  26.852  24.123  1.00  0.00     0.198 A 
ATOM     89  F   UNL A   1      48.921  27.589  23.712  1.00  0.00    -0.203 F 
ATOM     90  F   UNL A   1      52.709  25.788  27.198  1.00  0.00    -0.200 F 
ATOM     91  C   UNL A   1      52.085  26.392  25.002  1.00  0.00     0.200 A 
ATOM     92  F   UNL A   1      51.413  27.014  22.826  1.00  0.00    -0.200 F 
ATOM     93  F   UNL A   1      53.323  26.127  24.562  1.00  0.00    -0.200 F 
ENDBRANCH  59  83
BRANCH  71  94
ATOM     94  C   UNL A   1      46.251  32.575  28.465  1.00  0.00     0.064 A 
ATOM     95  C   UNL A   1      46.181  33.590  27.499  1.00  0.00     0.173 A 
ATOM     96  C   UNL A   1      46.783  32.902  29.722  1.00  0.00     0.173 A 
ATOM     97  F   UNL A   1      45.692  33.327  26.277  1.00  0.00    -0.203 F 
ATOM     98  C   UNL A   1      46.663  34.869  27.766  1.00  0.00     0.198 A 
ATOM     99  C   UNL A   1      47.234  34.190  29.996  1.00  0.00     0.198 A 
ATOM    100  F   UNL A   1      46.866  31.972  30.684  1.00  0.00    -0.203 F 
ATOM    101  F   UNL A   1      46.645  35.804  26.806  1.00  0.00    -0.200 F 
ATOM    102  C   UNL A   1      47.184  35.169  29.015  1.00  0.00     0.200 A 
ATOM    103  F   UNL A   1      47.725  34.483  31.208  1.00  0.00    -0.200 F 
ATOM    104  F   UNL A   1      47.652  36.398  29.270  1.00  0.00    -0.200 F 
ENDBRANCH  71  94
ENDBRANCH  45  46
ENDBRANCH  38  40
ENDBRANCH  37  38
ENDBRANCH  36  37
ENDBRANCH  35  36
ENDBRANCH  34  35
ENDBRANCH   1  34
TORSDOF 18
ENDMDL
MODEL 3
REMARK VINA RESULT:     -12.2      1.359      7.211
REMARK SMILES Cc1cc(C)c(S(=O)(=O)Nc2ccc(N3CC[NH+](C)CC3)c(C(=O)OCCOCCOC(=O)c3ccc(-c4c5nc(c(-c6c(F)c(F)c(F)c(F)c6F)c6ccc([nH]6)c(-c6c(F)c(F)c(F)c(F)c6F)c6nc(c(-c7c(F)c(F)c(F)c(F)c7F)c7ccc4[nH]7)C=C6)C=C5)cc3)c2)c(C)c1
REMARK SMILES IDX 27 1 26 2 25 3 23 4 24 5 22 6 11 7 12 8 97 9 13 10 14 11
REMARK SMILES IDX 10 12 7 14 8 15 9 16 6 17 1 18 2 19 3 20 100 21 4 22 98 23
REMARK SMILES IDX 5 24 99 25 15 26 16 27 21 28 17 29 20 30 18 31 19 32 28 34
REMARK SMILES IDX 29 35 30 36 31 37 32 38 33 39 34 40 35 41 96 42 36 43 95 44
REMARK SMILES IDX 37 45 38 46 39 47 89 48 40 49 94 50 88 51 90 52 41 53 93 54
REMARK SMILES IDX 87 55 86 56 42 58 74 59 54 60 73 61 55 62 58 63 72 64 91 65
REMARK SMILES IDX 56 66 57 67 71 69 92 70 59 71 43 72 44 73 52 74 45 75 46 76
REMARK SMILES IDX 50 77 53 78 47 79 48 80 51 81 49 82 75 83 76 84 84 85 77 86
REMARK SMILES IDX 78 87 82 88 85 89 79 90 80 91 83 92 81 93 60 94 61 95 69 96
REMARK SMILES IDX 62 97 63 98 67 99 70 100 64 101 65 102 68 103 66 104
REMARK H PARENT 10 13 18 33 90 57 58 68
REMARK Flexibility Score: inf
ROOT
ATOM      1  C   UNL A   1      33.756  30.231  27.654  1.00  0.00     0.202 C 
ENDROOT
BRANCH   1   2
ATOM      2  C   UNL A   1      32.631  29.289  27.226  1.00  0.00     0.261 C 
BRANCH   2   3
ATOM      3  O   UNL A   1      33.170  27.978  27.007  1.00  0.00    -0.460 OA
BRANCH   3   4
ATOM      4  C   UNL A   1      32.323  27.119  26.389  1.00  0.00     0.340 C 
ATOM      5  O   UNL A   1      31.305  26.645  26.858  1.00  0.00    -0.246 OA
BRANCH   4   6
ATOM      6  C   UNL A   1      32.831  26.856  25.024  1.00  0.00     0.085 A 
ATOM      7  C   UNL A   1      34.250  25.417  23.737  1.00  0.00     0.050 A 
ATOM      8  C   UNL A   1      33.567  25.801  22.578  1.00  0.00     0.029 A 
ATOM      9  C   UNL A   1      33.987  26.069  24.931  1.00  0.00     0.044 A 
ATOM     10  C   UNL A   1      32.493  26.688  22.655  1.00  0.00     0.029 A 
ATOM     11  C   UNL A   1      32.057  27.177  23.890  1.00  0.00     0.052 A 
BRANCH   7  12
ATOM     12  N   UNL A   1      34.953  24.186  23.671  1.00  0.00    -0.280 N 
ATOM     13  H   UNL A   1      35.514  24.047  22.873  1.00  0.00     0.180 HD
BRANCH  12  14
ATOM     14  S   UNL A   1      34.937  22.947  24.789  1.00  0.00     0.262 S 
ATOM     15  O   UNL A   1      35.643  23.456  25.951  1.00  0.00    -0.201 OA
ATOM     16  O   UNL A   1      35.424  21.789  24.068  1.00  0.00    -0.201 OA
BRANCH  14  17
ATOM     17  C   UNL A   1      33.264  22.539  25.340  1.00  0.00     0.093 A 
ATOM     18  C   UNL A   1      29.412  23.111  27.223  1.00  0.00     0.044 C 
ATOM     19  C   UNL A   1      30.737  22.860  26.568  1.00  0.00    -0.051 A 
ATOM     20  C   UNL A   1      31.847  22.511  27.330  1.00  0.00     0.008 A 
ATOM     21  C   UNL A   1      30.865  22.859  25.178  1.00  0.00     0.008 A 
ATOM     22  C   UNL A   1      33.109  22.337  26.736  1.00  0.00    -0.030 A 
ATOM     23  C   UNL A   1      32.110  22.655  24.540  1.00  0.00    -0.030 A 
ATOM     24  C   UNL A   1      34.202  21.799  27.628  1.00  0.00     0.046 C 
ATOM     25  C   UNL A   1      32.047  22.404  23.059  1.00  0.00     0.046 C 
ENDBRANCH  14  17
ENDBRANCH  12  14
ENDBRANCH   7  12
BRANCH  11  26
ATOM     26  N   UNL A   1      30.886  27.891  23.957  1.00  0.00    -0.360 N 
ATOM     27  C   UNL A   1      29.575  27.255  23.931  1.00  0.00     0.178 C 
ATOM     28  C   UNL A   1      30.891  29.327  24.247  1.00  0.00     0.178 C 
ATOM     29  C   UNL A   1      28.676  28.005  22.922  1.00  0.00     0.283 C 
ATOM     30  C   UNL A   1      29.888  30.069  23.323  1.00  0.00     0.283 C 
ATOM     31  N   UNL A   1      28.541  29.445  23.247  1.00  0.00    -0.334 N 
ATOM     32  C   UNL A   1      27.744  30.113  22.218  1.00  0.00     0.332 C 
ATOM     33  H   UNL A   1      28.074  29.543  24.148  1.00  0.00     0.347 HD
ENDBRANCH  11  26
ENDBRANCH   4   6
ENDBRANCH   3   4
ENDBRANCH   2   3
ENDBRANCH   1   2
BRANCH   1  34
ATOM     34  O   UNL A   1      33.678  31.596  27.230  1.00  0.00    -0.374 OA
BRANCH  34  35
ATOM     35  C   UNL A   1      32.408  32.238  27.252  1.00  0.00     0.202 C 
BRANCH  35  36
ATOM     36  C   UNL A   1      32.340  33.770  27.169  1.00  0.00     0.261 C 
BRANCH  36  37
ATOM     37  O   UNL A   1      32.234  34.423  28.434  1.00  0.00    -0.460 OA
BRANCH  37  38
ATOM     38  C   UNL A   1      33.297  35.216  28.718  1.00  0.00     0.338 C 
ATOM     39  O   UNL A   1      33.339  36.433  28.736  1.00  0.00    -0.246 OA
BRANCH  38  40
ATOM     40  C   UNL A   1      34.407  34.375  29.192  1.00  0.00     0.060 A 
ATOM     41  C   UNL A   1      34.121  33.462  30.213  1.00  0.00     0.016 A 
ATOM     42  C   UNL A   1      35.698  34.499  28.676  1.00  0.00     0.016 A 
ATOM     43  C   UNL A   1      35.142  32.691  30.752  1.00  0.00     0.010 A 
ATOM     44  C   UNL A   1      36.727  33.732  29.229  1.00  0.00     0.010 A 
ATOM     45  C   UNL A   1      36.455  32.851  30.290  1.00  0.00    -0.014 A 
BRANCH  45  46
ATOM     46  C   UNL A   1      37.545  32.181  31.031  1.00  0.00     0.031 A 
ATOM     47  C   UNL A   1      38.304  31.073  30.365  1.00  0.00     0.074 A 
ATOM     48  C   UNL A   1      37.900  32.622  32.250  1.00  0.00     0.049 A 
ATOM     49  N   UNL A   1      39.358  30.419  30.782  1.00  0.00    -0.248 NA
ATOM     50  C   UNL A   1      37.810  30.645  29.047  1.00  0.00     0.031 C 
ATOM     51  C   UNL A   1      37.239  33.701  32.979  1.00  0.00     0.029 A 
ATOM     52  N   UNL A   1      38.914  32.219  33.078  1.00  0.00    -0.354 N 
ATOM     53  C   UNL A   1      39.662  29.515  29.773  1.00  0.00     0.074 A 
ATOM     54  C   UNL A   1      38.655  29.670  28.746  1.00  0.00     0.031 C 
ATOM     55  C   UNL A   1      37.867  33.877  34.154  1.00  0.00     0.029 A 
ATOM     56  C   UNL A   1      38.961  32.913  34.260  1.00  0.00     0.049 A 
ATOM     57  H   UNL A   1      39.548  31.502  32.848  1.00  0.00     0.167 HD
ATOM     58  C   UNL A   1      40.700  28.648  29.705  1.00  0.00     0.037 A 
ATOM     59  C   UNL A   1      39.793  32.780  35.310  1.00  0.00     0.037 A 
ATOM     60  C   UNL A   1      41.683  28.484  30.744  1.00  0.00     0.049 A 
ATOM     61  C   UNL A   1      40.910  31.773  35.233  1.00  0.00     0.074 A 
ATOM     62  C   UNL A   1      42.777  27.639  30.777  1.00  0.00     0.029 A 
ATOM     63  N   UNL A   1      41.679  29.178  31.947  1.00  0.00    -0.354 N 
ATOM     64  N   UNL A   1      41.219  30.950  34.260  1.00  0.00    -0.248 NA
ATOM     65  C   UNL A   1      41.804  31.692  36.395  1.00  0.00     0.031 C 
ATOM     66  C   UNL A   1      43.404  27.783  32.020  1.00  0.00     0.029 A 
ATOM     67  C   UNL A   1      42.736  28.759  32.741  1.00  0.00     0.049 A 
ATOM     68  H   UNL A   1      41.022  29.867  32.200  1.00  0.00     0.167 HD
ATOM     69  C   UNL A   1      42.346  30.259  34.684  1.00  0.00     0.074 A 
ATOM     70  C   UNL A   1      42.684  30.785  35.992  1.00  0.00     0.031 C 
ATOM     71  C   UNL A   1      43.039  29.279  34.053  1.00  0.00     0.037 A 
BRANCH  58  72
ATOM     72  C   UNL A   1      40.795  27.793  28.474  1.00  0.00     0.064 A 
ATOM     73  C   UNL A   1      40.158  26.544  28.391  1.00  0.00     0.173 A 
ATOM     74  C   UNL A   1      41.538  28.222  27.364  1.00  0.00     0.173 A 
ATOM     75  F   UNL A   1      39.449  26.078  29.431  1.00  0.00    -0.203 F 
ATOM     76  C   UNL A   1      40.292  25.742  27.261  1.00  0.00     0.198 A 
ATOM     77  C   UNL A   1      41.644  27.431  26.222  1.00  0.00     0.198 A 
ATOM     78  F   UNL A   1      42.165  29.407  27.387  1.00  0.00    -0.203 F 
ATOM     79  F   UNL A   1      39.725  24.529  27.230  1.00  0.00    -0.200 F 
ATOM     80  C   UNL A   1      41.031  26.189  26.175  1.00  0.00     0.200 A 
ATOM     81  F   UNL A   1      42.350  27.868  25.170  1.00  0.00    -0.200 F 
ATOM     82  F   UNL A   1      41.162  25.416  25.088  1.00  0.00    -0.200 F 
ENDBRANCH  58  72
BRANCH  59  83
ATOM     83  C   UNL A   1      39.595  33.627  36.512  1.00  0.00     0.064 A 
ATOM     84  C   UNL A   1      40.157  34.906  36.604  1.00  0.00     0.173 A 
ATOM     85  C   UNL A   1      38.816  33.177  37.589  1.00  0.00     0.173 A 
ATOM     86  F   UNL A   1      40.926  35.372  35.610  1.00  0.00    -0.203 F 
ATOM     87  C   UNL A   1      39.953  35.701  37.731  1.00  0.00     0.198 A 
ATOM     88  C   UNL A   1      38.590  33.982  38.702  1.00  0.00     0.198 A 
ATOM     89  F   UNL A   1      38.253  31.959  37.548  1.00  0.00    -0.203 F 
ATOM     90  F   UNL A   1      40.529  36.908  37.808  1.00  0.00    -0.200 F 
ATOM     91  C   UNL A   1      39.163  35.242  38.775  1.00  0.00     0.200 A 
ATOM     92  F   UNL A   1      37.813  33.541  39.700  1.00  0.00    -0.200 F 
ATOM     93  F   UNL A   1      38.957  36.013  39.851  1.00  0.00    -0.200 F 
ENDBRANCH  59  83
BRANCH  71  94
ATOM     94  C   UNL A   1      44.231  28.717  34.775  1.00  0.00     0.064 A 
ATOM     95  C   UNL A   1      45.514  29.262  34.609  1.00  0.00     0.173 A 
ATOM     96  C   UNL A   1      44.090  27.626  35.646  1.00  0.00     0.173 A 
ATOM     97  F   UNL A   1      45.705  30.297  33.778  1.00  0.00    -0.203 F 
ATOM     98  C   UNL A   1      46.616  28.709  35.256  1.00  0.00     0.198 A 
ATOM     99  C   UNL A   1      45.189  27.098  36.317  1.00  0.00     0.198 A 
ATOM    100  F   UNL A   1      42.885  27.073  35.848  1.00  0.00    -0.203 F 
ATOM    101  F   UNL A   1      47.841  29.205  35.031  1.00  0.00    -0.200 F 
ATOM    102  C   UNL A   1      46.453  27.631  36.113  1.00  0.00     0.200 A 
ATOM    103  F   UNL A   1      45.028  26.064  37.156  1.00  0.00    -0.200 F 
ATOM    104  F   UNL A   1      47.514  27.098  36.731  1.00  0.00    -0.200 F 
ENDBRANCH  71  94
ENDBRANCH  45  46
ENDBRANCH  38  40
ENDBRANCH  37  38
ENDBRANCH  36  37
ENDBRANCH  35  36
ENDBRANCH  34  35
ENDBRANCH   1  34
TORSDOF 18
ENDMDL
