MODEL 1
REMARK VINA RESULT:     -10.2      0.000      0.000
REMARK SMILES C=CCN(CC(=O)OCCOCCOC(=O)c1ccc(-c2c3nc(c(-c4c(F)c(F)c(F)c(F)c4F)c4ccc([nH]4)c(-c4c(F)c(F)c(F)c(F)c4F)c4nc(c(-c5c(F)c(F)c(F)c(F)c5F)c5ccc2[nH]5)C=C4)C=C3)cc1)C(=O)N1CCC(CC)(CC)C1
REMARK SMILES IDX 10 1 9 2 8 3 6 4 7 5 5 6 4 7 3 8 2 9 1 10 80 11 81 12 82 13
REMARK SMILES IDX 83 14 90 15 84 16 85 17 86 18 87 19 88 20 89 21 11 22 12 23
REMARK SMILES IDX 13 24 14 25 15 26 16 27 17 28 18 29 79 30 19 31 78 32 20 33
REMARK SMILES IDX 21 34 22 35 72 36 23 37 77 38 71 39 73 40 24 41 76 42 70 43
REMARK SMILES IDX 69 44 25 46 57 47 37 48 56 49 38 50 41 51 55 52 74 53 39 54
REMARK SMILES IDX 40 55 54 57 75 58 42 59 26 60 27 61 35 62 28 63 29 64 33 65
REMARK SMILES IDX 36 66 30 67 31 68 34 69 32 70 58 71 59 72 67 73 60 74 61 75
REMARK SMILES IDX 65 76 68 77 62 78 63 79 66 80 64 81 43 82 44 83 52 84 45 85
REMARK SMILES IDX 46 86 50 87 53 88 47 89 48 90 51 91 49 92
REMARK H PARENT 73 45 41 56
REMARK Flexibility Score: inf
ROOT
ATOM      1  C   UNL A   1      34.463  30.565  27.336  1.00  0.00     0.202 C 
ENDROOT
BRANCH   1   2
ATOM      2  C   UNL A   1      33.355  29.729  26.677  1.00  0.00     0.261 C 
BRANCH   2   3
ATOM      3  O   UNL A   1      33.214  28.409  27.268  1.00  0.00    -0.462 OA
BRANCH   3   4
ATOM      4  C   UNL A   1      32.002  27.812  27.097  1.00  0.00     0.325 C 
ATOM      5  O   UNL A   1      31.086  27.905  27.910  1.00  0.00    -0.250 OA
BRANCH   4   6
ATOM      6  C   UNL A   1      31.881  26.901  25.855  1.00  0.00     0.244 C 
BRANCH   6   7
ATOM      7  N   UNL A   1      30.963  25.751  25.807  1.00  0.00    -0.310 N 
BRANCH   7   8
ATOM      8  C   UNL A   1      29.717  25.997  25.070  1.00  0.00     0.149 C 
BRANCH   8   9
ATOM      9  C   UNL A   1      29.998  26.767  23.805  1.00  0.00    -0.013 C 
ATOM     10  C   UNL A   1      29.273  27.821  23.399  1.00  0.00     0.006 C 
ENDBRANCH   8   9
ENDBRANCH   7   8
BRANCH   7  11
ATOM     11  C   UNL A   1      31.186  24.440  26.213  1.00  0.00     0.320 C 
ATOM     12  O   UNL A   1      30.678  24.025  27.262  1.00  0.00    -0.248 OA
BRANCH  11  13
ATOM     13  N   UNL A   1      31.997  23.579  25.500  1.00  0.00    -0.324 N 
ATOM     14  C   UNL A   1      31.861  23.098  24.153  1.00  0.00     0.122 C 
ATOM     15  C   UNL A   1      33.370  23.350  25.979  1.00  0.00     0.128 C 
ATOM     16  C   UNL A   1      33.079  22.267  23.830  1.00  0.00     0.030 C 
ATOM     17  C   UNL A   1      34.165  22.636  24.853  1.00  0.00    -0.011 C 
BRANCH  17  18
ATOM     18  C   UNL A   1      34.804  21.313  25.373  1.00  0.00     0.005 C 
ATOM     19  C   UNL A   1      34.187  20.045  24.772  1.00  0.00     0.004 C 
ENDBRANCH  17  18
BRANCH  17  20
ATOM     20  C   UNL A   1      35.333  23.497  24.275  1.00  0.00     0.005 C 
ATOM     21  C   UNL A   1      36.226  22.916  23.200  1.00  0.00     0.004 C 
ENDBRANCH  17  20
ENDBRANCH  11  13
ENDBRANCH   7  11
ENDBRANCH   6   7
ENDBRANCH   4   6
ENDBRANCH   3   4
ENDBRANCH   2   3
ENDBRANCH   1   2
BRANCH   1  22
ATOM     22  O   UNL A   1      34.086  31.808  27.923  1.00  0.00    -0.374 OA
BRANCH  22  23
ATOM     23  C   UNL A   1      32.859  32.383  27.504  1.00  0.00     0.202 C 
BRANCH  23  24
ATOM     24  C   UNL A   1      32.676  33.902  27.692  1.00  0.00     0.261 C 
BRANCH  24  25
ATOM     25  O   UNL A   1      32.402  34.308  29.010  1.00  0.00    -0.460 OA
BRANCH  25  26
ATOM     26  C   UNL A   1      33.167  35.327  29.447  1.00  0.00     0.338 C 
ATOM     27  O   UNL A   1      32.886  36.486  29.611  1.00  0.00    -0.246 OA
BRANCH  26  28
ATOM     28  C   UNL A   1      34.357  34.615  29.913  1.00  0.00     0.060 A 
ATOM     29  C   UNL A   1      34.170  33.647  30.897  1.00  0.00     0.016 A 
ATOM     30  C   UNL A   1      35.569  34.774  29.232  1.00  0.00     0.016 A 
ATOM     31  C   UNL A   1      35.241  32.841  31.242  1.00  0.00     0.010 A 
ATOM     32  C   UNL A   1      36.634  33.956  29.567  1.00  0.00     0.010 A 
ATOM     33  C   UNL A   1      36.473  33.014  30.595  1.00  0.00    -0.014 A 
BRANCH  33  34
ATOM     34  C   UNL A   1      37.648  32.311  31.126  1.00  0.00     0.031 A 
ATOM     35  C   UNL A   1      38.108  32.676  32.503  1.00  0.00     0.074 A 
ATOM     36  C   UNL A   1      38.231  31.345  30.399  1.00  0.00     0.049 A 
ATOM     37  N   UNL A   1      39.083  32.172  33.207  1.00  0.00    -0.248 NA
ATOM     38  C   UNL A   1      37.368  33.756  33.181  1.00  0.00     0.031 C 
ATOM     39  C   UNL A   1      37.821  30.934  29.055  1.00  0.00     0.029 A 
ATOM     40  N   UNL A   1      39.287  30.529  30.694  1.00  0.00    -0.354 N 
ATOM     41  C   UNL A   1      39.074  32.871  34.406  1.00  0.00     0.074 A 
ATOM     42  C   UNL A   1      38.025  33.860  34.326  1.00  0.00     0.031 C 
ATOM     43  C   UNL A   1      38.619  29.935  28.642  1.00  0.00     0.029 A 
ATOM     44  C   UNL A   1      39.608  29.660  29.681  1.00  0.00     0.049 A 
ATOM     45  H   UNL A   1      39.771  30.561  31.551  1.00  0.00     0.167 HD
ATOM     46  C   UNL A   1      39.870  32.684  35.481  1.00  0.00     0.037 A 
ATOM     47  C   UNL A   1      40.604  28.758  29.615  1.00  0.00     0.037 A 
ATOM     48  C   UNL A   1      40.901  31.685  35.530  1.00  0.00     0.049 A 
ATOM     49  C   UNL A   1      41.501  28.605  30.818  1.00  0.00     0.074 A 
ATOM     50  C   UNL A   1      41.755  31.379  36.571  1.00  0.00     0.029 A 
ATOM     51  N   UNL A   1      41.218  30.834  34.480  1.00  0.00    -0.354 N 
ATOM     52  N   UNL A   1      41.455  29.230  31.972  1.00  0.00    -0.248 NA
ATOM     53  C   UNL A   1      42.581  27.618  30.714  1.00  0.00     0.031 C 
ATOM     54  C   UNL A   1      42.632  30.384  36.130  1.00  0.00     0.029 A 
ATOM     55  C   UNL A   1      42.281  30.023  34.837  1.00  0.00     0.049 A 
ATOM     56  H   UNL A   1      40.757  30.812  33.611  1.00  0.00     0.167 HD
ATOM     57  C   UNL A   1      42.480  28.695  32.739  1.00  0.00     0.074 A 
ATOM     58  C   UNL A   1      43.111  27.674  31.928  1.00  0.00     0.031 C 
ATOM     59  C   UNL A   1      42.874  29.014  33.997  1.00  0.00     0.037 A 
BRANCH  46  60
ATOM     60  C   UNL A   1      39.679  33.583  36.663  1.00  0.00     0.064 A 
ATOM     61  C   UNL A   1      40.266  34.855  36.731  1.00  0.00     0.173 A 
ATOM     62  C   UNL A   1      38.853  33.184  37.725  1.00  0.00     0.173 A 
ATOM     63  F   UNL A   1      41.085  35.276  35.753  1.00  0.00    -0.203 F 
ATOM     64  C   UNL A   1      40.038  35.692  37.820  1.00  0.00     0.198 A 
ATOM     65  C   UNL A   1      38.605  34.034  38.798  1.00  0.00     0.198 A 
ATOM     66  F   UNL A   1      38.277  31.973  37.714  1.00  0.00    -0.203 F 
ATOM     67  F   UNL A   1      40.634  36.892  37.880  1.00  0.00    -0.200 F 
ATOM     68  C   UNL A   1      39.197  35.286  38.846  1.00  0.00     0.200 A 
ATOM     69  F   UNL A   1      37.786  33.642  39.784  1.00  0.00    -0.200 F 
ATOM     70  F   UNL A   1      38.962  36.100  39.884  1.00  0.00    -0.200 F 
ENDBRANCH  46  60
BRANCH  47  71
ATOM     71  C   UNL A   1      40.817  27.952  28.384  1.00  0.00     0.064 A 
ATOM     72  C   UNL A   1      41.581  28.439  27.314  1.00  0.00     0.173 A 
ATOM     73  C   UNL A   1      40.221  26.691  28.233  1.00  0.00     0.173 A 
ATOM     74  F   UNL A   1      42.162  29.645  27.400  1.00  0.00    -0.203 F 
ATOM     75  C   UNL A   1      41.706  27.717  26.128  1.00  0.00     0.198 A 
ATOM     76  C   UNL A   1      40.376  25.952  27.061  1.00  0.00     0.198 A 
ATOM     77  F   UNL A   1      39.484  26.171  29.226  1.00  0.00    -0.203 F 
ATOM     78  F   UNL A   1      42.385  28.238  25.098  1.00  0.00    -0.200 F 
ATOM     79  C   UNL A   1      41.106  26.473  26.003  1.00  0.00     0.200 A 
ATOM     80  F   UNL A   1      39.809  24.744  26.953  1.00  0.00    -0.200 F 
ATOM     81  F   UNL A   1      41.221  25.782  24.861  1.00  0.00    -0.200 F 
ENDBRANCH  47  71
BRANCH  59  82
ATOM     82  C   UNL A   1      44.014  28.226  34.571  1.00  0.00     0.064 A 
ATOM     83  C   UNL A   1      43.806  27.021  35.256  1.00  0.00     0.173 A 
ATOM     84  C   UNL A   1      45.335  28.670  34.403  1.00  0.00     0.173 A 
ATOM     85  F   UNL A   1      42.560  26.563  35.453  1.00  0.00    -0.203 F 
ATOM     86  C   UNL A   1      44.875  26.306  35.785  1.00  0.00     0.198 A 
ATOM     87  C   UNL A   1      46.405  27.933  34.899  1.00  0.00     0.198 A 
ATOM     88  F   UNL A   1      45.587  29.811  33.744  1.00  0.00    -0.203 F 
ATOM     89  F   UNL A   1      44.649  25.191  36.491  1.00  0.00    -0.200 F 
ATOM     90  C   UNL A   1      46.174  26.759  35.600  1.00  0.00     0.200 A 
ATOM     91  F   UNL A   1      47.659  28.360  34.701  1.00  0.00    -0.200 F 
ATOM     92  F   UNL A   1      47.203  26.066  36.105  1.00  0.00    -0.200 F 
ENDBRANCH  59  82
ENDBRANCH  33  34
ENDBRANCH  26  28
ENDBRANCH  25  26
ENDBRANCH  24  25
ENDBRANCH  23  24
ENDBRANCH  22  23
ENDBRANCH   1  22
TORSDOF 21
ENDMDL
MODEL 2
REMARK VINA RESULT:     -10.2      1.292      7.550
REMARK SMILES C=CCN(CC(=O)OCCOCCOC(=O)c1ccc(-c2c3nc(c(-c4c(F)c(F)c(F)c(F)c4F)c4ccc([nH]4)c(-c4c(F)c(F)c(F)c(F)c4F)c4nc(c(-c5c(F)c(F)c(F)c(F)c5F)c5ccc2[nH]5)C=C4)C=C3)cc1)C(=O)N1CCC(CC)(CC)C1
REMARK SMILES IDX 10 1 9 2 8 3 6 4 7 5 5 6 4 7 3 8 2 9 1 10 80 11 81 12 82 13
REMARK SMILES IDX 83 14 90 15 84 16 85 17 86 18 87 19 88 20 89 21 11 22 12 23
REMARK SMILES IDX 13 24 14 25 15 26 16 27 17 28 18 29 79 30 19 31 78 32 20 33
REMARK SMILES IDX 21 34 22 35 72 36 23 37 77 38 71 39 73 40 24 41 76 42 70 43
REMARK SMILES IDX 69 44 25 46 57 47 37 48 56 49 38 50 41 51 55 52 74 53 39 54
REMARK SMILES IDX 40 55 54 57 75 58 42 59 26 60 27 61 35 62 28 63 29 64 33 65
REMARK SMILES IDX 36 66 30 67 31 68 34 69 32 70 58 71 59 72 67 73 60 74 61 75
REMARK SMILES IDX 65 76 68 77 62 78 63 79 66 80 64 81 43 82 44 83 52 84 45 85
REMARK SMILES IDX 46 86 50 87 53 88 47 89 48 90 51 91 49 92
REMARK H PARENT 73 45 41 56
REMARK Flexibility Score: inf
ROOT
ATOM      1  C   UNL A   1      34.400  30.416  27.099  1.00  0.00     0.202 C 
ENDROOT
BRANCH   1   2
ATOM      2  C   UNL A   1      33.865  28.988  26.915  1.00  0.00     0.261 C 
BRANCH   2   3
ATOM      3  O   UNL A   1      33.763  28.598  25.518  1.00  0.00    -0.462 OA
BRANCH   3   4
ATOM      4  C   UNL A   1      32.615  28.968  24.885  1.00  0.00     0.325 C 
ATOM      5  O   UNL A   1      31.625  29.388  25.479  1.00  0.00    -0.250 OA
BRANCH   4   6
ATOM      6  C   UNL A   1      32.589  28.720  23.361  1.00  0.00     0.244 C 
BRANCH   6   7
ATOM      7  N   UNL A   1      32.254  27.408  22.781  1.00  0.00    -0.310 N 
BRANCH   7   8
ATOM      8  C   UNL A   1      30.836  27.238  22.437  1.00  0.00     0.149 C 
BRANCH   8   9
ATOM      9  C   UNL A   1      30.010  27.068  23.686  1.00  0.00    -0.013 C 
ATOM     10  C   UNL A   1      30.142  26.034  24.531  1.00  0.00     0.006 C 
ENDBRANCH   8   9
ENDBRANCH   7   8
BRANCH   7  11
ATOM     11  C   UNL A   1      33.110  26.392  22.370  1.00  0.00     0.320 C 
ATOM     12  O   UNL A   1      33.648  26.453  21.257  1.00  0.00    -0.248 OA
BRANCH  11  13
ATOM     13  N   UNL A   1      33.360  25.281  23.152  1.00  0.00    -0.324 N 
ATOM     14  C   UNL A   1      33.614  23.923  22.759  1.00  0.00     0.122 C 
ATOM     15  C   UNL A   1      33.774  25.487  24.549  1.00  0.00     0.128 C 
ATOM     16  C   UNL A   1      33.930  23.130  24.002  1.00  0.00     0.030 C 
ATOM     17  C   UNL A   1      34.310  24.138  25.100  1.00  0.00    -0.011 C 
BRANCH  17  18
ATOM     18  C   UNL A   1      33.562  23.730  26.405  1.00  0.00     0.005 C 
ATOM     19  C   UNL A   1      34.293  22.671  27.238  1.00  0.00     0.004 C 
ENDBRANCH  17  18
BRANCH  17  20
ATOM     20  C   UNL A   1      35.831  24.169  25.451  1.00  0.00     0.005 C 
ATOM     21  C   UNL A   1      36.775  23.204  24.766  1.00  0.00     0.004 C 
ENDBRANCH  17  20
ENDBRANCH  11  13
ENDBRANCH   7  11
ENDBRANCH   6   7
ENDBRANCH   4   6
ENDBRANCH   3   4
ENDBRANCH   2   3
ENDBRANCH   1   2
BRANCH   1  22
ATOM     22  O   UNL A   1      33.693  31.270  27.994  1.00  0.00    -0.374 OA
BRANCH  22  23
ATOM     23  C   UNL A   1      32.595  32.001  27.472  1.00  0.00     0.202 C 
BRANCH  23  24
ATOM     24  C   UNL A   1      32.731  33.533  27.379  1.00  0.00     0.261 C 
BRANCH  24  25
ATOM     25  O   UNL A   1      32.432  34.228  28.565  1.00  0.00    -0.460 OA
BRANCH  25  26
ATOM     26  C   UNL A   1      33.261  35.257  28.829  1.00  0.00     0.338 C 
ATOM     27  O   UNL A   1      33.073  36.442  28.734  1.00  0.00    -0.246 OA
BRANCH  26  28
ATOM     28  C   UNL A   1      34.365  34.573  29.501  1.00  0.00     0.060 A 
ATOM     29  C   UNL A   1      34.040  33.764  30.588  1.00  0.00     0.016 A 
ATOM     30  C   UNL A   1      35.640  34.582  28.924  1.00  0.00     0.016 A 
ATOM     31  C   UNL A   1      35.031  32.974  31.144  1.00  0.00     0.010 A 
ATOM     32  C   UNL A   1      36.625  33.779  29.471  1.00  0.00     0.010 A 
ATOM     33  C   UNL A   1      36.323  33.002  30.601  1.00  0.00    -0.014 A 
BRANCH  33  34
ATOM     34  C   UNL A   1      37.407  32.337  31.334  1.00  0.00     0.031 A 
ATOM     35  C   UNL A   1      38.102  31.197  30.657  1.00  0.00     0.074 A 
ATOM     36  C   UNL A   1      37.773  32.795  32.542  1.00  0.00     0.049 A 
ATOM     37  N   UNL A   1      39.111  30.483  31.073  1.00  0.00    -0.248 NA
ATOM     38  C   UNL A   1      37.591  30.806  29.330  1.00  0.00     0.031 C 
ATOM     39  C   UNL A   1      37.143  33.912  33.249  1.00  0.00     0.029 A 
ATOM     40  N   UNL A   1      38.769  32.382  33.382  1.00  0.00    -0.354 N 
ATOM     41  C   UNL A   1      39.354  29.563  30.062  1.00  0.00     0.074 A 
ATOM     42  C   UNL A   1      38.368  29.778  29.030  1.00  0.00     0.031 C 
ATOM     43  C   UNL A   1      37.775  34.097  34.421  1.00  0.00     0.029 A 
ATOM     44  C   UNL A   1      38.830  33.096  34.552  1.00  0.00     0.049 A 
ATOM     45  H   UNL A   1      39.384  31.643  33.168  1.00  0.00     0.167 HD
ATOM     46  C   UNL A   1      40.330  28.631  30.007  1.00  0.00     0.037 A 
ATOM     47  C   UNL A   1      39.648  32.934  35.608  1.00  0.00     0.037 A 
ATOM     48  C   UNL A   1      41.301  28.448  31.050  1.00  0.00     0.049 A 
ATOM     49  C   UNL A   1      40.700  31.856  35.530  1.00  0.00     0.074 A 
ATOM     50  C   UNL A   1      42.355  27.557  31.099  1.00  0.00     0.029 A 
ATOM     51  N   UNL A   1      41.324  29.171  32.235  1.00  0.00    -0.354 N 
ATOM     52  N   UNL A   1      40.962  31.023  34.550  1.00  0.00    -0.248 NA
ATOM     53  C   UNL A   1      41.573  31.700  36.698  1.00  0.00     0.031 C 
ATOM     54  C   UNL A   1      42.980  27.698  32.341  1.00  0.00     0.029 A 
ATOM     55  C   UNL A   1      42.357  28.723  33.038  1.00  0.00     0.049 A 
ATOM     56  H   UNL A   1      40.699  29.894  32.468  1.00  0.00     0.167 HD
ATOM     57  C   UNL A   1      42.045  30.264  34.971  1.00  0.00     0.074 A 
ATOM     58  C   UNL A   1      42.407  30.756  36.285  1.00  0.00     0.031 C 
ATOM     59  C   UNL A   1      42.685  29.248  34.339  1.00  0.00     0.037 A 
BRANCH  46  60
ATOM     60  C   UNL A   1      40.379  27.734  28.809  1.00  0.00     0.064 A 
ATOM     61  C   UNL A   1      39.644  26.541  28.745  1.00  0.00     0.173 A 
ATOM     62  C   UNL A   1      41.138  28.099  27.687  1.00  0.00     0.173 A 
ATOM     63  F   UNL A   1      38.922  26.133  29.800  1.00  0.00    -0.203 F 
ATOM     64  C   UNL A   1      39.669  25.745  27.602  1.00  0.00     0.198 A 
ATOM     65  C   UNL A   1      41.139  27.315  26.536  1.00  0.00     0.198 A 
ATOM     66  F   UNL A   1      41.868  29.224  27.701  1.00  0.00    -0.203 F 
ATOM     67  F   UNL A   1      38.984  24.593  27.573  1.00  0.00    -0.200 F 
ATOM     68  C   UNL A   1      40.406  26.139  26.495  1.00  0.00     0.200 A 
ATOM     69  F   UNL A   1      41.845  27.702  25.465  1.00  0.00    -0.200 F 
ATOM     70  F   UNL A   1      40.414  25.383  25.389  1.00  0.00    -0.200 F 
ENDBRANCH  46  60
BRANCH  47  71
ATOM     71  C   UNL A   1      39.502  33.786  36.818  1.00  0.00     0.064 A 
ATOM     72  C   UNL A   1      38.745  33.368  37.921  1.00  0.00     0.173 A 
ATOM     73  C   UNL A   1      40.083  35.062  36.878  1.00  0.00     0.173 A 
ATOM     74  F   UNL A   1      38.156  32.163  37.910  1.00  0.00    -0.203 F 
ATOM     75  C   UNL A   1      38.540  34.205  39.016  1.00  0.00     0.198 A 
ATOM     76  C   UNL A   1      39.909  35.885  37.990  1.00  0.00     0.198 A 
ATOM     77  F   UNL A   1      40.825  35.514  35.856  1.00  0.00    -0.203 F 
ATOM     78  F   UNL A   1      37.755  33.804  40.025  1.00  0.00    -0.200 F 
ATOM     79  C   UNL A   1      39.124  35.462  39.051  1.00  0.00     0.200 A 
ATOM     80  F   UNL A   1      40.491  37.091  38.026  1.00  0.00    -0.200 F 
ATOM     81  F   UNL A   1      38.921  36.270  40.101  1.00  0.00    -0.200 F 
ENDBRANCH  47  71
BRANCH  59  82
ATOM     82  C   UNL A   1      43.854  28.635  35.053  1.00  0.00     0.064 A 
ATOM     83  C   UNL A   1      43.701  27.534  35.907  1.00  0.00     0.173 A 
ATOM     84  C   UNL A   1      45.148  29.139  34.851  1.00  0.00     0.173 A 
ATOM     85  F   UNL A   1      42.481  27.026  36.141  1.00  0.00    -0.203 F 
ATOM     86  C   UNL A   1      44.796  26.983  36.563  1.00  0.00     0.198 A 
ATOM     87  C   UNL A   1      46.246  28.561  35.477  1.00  0.00     0.198 A 
ATOM     88  F   UNL A   1      45.348  30.183  34.032  1.00  0.00    -0.203 F 
ATOM     89  F   UNL A   1      44.619  25.972  37.424  1.00  0.00    -0.200 F 
ATOM     90  C   UNL A   1      46.068  27.491  36.343  1.00  0.00     0.200 A 
ATOM     91  F   UNL A   1      47.476  29.039  35.247  1.00  0.00    -0.200 F 
ATOM     92  F   UNL A   1      47.122  26.954  36.971  1.00  0.00    -0.200 F 
ENDBRANCH  59  82
ENDBRANCH  33  34
ENDBRANCH  26  28
ENDBRANCH  25  26
ENDBRANCH  24  25
ENDBRANCH  23  24
ENDBRANCH  22  23
ENDBRANCH   1  22
TORSDOF 21
ENDMDL
MODEL 3
REMARK VINA RESULT:     -10.1      1.662      2.691
REMARK SMILES C=CCN(CC(=O)OCCOCCOC(=O)c1ccc(-c2c3nc(c(-c4c(F)c(F)c(F)c(F)c4F)c4ccc([nH]4)c(-c4c(F)c(F)c(F)c(F)c4F)c4nc(c(-c5c(F)c(F)c(F)c(F)c5F)c5ccc2[nH]5)C=C4)C=C3)cc1)C(=O)N1CCC(CC)(CC)C1
REMARK SMILES IDX 10 1 9 2 8 3 6 4 7 5 5 6 4 7 3 8 2 9 1 10 80 11 81 12 82 13
REMARK SMILES IDX 83 14 90 15 84 16 85 17 86 18 87 19 88 20 89 21 11 22 12 23
REMARK SMILES IDX 13 24 14 25 15 26 16 27 17 28 18 29 79 30 19 31 78 32 20 33
REMARK SMILES IDX 21 34 22 35 72 36 23 37 77 38 71 39 73 40 24 41 76 42 70 43
REMARK SMILES IDX 69 44 25 46 57 47 37 48 56 49 38 50 41 51 55 52 74 53 39 54
REMARK SMILES IDX 40 55 54 57 75 58 42 59 26 60 27 61 35 62 28 63 29 64 33 65
REMARK SMILES IDX 36 66 30 67 31 68 34 69 32 70 58 71 59 72 67 73 60 74 61 75
REMARK SMILES IDX 65 76 68 77 62 78 63 79 66 80 64 81 43 82 44 83 52 84 45 85
REMARK SMILES IDX 46 86 50 87 53 88 47 89 48 90 51 91 49 92
REMARK H PARENT 73 45 41 56
REMARK Flexibility Score: inf
ROOT
ATOM      1  C   UNL A   1      32.513  29.345  27.176  1.00  0.00     0.202 C 
ENDROOT
BRANCH   1   2
ATOM      2  C   UNL A   1      31.449  28.240  27.271  1.00  0.00     0.261 C 
BRANCH   2   3
ATOM      3  O   UNL A   1      31.808  27.044  26.528  1.00  0.00    -0.462 OA
BRANCH   3   4
ATOM      4  C   UNL A   1      30.766  26.346  25.995  1.00  0.00     0.325 C 
ATOM      5  O   UNL A   1      30.301  25.333  26.511  1.00  0.00    -0.250 OA
BRANCH   4   6
ATOM      6  C   UNL A   1      30.268  26.846  24.620  1.00  0.00     0.244 C 
BRANCH   6   7
ATOM      7  N   UNL A   1      31.159  26.965  23.454  1.00  0.00    -0.310 N 
BRANCH   7   8
ATOM      8  C   UNL A   1      31.724  28.305  23.254  1.00  0.00     0.149 C 
BRANCH   8   9
ATOM      9  C   UNL A   1      33.195  28.309  23.582  1.00  0.00    -0.013 C 
ATOM     10  C   UNL A   1      34.158  28.566  22.684  1.00  0.00     0.006 C 
ENDBRANCH   8   9
ENDBRANCH   7   8
BRANCH   7  11
ATOM     11  C   UNL A   1      31.658  25.960  22.632  1.00  0.00     0.320 C 
ATOM     12  O   UNL A   1      31.519  26.042  21.406  1.00  0.00    -0.248 OA
BRANCH  11  13
ATOM     13  N   UNL A   1      32.281  24.837  23.142  1.00  0.00    -0.324 N 
ATOM     14  C   UNL A   1      33.476  24.732  23.931  1.00  0.00     0.122 C 
ATOM     15  C   UNL A   1      31.509  23.587  23.229  1.00  0.00     0.128 C 
ATOM     16  C   UNL A   1      33.655  23.284  24.315  1.00  0.00     0.030 C 
ATOM     17  C   UNL A   1      32.295  22.592  24.124  1.00  0.00    -0.011 C 
BRANCH  17  18
ATOM     18  C   UNL A   1      32.543  21.245  23.380  1.00  0.00     0.005 C 
ATOM     19  C   UNL A   1      32.680  20.035  24.311  1.00  0.00     0.004 C 
ENDBRANCH  17  18
BRANCH  17  20
ATOM     20  C   UNL A   1      31.559  22.236  25.454  1.00  0.00     0.005 C 
ATOM     21  C   UNL A   1      32.213  22.562  26.779  1.00  0.00     0.004 C 
ENDBRANCH  17  20
ENDBRANCH  11  13
ENDBRANCH   7  11
ENDBRANCH   6   7
ENDBRANCH   4   6
ENDBRANCH   3   4
ENDBRANCH   2   3
ENDBRANCH   1   2
BRANCH   1  22
ATOM     22  O   UNL A   1      32.316  30.363  26.198  1.00  0.00    -0.374 OA
BRANCH  22  23
ATOM     23  C   UNL A   1      31.422  31.416  26.523  1.00  0.00     0.202 C 
BRANCH  23  24
ATOM     24  C   UNL A   1      32.028  32.782  26.899  1.00  0.00     0.261 C 
BRANCH  24  25
ATOM     25  O   UNL A   1      33.402  32.759  27.199  1.00  0.00    -0.460 OA
BRANCH  25  26
ATOM     26  C   UNL A   1      33.794  33.707  28.072  1.00  0.00     0.338 C 
ATOM     27  O   UNL A   1      33.232  34.713  28.423  1.00  0.00    -0.246 OA
BRANCH  26  28
ATOM     28  C   UNL A   1      34.965  33.075  28.677  1.00  0.00     0.060 A 
ATOM     29  C   UNL A   1      34.798  31.788  29.186  1.00  0.00     0.016 A 
ATOM     30  C   UNL A   1      36.223  33.674  28.542  1.00  0.00     0.016 A 
ATOM     31  C   UNL A   1      35.917  31.096  29.614  1.00  0.00     0.010 A 
ATOM     32  C   UNL A   1      37.343  32.973  28.956  1.00  0.00     0.010 A 
ATOM     33  C   UNL A   1      37.180  31.698  29.521  1.00  0.00    -0.014 A 
BRANCH  33  34
ATOM     34  C   UNL A   1      38.318  31.047  30.181  1.00  0.00     0.031 A 
ATOM     35  C   UNL A   1      38.576  31.393  31.615  1.00  0.00     0.074 A 
ATOM     36  C   UNL A   1      39.046  30.138  29.512  1.00  0.00     0.049 A 
ATOM     37  N   UNL A   1      39.483  30.923  32.426  1.00  0.00    -0.248 NA
ATOM     38  C   UNL A   1      37.693  32.409  32.218  1.00  0.00     0.031 C 
ATOM     39  C   UNL A   1      38.835  29.748  28.117  1.00  0.00     0.029 A 
ATOM     40  N   UNL A   1      40.102  29.374  29.921  1.00  0.00    -0.354 N 
ATOM     41  C   UNL A   1      39.279  31.583  33.629  1.00  0.00     0.074 A 
ATOM     42  C   UNL A   1      38.192  32.513  33.439  1.00  0.00     0.031 C 
ATOM     43  C   UNL A   1      39.738  28.808  27.787  1.00  0.00     0.029 A 
ATOM     44  C   UNL A   1      40.601  28.557  28.938  1.00  0.00     0.049 A 
ATOM     45  H   UNL A   1      40.471  29.406  30.834  1.00  0.00     0.167 HD
ATOM     46  C   UNL A   1      39.942  31.407  34.793  1.00  0.00     0.037 A 
ATOM     47  C   UNL A   1      41.649  27.715  28.979  1.00  0.00     0.037 A 
ATOM     48  C   UNL A   1      41.016  30.467  34.951  1.00  0.00     0.049 A 
ATOM     49  C   UNL A   1      42.394  27.575  30.283  1.00  0.00     0.074 A 
ATOM     50  C   UNL A   1      41.749  30.177  36.086  1.00  0.00     0.029 A 
ATOM     51  N   UNL A   1      41.515  29.668  33.930  1.00  0.00    -0.354 N 
ATOM     52  N   UNL A   1      42.165  28.160  31.436  1.00  0.00    -0.248 NA
ATOM     53  C   UNL A   1      43.536  26.654  30.295  1.00  0.00     0.031 C 
ATOM     54  C   UNL A   1      42.732  29.247  35.737  1.00  0.00     0.029 A 
ATOM     55  C   UNL A   1      42.570  28.908  34.402  1.00  0.00     0.049 A 
ATOM     56  H   UNL A   1      41.170  29.647  33.009  1.00  0.00     0.167 HD
ATOM     57  C   UNL A   1      43.114  27.659  32.316  1.00  0.00     0.074 A 
ATOM     58  C   UNL A   1      43.903  26.701  31.568  1.00  0.00     0.031 C 
ATOM     59  C   UNL A   1      43.325  27.960  33.621  1.00  0.00     0.037 A 
BRANCH  46  60
ATOM     60  C   UNL A   1      39.549  32.257  35.962  1.00  0.00     0.064 A 
ATOM     61  C   UNL A   1      40.159  33.493  36.220  1.00  0.00     0.173 A 
ATOM     62  C   UNL A   1      38.509  31.848  36.811  1.00  0.00     0.173 A 
ATOM     63  F   UNL A   1      41.176  33.919  35.454  1.00  0.00    -0.203 F 
ATOM     64  C   UNL A   1      39.746  34.287  37.287  1.00  0.00     0.198 A 
ATOM     65  C   UNL A   1      38.080  32.656  37.859  1.00  0.00     0.198 A 
ATOM     66  F   UNL A   1      37.900  30.669  36.614  1.00  0.00    -0.203 F 
ATOM     67  F   UNL A   1      40.364  35.451  37.535  1.00  0.00    -0.200 F 
ATOM     68  C   UNL A   1      38.699  33.874  38.098  1.00  0.00     0.200 A 
ATOM     69  F   UNL A   1      37.063  32.259  38.636  1.00  0.00    -0.200 F 
ATOM     70  F   UNL A   1      38.288  34.647  39.112  1.00  0.00    -0.200 F 
ENDBRANCH  46  60
BRANCH  47  71
ATOM     71  C   UNL A   1      42.064  26.962  27.766  1.00  0.00     0.064 A 
ATOM     72  C   UNL A   1      41.594  25.665  27.512  1.00  0.00     0.173 A 
ATOM     73  C   UNL A   1      42.980  27.508  26.853  1.00  0.00     0.173 A 
ATOM     74  F   UNL A   1      40.728  25.090  28.360  1.00  0.00    -0.203 F 
ATOM     75  C   UNL A   1      42.052  24.931  26.420  1.00  0.00     0.198 A 
ATOM     76  C   UNL A   1      43.410  26.787  25.740  1.00  0.00     0.198 A 
ATOM     77  F   UNL A   1      43.459  28.746  27.040  1.00  0.00    -0.203 F 
ATOM     78  F   UNL A   1      41.636  23.670  26.242  1.00  0.00    -0.200 F 
ATOM     79  C   UNL A   1      42.958  25.493  25.534  1.00  0.00     0.200 A 
ATOM     80  F   UNL A   1      44.272  27.342  24.878  1.00  0.00    -0.200 F 
ATOM     81  F   UNL A   1      43.404  24.784  24.487  1.00  0.00    -0.200 F 
ENDBRANCH  47  71
BRANCH  59  82
ATOM     82  C   UNL A   1      44.428  27.220  34.318  1.00  0.00     0.064 A 
ATOM     83  C   UNL A   1      45.713  27.764  34.446  1.00  0.00     0.173 A 
ATOM     84  C   UNL A   1      44.182  25.964  34.894  1.00  0.00     0.173 A 
ATOM     85  F   UNL A   1      45.999  28.957  33.901  1.00  0.00    -0.203 F 
ATOM     86  C   UNL A   1      46.725  27.061  35.091  1.00  0.00     0.198 A 
ATOM     87  C   UNL A   1      45.185  25.281  35.574  1.00  0.00     0.198 A 
ATOM     88  F   UNL A   1      42.965  25.407  34.810  1.00  0.00    -0.203 F 
ATOM     89  F   UNL A   1      47.962  27.571  35.146  1.00  0.00    -0.200 F 
ATOM     90  C   UNL A   1      46.459  25.824  35.661  1.00  0.00     0.200 A 
ATOM     91  F   UNL A   1      44.921  24.097  36.141  1.00  0.00    -0.200 F 
ATOM     92  F   UNL A   1      47.433  25.152  36.288  1.00  0.00    -0.200 F 
ENDBRANCH  59  82
ENDBRANCH  33  34
ENDBRANCH  26  28
ENDBRANCH  25  26
ENDBRANCH  24  25
ENDBRANCH  23  24
ENDBRANCH  22  23
ENDBRANCH   1  22
TORSDOF 21
ENDMDL
