MODEL 1
REMARK VINA RESULT:     -10.3      0.000      0.000
REMARK SMILES O=C(CC1(CSC[C@H]2C[C@H]3CC[C@@H]2C3)CC1)OCCOCCOC(=O)c1ccc(-c2c3nc(c(-c4c(F)c(F)c(F)c(F)c4F)c4ccc([nH]4)c(-c4c(F)c(F)c(F)c(F)c4F)c4nc(c(-c5c(F)c(F)c(F)c(F)c5F)c5ccc2[nH]5)C=C4)C=C3)cc1
REMARK SMILES IDX 18 1 17 2 2 3 1 4 3 5 4 6 15 7 16 8 5 9 6 10 7 11 8 12 9 13
REMARK SMILES IDX 13 14 10 15 12 16 14 17 11 18 19 19 20 20 21 21 22 22 23 23
REMARK SMILES IDX 24 24 25 25 26 26 27 27 88 28 28 29 87 30 29 31 30 32 31 33
REMARK SMILES IDX 81 34 32 35 86 36 80 37 82 38 33 39 85 40 79 41 78 42 34 44
REMARK SMILES IDX 66 45 46 46 65 47 47 48 50 49 64 50 83 51 48 52 49 53 63 55
REMARK SMILES IDX 84 56 51 57 35 58 36 59 44 60 37 61 38 62 42 63 45 64 39 65
REMARK SMILES IDX 40 66 43 67 41 68 67 69 68 70 76 71 69 72 70 73 74 74 77 75
REMARK SMILES IDX 71 76 72 77 75 78 73 79 52 80 53 81 61 82 54 83 55 84 59 85
REMARK SMILES IDX 62 86 56 87 57 88 60 89 58 90
REMARK H PARENT 82 43 50 54
REMARK Flexibility Score: inf
ROOT
ATOM      1  C   UNL A   1      32.984  28.530  26.061  1.00  0.00     0.261 C 
ENDROOT
BRANCH   1   2
ATOM      2  O   UNL A   1      32.117  27.567  25.479  1.00  0.00    -0.463 OA
BRANCH   2   3
ATOM      3  C   UNL A   1      31.204  26.997  26.305  1.00  0.00     0.306 C 
ATOM      4  O   UNL A   1      31.191  27.256  27.505  1.00  0.00    -0.252 OA
BRANCH   3   5
ATOM      5  C   UNL A   1      30.367  25.896  25.710  1.00  0.00     0.130 C 
BRANCH   5   6
ATOM      6  C   UNL A   1      30.835  24.449  25.653  1.00  0.00    -0.010 C 
ATOM      7  C   UNL A   1      31.926  24.033  26.632  1.00  0.00     0.009 C 
ATOM      8  C   UNL A   1      30.602  23.344  26.680  1.00  0.00     0.009 C 
BRANCH   6   9
ATOM      9  C   UNL A   1      30.885  23.951  24.229  1.00  0.00     0.077 C 
BRANCH   9  10
ATOM     10  S   UNL A   1      32.175  24.773  23.229  1.00  0.00    -0.161 SA
BRANCH  10  11
ATOM     11  C   UNL A   1      33.379  23.434  22.956  1.00  0.00     0.073 C 
BRANCH  11  12
ATOM     12  C   UNL A   1      34.821  23.539  23.478  1.00  0.00     0.002 C 
ATOM     13  C   UNL A   1      35.028  24.597  24.587  1.00  0.00     0.008 C 
ATOM     14  C   UNL A   1      35.622  22.331  24.023  1.00  0.00    -0.007 C 
ATOM     15  C   UNL A   1      36.033  23.916  25.537  1.00  0.00    -0.011 C 
ATOM     16  C   UNL A   1      35.087  21.734  25.340  1.00  0.00     0.004 C 
ATOM     17  C   UNL A   1      36.857  23.055  24.578  1.00  0.00     0.007 C 
ATOM     18  C   UNL A   1      35.275  22.862  26.353  1.00  0.00     0.004 C 
ENDBRANCH  11  12
ENDBRANCH  10  11
ENDBRANCH   9  10
ENDBRANCH   6   9
ENDBRANCH   5   6
ENDBRANCH   3   5
ENDBRANCH   2   3
ENDBRANCH   1   2
BRANCH   1  19
ATOM     19  C   UNL A   1      32.636  30.004  25.808  1.00  0.00     0.202 C 
BRANCH  19  20
ATOM     20  O   UNL A   1      32.052  30.791  26.830  1.00  0.00    -0.374 OA
BRANCH  20  21
ATOM     21  C   UNL A   1      31.433  32.030  26.464  1.00  0.00     0.202 C 
BRANCH  21  22
ATOM     22  C   UNL A   1      32.030  33.306  27.059  1.00  0.00     0.261 C 
BRANCH  22  23
ATOM     23  O   UNL A   1      33.078  32.991  27.989  1.00  0.00    -0.460 OA
BRANCH  23  24
ATOM     24  C   UNL A   1      34.231  33.685  27.840  1.00  0.00     0.338 C 
ATOM     25  O   UNL A   1      34.363  34.863  27.553  1.00  0.00    -0.246 OA
BRANCH  24  26
ATOM     26  C   UNL A   1      35.323  32.851  28.385  1.00  0.00     0.060 A 
ATOM     27  C   UNL A   1      35.049  31.500  28.659  1.00  0.00     0.016 A 
ATOM     28  C   UNL A   1      36.609  33.363  28.549  1.00  0.00     0.016 A 
ATOM     29  C   UNL A   1      36.061  30.656  29.105  1.00  0.00     0.010 A 
ATOM     30  C   UNL A   1      37.614  32.527  29.030  1.00  0.00     0.010 A 
ATOM     31  C   UNL A   1      37.337  31.181  29.329  1.00  0.00    -0.014 A 
BRANCH  31  32
ATOM     32  C   UNL A   1      38.343  30.399  30.077  1.00  0.00     0.031 A 
ATOM     33  C   UNL A   1      38.564  30.757  31.518  1.00  0.00     0.074 A 
ATOM     34  C   UNL A   1      39.075  29.446  29.475  1.00  0.00     0.049 A 
ATOM     35  N   UNL A   1      39.503  30.367  32.336  1.00  0.00    -0.248 NA
ATOM     36  C   UNL A   1      37.599  31.701  32.111  1.00  0.00     0.031 C 
ATOM     37  C   UNL A   1      38.910  28.997  28.096  1.00  0.00     0.029 A 
ATOM     38  N   UNL A   1      40.134  28.714  29.947  1.00  0.00    -0.354 N 
ATOM     39  C   UNL A   1      39.262  31.040  33.526  1.00  0.00     0.074 A 
ATOM     40  C   UNL A   1      38.093  31.864  33.328  1.00  0.00     0.031 C 
ATOM     41  C   UNL A   1      39.867  28.094  27.815  1.00  0.00     0.029 A 
ATOM     42  C   UNL A   1      40.735  27.942  28.982  1.00  0.00     0.049 A 
ATOM     43  H   UNL A   1      40.436  28.739  30.885  1.00  0.00     0.167 HD
ATOM     44  C   UNL A   1      39.967  30.975  34.677  1.00  0.00     0.037 A 
ATOM     45  C   UNL A   1      41.885  27.241  29.030  1.00  0.00     0.037 A 
ATOM     46  C   UNL A   1      41.121  30.140  34.861  1.00  0.00     0.049 A 
ATOM     47  C   UNL A   1      42.686  27.238  30.311  1.00  0.00     0.074 A 
ATOM     48  C   UNL A   1      41.872  29.948  36.005  1.00  0.00     0.029 A 
ATOM     49  N   UNL A   1      41.699  29.367  33.864  1.00  0.00    -0.354 N 
ATOM     50  N   UNL A   1      42.427  27.831  31.452  1.00  0.00    -0.248 NA
ATOM     51  C   UNL A   1      43.944  26.477  30.306  1.00  0.00     0.031 C 
ATOM     52  C   UNL A   1      42.945  29.113  35.684  1.00  0.00     0.029 A 
ATOM     53  C   UNL A   1      42.826  28.734  34.356  1.00  0.00     0.049 A 
ATOM     54  H   UNL A   1      41.359  29.284  32.943  1.00  0.00     0.167 HD
ATOM     55  C   UNL A   1      43.473  27.495  32.304  1.00  0.00     0.074 A 
ATOM     56  C   UNL A   1      44.359  26.630  31.555  1.00  0.00     0.031 C 
ATOM     57  C   UNL A   1      43.686  27.870  33.590  1.00  0.00     0.037 A 
BRANCH  44  58
ATOM     58  C   UNL A   1      39.542  31.852  35.815  1.00  0.00     0.064 A 
ATOM     59  C   UNL A   1      40.101  33.120  36.023  1.00  0.00     0.173 A 
ATOM     60  C   UNL A   1      38.509  31.440  36.669  1.00  0.00     0.173 A 
ATOM     61  F   UNL A   1      41.105  33.552  35.245  1.00  0.00    -0.203 F 
ATOM     62  C   UNL A   1      39.644  33.943  37.049  1.00  0.00     0.198 A 
ATOM     63  C   UNL A   1      38.034  32.275  37.676  1.00  0.00     0.198 A 
ATOM     64  F   UNL A   1      37.943  30.233  36.514  1.00  0.00    -0.203 F 
ATOM     65  F   UNL A   1      40.212  35.140  37.250  1.00  0.00    -0.200 F 
ATOM     66  C   UNL A   1      38.604  33.524  37.867  1.00  0.00     0.200 A 
ATOM     67  F   UNL A   1      37.022  31.873  38.458  1.00  0.00    -0.200 F 
ATOM     68  F   UNL A   1      38.151  34.326  38.841  1.00  0.00    -0.200 F 
ENDBRANCH  44  58
BRANCH  45  69
ATOM     69  C   UNL A   1      42.388  26.534  27.821  1.00  0.00     0.064 A 
ATOM     70  C   UNL A   1      42.040  25.201  27.563  1.00  0.00     0.173 A 
ATOM     71  C   UNL A   1      43.275  27.157  26.929  1.00  0.00     0.173 A 
ATOM     72  F   UNL A   1      41.219  24.550  28.400  1.00  0.00    -0.203 F 
ATOM     73  C   UNL A   1      42.581  24.511  26.479  1.00  0.00     0.198 A 
ATOM     74  C   UNL A   1      43.787  26.477  25.826  1.00  0.00     0.198 A 
ATOM     75  F   UNL A   1      43.647  28.430  27.129  1.00  0.00    -0.203 F 
ATOM     76  F   UNL A   1      42.280  23.218  26.296  1.00  0.00    -0.200 F 
ATOM     77  C   UNL A   1      43.450  25.150  25.609  1.00  0.00     0.200 A 
ATOM     78  F   UNL A   1      44.618  27.103  24.982  1.00  0.00    -0.200 F 
ATOM     79  F   UNL A   1      43.975  24.484  24.572  1.00  0.00    -0.200 F 
ENDBRANCH  45  69
BRANCH  57  80
ATOM     80  C   UNL A   1      44.907  27.330  34.277  1.00  0.00     0.064 A 
ATOM     81  C   UNL A   1      46.132  28.010  34.238  1.00  0.00     0.173 A 
ATOM     82  C   UNL A   1      44.829  26.155  35.041  1.00  0.00     0.173 A 
ATOM     83  F   UNL A   1      46.260  29.130  33.511  1.00  0.00    -0.203 F 
ATOM     84  C   UNL A   1      47.241  27.524  34.926  1.00  0.00     0.198 A 
ATOM     85  C   UNL A   1      45.929  25.691  35.754  1.00  0.00     0.198 A 
ATOM     86  F   UNL A   1      43.676  25.474  35.118  1.00  0.00    -0.203 F 
ATOM     87  F   UNL A   1      48.413  28.168  34.843  1.00  0.00    -0.200 F 
ATOM     88  C   UNL A   1      47.136  26.372  35.691  1.00  0.00     0.200 A 
ATOM     89  F   UNL A   1      45.820  24.589  36.509  1.00  0.00    -0.200 F 
ATOM     90  F   UNL A   1      48.200  25.916  36.367  1.00  0.00    -0.200 F 
ENDBRANCH  57  80
ENDBRANCH  31  32
ENDBRANCH  24  26
ENDBRANCH  23  24
ENDBRANCH  22  23
ENDBRANCH  21  22
ENDBRANCH  20  21
ENDBRANCH  19  20
ENDBRANCH   1  19
TORSDOF 19
ENDMDL
MODEL 2
REMARK VINA RESULT:     -10.3      2.694      4.801
REMARK SMILES O=C(CC1(CSC[C@H]2C[C@H]3CC[C@@H]2C3)CC1)OCCOCCOC(=O)c1ccc(-c2c3nc(c(-c4c(F)c(F)c(F)c(F)c4F)c4ccc([nH]4)c(-c4c(F)c(F)c(F)c(F)c4F)c4nc(c(-c5c(F)c(F)c(F)c(F)c5F)c5ccc2[nH]5)C=C4)C=C3)cc1
REMARK SMILES IDX 18 1 17 2 2 3 1 4 3 5 4 6 15 7 16 8 5 9 6 10 7 11 8 12 9 13
REMARK SMILES IDX 13 14 10 15 12 16 14 17 11 18 19 19 20 20 21 21 22 22 23 23
REMARK SMILES IDX 24 24 25 25 26 26 27 27 88 28 28 29 87 30 29 31 30 32 31 33
REMARK SMILES IDX 81 34 32 35 86 36 80 37 82 38 33 39 85 40 79 41 78 42 34 44
REMARK SMILES IDX 66 45 46 46 65 47 47 48 50 49 64 50 83 51 48 52 49 53 63 55
REMARK SMILES IDX 84 56 51 57 35 58 36 59 44 60 37 61 38 62 42 63 45 64 39 65
REMARK SMILES IDX 40 66 43 67 41 68 67 69 68 70 76 71 69 72 70 73 74 74 77 75
REMARK SMILES IDX 71 76 72 77 75 78 73 79 52 80 53 81 61 82 54 83 55 84 59 85
REMARK SMILES IDX 62 86 56 87 57 88 60 89 58 90
REMARK H PARENT 82 43 50 54
REMARK Flexibility Score: inf
ROOT
ATOM      1  C   UNL A   1      34.134  31.014  27.959  1.00  0.00     0.261 C 
ENDROOT
BRANCH   1   2
ATOM      2  O   UNL A   1      33.930  30.461  26.666  1.00  0.00    -0.463 OA
BRANCH   2   3
ATOM      3  C   UNL A   1      33.515  29.170  26.619  1.00  0.00     0.306 C 
ATOM      4  O   UNL A   1      33.109  28.600  27.628  1.00  0.00    -0.252 OA
BRANCH   3   5
ATOM      5  C   UNL A   1      33.776  28.436  25.330  1.00  0.00     0.130 C 
BRANCH   5   6
ATOM      6  C   UNL A   1      33.177  27.070  25.028  1.00  0.00    -0.010 C 
ATOM      7  C   UNL A   1      34.033  26.098  24.225  1.00  0.00     0.009 C 
ATOM      8  C   UNL A   1      33.591  25.715  25.599  1.00  0.00     0.009 C 
BRANCH   6   9
ATOM      9  C   UNL A   1      31.700  27.177  24.736  1.00  0.00     0.077 C 
BRANCH   9  10
ATOM     10  S   UNL A   1      31.339  27.411  22.959  1.00  0.00    -0.161 SA
BRANCH  10  11
ATOM     11  C   UNL A   1      30.887  29.173  22.875  1.00  0.00     0.073 C 
BRANCH  11  12
ATOM     12  C   UNL A   1      29.502  29.664  23.326  1.00  0.00     0.002 C 
ATOM     13  C   UNL A   1      29.496  31.072  23.967  1.00  0.00     0.008 C 
ATOM     14  C   UNL A   1      28.271  29.724  22.389  1.00  0.00    -0.007 C 
ATOM     15  C   UNL A   1      28.190  31.693  23.433  1.00  0.00    -0.011 C 
ATOM     16  C   UNL A   1      28.371  30.756  21.246  1.00  0.00     0.004 C 
ATOM     17  C   UNL A   1      27.280  30.472  23.293  1.00  0.00     0.007 C 
ATOM     18  C   UNL A   1      28.420  32.098  21.972  1.00  0.00     0.004 C 
ENDBRANCH  11  12
ENDBRANCH  10  11
ENDBRANCH   9  10
ENDBRANCH   6   9
ENDBRANCH   5   6
ENDBRANCH   3   5
ENDBRANCH   2   3
ENDBRANCH   1   2
BRANCH   1  19
ATOM     19  C   UNL A   1      34.594  32.477  28.010  1.00  0.00     0.202 C 
BRANCH  19  20
ATOM     20  O   UNL A   1      33.883  33.428  28.783  1.00  0.00    -0.374 OA
BRANCH  20  21
ATOM     21  C   UNL A   1      33.945  34.805  28.392  1.00  0.00     0.202 C 
BRANCH  21  22
ATOM     22  C   UNL A   1      33.042  35.782  29.148  1.00  0.00     0.261 C 
BRANCH  22  23
ATOM     23  O   UNL A   1      32.474  35.154  30.309  1.00  0.00    -0.460 OA
BRANCH  23  24
ATOM     24  C   UNL A   1      32.799  35.710  31.500  1.00  0.00     0.338 C 
ATOM     25  O   UNL A   1      32.169  36.541  32.133  1.00  0.00    -0.246 OA
BRANCH  24  26
ATOM     26  C   UNL A   1      33.906  34.915  32.072  1.00  0.00     0.060 A 
ATOM     27  C   UNL A   1      35.221  35.360  31.850  1.00  0.00     0.016 A 
ATOM     28  C   UNL A   1      33.656  33.804  32.875  1.00  0.00     0.016 A 
ATOM     29  C   UNL A   1      36.294  34.688  32.427  1.00  0.00     0.010 A 
ATOM     30  C   UNL A   1      34.733  33.109  33.423  1.00  0.00     0.010 A 
ATOM     31  C   UNL A   1      36.051  33.536  33.182  1.00  0.00    -0.014 A 
BRANCH  31  32
ATOM     32  C   UNL A   1      37.166  32.640  33.552  1.00  0.00     0.031 A 
ATOM     33  C   UNL A   1      37.888  32.929  34.835  1.00  0.00     0.074 A 
ATOM     34  C   UNL A   1      37.557  31.643  32.741  1.00  0.00     0.049 A 
ATOM     35  N   UNL A   1      39.003  32.426  35.293  1.00  0.00    -0.248 NA
ATOM     36  C   UNL A   1      37.274  33.939  35.716  1.00  0.00     0.031 C 
ATOM     37  C   UNL A   1      36.899  31.255  31.496  1.00  0.00     0.029 A 
ATOM     38  N   UNL A   1      38.635  30.800  32.832  1.00  0.00    -0.354 N 
ATOM     39  C   UNL A   1      39.239  33.080  36.494  1.00  0.00     0.074 A 
ATOM     40  C   UNL A   1      38.159  34.017  36.698  1.00  0.00     0.031 C 
ATOM     41  C   UNL A   1      37.613  30.276  30.913  1.00  0.00     0.029 A 
ATOM     42  C   UNL A   1      38.801  30.006  31.722  1.00  0.00     0.049 A 
ATOM     43  H   UNL A   1      39.233  30.765  33.614  1.00  0.00     0.167 HD
ATOM     44  C   UNL A   1      40.277  32.912  37.343  1.00  0.00     0.037 A 
ATOM     45  C   UNL A   1      39.825  29.199  31.383  1.00  0.00     0.037 A 
ATOM     46  C   UNL A   1      41.338  31.967  37.130  1.00  0.00     0.049 A 
ATOM     47  C   UNL A   1      41.003  29.080  32.323  1.00  0.00     0.074 A 
ATOM     48  C   UNL A   1      42.404  31.669  37.958  1.00  0.00     0.029 A 
ATOM     49  N   UNL A   1      41.471  31.177  35.999  1.00  0.00    -0.354 N 
ATOM     50  N   UNL A   1      41.199  29.657  33.484  1.00  0.00    -0.248 NA
ATOM     51  C   UNL A   1      42.105  28.205  31.898  1.00  0.00     0.031 C 
ATOM     52  C   UNL A   1      43.221  30.748  37.298  1.00  0.00     0.029 A 
ATOM     53  C   UNL A   1      42.629  30.424  36.086  1.00  0.00     0.049 A 
ATOM     54  H   UNL A   1      40.837  31.155  35.245  1.00  0.00     0.167 HD
ATOM     55  C   UNL A   1      42.429  29.198  33.937  1.00  0.00     0.074 A 
ATOM     56  C   UNL A   1      42.926  28.278  32.936  1.00  0.00     0.031 C 
ATOM     57  C   UNL A   1      43.095  29.509  35.077  1.00  0.00     0.037 A 
BRANCH  44  58
ATOM     58  C   UNL A   1      40.344  33.788  38.557  1.00  0.00     0.064 A 
ATOM     59  C   UNL A   1      41.073  34.986  38.567  1.00  0.00     0.173 A 
ATOM     60  C   UNL A   1      39.611  33.453  39.704  1.00  0.00     0.173 A 
ATOM     61  F   UNL A   1      41.806  35.341  37.501  1.00  0.00    -0.203 F 
ATOM     62  C   UNL A   1      41.067  35.815  39.686  1.00  0.00     0.198 A 
ATOM     63  C   UNL A   1      39.585  34.297  40.810  1.00  0.00     0.198 A 
ATOM     64  F   UNL A   1      38.901  32.316  39.744  1.00  0.00    -0.203 F 
ATOM     65  F   UNL A   1      41.793  36.941  39.687  1.00  0.00    -0.200 F 
ATOM     66  C   UNL A   1      40.315  35.475  40.801  1.00  0.00     0.200 A 
ATOM     67  F   UNL A   1      38.848  33.972  41.882  1.00  0.00    -0.200 F 
ATOM     68  F   UNL A   1      40.294  36.285  41.869  1.00  0.00    -0.200 F 
ENDBRANCH  44  58
BRANCH  45  69
ATOM     69  C   UNL A   1      39.825  28.487  30.077  1.00  0.00     0.064 A 
ATOM     70  C   UNL A   1      39.286  27.198  29.953  1.00  0.00     0.173 A 
ATOM     71  C   UNL A   1      40.414  29.056  28.936  1.00  0.00     0.173 A 
ATOM     72  F   UNL A   1      38.737  26.598  31.019  1.00  0.00    -0.203 F 
ATOM     73  C   UNL A   1      39.364  26.496  28.751  1.00  0.00     0.198 A 
ATOM     74  C   UNL A   1      40.459  28.367  27.727  1.00  0.00     0.198 A 
ATOM     75  F   UNL A   1      40.949  30.284  28.998  1.00  0.00    -0.203 F 
ATOM     76  F   UNL A   1      38.900  25.241  28.681  1.00  0.00    -0.200 F 
ATOM     77  C   UNL A   1      39.947  27.082  27.638  1.00  0.00     0.200 A 
ATOM     78  F   UNL A   1      41.014  28.942  26.651  1.00  0.00    -0.200 F 
ATOM     79  F   UNL A   1      40.028  26.404  26.485  1.00  0.00    -0.200 F 
ENDBRANCH  45  69
BRANCH  57  80
ATOM     80  C   UNL A   1      44.415  28.836  35.317  1.00  0.00     0.064 A 
ATOM     81  C   UNL A   1      44.498  27.591  35.957  1.00  0.00     0.173 A 
ATOM     82  C   UNL A   1      45.602  29.410  34.837  1.00  0.00     0.173 A 
ATOM     83  F   UNL A   1      43.392  27.008  36.446  1.00  0.00    -0.203 F 
ATOM     84  C   UNL A   1      45.725  26.954  36.124  1.00  0.00     0.198 A 
ATOM     85  C   UNL A   1      46.821  28.755  34.975  1.00  0.00     0.198 A 
ATOM     86  F   UNL A   1      45.574  30.595  34.208  1.00  0.00    -0.203 F 
ATOM     87  F   UNL A   1      45.786  25.785  36.775  1.00  0.00    -0.200 F 
ATOM     88  C   UNL A   1      46.883  27.531  35.624  1.00  0.00     0.200 A 
ATOM     89  F   UNL A   1      47.936  29.304  34.474  1.00  0.00    -0.200 F 
ATOM     90  F   UNL A   1      48.060  26.907  35.770  1.00  0.00    -0.200 F 
ENDBRANCH  57  80
ENDBRANCH  31  32
ENDBRANCH  24  26
ENDBRANCH  23  24
ENDBRANCH  22  23
ENDBRANCH  21  22
ENDBRANCH  20  21
ENDBRANCH  19  20
ENDBRANCH   1  19
TORSDOF 19
ENDMDL
MODEL 3
REMARK VINA RESULT:     -10.1      5.903     11.246
REMARK SMILES O=C(CC1(CSC[C@H]2C[C@H]3CC[C@@H]2C3)CC1)OCCOCCOC(=O)c1ccc(-c2c3nc(c(-c4c(F)c(F)c(F)c(F)c4F)c4ccc([nH]4)c(-c4c(F)c(F)c(F)c(F)c4F)c4nc(c(-c5c(F)c(F)c(F)c(F)c5F)c5ccc2[nH]5)C=C4)C=C3)cc1
REMARK SMILES IDX 18 1 17 2 2 3 1 4 3 5 4 6 15 7 16 8 5 9 6 10 7 11 8 12 9 13
REMARK SMILES IDX 13 14 10 15 12 16 14 17 11 18 19 19 20 20 21 21 22 22 23 23
REMARK SMILES IDX 24 24 25 25 26 26 27 27 88 28 28 29 87 30 29 31 30 32 31 33
REMARK SMILES IDX 81 34 32 35 86 36 80 37 82 38 33 39 85 40 79 41 78 42 34 44
REMARK SMILES IDX 66 45 46 46 65 47 47 48 50 49 64 50 83 51 48 52 49 53 63 55
REMARK SMILES IDX 84 56 51 57 35 58 36 59 44 60 37 61 38 62 42 63 45 64 39 65
REMARK SMILES IDX 40 66 43 67 41 68 67 69 68 70 76 71 69 72 70 73 74 74 77 75
REMARK SMILES IDX 71 76 72 77 75 78 73 79 52 80 53 81 61 82 54 83 55 84 59 85
REMARK SMILES IDX 62 86 56 87 57 88 60 89 58 90
REMARK H PARENT 82 43 50 54
REMARK Flexibility Score: inf
ROOT
ATOM      1  C   UNL A   1      40.053  22.094  26.038  1.00  0.00     0.261 C 
ENDROOT
BRANCH   1   2
ATOM      2  O   UNL A   1      38.725  22.357  26.470  1.00  0.00    -0.463 OA
BRANCH   2   3
ATOM      3  C   UNL A   1      38.310  23.647  26.401  1.00  0.00     0.306 C 
ATOM      4  O   UNL A   1      38.939  24.542  26.959  1.00  0.00    -0.252 OA
BRANCH   3   5
ATOM      5  C   UNL A   1      36.953  23.875  25.790  1.00  0.00     0.130 C 
BRANCH   5   6
ATOM      6  C   UNL A   1      36.315  22.892  24.818  1.00  0.00    -0.010 C 
ATOM      7  C   UNL A   1      35.588  23.479  23.615  1.00  0.00     0.009 C 
ATOM      8  C   UNL A   1      36.749  22.567  23.390  1.00  0.00     0.009 C 
BRANCH   6   9
ATOM      9  C   UNL A   1      35.715  21.718  25.551  1.00  0.00     0.077 C 
BRANCH   9  10
ATOM     10  S   UNL A   1      33.888  21.768  25.605  1.00  0.00    -0.161 SA
BRANCH  10  11
ATOM     11  C   UNL A   1      33.446  20.006  25.720  1.00  0.00     0.073 C 
BRANCH  11  12
ATOM     12  C   UNL A   1      33.547  19.077  24.499  1.00  0.00     0.002 C 
ATOM     13  C   UNL A   1      34.832  18.216  24.451  1.00  0.00     0.008 C 
ATOM     14  C   UNL A   1      32.452  18.053  24.113  1.00  0.00    -0.007 C 
ATOM     15  C   UNL A   1      34.328  16.867  23.901  1.00  0.00    -0.011 C 
ATOM     16  C   UNL A   1      32.268  16.887  25.106  1.00  0.00     0.004 C 
ATOM     17  C   UNL A   1      33.176  17.294  22.991  1.00  0.00     0.007 C 
ATOM     18  C   UNL A   1      33.597  16.137  25.035  1.00  0.00     0.004 C 
ENDBRANCH  11  12
ENDBRANCH  10  11
ENDBRANCH   9  10
ENDBRANCH   6   9
ENDBRANCH   5   6
ENDBRANCH   3   5
ENDBRANCH   2   3
ENDBRANCH   1   2
BRANCH   1  19
ATOM     19  C   UNL A   1      40.675  20.772  26.509  1.00  0.00     0.202 C 
BRANCH  19  20
ATOM     20  O   UNL A   1      41.744  20.183  25.790  1.00  0.00    -0.374 OA
BRANCH  20  21
ATOM     21  C   UNL A   1      42.397  19.041  26.358  1.00  0.00     0.202 C 
BRANCH  21  22
ATOM     22  C   UNL A   1      43.341  18.257  25.445  1.00  0.00     0.261 C 
BRANCH  22  23
ATOM     23  O   UNL A   1      44.668  18.806  25.495  1.00  0.00    -0.460 OA
BRANCH  23  24
ATOM     24  C   UNL A   1      45.043  19.546  24.425  1.00  0.00     0.338 C 
ATOM     25  O   UNL A   1      45.166  19.178  23.269  1.00  0.00    -0.246 OA
BRANCH  24  26
ATOM     26  C   UNL A   1      44.988  20.967  24.828  1.00  0.00     0.060 A 
ATOM     27  C   UNL A   1      44.624  21.915  23.856  1.00  0.00     0.016 A 
ATOM     28  C   UNL A   1      45.210  21.350  26.149  1.00  0.00     0.016 A 
ATOM     29  C   UNL A   1      44.488  23.255  24.202  1.00  0.00     0.010 A 
ATOM     30  C   UNL A   1      45.109  22.698  26.488  1.00  0.00     0.010 A 
ATOM     31  C   UNL A   1      44.769  23.654  25.513  1.00  0.00    -0.014 A 
BRANCH  31  32
ATOM     32  C   UNL A   1      44.926  25.086  25.838  1.00  0.00     0.031 A 
ATOM     33  C   UNL A   1      46.307  25.667  25.750  1.00  0.00     0.074 A 
ATOM     34  C   UNL A   1      43.885  25.825  26.256  1.00  0.00     0.049 A 
ATOM     35  N   UNL A   1      46.749  26.826  26.158  1.00  0.00    -0.248 NA
ATOM     36  C   UNL A   1      47.336  24.812  25.130  1.00  0.00     0.031 C 
ATOM     37  C   UNL A   1      42.500  25.367  26.337  1.00  0.00     0.029 A 
ATOM     38  N   UNL A   1      43.846  27.111  26.730  1.00  0.00    -0.354 N 
ATOM     39  C   UNL A   1      48.107  26.826  25.875  1.00  0.00     0.074 A 
ATOM     40  C   UNL A   1      48.423  25.556  25.263  1.00  0.00     0.031 C 
ATOM     41  C   UNL A   1      41.750  26.345  26.875  1.00  0.00     0.029 A 
ATOM     42  C   UNL A   1      42.613  27.475  27.216  1.00  0.00     0.049 A 
ATOM     43  H   UNL A   1      44.624  27.715  26.723  1.00  0.00     0.167 HD
ATOM     44  C   UNL A   1      49.008  27.804  26.116  1.00  0.00     0.037 A 
ATOM     45  C   UNL A   1      42.247  28.573  27.906  1.00  0.00     0.037 A 
ATOM     46  C   UNL A   1      48.675  29.066  26.715  1.00  0.00     0.049 A 
ATOM     47  C   UNL A   1      43.290  29.621  28.218  1.00  0.00     0.074 A 
ATOM     48  C   UNL A   1      49.497  30.153  26.945  1.00  0.00     0.029 A 
ATOM     49  N   UNL A   1      47.416  29.403  27.191  1.00  0.00    -0.354 N 
ATOM     50  N   UNL A   1      44.563  29.645  27.900  1.00  0.00    -0.248 NA
ATOM     51  C   UNL A   1      42.847  30.790  28.991  1.00  0.00     0.031 C 
ATOM     52  C   UNL A   1      48.754  31.123  27.623  1.00  0.00     0.029 A 
ATOM     53  C   UNL A   1      47.452  30.665  27.757  1.00  0.00     0.049 A 
ATOM     54  H   UNL A   1      46.618  28.829  27.135  1.00  0.00     0.167 HD
ATOM     55  C   UNL A   1      45.063  30.835  28.413  1.00  0.00     0.074 A 
ATOM     56  C   UNL A   1      43.954  31.517  29.044  1.00  0.00     0.031 C 
ATOM     57  C   UNL A   1      46.328  31.323  28.371  1.00  0.00     0.037 A 
BRANCH  44  58
ATOM     58  C   UNL A   1      50.443  27.541  25.773  1.00  0.00     0.064 A 
ATOM     59  C   UNL A   1      51.360  27.077  26.726  1.00  0.00     0.173 A 
ATOM     60  C   UNL A   1      50.887  27.695  24.452  1.00  0.00     0.173 A 
ATOM     61  F   UNL A   1      50.990  26.931  28.007  1.00  0.00    -0.203 F 
ATOM     62  C   UNL A   1      52.673  26.779  26.367  1.00  0.00     0.198 A 
ATOM     63  C   UNL A   1      52.191  27.370  24.091  1.00  0.00     0.198 A 
ATOM     64  F   UNL A   1      50.049  28.141  23.504  1.00  0.00    -0.203 F 
ATOM     65  F   UNL A   1      53.542  26.363  27.299  1.00  0.00    -0.200 F 
ATOM     66  C   UNL A   1      53.083  26.915  25.050  1.00  0.00     0.200 A 
ATOM     67  F   UNL A   1      52.582  27.492  22.815  1.00  0.00    -0.200 F 
ATOM     68  F   UNL A   1      54.341  26.608  24.702  1.00  0.00    -0.200 F 
ENDBRANCH  44  58
BRANCH  45  69
ATOM     69  C   UNL A   1      40.854  28.720  28.407  1.00  0.00     0.064 A 
ATOM     70  C   UNL A   1      40.517  28.385  29.726  1.00  0.00     0.173 A 
ATOM     71  C   UNL A   1      39.817  29.145  27.562  1.00  0.00     0.173 A 
ATOM     72  F   UNL A   1      41.466  27.946  30.567  1.00  0.00    -0.203 F 
ATOM     73  C   UNL A   1      39.197  28.439  30.170  1.00  0.00     0.198 A 
ATOM     74  C   UNL A   1      38.503  29.233  28.018  1.00  0.00     0.198 A 
ATOM     75  F   UNL A   1      40.079  29.475  26.289  1.00  0.00    -0.203 F 
ATOM     76  F   UNL A   1      38.897  28.048  31.417  1.00  0.00    -0.200 F 
ATOM     77  C   UNL A   1      38.192  28.866  29.318  1.00  0.00     0.200 A 
ATOM     78  F   UNL A   1      37.537  29.658  27.192  1.00  0.00    -0.200 F 
ATOM     79  F   UNL A   1      36.922  28.911  29.743  1.00  0.00    -0.200 F 
ENDBRANCH  45  69
BRANCH  57  80
ATOM     80  C   UNL A   1      46.577  32.663  28.999  1.00  0.00     0.064 A 
ATOM     81  C   UNL A   1      47.005  32.783  30.328  1.00  0.00     0.173 A 
ATOM     82  C   UNL A   1      46.451  33.837  28.239  1.00  0.00     0.173 A 
ATOM     83  F   UNL A   1      47.127  31.692  31.100  1.00  0.00    -0.203 F 
ATOM     84  C   UNL A   1      47.283  34.031  30.879  1.00  0.00     0.198 A 
ATOM     85  C   UNL A   1      46.764  35.079  28.782  1.00  0.00     0.198 A 
ATOM     86  F   UNL A   1      46.054  33.774  26.959  1.00  0.00    -0.203 F 
ATOM     87  F   UNL A   1      47.653  34.126  32.163  1.00  0.00    -0.200 F 
ATOM     88  C   UNL A   1      47.172  35.176  30.104  1.00  0.00     0.200 A 
ATOM     89  F   UNL A   1      46.674  36.181  28.026  1.00  0.00    -0.200 F 
ATOM     90  F   UNL A   1      47.458  36.374  30.632  1.00  0.00    -0.200 F 
ENDBRANCH  57  80
ENDBRANCH  31  32
ENDBRANCH  24  26
ENDBRANCH  23  24
ENDBRANCH  22  23
ENDBRANCH  21  22
ENDBRANCH  20  21
ENDBRANCH  19  20
ENDBRANCH   1  19
TORSDOF 19
ENDMDL
