MODEL 1
REMARK VINA RESULT:     -11.4      0.000      0.000
REMARK SMILES C[NH+](C)Cc1noc(C[C@@](C)(C(=O)OCCOCCOC(=O)c2ccc(-c3c4nc(c(-c5c(F)c(F)c(F)c(F)c5F)c5ccc([nH]5)c(-c5c(F)c(F)c(F)c(F)c5F)c5nc(c(-c6c(F)c(F)c(F)c(F)c6F)c6ccc3[nH]6)C=C5)C=C4)cc2)c2ccccc2)n1
REMARK SMILES IDX 16 1 15 2 14 3 12 4 13 5 10 6 11 7 9 8 8 9 5 10 6 11 92 12
REMARK SMILES IDX 7 13 4 14 2 15 1 16 3 17 86 19 87 20 91 21 88 22 90 23 89 24
REMARK SMILES IDX 17 25 18 26 19 27 20 28 21 29 22 30 23 31 24 32 85 33 25 34
REMARK SMILES IDX 84 35 26 36 27 37 28 38 78 39 29 40 83 41 77 42 79 43 30 44
REMARK SMILES IDX 82 45 76 46 75 47 31 49 63 50 43 51 62 52 44 53 47 54 61 55
REMARK SMILES IDX 80 56 45 57 46 58 60 60 81 61 48 62 32 63 33 64 41 65 34 66
REMARK SMILES IDX 35 67 39 68 42 69 36 70 37 71 40 72 38 73 64 74 65 75 73 76
REMARK SMILES IDX 66 77 67 78 71 79 74 80 68 81 69 82 72 83 70 84 49 85 50 86
REMARK SMILES IDX 58 87 51 88 52 89 56 90 59 91 53 92 54 93 57 94 55 95
REMARK H PARENT 2 18 79 48 47 59
REMARK Flexibility Score: inf
ROOT
ATOM      1  C   UNL A   1      30.354  27.646  23.949  1.00  0.00     0.202 C 
ENDROOT
BRANCH   1   2
ATOM      2  C   UNL A   1      30.520  26.195  23.487  1.00  0.00     0.261 C 
BRANCH   2   3
ATOM      3  O   UNL A   1      31.633  25.531  24.108  1.00  0.00    -0.463 OA
BRANCH   3   4
ATOM      4  C   UNL A   1      32.654  25.189  23.271  1.00  0.00     0.316 C 
ATOM      5  O   UNL A   1      33.201  25.987  22.516  1.00  0.00    -0.251 OA
BRANCH   4   6
ATOM      6  C   UNL A   1      33.073  23.697  23.373  1.00  0.00     0.099 C 
ATOM      7  C   UNL A   1      33.099  23.255  21.885  1.00  0.00     0.029 C 
BRANCH   6   8
ATOM      8  C   UNL A   1      32.004  22.883  24.171  1.00  0.00     0.123 C 
BRANCH   8   9
ATOM      9  C   UNL A   1      32.322  21.446  24.382  1.00  0.00     0.228 A 
ATOM     10  C   UNL A   1      32.535  19.361  24.354  1.00  0.00     0.226 A 
ATOM     11  N   UNL A   1      32.726  19.683  25.643  1.00  0.00    -0.056 NA
ATOM     12  N   UNL A   1      32.294  20.444  23.535  1.00  0.00    -0.190 NA
ATOM     13  O   UNL A   1      32.639  21.069  25.653  1.00  0.00    -0.339 OA
BRANCH  10  14
ATOM     14  C   UNL A   1      32.461  17.949  23.846  1.00  0.00     0.344 C 
BRANCH  14  15
ATOM     15  N   UNL A   1      33.599  17.061  24.168  1.00  0.00    -0.333 N 
ATOM     16  C   UNL A   1      33.222  15.958  25.045  1.00  0.00     0.332 C 
ATOM     17  C   UNL A   1      34.315  16.588  22.987  1.00  0.00     0.332 C 
ATOM     18  H   UNL A   1      34.254  17.646  24.687  1.00  0.00     0.348 HD
ENDBRANCH  14  15
ENDBRANCH  10  14
ENDBRANCH   8   9
ENDBRANCH   6   8
BRANCH   6  19
ATOM     19  C   UNL A   1      34.488  23.552  23.997  1.00  0.00    -0.030 A 
ATOM     20  C   UNL A   1      34.798  24.032  25.284  1.00  0.00     0.005 A 
ATOM     21  C   UNL A   1      35.535  22.934  23.283  1.00  0.00     0.005 A 
ATOM     22  C   UNL A   1      36.088  23.914  25.817  1.00  0.00     0.000 A 
ATOM     23  C   UNL A   1      36.815  22.792  23.826  1.00  0.00     0.000 A 
ATOM     24  C   UNL A   1      37.095  23.289  25.091  1.00  0.00     0.000 A 
ENDBRANCH   6  19
ENDBRANCH   4   6
ENDBRANCH   3   4
ENDBRANCH   2   3
ENDBRANCH   1   2
BRANCH   1  25
ATOM     25  O   UNL A   1      31.243  28.118  24.954  1.00  0.00    -0.374 OA
BRANCH  25  26
ATOM     26  C   UNL A   1      31.860  29.391  24.760  1.00  0.00     0.202 C 
BRANCH  26  27
ATOM     27  C   UNL A   1      31.740  30.426  25.888  1.00  0.00     0.261 C 
BRANCH  27  28
ATOM     28  O   UNL A   1      32.735  30.249  26.917  1.00  0.00    -0.460 OA
BRANCH  28  29
ATOM     29  C   UNL A   1      33.365  31.387  27.299  1.00  0.00     0.338 C 
ATOM     30  O   UNL A   1      32.880  32.503  27.419  1.00  0.00    -0.246 OA
BRANCH  29  31
ATOM     31  C   UNL A   1      34.739  31.089  27.737  1.00  0.00     0.060 A 
ATOM     32  C   UNL A   1      35.080  29.750  27.974  1.00  0.00     0.016 A 
ATOM     33  C   UNL A   1      35.639  32.113  28.032  1.00  0.00     0.016 A 
ATOM     34  C   UNL A   1      36.311  29.431  28.544  1.00  0.00     0.010 A 
ATOM     35  C   UNL A   1      36.869  31.792  28.615  1.00  0.00     0.010 A 
ATOM     36  C   UNL A   1      37.198  30.454  28.903  1.00  0.00    -0.014 A 
BRANCH  36  37
ATOM     37  C   UNL A   1      38.402  30.149  29.713  1.00  0.00     0.031 A 
ATOM     38  C   UNL A   1      39.417  29.181  29.173  1.00  0.00     0.074 A 
ATOM     39  C   UNL A   1      38.586  30.720  30.916  1.00  0.00     0.049 A 
ATOM     40  N   UNL A   1      40.477  28.678  29.751  1.00  0.00    -0.248 NA
ATOM     41  C   UNL A   1      39.205  28.718  27.792  1.00  0.00     0.031 C 
ATOM     42  C   UNL A   1      37.704  31.714  31.522  1.00  0.00     0.029 A 
ATOM     43  N   UNL A   1      39.573  30.528  31.851  1.00  0.00    -0.354 N 
ATOM     44  C   UNL A   1      41.049  27.828  28.814  1.00  0.00     0.074 A 
ATOM     45  C   UNL A   1      40.211  27.870  27.634  1.00  0.00     0.031 C 
ATOM     46  C   UNL A   1      38.176  32.028  32.741  1.00  0.00     0.029 A 
ATOM     47  C   UNL A   1      39.369  31.228  33.014  1.00  0.00     0.049 A 
ATOM     48  H   UNL A   1      40.352  29.944  31.701  1.00  0.00     0.167 HD
ATOM     49  C   UNL A   1      42.173  27.081  28.928  1.00  0.00     0.037 A 
ATOM     50  C   UNL A   1      40.047  31.194  34.178  1.00  0.00     0.037 A 
ATOM     51  C   UNL A   1      43.006  27.045  30.101  1.00  0.00     0.049 A 
ATOM     52  C   UNL A   1      41.248  30.294  34.310  1.00  0.00     0.074 A 
ATOM     53  C   UNL A   1      44.175  26.333  30.309  1.00  0.00     0.029 A 
ATOM     54  N   UNL A   1      42.753  27.750  31.268  1.00  0.00    -0.354 N 
ATOM     55  N   UNL A   1      41.789  29.500  33.418  1.00  0.00    -0.248 NA
ATOM     56  C   UNL A   1      41.930  30.282  35.612  1.00  0.00     0.031 C 
ATOM     57  C   UNL A   1      44.602  26.570  31.619  1.00  0.00     0.029 A 
ATOM     58  C   UNL A   1      43.729  27.468  32.210  1.00  0.00     0.049 A 
ATOM     59  H   UNL A   1      41.991  28.358  31.407  1.00  0.00     0.167 HD
ATOM     60  C   UNL A   1      42.889  28.920  34.038  1.00  0.00     0.074 A 
ATOM     61  C   UNL A   1      42.942  29.456  35.381  1.00  0.00     0.031 C 
ATOM     62  C   UNL A   1      43.776  28.025  33.538  1.00  0.00     0.037 A 
BRANCH  49  63
ATOM     63  C   UNL A   1      42.553  26.217  27.763  1.00  0.00     0.064 A 
ATOM     64  C   UNL A   1      43.509  26.624  26.821  1.00  0.00     0.173 A 
ATOM     65  C   UNL A   1      41.979  24.946  27.607  1.00  0.00     0.173 A 
ATOM     66  F   UNL A   1      44.078  27.836  26.918  1.00  0.00    -0.203 F 
ATOM     67  C   UNL A   1      43.860  25.801  25.754  1.00  0.00     0.198 A 
ATOM     68  C   UNL A   1      42.350  24.115  26.554  1.00  0.00     0.198 A 
ATOM     69  F   UNL A   1      41.062  24.506  28.482  1.00  0.00    -0.203 F 
ATOM     70  F   UNL A   1      44.744  26.229  24.842  1.00  0.00    -0.200 F 
ATOM     71  C   UNL A   1      43.285  24.546  25.625  1.00  0.00     0.200 A 
ATOM     72  F   UNL A   1      41.802  22.898  26.437  1.00  0.00    -0.200 F 
ATOM     73  F   UNL A   1      43.628  23.753  24.600  1.00  0.00    -0.200 F 
ENDBRANCH  49  63
BRANCH  50  74
ATOM     74  C   UNL A   1      39.592  32.023  35.324  1.00  0.00     0.064 A 
ATOM     75  C   UNL A   1      38.653  31.536  36.242  1.00  0.00     0.173 A 
ATOM     76  C   UNL A   1      40.076  33.327  35.515  1.00  0.00     0.173 A 
ATOM     77  F   UNL A   1      38.141  30.306  36.085  1.00  0.00    -0.203 F 
ATOM     78  C   UNL A   1      38.203  32.324  37.299  1.00  0.00     0.198 A 
ATOM     79  C   UNL A   1      39.646  34.104  36.588  1.00  0.00     0.198 A 
ATOM     80  F   UNL A   1      40.974  33.842  34.662  1.00  0.00    -0.203 F 
ATOM     81  F   UNL A   1      37.271  31.849  38.138  1.00  0.00    -0.200 F 
ATOM     82  C   UNL A   1      38.705  33.605  37.475  1.00  0.00     0.200 A 
ATOM     83  F   UNL A   1      40.143  35.337  36.760  1.00  0.00    -0.200 F 
ATOM     84  F   UNL A   1      38.275  34.362  38.494  1.00  0.00    -0.200 F 
ENDBRANCH  50  74
BRANCH  62  85
ATOM     85  C   UNL A   1      44.909  27.599  34.426  1.00  0.00     0.064 A 
ATOM     86  C   UNL A   1      46.121  28.303  34.462  1.00  0.00     0.173 A 
ATOM     87  C   UNL A   1      44.752  26.512  35.299  1.00  0.00     0.173 A 
ATOM     88  F   UNL A   1      46.324  29.340  33.636  1.00  0.00    -0.203 F 
ATOM     89  C   UNL A   1      47.141  27.924  35.331  1.00  0.00     0.198 A 
ATOM     90  C   UNL A   1      45.764  26.153  36.186  1.00  0.00     0.198 A 
ATOM     91  F   UNL A   1      43.608  25.810  35.308  1.00  0.00    -0.203 F 
ATOM     92  F   UNL A   1      48.305  28.589  35.326  1.00  0.00    -0.200 F 
ATOM     93  C   UNL A   1      46.958  26.857  36.198  1.00  0.00     0.200 A 
ATOM     94  F   UNL A   1      45.579  25.130  37.032  1.00  0.00    -0.200 F 
ATOM     95  F   UNL A   1      47.936  26.502  37.044  1.00  0.00    -0.200 F 
ENDBRANCH  62  85
ENDBRANCH  36  37
ENDBRANCH  29  31
ENDBRANCH  28  29
ENDBRANCH  27  28
ENDBRANCH  26  27
ENDBRANCH  25  26
ENDBRANCH   1  25
TORSDOF 19
ENDMDL
MODEL 2
REMARK VINA RESULT:     -11.1      0.526      2.036
REMARK SMILES C[NH+](C)Cc1noc(C[C@@](C)(C(=O)OCCOCCOC(=O)c2ccc(-c3c4nc(c(-c5c(F)c(F)c(F)c(F)c5F)c5ccc([nH]5)c(-c5c(F)c(F)c(F)c(F)c5F)c5nc(c(-c6c(F)c(F)c(F)c(F)c6F)c6ccc3[nH]6)C=C5)C=C4)cc2)c2ccccc2)n1
REMARK SMILES IDX 16 1 15 2 14 3 12 4 13 5 10 6 11 7 9 8 8 9 5 10 6 11 92 12
REMARK SMILES IDX 7 13 4 14 2 15 1 16 3 17 86 19 87 20 91 21 88 22 90 23 89 24
REMARK SMILES IDX 17 25 18 26 19 27 20 28 21 29 22 30 23 31 24 32 85 33 25 34
REMARK SMILES IDX 84 35 26 36 27 37 28 38 78 39 29 40 83 41 77 42 79 43 30 44
REMARK SMILES IDX 82 45 76 46 75 47 31 49 63 50 43 51 62 52 44 53 47 54 61 55
REMARK SMILES IDX 80 56 45 57 46 58 60 60 81 61 48 62 32 63 33 64 41 65 34 66
REMARK SMILES IDX 35 67 39 68 42 69 36 70 37 71 40 72 38 73 64 74 65 75 73 76
REMARK SMILES IDX 66 77 67 78 71 79 74 80 68 81 69 82 72 83 70 84 49 85 50 86
REMARK SMILES IDX 58 87 51 88 52 89 56 90 59 91 53 92 54 93 57 94 55 95
REMARK H PARENT 2 18 79 48 47 59
REMARK Flexibility Score: inf
ROOT
ATOM      1  C   UNL A   1      31.211  27.960  23.732  1.00  0.00     0.202 C 
ENDROOT
BRANCH   1   2
ATOM      2  C   UNL A   1      31.026  26.453  23.936  1.00  0.00     0.261 C 
BRANCH   2   3
ATOM      3  O   UNL A   1      32.210  25.802  24.423  1.00  0.00    -0.463 OA
BRANCH   3   4
ATOM      4  C   UNL A   1      33.107  25.423  23.468  1.00  0.00     0.316 C 
ATOM      5  O   UNL A   1      33.640  26.214  22.695  1.00  0.00    -0.251 OA
BRANCH   4   6
ATOM      6  C   UNL A   1      33.405  23.899  23.457  1.00  0.00     0.099 C 
ATOM      7  C   UNL A   1      33.383  23.565  21.942  1.00  0.00     0.029 C 
BRANCH   6   8
ATOM      8  C   UNL A   1      32.281  23.118  24.211  1.00  0.00     0.123 C 
BRANCH   8   9
ATOM      9  C   UNL A   1      32.395  21.637  24.171  1.00  0.00     0.228 A 
ATOM     10  C   UNL A   1      32.884  19.606  24.349  1.00  0.00     0.226 A 
ATOM     11  N   UNL A   1      32.226  19.674  23.182  1.00  0.00    -0.056 NA
ATOM     12  N   UNL A   1      32.994  20.816  25.002  1.00  0.00    -0.190 NA
ATOM     13  O   UNL A   1      31.855  21.009  23.089  1.00  0.00    -0.339 OA
BRANCH  10  14
ATOM     14  C   UNL A   1      33.555  18.363  24.861  1.00  0.00     0.344 C 
BRANCH  14  15
ATOM     15  N   UNL A   1      33.145  17.081  24.250  1.00  0.00    -0.333 N 
ATOM     16  C   UNL A   1      34.180  16.505  23.399  1.00  0.00     0.332 C 
ATOM     17  C   UNL A   1      32.646  16.112  25.221  1.00  0.00     0.332 C 
ATOM     18  H   UNL A   1      32.357  17.314  23.646  1.00  0.00     0.348 HD
ENDBRANCH  14  15
ENDBRANCH  10  14
ENDBRANCH   8   9
ENDBRANCH   6   8
BRANCH   6  19
ATOM     19  C   UNL A   1      34.809  23.597  24.050  1.00  0.00    -0.030 A 
ATOM     20  C   UNL A   1      35.200  24.039  25.329  1.00  0.00     0.005 A 
ATOM     21  C   UNL A   1      35.764  22.867  23.314  1.00  0.00     0.005 A 
ATOM     22  C   UNL A   1      36.480  23.778  25.833  1.00  0.00     0.000 A 
ATOM     23  C   UNL A   1      37.033  22.583  23.828  1.00  0.00     0.000 A 
ATOM     24  C   UNL A   1      37.395  23.045  25.086  1.00  0.00     0.000 A 
ENDBRANCH   6  19
ENDBRANCH   4   6
ENDBRANCH   3   4
ENDBRANCH   2   3
ENDBRANCH   1   2
BRANCH   1  25
ATOM     25  O   UNL A   1      31.041  28.800  24.868  1.00  0.00    -0.374 OA
BRANCH  25  26
ATOM     26  C   UNL A   1      32.114  29.671  25.224  1.00  0.00     0.202 C 
BRANCH  26  27
ATOM     27  C   UNL A   1      31.800  30.854  26.151  1.00  0.00     0.261 C 
BRANCH  27  28
ATOM     28  O   UNL A   1      32.597  30.850  27.354  1.00  0.00    -0.460 OA
BRANCH  28  29
ATOM     29  C   UNL A   1      33.392  31.936  27.512  1.00  0.00     0.338 C 
ATOM     30  O   UNL A   1      33.065  33.113  27.459  1.00  0.00    -0.246 OA
BRANCH  29  31
ATOM     31  C   UNL A   1      34.740  31.527  27.940  1.00  0.00     0.060 A 
ATOM     32  C   UNL A   1      34.940  30.185  28.294  1.00  0.00     0.016 A 
ATOM     33  C   UNL A   1      35.757  32.466  28.113  1.00  0.00     0.016 A 
ATOM     34  C   UNL A   1      36.149  29.782  28.859  1.00  0.00     0.010 A 
ATOM     35  C   UNL A   1      36.965  32.063  28.692  1.00  0.00     0.010 A 
ATOM     36  C   UNL A   1      37.155  30.728  29.096  1.00  0.00    -0.014 A 
BRANCH  36  37
ATOM     37  C   UNL A   1      38.348  30.365  29.900  1.00  0.00     0.031 A 
ATOM     38  C   UNL A   1      39.337  29.386  29.333  1.00  0.00     0.074 A 
ATOM     39  C   UNL A   1      38.543  30.892  31.121  1.00  0.00     0.049 A 
ATOM     40  N   UNL A   1      40.380  28.835  29.898  1.00  0.00    -0.248 NA
ATOM     41  C   UNL A   1      39.118  28.972  27.937  1.00  0.00     0.031 C 
ATOM     42  C   UNL A   1      37.686  31.890  31.755  1.00  0.00     0.029 A 
ATOM     43  N   UNL A   1      39.520  30.643  32.052  1.00  0.00    -0.354 N 
ATOM     44  C   UNL A   1      40.933  28.000  28.936  1.00  0.00     0.074 A 
ATOM     45  C   UNL A   1      40.101  28.102  27.756  1.00  0.00     0.031 C 
ATOM     46  C   UNL A   1      38.162  32.153  32.985  1.00  0.00     0.029 A 
ATOM     47  C   UNL A   1      39.331  31.311  33.236  1.00  0.00     0.049 A 
ATOM     48  H   UNL A   1      40.284  30.043  31.886  1.00  0.00     0.167 HD
ATOM     49  C   UNL A   1      42.035  27.219  29.030  1.00  0.00     0.037 A 
ATOM     50  C   UNL A   1      40.004  31.223  34.400  1.00  0.00     0.037 A 
ATOM     51  C   UNL A   1      42.863  27.123  30.203  1.00  0.00     0.049 A 
ATOM     52  C   UNL A   1      41.179  30.285  34.508  1.00  0.00     0.074 A 
ATOM     53  C   UNL A   1      44.010  26.373  30.393  1.00  0.00     0.029 A 
ATOM     54  N   UNL A   1      42.624  27.797  31.392  1.00  0.00    -0.354 N 
ATOM     55  N   UNL A   1      41.701  29.505  33.593  1.00  0.00    -0.248 NA
ATOM     56  C   UNL A   1      41.855  30.214  35.811  1.00  0.00     0.031 C 
ATOM     57  C   UNL A   1      44.439  26.556  31.711  1.00  0.00     0.029 A 
ATOM     58  C   UNL A   1      43.589  27.460  32.327  1.00  0.00     0.049 A 
ATOM     59  H   UNL A   1      41.879  28.422  31.548  1.00  0.00     0.167 HD
ATOM     60  C   UNL A   1      42.782  28.876  34.198  1.00  0.00     0.074 A 
ATOM     61  C   UNL A   1      42.845  29.368  35.557  1.00  0.00     0.031 C 
ATOM     62  C   UNL A   1      43.646  27.972  33.672  1.00  0.00     0.037 A 
BRANCH  49  63
ATOM     63  C   UNL A   1      42.396  26.381  27.839  1.00  0.00     0.064 A 
ATOM     64  C   UNL A   1      41.801  25.133  27.606  1.00  0.00     0.173 A 
ATOM     65  C   UNL A   1      43.325  26.851  26.898  1.00  0.00     0.173 A 
ATOM     66  F   UNL A   1      40.916  24.634  28.483  1.00  0.00    -0.203 F 
ATOM     67  C   UNL A   1      42.138  24.376  26.487  1.00  0.00     0.198 A 
ATOM     68  C   UNL A   1      43.641  26.104  25.768  1.00  0.00     0.198 A 
ATOM     69  F   UNL A   1      43.921  28.040  27.072  1.00  0.00    -0.203 F 
ATOM     70  F   UNL A   1      41.588  23.167  26.307  1.00  0.00    -0.200 F 
ATOM     71  C   UNL A   1      43.053  24.864  25.567  1.00  0.00     0.200 A 
ATOM     72  F   UNL A   1      44.517  26.583  24.873  1.00  0.00    -0.200 F 
ATOM     73  F   UNL A   1      43.372  24.137  24.487  1.00  0.00    -0.200 F 
ENDBRANCH  49  63
BRANCH  50  74
ATOM     74  C   UNL A   1      39.567  32.027  35.571  1.00  0.00     0.064 A 
ATOM     75  C   UNL A   1      40.155  33.266  35.857  1.00  0.00     0.173 A 
ATOM     76  C   UNL A   1      38.565  31.564  36.437  1.00  0.00     0.173 A 
ATOM     77  F   UNL A   1      41.138  33.737  35.075  1.00  0.00    -0.203 F 
ATOM     78  C   UNL A   1      39.768  34.006  36.972  1.00  0.00     0.198 A 
ATOM     79  C   UNL A   1      38.159  32.318  37.537  1.00  0.00     0.198 A 
ATOM     80  F   UNL A   1      37.973  30.383  36.209  1.00  0.00    -0.203 F 
ATOM     81  F   UNL A   1      40.377  35.168  37.248  1.00  0.00    -0.200 F 
ATOM     82  C   UNL A   1      38.765  33.535  37.807  1.00  0.00     0.200 A 
ATOM     83  F   UNL A   1      37.182  31.863  38.333  1.00  0.00    -0.200 F 
ATOM     84  F   UNL A   1      38.391  34.248  38.878  1.00  0.00    -0.200 F 
ENDBRANCH  50  74
BRANCH  62  85
ATOM     85  C   UNL A   1      44.764  27.488  34.550  1.00  0.00     0.064 A 
ATOM     86  C   UNL A   1      44.646  26.320  35.314  1.00  0.00     0.173 A 
ATOM     87  C   UNL A   1      45.990  28.170  34.571  1.00  0.00     0.173 A 
ATOM     88  F   UNL A   1      43.489  25.642  35.339  1.00  0.00    -0.203 F 
ATOM     89  C   UNL A   1      45.713  25.858  36.081  1.00  0.00     0.198 A 
ATOM     90  C   UNL A   1      47.063  27.690  35.317  1.00  0.00     0.198 A 
ATOM     91  F   UNL A   1      46.155  29.289  33.851  1.00  0.00    -0.203 F 
ATOM     92  F   UNL A   1      45.569  24.757  36.832  1.00  0.00    -0.200 F 
ATOM     93  C   UNL A   1      46.922  26.537  36.074  1.00  0.00     0.200 A 
ATOM     94  F   UNL A   1      48.235  28.341  35.298  1.00  0.00    -0.200 F 
ATOM     95  F   UNL A   1      47.952  26.084  36.802  1.00  0.00    -0.200 F 
ENDBRANCH  62  85
ENDBRANCH  36  37
ENDBRANCH  29  31
ENDBRANCH  28  29
ENDBRANCH  27  28
ENDBRANCH  26  27
ENDBRANCH  25  26
ENDBRANCH   1  25
TORSDOF 19
ENDMDL
MODEL 3
REMARK VINA RESULT:     -11.1      2.026      3.237
REMARK SMILES C[NH+](C)Cc1noc(C[C@@](C)(C(=O)OCCOCCOC(=O)c2ccc(-c3c4nc(c(-c5c(F)c(F)c(F)c(F)c5F)c5ccc([nH]5)c(-c5c(F)c(F)c(F)c(F)c5F)c5nc(c(-c6c(F)c(F)c(F)c(F)c6F)c6ccc3[nH]6)C=C5)C=C4)cc2)c2ccccc2)n1
REMARK SMILES IDX 16 1 15 2 14 3 12 4 13 5 10 6 11 7 9 8 8 9 5 10 6 11 92 12
REMARK SMILES IDX 7 13 4 14 2 15 1 16 3 17 86 19 87 20 91 21 88 22 90 23 89 24
REMARK SMILES IDX 17 25 18 26 19 27 20 28 21 29 22 30 23 31 24 32 85 33 25 34
REMARK SMILES IDX 84 35 26 36 27 37 28 38 78 39 29 40 83 41 77 42 79 43 30 44
REMARK SMILES IDX 82 45 76 46 75 47 31 49 63 50 43 51 62 52 44 53 47 54 61 55
REMARK SMILES IDX 80 56 45 57 46 58 60 60 81 61 48 62 32 63 33 64 41 65 34 66
REMARK SMILES IDX 35 67 39 68 42 69 36 70 37 71 40 72 38 73 64 74 65 75 73 76
REMARK SMILES IDX 66 77 67 78 71 79 74 80 68 81 69 82 72 83 70 84 49 85 50 86
REMARK SMILES IDX 58 87 51 88 52 89 56 90 59 91 53 92 54 93 57 94 55 95
REMARK H PARENT 2 18 79 48 47 59
REMARK Flexibility Score: inf
ROOT
ATOM      1  C   UNL A   1      33.344  29.122  26.551  1.00  0.00     0.202 C 
ENDROOT
BRANCH   1   2
ATOM      2  C   UNL A   1      32.142  28.191  26.743  1.00  0.00     0.261 C 
BRANCH   2   3
ATOM      3  O   UNL A   1      32.373  26.864  26.242  1.00  0.00    -0.463 OA
BRANCH   3   4
ATOM      4  C   UNL A   1      31.286  26.243  25.699  1.00  0.00     0.316 C 
ATOM      5  O   UNL A   1      30.380  25.763  26.373  1.00  0.00    -0.251 OA
BRANCH   4   6
ATOM      6  C   UNL A   1      31.293  26.214  24.147  1.00  0.00     0.099 C 
ATOM      7  C   UNL A   1      30.688  24.819  23.837  1.00  0.00     0.029 C 
BRANCH   6   8
ATOM      8  C   UNL A   1      32.755  26.313  23.605  1.00  0.00     0.123 C 
BRANCH   8   9
ATOM      9  C   UNL A   1      33.537  25.050  23.640  1.00  0.00     0.228 A 
ATOM     10  C   UNL A   1      34.755  23.395  24.060  1.00  0.00     0.226 A 
ATOM     11  N   UNL A   1      34.763  23.465  22.719  1.00  0.00    -0.056 NA
ATOM     12  N   UNL A   1      33.985  24.365  24.667  1.00  0.00    -0.190 NA
ATOM     13  O   UNL A   1      33.913  24.527  22.439  1.00  0.00    -0.339 OA
BRANCH  10  14
ATOM     14  C   UNL A   1      35.598  22.438  24.853  1.00  0.00     0.344 C 
BRANCH  14  15
ATOM     15  N   UNL A   1      37.042  22.739  24.951  1.00  0.00    -0.333 N 
ATOM     16  C   UNL A   1      37.347  23.698  26.007  1.00  0.00     0.332 C 
ATOM     17  C   UNL A   1      37.875  21.545  25.051  1.00  0.00     0.332 C 
ATOM     18  H   UNL A   1      37.281  23.184  24.064  1.00  0.00     0.348 HD
ENDBRANCH  14  15
ENDBRANCH  10  14
ENDBRANCH   8   9
ENDBRANCH   6   8
BRANCH   6  19
ATOM     19  C   UNL A   1      30.387  27.331  23.560  1.00  0.00    -0.030 A 
ATOM     20  C   UNL A   1      28.981  27.248  23.573  1.00  0.00     0.005 A 
ATOM     21  C   UNL A   1      30.947  28.483  22.972  1.00  0.00     0.005 A 
ATOM     22  C   UNL A   1      28.184  28.255  23.015  1.00  0.00     0.000 A 
ATOM     23  C   UNL A   1      30.151  29.501  22.439  1.00  0.00     0.000 A 
ATOM     24  C   UNL A   1      28.768  29.384  22.453  1.00  0.00     0.000 A 
ENDBRANCH   6  19
ENDBRANCH   4   6
ENDBRANCH   3   4
ENDBRANCH   2   3
ENDBRANCH   1   2
BRANCH   1  25
ATOM     25  O   UNL A   1      33.073  30.484  26.242  1.00  0.00    -0.374 OA
BRANCH  25  26
ATOM     26  C   UNL A   1      31.784  31.002  26.569  1.00  0.00     0.202 C 
BRANCH  26  27
ATOM     27  C   UNL A   1      31.672  32.500  26.887  1.00  0.00     0.261 C 
BRANCH  27  28
ATOM     28  O   UNL A   1      32.939  33.185  26.809  1.00  0.00    -0.460 OA
BRANCH  28  29
ATOM     29  C   UNL A   1      33.383  33.692  27.985  1.00  0.00     0.338 C 
ATOM     30  O   UNL A   1      32.812  34.489  28.716  1.00  0.00    -0.246 OA
BRANCH  29  31
ATOM     31  C   UNL A   1      34.627  33.021  28.396  1.00  0.00     0.060 A 
ATOM     32  C   UNL A   1      34.524  31.783  29.046  1.00  0.00     0.016 A 
ATOM     33  C   UNL A   1      35.864  33.650  28.260  1.00  0.00     0.016 A 
ATOM     34  C   UNL A   1      35.656  31.185  29.599  1.00  0.00     0.010 A 
ATOM     35  C   UNL A   1      36.997  33.055  28.826  1.00  0.00     0.010 A 
ATOM     36  C   UNL A   1      36.893  31.838  29.524  1.00  0.00    -0.014 A 
BRANCH  36  37
ATOM     37  C   UNL A   1      38.052  31.332  30.299  1.00  0.00     0.031 A 
ATOM     38  C   UNL A   1      38.966  30.320  29.666  1.00  0.00     0.074 A 
ATOM     39  C   UNL A   1      38.284  31.761  31.552  1.00  0.00     0.049 A 
ATOM     40  N   UNL A   1      39.962  29.655  30.191  1.00  0.00    -0.248 NA
ATOM     41  C   UNL A   1      38.719  30.018  28.246  1.00  0.00     0.031 C 
ATOM     42  C   UNL A   1      37.504  32.777  32.253  1.00  0.00     0.029 A 
ATOM     43  N   UNL A   1      39.238  31.377  32.462  1.00  0.00    -0.354 N 
ATOM     44  C   UNL A   1      40.452  28.845  29.174  1.00  0.00     0.074 A 
ATOM     45  C   UNL A   1      39.633  29.089  28.005  1.00  0.00     0.031 C 
ATOM     46  C   UNL A   1      37.996  32.920  33.496  1.00  0.00     0.029 A 
ATOM     47  C   UNL A   1      39.096  31.977  33.688  1.00  0.00     0.049 A 
ATOM     48  H   UNL A   1      39.953  30.732  32.255  1.00  0.00     0.167 HD
ATOM     49  C   UNL A   1      41.491  27.978  29.213  1.00  0.00     0.037 A 
ATOM     50  C   UNL A   1      39.758  31.760  34.842  1.00  0.00     0.037 A 
ATOM     51  C   UNL A   1      42.306  27.741  30.375  1.00  0.00     0.049 A 
ATOM     52  C   UNL A   1      40.858  30.731  34.884  1.00  0.00     0.074 A 
ATOM     53  C   UNL A   1      43.392  26.895  30.512  1.00  0.00     0.029 A 
ATOM     54  N   UNL A   1      42.116  28.352  31.607  1.00  0.00    -0.354 N 
ATOM     55  N   UNL A   1      41.321  29.975  33.918  1.00  0.00    -0.248 NA
ATOM     56  C   UNL A   1      41.523  30.521  36.178  1.00  0.00     0.031 C 
ATOM     57  C   UNL A   1      43.830  26.957  31.838  1.00  0.00     0.029 A 
ATOM     58  C   UNL A   1      43.050  27.880  32.515  1.00  0.00     0.049 A 
ATOM     59  H   UNL A   1      41.421  29.020  31.805  1.00  0.00     0.167 HD
ATOM     60  C   UNL A   1      42.349  29.226  34.477  1.00  0.00     0.074 A 
ATOM     61  C   UNL A   1      42.446  29.621  35.866  1.00  0.00     0.031 C 
ATOM     62  C   UNL A   1      43.142  28.297  33.891  1.00  0.00     0.037 A 
BRANCH  49  63
ATOM     63  C   UNL A   1      41.790  27.196  27.968  1.00  0.00     0.064 A 
ATOM     64  C   UNL A   1      42.708  27.652  27.011  1.00  0.00     0.173 A 
ATOM     65  C   UNL A   1      41.175  25.954  27.748  1.00  0.00     0.173 A 
ATOM     66  F   UNL A   1      43.312  28.840  27.169  1.00  0.00    -0.203 F 
ATOM     67  C   UNL A   1      42.982  26.905  25.869  1.00  0.00     0.198 A 
ATOM     68  C   UNL A   1      41.472  25.197  26.618  1.00  0.00     0.198 A 
ATOM     69  F   UNL A   1      40.293  25.470  28.635  1.00  0.00    -0.203 F 
ATOM     70  F   UNL A   1      43.831  27.381  24.946  1.00  0.00    -0.200 F 
ATOM     71  C   UNL A   1      42.369  25.677  25.677  1.00  0.00     0.200 A 
ATOM     72  F   UNL A   1      40.886  24.005  26.440  1.00  0.00    -0.200 F 
ATOM     73  F   UNL A   1      42.639  24.956  24.580  1.00  0.00    -0.200 F 
ENDBRANCH  49  63
BRANCH  50  74
ATOM     74  C   UNL A   1      39.381  32.516  36.065  1.00  0.00     0.064 A 
ATOM     75  C   UNL A   1      38.444  32.006  36.971  1.00  0.00     0.173 A 
ATOM     76  C   UNL A   1      39.940  33.774  36.341  1.00  0.00     0.173 A 
ATOM     77  F   UNL A   1      37.861  30.821  36.736  1.00  0.00    -0.203 F 
ATOM     78  C   UNL A   1      38.067  32.728  38.102  1.00  0.00     0.198 A 
ATOM     79  C   UNL A   1      39.583  34.484  37.487  1.00  0.00     0.198 A 
ATOM     80  F   UNL A   1      40.839  34.309  35.503  1.00  0.00    -0.203 F 
ATOM     81  F   UNL A   1      37.136  32.237  38.931  1.00  0.00    -0.200 F 
ATOM     82  C   UNL A   1      38.643  33.964  38.362  1.00  0.00     0.200 A 
ATOM     83  F   UNL A   1      40.150  35.672  37.738  1.00  0.00    -0.200 F 
ATOM     84  F   UNL A   1      38.283  34.657  39.451  1.00  0.00    -0.200 F 
ENDBRANCH  50  74
BRANCH  62  85
ATOM     85  C   UNL A   1      44.218  27.671  34.732  1.00  0.00     0.064 A 
ATOM     86  C   UNL A   1      45.474  28.272  34.887  1.00  0.00     0.173 A 
ATOM     87  C   UNL A   1      43.960  26.489  35.442  1.00  0.00     0.173 A 
ATOM     88  F   UNL A   1      45.773  29.394  34.216  1.00  0.00    -0.203 F 
ATOM     89  C   UNL A   1      46.440  27.703  35.713  1.00  0.00     0.198 A 
ATOM     90  C   UNL A   1      44.918  25.938  36.289  1.00  0.00     0.198 A 
ATOM     91  F   UNL A   1      42.770  25.879  35.333  1.00  0.00    -0.203 F 
ATOM     92  F   UNL A   1      47.648  28.275  35.821  1.00  0.00    -0.200 F 
ATOM     93  C   UNL A   1      46.158  26.543  36.420  1.00  0.00     0.200 A 
ATOM     94  F   UNL A   1      44.639  24.826  36.982  1.00  0.00    -0.200 F 
ATOM     95  F   UNL A   1      47.085  26.006  37.226  1.00  0.00    -0.200 F 
ENDBRANCH  62  85
ENDBRANCH  36  37
ENDBRANCH  29  31
ENDBRANCH  28  29
ENDBRANCH  27  28
ENDBRANCH  26  27
ENDBRANCH  25  26
ENDBRANCH   1  25
TORSDOF 19
ENDMDL
