MODEL 1
REMARK VINA RESULT:     -12.0      0.000      0.000
REMARK SMILES O=C(CCn1cc(/C=C2/[NH+]=C(S)N(c3ccccc3)C2=O)c(-c2ccc(Br)cc2)n1)OCCOCCOC(=O)c1ccc(-c2c3nc(c(-c4c(F)c(F)c(F)c(F)c4F)c4ccc([nH]4)c(-c4c(F)c(F)c(F)c(F)c4F)c4nc(c(-c5c(F)c(F)c(F)c(F)c5F)c5ccc2[nH]5)C=C4)C=C3)cc1
REMARK SMILES IDX 33 1 32 2 31 3 2 4 1 5 3 6 4 7 5 8 6 9 30 10 7 11 22 12 8 13
REMARK SMILES IDX 9 14 10 15 20 16 11 17 13 19 21 20 12 21 14 23 15 24 19 25
REMARK SMILES IDX 16 26 18 27 17 28 23 29 24 30 29 31 25 32 28 33 26 34 27 35
REMARK SMILES IDX 34 36 35 37 36 38 37 39 38 40 39 41 40 42 41 43 102 44 42 45
REMARK SMILES IDX 101 46 43 47 44 48 45 49 95 50 46 51 100 52 94 53 96 54
REMARK SMILES IDX 47 55 99 56 93 57 92 58 48 60 80 61 60 62 79 63 61 64 64 65
REMARK SMILES IDX 78 66 97 67 62 68 63 69 77 71 98 72 65 73 49 74 50 75 58 76
REMARK SMILES IDX 51 77 52 78 56 79 59 80 53 81 54 82 57 83 55 84 81 85 82 86
REMARK SMILES IDX 90 87 83 88 84 89 88 90 91 91 85 92 86 93 89 94 87 95 66 96
REMARK SMILES IDX 67 97 75 98 68 99 69 100 73 101 76 102 70 103 71 104 74 105
REMARK SMILES IDX 72 106
REMARK H PARENT 10 18 12 22 96 59 64 70
REMARK Flexibility Score: inf
ROOT
ATOM      1  C   UNL A   1      38.968  20.873  25.844  1.00  0.00     0.202 C 
ENDROOT
BRANCH   1   2
ATOM      2  C   UNL A   1      37.898  21.951  25.610  1.00  0.00     0.261 C 
BRANCH   2   3
ATOM      3  O   UNL A   1      36.521  21.604  25.795  1.00  0.00    -0.463 OA
BRANCH   3   4
ATOM      4  C   UNL A   1      35.523  22.506  25.724  1.00  0.00     0.307 C 
ATOM      5  O   UNL A   1      34.401  22.222  26.140  1.00  0.00    -0.252 OA
BRANCH   4   6
ATOM      6  C   UNL A   1      35.768  23.788  24.985  1.00  0.00     0.146 C 
BRANCH   6   7
ATOM      7  C   UNL A   1      35.010  23.873  23.672  1.00  0.00     0.156 C 
BRANCH   7   8
ATOM      8  N   UNL A   1      33.814  24.696  23.720  1.00  0.00    -0.271 N 
ATOM      9  C   UNL A   1      32.529  24.268  23.561  1.00  0.00     0.117 A 
ATOM     10  N   UNL A   1      33.902  26.000  24.042  1.00  0.00    -0.172 NA
ATOM     11  C   UNL A   1      31.731  25.339  23.895  1.00  0.00     0.025 A 
ATOM     12  C   UNL A   1      32.635  26.381  24.285  1.00  0.00     0.100 A 
BRANCH  11  13
ATOM     13  C   UNL A   1      30.309  25.286  23.991  1.00  0.00     0.072 C 
ATOM     14  C   UNL A   1      29.431  26.205  23.565  1.00  0.00     0.217 C 
ATOM     15  N   UNL A   1      28.128  26.259  23.979  1.00  0.00    -0.228 N 
ATOM     16  C   UNL A   1      29.724  27.412  22.737  1.00  0.00     0.386 C 
ATOM     17  C   UNL A   1      27.749  27.459  23.651  1.00  0.00     0.321 C 
ATOM     18  H   UNL A   1      27.600  25.555  24.421  1.00  0.00     0.313 HD
ATOM     19  N   UNL A   1      28.671  28.254  23.019  1.00  0.00    -0.149 N 
ATOM     20  O   UNL A   1      30.653  27.510  21.955  1.00  0.00    -0.236 OA
BRANCH  17  21
ATOM     21  S   UNL A   1      26.096  27.891  23.946  1.00  0.00    -0.055 SA
ATOM     22  H   UNL A   1      26.029  28.716  25.024  1.00  0.00     0.116 HD
ENDBRANCH  17  21
BRANCH  19  23
ATOM     23  C   UNL A   1      28.658  29.648  22.686  1.00  0.00     0.137 A 
ATOM     24  C   UNL A   1      29.087  30.645  23.577  1.00  0.00     0.052 A 
ATOM     25  C   UNL A   1      28.288  30.086  21.401  1.00  0.00     0.052 A 
ATOM     26  C   UNL A   1      29.059  32.006  23.237  1.00  0.00     0.004 A 
ATOM     27  C   UNL A   1      28.283  31.442  21.046  1.00  0.00     0.004 A 
ATOM     28  C   UNL A   1      28.648  32.405  21.973  1.00  0.00     0.000 A 
ENDBRANCH  19  23
ENDBRANCH  11  13
BRANCH  12  29
ATOM     29  C   UNL A   1      32.327  27.640  24.988  1.00  0.00     0.003 A 
ATOM     30  C   UNL A   1      32.516  28.875  24.337  1.00  0.00     0.011 A 
ATOM     31  C   UNL A   1      31.896  27.646  26.320  1.00  0.00     0.011 A 
ATOM     32  C   UNL A   1      32.367  30.083  25.025  1.00  0.00     0.016 A 
ATOM     33  C   UNL A   1      31.736  28.857  27.009  1.00  0.00     0.016 A 
ATOM     34  C   UNL A   1      31.993  30.066  26.364  1.00  0.00     0.018 A 
ATOM     35  Br  UNL A   1      31.859  31.696  27.314  1.00  0.00    -0.051 Br
ENDBRANCH  12  29
ENDBRANCH   7   8
ENDBRANCH   6   7
ENDBRANCH   4   6
ENDBRANCH   3   4
ENDBRANCH   2   3
ENDBRANCH   1   2
BRANCH   1  36
ATOM     36  O   UNL A   1      40.307  21.203  26.194  1.00  0.00    -0.374 OA
BRANCH  36  37
ATOM     37  C   UNL A   1      41.086  20.393  27.056  1.00  0.00     0.202 C 
BRANCH  37  38
ATOM     38  C   UNL A   1      42.584  20.527  26.884  1.00  0.00     0.261 C 
BRANCH  38  39
ATOM     39  O   UNL A   1      42.859  20.792  25.521  1.00  0.00    -0.460 OA
BRANCH  39  40
ATOM     40  C   UNL A   1      44.074  20.358  25.101  1.00  0.00     0.338 C 
ATOM     41  O   UNL A   1      44.490  19.224  25.086  1.00  0.00    -0.246 OA
BRANCH  40  42
ATOM     42  C   UNL A   1      44.870  21.554  24.723  1.00  0.00     0.060 A 
ATOM     43  C   UNL A   1      45.836  21.837  25.681  1.00  0.00     0.016 A 
ATOM     44  C   UNL A   1      44.174  22.561  24.039  1.00  0.00     0.016 A 
ATOM     45  C   UNL A   1      45.691  23.030  26.335  1.00  0.00     0.010 A 
ATOM     46  C   UNL A   1      44.002  23.740  24.707  1.00  0.00     0.010 A 
ATOM     47  C   UNL A   1      44.672  23.893  25.914  1.00  0.00    -0.014 A 
BRANCH  47  48
ATOM     48  C   UNL A   1      44.400  25.041  26.733  1.00  0.00     0.031 A 
ATOM     49  C   UNL A   1      45.455  26.051  26.572  1.00  0.00     0.074 A 
ATOM     50  C   UNL A   1      43.293  25.166  27.482  1.00  0.00     0.049 A 
ATOM     51  N   UNL A   1      46.412  26.314  27.396  1.00  0.00    -0.248 NA
ATOM     52  C   UNL A   1      45.622  26.636  25.232  1.00  0.00     0.031 C 
ATOM     53  C   UNL A   1      42.082  24.346  27.489  1.00  0.00     0.029 A 
ATOM     54  N   UNL A   1      43.004  26.154  28.366  1.00  0.00    -0.354 N 
ATOM     55  C   UNL A   1      47.180  27.271  26.750  1.00  0.00     0.074 A 
ATOM     56  C   UNL A   1      46.811  27.220  25.363  1.00  0.00     0.031 C 
ATOM     57  C   UNL A   1      41.108  25.005  28.164  1.00  0.00     0.029 A 
ATOM     58  C   UNL A   1      41.668  26.217  28.734  1.00  0.00     0.049 A 
ATOM     59  H   UNL A   1      43.684  26.775  28.715  1.00  0.00     0.167 HD
ATOM     60  C   UNL A   1      47.801  28.244  27.465  1.00  0.00     0.037 A 
ATOM     61  C   UNL A   1      41.096  27.277  29.361  1.00  0.00     0.037 A 
ATOM     62  C   UNL A   1      47.936  27.854  28.851  1.00  0.00     0.049 A 
ATOM     63  C   UNL A   1      42.198  28.068  29.982  1.00  0.00     0.074 A 
ATOM     64  C   UNL A   1      48.548  26.801  29.504  1.00  0.00     0.029 A 
ATOM     65  N   UNL A   1      47.051  28.388  29.757  1.00  0.00    -0.354 N 
ATOM     66  N   UNL A   1      42.919  27.639  30.984  1.00  0.00    -0.248 NA
ATOM     67  C   UNL A   1      42.818  29.111  29.174  1.00  0.00     0.031 C 
ATOM     68  C   UNL A   1      47.675  26.469  30.583  1.00  0.00     0.029 A 
ATOM     69  C   UNL A   1      46.611  27.371  30.565  1.00  0.00     0.049 A 
ATOM     70  H   UNL A   1      46.781  29.333  29.816  1.00  0.00     0.167 HD
ATOM     71  C   UNL A   1      44.216  28.038  30.687  1.00  0.00     0.074 A 
ATOM     72  C   UNL A   1      44.081  28.998  29.596  1.00  0.00     0.031 C 
ATOM     73  C   UNL A   1      45.291  27.333  31.148  1.00  0.00     0.037 A 
BRANCH  60  74
ATOM     74  C   UNL A   1      47.860  29.685  27.013  1.00  0.00     0.064 A 
ATOM     75  C   UNL A   1      49.100  30.347  27.077  1.00  0.00     0.173 A 
ATOM     76  C   UNL A   1      46.737  30.525  26.823  1.00  0.00     0.173 A 
ATOM     77  F   UNL A   1      50.236  29.655  27.246  1.00  0.00    -0.203 F 
ATOM     78  C   UNL A   1      49.192  31.741  27.076  1.00  0.00     0.198 A 
ATOM     79  C   UNL A   1      46.839  31.912  26.770  1.00  0.00     0.198 A 
ATOM     80  F   UNL A   1      45.481  30.072  26.786  1.00  0.00    -0.203 F 
ATOM     81  F   UNL A   1      50.377  32.326  27.287  1.00  0.00    -0.200 F 
ATOM     82  C   UNL A   1      48.060  32.521  26.938  1.00  0.00     0.200 A 
ATOM     83  F   UNL A   1      45.725  32.646  26.643  1.00  0.00    -0.200 F 
ATOM     84  F   UNL A   1      48.135  33.855  27.014  1.00  0.00    -0.200 F 
ENDBRANCH  60  74
BRANCH  61  85
ATOM     85  C   UNL A   1      39.746  27.842  29.125  1.00  0.00     0.064 A 
ATOM     86  C   UNL A   1      38.820  27.967  30.173  1.00  0.00     0.173 A 
ATOM     87  C   UNL A   1      39.433  28.524  27.931  1.00  0.00     0.173 A 
ATOM     88  F   UNL A   1      39.065  27.394  31.360  1.00  0.00    -0.203 F 
ATOM     89  C   UNL A   1      37.660  28.742  30.040  1.00  0.00     0.198 A 
ATOM     90  C   UNL A   1      38.275  29.289  27.797  1.00  0.00     0.198 A 
ATOM     91  F   UNL A   1      40.293  28.543  26.902  1.00  0.00    -0.203 F 
ATOM     92  F   UNL A   1      36.829  28.886  31.080  1.00  0.00    -0.200 F 
ATOM     93  C   UNL A   1      37.394  29.409  28.854  1.00  0.00     0.200 A 
ATOM     94  F   UNL A   1      38.051  29.962  26.658  1.00  0.00    -0.200 F 
ATOM     95  F   UNL A   1      36.316  30.197  28.746  1.00  0.00    -0.200 F 
ENDBRANCH  61  85
BRANCH  73  96
ATOM     96  C   UNL A   1      45.038  26.274  32.183  1.00  0.00     0.064 A 
ATOM     97  C   UNL A   1      44.669  24.951  31.878  1.00  0.00     0.173 A 
ATOM     98  C   UNL A   1      45.319  26.571  33.522  1.00  0.00     0.173 A 
ATOM     99  F   UNL A   1      44.484  24.565  30.608  1.00  0.00    -0.203 F 
ATOM    100  C   UNL A   1      44.543  23.987  32.877  1.00  0.00     0.198 A 
ATOM    101  C   UNL A   1      45.229  25.598  34.513  1.00  0.00     0.198 A 
ATOM    102  F   UNL A   1      45.730  27.802  33.864  1.00  0.00    -0.203 F 
ATOM    103  F   UNL A   1      44.178  22.735  32.562  1.00  0.00    -0.200 F 
ATOM    104  C   UNL A   1      44.831  24.310  34.193  1.00  0.00     0.200 A 
ATOM    105  F   UNL A   1      45.556  25.902  35.776  1.00  0.00    -0.200 F 
ATOM    106  F   UNL A   1      44.751  23.373  35.149  1.00  0.00    -0.200 F 
ENDBRANCH  73  96
ENDBRANCH  47  48
ENDBRANCH  40  42
ENDBRANCH  39  40
ENDBRANCH  38  39
ENDBRANCH  37  38
ENDBRANCH  36  37
ENDBRANCH   1  36
TORSDOF 20
ENDMDL
MODEL 2
REMARK VINA RESULT:     -11.7      5.897     10.715
REMARK SMILES O=C(CCn1cc(/C=C2/[NH+]=C(S)N(c3ccccc3)C2=O)c(-c2ccc(Br)cc2)n1)OCCOCCOC(=O)c1ccc(-c2c3nc(c(-c4c(F)c(F)c(F)c(F)c4F)c4ccc([nH]4)c(-c4c(F)c(F)c(F)c(F)c4F)c4nc(c(-c5c(F)c(F)c(F)c(F)c5F)c5ccc2[nH]5)C=C4)C=C3)cc1
REMARK SMILES IDX 33 1 32 2 31 3 2 4 1 5 3 6 4 7 5 8 6 9 30 10 7 11 22 12 8 13
REMARK SMILES IDX 9 14 10 15 20 16 11 17 13 19 21 20 12 21 14 23 15 24 19 25
REMARK SMILES IDX 16 26 18 27 17 28 23 29 24 30 29 31 25 32 28 33 26 34 27 35
REMARK SMILES IDX 34 36 35 37 36 38 37 39 38 40 39 41 40 42 41 43 102 44 42 45
REMARK SMILES IDX 101 46 43 47 44 48 45 49 95 50 46 51 100 52 94 53 96 54
REMARK SMILES IDX 47 55 99 56 93 57 92 58 48 60 80 61 60 62 79 63 61 64 64 65
REMARK SMILES IDX 78 66 97 67 62 68 63 69 77 71 98 72 65 73 49 74 50 75 58 76
REMARK SMILES IDX 51 77 52 78 56 79 59 80 53 81 54 82 57 83 55 84 81 85 82 86
REMARK SMILES IDX 90 87 83 88 84 89 88 90 91 91 85 92 86 93 89 94 87 95 66 96
REMARK SMILES IDX 67 97 75 98 68 99 69 100 73 101 76 102 70 103 71 104 74 105
REMARK SMILES IDX 72 106
REMARK H PARENT 10 18 12 22 96 59 64 70
REMARK Flexibility Score: inf
ROOT
ATOM      1  C   UNL A   1      33.332  34.708  28.917  1.00  0.00     0.202 C 
ENDROOT
BRANCH   1   2
ATOM      2  C   UNL A   1      32.888  35.956  29.695  1.00  0.00     0.261 C 
BRANCH   2   3
ATOM      3  O   UNL A   1      33.092  35.991  31.112  1.00  0.00    -0.463 OA
BRANCH   3   4
ATOM      4  C   UNL A   1      33.307  37.133  31.794  1.00  0.00     0.307 C 
ATOM      5  O   UNL A   1      32.931  38.209  31.333  1.00  0.00    -0.252 OA
BRANCH   4   6
ATOM      6  C   UNL A   1      34.150  37.078  33.034  1.00  0.00     0.146 C 
BRANCH   6   7
ATOM      7  C   UNL A   1      34.019  35.765  33.785  1.00  0.00     0.156 C 
BRANCH   7   8
ATOM      8  N   UNL A   1      35.073  34.805  33.508  1.00  0.00    -0.271 N 
ATOM      9  C   UNL A   1      34.970  33.447  33.571  1.00  0.00     0.117 A 
ATOM     10  N   UNL A   1      36.267  35.225  33.049  1.00  0.00    -0.172 NA
ATOM     11  C   UNL A   1      36.135  32.955  33.028  1.00  0.00     0.025 A 
ATOM     12  C   UNL A   1      36.885  34.108  32.623  1.00  0.00     0.100 A 
BRANCH  11  13
ATOM     13  C   UNL A   1      36.388  31.574  32.780  1.00  0.00     0.072 C 
ATOM     14  C   UNL A   1      37.411  30.839  33.242  1.00  0.00     0.217 C 
ATOM     15  N   UNL A   1      37.782  29.634  32.709  1.00  0.00    -0.228 N 
ATOM     16  C   UNL A   1      38.422  31.247  34.261  1.00  0.00     0.386 C 
ATOM     17  C   UNL A   1      38.986  29.452  33.165  1.00  0.00     0.321 C 
ATOM     18  H   UNL A   1      37.260  29.044  32.118  1.00  0.00     0.313 HD
ATOM     19  N   UNL A   1      39.491  30.419  33.997  1.00  0.00    -0.149 N 
ATOM     20  O   UNL A   1      38.232  32.069  35.140  1.00  0.00    -0.236 OA
BRANCH  17  21
ATOM     21  S   UNL A   1      39.782  27.964  32.769  1.00  0.00    -0.055 SA
ATOM     22  H   UNL A   1      39.128  26.929  33.360  1.00  0.00     0.116 HD
ENDBRANCH  17  21
BRANCH  19  23
ATOM     23  C   UNL A   1      40.807  30.630  34.524  1.00  0.00     0.137 A 
ATOM     24  C   UNL A   1      41.233  30.084  35.745  1.00  0.00     0.052 A 
ATOM     25  C   UNL A   1      41.779  31.337  33.792  1.00  0.00     0.052 A 
ATOM     26  C   UNL A   1      42.523  30.309  36.250  1.00  0.00     0.004 A 
ATOM     27  C   UNL A   1      43.077  31.543  34.278  1.00  0.00     0.004 A 
ATOM     28  C   UNL A   1      43.443  31.047  35.519  1.00  0.00     0.000 A 
ENDBRANCH  19  23
ENDBRANCH  11  13
BRANCH  12  29
ATOM     29  C   UNL A   1      38.071  34.165  31.749  1.00  0.00     0.003 A 
ATOM     30  C   UNL A   1      39.360  34.061  32.304  1.00  0.00     0.011 A 
ATOM     31  C   UNL A   1      37.951  34.375  30.370  1.00  0.00     0.011 A 
ATOM     32  C   UNL A   1      40.502  34.253  31.519  1.00  0.00     0.016 A 
ATOM     33  C   UNL A   1      39.095  34.557  29.579  1.00  0.00     0.016 A 
ATOM     34  C   UNL A   1      40.360  34.516  30.161  1.00  0.00     0.018 A 
ATOM     35  Br  UNL A   1      41.899  34.845  29.112  1.00  0.00    -0.051 Br
ENDBRANCH  12  29
ENDBRANCH   7   8
ENDBRANCH   6   7
ENDBRANCH   4   6
ENDBRANCH   3   4
ENDBRANCH   2   3
ENDBRANCH   1   2
BRANCH   1  36
ATOM     36  O   UNL A   1      34.336  33.828  29.411  1.00  0.00    -0.374 OA
BRANCH  36  37
ATOM     37  C   UNL A   1      34.863  32.768  28.634  1.00  0.00     0.202 C 
BRANCH  37  38
ATOM     38  C   UNL A   1      35.576  31.689  29.420  1.00  0.00     0.261 C 
BRANCH  38  39
ATOM     39  O   UNL A   1      36.365  30.927  28.524  1.00  0.00    -0.460 OA
BRANCH  39  40
ATOM     40  C   UNL A   1      37.545  30.502  29.041  1.00  0.00     0.338 C 
ATOM     41  O   UNL A   1      38.219  31.040  29.887  1.00  0.00    -0.246 OA
BRANCH  40  42
ATOM     42  C   UNL A   1      37.930  29.262  28.318  1.00  0.00     0.060 A 
ATOM     43  C   UNL A   1      38.249  28.243  29.207  1.00  0.00     0.016 A 
ATOM     44  C   UNL A   1      38.616  29.447  27.110  1.00  0.00     0.016 A 
ATOM     45  C   UNL A   1      39.546  27.809  29.171  1.00  0.00     0.010 A 
ATOM     46  C   UNL A   1      39.921  29.043  27.086  1.00  0.00     0.010 A 
ATOM     47  C   UNL A   1      40.390  28.338  28.187  1.00  0.00    -0.014 A 
BRANCH  47  48
ATOM     48  C   UNL A   1      41.790  28.031  28.285  1.00  0.00     0.031 A 
ATOM     49  C   UNL A   1      42.095  26.777  27.582  1.00  0.00     0.074 A 
ATOM     50  C   UNL A   1      42.679  28.835  28.891  1.00  0.00     0.049 A 
ATOM     51  N   UNL A   1      42.317  25.623  28.113  1.00  0.00    -0.248 NA
ATOM     52  C   UNL A   1      41.855  26.749  26.131  1.00  0.00     0.031 C 
ATOM     53  C   UNL A   1      42.512  30.209  29.367  1.00  0.00     0.029 A 
ATOM     54  N   UNL A   1      43.990  28.581  29.129  1.00  0.00    -0.354 N 
ATOM     55  C   UNL A   1      42.462  24.762  27.036  1.00  0.00     0.074 A 
ATOM     56  C   UNL A   1      41.909  25.440  25.896  1.00  0.00     0.031 C 
ATOM     57  C   UNL A   1      43.734  30.737  29.624  1.00  0.00     0.029 A 
ATOM     58  C   UNL A   1      44.739  29.703  29.451  1.00  0.00     0.049 A 
ATOM     59  H   UNL A   1      44.377  27.678  29.077  1.00  0.00     0.167 HD
ATOM     60  C   UNL A   1      43.324  23.716  27.110  1.00  0.00     0.037 A 
ATOM     61  C   UNL A   1      46.096  29.746  29.442  1.00  0.00     0.037 A 
ATOM     62  C   UNL A   1      43.622  23.394  28.488  1.00  0.00     0.049 A 
ATOM     63  C   UNL A   1      46.581  28.337  29.519  1.00  0.00     0.074 A 
ATOM     64  C   UNL A   1      42.861  23.015  29.578  1.00  0.00     0.029 A 
ATOM     65  N   UNL A   1      44.820  23.827  29.004  1.00  0.00    -0.354 N 
ATOM     66  N   UNL A   1      46.436  27.579  30.572  1.00  0.00    -0.248 NA
ATOM     67  C   UNL A   1      46.776  27.622  28.263  1.00  0.00     0.031 C 
ATOM     68  C   UNL A   1      43.455  23.673  30.697  1.00  0.00     0.029 A 
ATOM     69  C   UNL A   1      44.575  24.368  30.241  1.00  0.00     0.049 A 
ATOM     70  H   UNL A   1      45.698  23.761  28.565  1.00  0.00     0.167 HD
ATOM     71  C   UNL A   1      46.099  26.328  30.069  1.00  0.00     0.074 A 
ATOM     72  C   UNL A   1      46.391  26.400  28.640  1.00  0.00     0.031 C 
ATOM     73  C   UNL A   1      45.340  25.458  30.798  1.00  0.00     0.037 A 
BRANCH  60  74
ATOM     74  C   UNL A   1      44.222  23.307  25.964  1.00  0.00     0.064 A 
ATOM     75  C   UNL A   1      44.235  21.952  25.586  1.00  0.00     0.173 A 
ATOM     76  C   UNL A   1      45.276  24.091  25.438  1.00  0.00     0.173 A 
ATOM     77  F   UNL A   1      43.280  21.114  26.016  1.00  0.00    -0.203 F 
ATOM     78  C   UNL A   1      45.285  21.404  24.846  1.00  0.00     0.198 A 
ATOM     79  C   UNL A   1      46.293  23.551  24.656  1.00  0.00     0.198 A 
ATOM     80  F   UNL A   1      45.446  25.383  25.730  1.00  0.00    -0.203 F 
ATOM     81  F   UNL A   1      45.327  20.082  24.637  1.00  0.00    -0.200 F 
ATOM     82  C   UNL A   1      46.319  22.201  24.395  1.00  0.00     0.200 A 
ATOM     83  F   UNL A   1      47.289  24.343  24.238  1.00  0.00    -0.200 F 
ATOM     84  F   UNL A   1      47.365  21.666  23.752  1.00  0.00    -0.200 F 
ENDBRANCH  60  74
BRANCH  61  85
ATOM     85  C   UNL A   1      46.960  30.861  28.987  1.00  0.00     0.064 A 
ATOM     86  C   UNL A   1      46.903  31.328  27.664  1.00  0.00     0.173 A 
ATOM     87  C   UNL A   1      47.657  31.673  29.905  1.00  0.00     0.173 A 
ATOM     88  F   UNL A   1      46.216  30.644  26.737  1.00  0.00    -0.203 F 
ATOM     89  C   UNL A   1      47.494  32.541  27.286  1.00  0.00     0.198 A 
ATOM     90  C   UNL A   1      48.251  32.877  29.527  1.00  0.00     0.198 A 
ATOM     91  F   UNL A   1      47.694  31.364  31.209  1.00  0.00    -0.203 F 
ATOM     92  F   UNL A   1      47.369  32.983  26.028  1.00  0.00    -0.200 F 
ATOM     93  C   UNL A   1      48.159  33.318  28.221  1.00  0.00     0.200 A 
ATOM     94  F   UNL A   1      48.857  33.638  30.451  1.00  0.00    -0.200 F 
ATOM     95  F   UNL A   1      48.673  34.506  27.875  1.00  0.00    -0.200 F 
ENDBRANCH  61  85
BRANCH  73  96
ATOM     96  C   UNL A   1      45.096  25.788  32.243  1.00  0.00     0.064 A 
ATOM     97  C   UNL A   1      43.996  26.533  32.702  1.00  0.00     0.173 A 
ATOM     98  C   UNL A   1      45.928  25.207  33.208  1.00  0.00     0.173 A 
ATOM     99  F   UNL A   1      43.097  27.033  31.843  1.00  0.00    -0.203 F 
ATOM    100  C   UNL A   1      43.769  26.724  34.065  1.00  0.00     0.198 A 
ATOM    101  C   UNL A   1      45.680  25.367  34.568  1.00  0.00     0.198 A 
ATOM    102  F   UNL A   1      46.961  24.438  32.828  1.00  0.00    -0.203 F 
ATOM    103  F   UNL A   1      42.720  27.449  34.478  1.00  0.00    -0.200 F 
ATOM    104  C   UNL A   1      44.608  26.134  34.996  1.00  0.00     0.200 A 
ATOM    105  F   UNL A   1      46.464  24.754  35.464  1.00  0.00    -0.200 F 
ATOM    106  F   UNL A   1      44.368  26.281  36.307  1.00  0.00    -0.200 F 
ENDBRANCH  73  96
ENDBRANCH  47  48
ENDBRANCH  40  42
ENDBRANCH  39  40
ENDBRANCH  38  39
ENDBRANCH  37  38
ENDBRANCH  36  37
ENDBRANCH   1  36
TORSDOF 20
ENDMDL
MODEL 3
REMARK VINA RESULT:     -10.9      6.359     11.869
REMARK SMILES O=C(CCn1cc(/C=C2/[NH+]=C(S)N(c3ccccc3)C2=O)c(-c2ccc(Br)cc2)n1)OCCOCCOC(=O)c1ccc(-c2c3nc(c(-c4c(F)c(F)c(F)c(F)c4F)c4ccc([nH]4)c(-c4c(F)c(F)c(F)c(F)c4F)c4nc(c(-c5c(F)c(F)c(F)c(F)c5F)c5ccc2[nH]5)C=C4)C=C3)cc1
REMARK SMILES IDX 33 1 32 2 31 3 2 4 1 5 3 6 4 7 5 8 6 9 30 10 7 11 22 12 8 13
REMARK SMILES IDX 9 14 10 15 20 16 11 17 13 19 21 20 12 21 14 23 15 24 19 25
REMARK SMILES IDX 16 26 18 27 17 28 23 29 24 30 29 31 25 32 28 33 26 34 27 35
REMARK SMILES IDX 34 36 35 37 36 38 37 39 38 40 39 41 40 42 41 43 102 44 42 45
REMARK SMILES IDX 101 46 43 47 44 48 45 49 95 50 46 51 100 52 94 53 96 54
REMARK SMILES IDX 47 55 99 56 93 57 92 58 48 60 80 61 60 62 79 63 61 64 64 65
REMARK SMILES IDX 78 66 97 67 62 68 63 69 77 71 98 72 65 73 49 74 50 75 58 76
REMARK SMILES IDX 51 77 52 78 56 79 59 80 53 81 54 82 57 83 55 84 81 85 82 86
REMARK SMILES IDX 90 87 83 88 84 89 88 90 91 91 85 92 86 93 89 94 87 95 66 96
REMARK SMILES IDX 67 97 75 98 68 99 69 100 73 101 76 102 70 103 71 104 74 105
REMARK SMILES IDX 72 106
REMARK H PARENT 10 18 12 22 96 59 64 70
REMARK Flexibility Score: inf
ROOT
ATOM      1  C   UNL A   1      41.098  19.751  26.481  1.00  0.00     0.202 C 
ENDROOT
BRANCH   1   2
ATOM      2  C   UNL A   1      42.548  20.207  26.258  1.00  0.00     0.261 C 
BRANCH   2   3
ATOM      3  O   UNL A   1      43.180  19.901  25.010  1.00  0.00    -0.463 OA
BRANCH   3   4
ATOM      4  C   UNL A   1      44.396  19.325  24.926  1.00  0.00     0.307 C 
ATOM      5  O   UNL A   1      44.525  18.119  25.123  1.00  0.00    -0.252 OA
BRANCH   4   6
ATOM      6  C   UNL A   1      45.595  20.210  24.752  1.00  0.00     0.146 C 
BRANCH   6   7
ATOM      7  C   UNL A   1      45.274  21.516  24.048  1.00  0.00     0.156 C 
BRANCH   7   8
ATOM      8  N   UNL A   1      45.631  22.708  24.799  1.00  0.00    -0.271 N 
ATOM      9  C   UNL A   1      45.341  22.959  26.107  1.00  0.00     0.117 A 
ATOM     10  N   UNL A   1      46.406  23.654  24.237  1.00  0.00    -0.172 NA
ATOM     11  C   UNL A   1      46.051  24.090  26.440  1.00  0.00     0.025 A 
ATOM     12  C   UNL A   1      46.785  24.442  25.260  1.00  0.00     0.100 A 
BRANCH  11  13
ATOM     13  C   UNL A   1      46.136  24.630  27.757  1.00  0.00     0.072 C 
ATOM     14  C   UNL A   1      45.797  25.866  28.153  1.00  0.00     0.217 C 
ATOM     15  N   UNL A   1      46.210  26.425  29.332  1.00  0.00    -0.228 N 
ATOM     16  C   UNL A   1      45.092  26.905  27.347  1.00  0.00     0.386 C 
ATOM     17  C   UNL A   1      45.999  27.697  29.162  1.00  0.00     0.321 C 
ATOM     18  H   UNL A   1      46.580  25.972  30.124  1.00  0.00     0.313 HD
ATOM     19  N   UNL A   1      45.450  28.084  27.966  1.00  0.00    -0.149 N 
ATOM     20  O   UNL A   1      44.327  26.672  26.428  1.00  0.00    -0.236 OA
BRANCH  17  21
ATOM     21  S   UNL A   1      46.328  28.755  30.495  1.00  0.00    -0.055 SA
ATOM     22  H   UNL A   1      47.373  29.565  30.183  1.00  0.00     0.116 HD
ENDBRANCH  17  21
BRANCH  19  23
ATOM     23  C   UNL A   1      45.254  29.378  27.381  1.00  0.00     0.137 A 
ATOM     24  C   UNL A   1      46.269  30.062  26.692  1.00  0.00     0.052 A 
ATOM     25  C   UNL A   1      43.992  30.000  27.397  1.00  0.00     0.052 A 
ATOM     26  C   UNL A   1      46.061  31.332  26.134  1.00  0.00     0.004 A 
ATOM     27  C   UNL A   1      43.771  31.257  26.819  1.00  0.00     0.004 A 
ATOM     28  C   UNL A   1      44.813  31.933  26.206  1.00  0.00     0.000 A 
ENDBRANCH  19  23
ENDBRANCH  11  13
BRANCH  12  29
ATOM     29  C   UNL A   1      47.902  25.395  25.130  1.00  0.00     0.003 A 
ATOM     30  C   UNL A   1      47.989  26.229  23.999  1.00  0.00     0.011 A 
ATOM     31  C   UNL A   1      48.922  25.459  26.087  1.00  0.00     0.011 A 
ATOM     32  C   UNL A   1      49.108  27.039  23.783  1.00  0.00     0.016 A 
ATOM     33  C   UNL A   1      50.041  26.278  25.878  1.00  0.00     0.016 A 
ATOM     34  C   UNL A   1      50.137  27.046  24.718  1.00  0.00     0.018 A 
ATOM     35  Br  UNL A   1      51.682  28.086  24.394  1.00  0.00    -0.051 Br
ENDBRANCH  12  29
ENDBRANCH   7   8
ENDBRANCH   6   7
ENDBRANCH   4   6
ENDBRANCH   3   4
ENDBRANCH   2   3
ENDBRANCH   1   2
BRANCH   1  36
ATOM     36  O   UNL A   1      40.054  20.673  26.775  1.00  0.00    -0.374 OA
BRANCH  36  37
ATOM     37  C   UNL A   1      40.047  21.996  26.270  1.00  0.00     0.202 C 
BRANCH  37  38
ATOM     38  C   UNL A   1      40.328  23.075  27.293  1.00  0.00     0.261 C 
BRANCH  38  39
ATOM     39  O   UNL A   1      40.478  24.310  26.615  1.00  0.00    -0.460 OA
BRANCH  39  40
ATOM     40  C   UNL A   1      41.053  25.288  27.357  1.00  0.00     0.338 C 
ATOM     41  O   UNL A   1      42.110  25.249  27.942  1.00  0.00    -0.246 OA
BRANCH  40  42
ATOM     42  C   UNL A   1      40.106  26.432  27.402  1.00  0.00     0.060 A 
ATOM     43  C   UNL A   1      40.748  27.626  27.095  1.00  0.00     0.016 A 
ATOM     44  C   UNL A   1      39.094  26.351  28.369  1.00  0.00     0.016 A 
ATOM     45  C   UNL A   1      40.791  28.552  28.101  1.00  0.00     0.010 A 
ATOM     46  C   UNL A   1      39.158  27.255  29.391  1.00  0.00     0.010 A 
ATOM     47  C   UNL A   1      40.103  28.268  29.287  1.00  0.00    -0.014 A 
BRANCH  47  48
ATOM     48  C   UNL A   1      40.322  29.147  30.403  1.00  0.00     0.031 A 
ATOM     49  C   UNL A   1      39.198  30.081  30.552  1.00  0.00     0.074 A 
ATOM     50  C   UNL A   1      41.390  29.057  31.212  1.00  0.00     0.049 A 
ATOM     51  N   UNL A   1      39.173  31.327  30.219  1.00  0.00    -0.248 NA
ATOM     52  C   UNL A   1      37.880  29.499  30.848  1.00  0.00     0.031 C 
ATOM     53  C   UNL A   1      42.399  28.001  31.300  1.00  0.00     0.029 A 
ATOM     54  N   UNL A   1      41.736  29.903  32.214  1.00  0.00    -0.354 N 
ATOM     55  C   UNL A   1      37.873  31.735  30.477  1.00  0.00     0.074 A 
ATOM     56  C   UNL A   1      37.087  30.538  30.593  1.00  0.00     0.031 C 
ATOM     57  C   UNL A   1      43.102  28.160  32.448  1.00  0.00     0.029 A 
ATOM     58  C   UNL A   1      42.676  29.389  33.096  1.00  0.00     0.049 A 
ATOM     59  H   UNL A   1      41.353  30.805  32.309  1.00  0.00     0.167 HD
ATOM     60  C   UNL A   1      37.627  32.999  30.905  1.00  0.00     0.037 A 
ATOM     61  C   UNL A   1      42.954  29.919  34.314  1.00  0.00     0.037 A 
ATOM     62  C   UNL A   1      38.733  33.874  30.582  1.00  0.00     0.049 A 
ATOM     63  C   UNL A   1      42.470  31.330  34.300  1.00  0.00     0.074 A 
ATOM     64  C   UNL A   1      39.356  34.251  29.408  1.00  0.00     0.029 A 
ATOM     65  N   UNL A   1      39.613  34.193  31.588  1.00  0.00    -0.354 N 
ATOM     66  N   UNL A   1      43.007  32.272  33.572  1.00  0.00    -0.248 NA
ATOM     67  C   UNL A   1      41.091  31.574  34.709  1.00  0.00     0.031 C 
ATOM     68  C   UNL A   1      40.743  34.339  29.730  1.00  0.00     0.029 A 
ATOM     69  C   UNL A   1      40.885  34.067  31.091  1.00  0.00     0.049 A 
ATOM     70  H   UNL A   1      39.374  34.464  32.504  1.00  0.00     0.167 HD
ATOM     71  C   UNL A   1      41.932  33.004  33.083  1.00  0.00     0.074 A 
ATOM     72  C   UNL A   1      40.783  32.569  33.871  1.00  0.00     0.031 C 
ATOM     73  C   UNL A   1      42.017  33.669  31.893  1.00  0.00     0.037 A 
BRANCH  60  74
ATOM     74  C   UNL A   1      36.622  33.320  31.988  1.00  0.00     0.064 A 
ATOM     75  C   UNL A   1      35.568  34.196  31.672  1.00  0.00     0.173 A 
ATOM     76  C   UNL A   1      36.808  33.071  33.369  1.00  0.00     0.173 A 
ATOM     77  F   UNL A   1      35.291  34.500  30.396  1.00  0.00    -0.203 F 
ATOM     78  C   UNL A   1      34.843  34.863  32.663  1.00  0.00     0.198 A 
ATOM     79  C   UNL A   1      36.048  33.698  34.351  1.00  0.00     0.198 A 
ATOM     80  F   UNL A   1      37.789  32.303  33.851  1.00  0.00    -0.203 F 
ATOM     81  F   UNL A   1      33.950  35.797  32.313  1.00  0.00    -0.200 F 
ATOM     82  C   UNL A   1      35.094  34.624  34.000  1.00  0.00     0.200 A 
ATOM     83  F   UNL A   1      36.316  33.456  35.642  1.00  0.00    -0.200 F 
ATOM     84  F   UNL A   1      34.455  35.318  34.950  1.00  0.00    -0.200 F 
ENDBRANCH  60  74
BRANCH  61  85
ATOM     85  C   UNL A   1      43.239  29.188  35.572  1.00  0.00     0.064 A 
ATOM     86  C   UNL A   1      42.437  28.110  35.981  1.00  0.00     0.173 A 
ATOM     87  C   UNL A   1      44.461  29.350  36.256  1.00  0.00     0.173 A 
ATOM     88  F   UNL A   1      41.283  27.852  35.349  1.00  0.00    -0.203 F 
ATOM     89  C   UNL A   1      42.841  27.240  37.001  1.00  0.00     0.198 A 
ATOM     90  C   UNL A   1      44.860  28.487  37.276  1.00  0.00     0.198 A 
ATOM     91  F   UNL A   1      45.339  30.293  35.883  1.00  0.00    -0.203 F 
ATOM     92  F   UNL A   1      42.077  26.188  37.324  1.00  0.00    -0.200 F 
ATOM     93  C   UNL A   1      44.057  27.424  37.640  1.00  0.00     0.200 A 
ATOM     94  F   UNL A   1      46.056  28.654  37.858  1.00  0.00    -0.200 F 
ATOM     95  F   UNL A   1      44.471  26.558  38.575  1.00  0.00    -0.200 F 
ENDBRANCH  61  85
BRANCH  73  96
ATOM     96  C   UNL A   1      43.374  33.792  31.259  1.00  0.00     0.064 A 
ATOM     97  C   UNL A   1      44.015  32.749  30.569  1.00  0.00     0.173 A 
ATOM     98  C   UNL A   1      43.980  35.054  31.227  1.00  0.00     0.173 A 
ATOM     99  F   UNL A   1      43.446  31.540  30.468  1.00  0.00    -0.203 F 
ATOM    100  C   UNL A   1      45.231  32.953  29.917  1.00  0.00     0.198 A 
ATOM    101  C   UNL A   1      45.175  35.265  30.544  1.00  0.00     0.198 A 
ATOM    102  F   UNL A   1      43.384  36.100  31.821  1.00  0.00    -0.203 F 
ATOM    103  F   UNL A   1      45.830  31.939  29.276  1.00  0.00    -0.200 F 
ATOM    104  C   UNL A   1      45.805  34.213  29.900  1.00  0.00     0.200 A 
ATOM    105  F   UNL A   1      45.701  36.496  30.489  1.00  0.00    -0.200 F 
ATOM    106  F   UNL A   1      46.953  34.421  29.239  1.00  0.00    -0.200 F 
ENDBRANCH  73  96
ENDBRANCH  47  48
ENDBRANCH  40  42
ENDBRANCH  39  40
ENDBRANCH  38  39
ENDBRANCH  37  38
ENDBRANCH  36  37
ENDBRANCH   1  36
TORSDOF 20
ENDMDL
