MODEL 1
REMARK VINA RESULT:     -11.4      0.000      0.000
REMARK SMILES CCOc1ccc(-c2cnc(N)cc2C(=O)OCCOCCOC(=O)c2ccc(-c3c4nc(c(-c5c(F)c(F)c(F)c(F)c5F)c5ccc([nH]5)c(-c5c(F)c(F)c(F)c(F)c5F)c5nc(c(-c6c(F)c(F)c(F)c(F)c6F)c6ccc3[nH]6)C=C5)C=C4)cc2)c(Cl)c1
REMARK SMILES IDX 19 1 18 2 17 3 15 4 16 5 14 6 8 7 9 8 10 9 13 10 11 11 7 12
REMARK SMILES IDX 4 13 5 14 91 15 6 16 89 17 90 18 3 19 2 20 1 21 12 22 20 25
REMARK SMILES IDX 21 26 22 27 23 28 24 29 25 30 26 31 27 32 88 33 28 34 87 35
REMARK SMILES IDX 29 36 30 37 31 38 81 39 32 40 86 41 80 42 82 43 33 44 85 45
REMARK SMILES IDX 79 46 78 47 34 49 66 50 46 51 65 52 47 53 50 54 64 55 83 56
REMARK SMILES IDX 48 57 49 58 63 60 84 61 51 62 35 63 36 64 44 65 37 66 38 67
REMARK SMILES IDX 42 68 45 69 39 70 40 71 43 72 41 73 67 74 68 75 76 76 69 77
REMARK SMILES IDX 70 78 74 79 77 80 71 81 72 82 75 83 73 84 52 85 53 86 61 87
REMARK SMILES IDX 54 88 55 89 59 90 62 91 56 92 57 93 60 94 58 95
REMARK H PARENT 12 23 12 24 82 48 50 59
REMARK Flexibility Score: inf
ROOT
ATOM      1  C   UNL A   1      33.582  30.772  27.462  1.00  0.00     0.202 C 
ENDROOT
BRANCH   1   2
ATOM      2  C   UNL A   1      34.160  29.383  27.189  1.00  0.00     0.261 C 
BRANCH   2   3
ATOM      3  O   UNL A   1      33.590  28.816  25.995  1.00  0.00    -0.460 OA
BRANCH   3   4
ATOM      4  C   UNL A   1      32.818  27.715  26.185  1.00  0.00     0.339 C 
ATOM      5  O   UNL A   1      31.908  27.601  26.986  1.00  0.00    -0.246 OA
BRANCH   4   6
ATOM      6  C   UNL A   1      33.208  26.664  25.214  1.00  0.00     0.073 A 
ATOM      7  C   UNL A   1      32.489  26.462  24.022  1.00  0.00     0.016 A 
ATOM      8  C   UNL A   1      32.892  25.375  23.255  1.00  0.00     0.123 A 
ATOM      9  N   UNL A   1      33.906  24.536  23.578  1.00  0.00    -0.239 NA
ATOM     10  C   UNL A   1      34.280  25.829  25.548  1.00  0.00     0.062 A 
ATOM     11  C   UNL A   1      34.590  24.780  24.705  1.00  0.00     0.124 A 
BRANCH   7  12
ATOM     12  C   UNL A   1      31.360  27.296  23.581  1.00  0.00     0.003 A 
ATOM     13  C   UNL A   1      29.267  28.863  22.508  1.00  0.00     0.120 A 
ATOM     14  C   UNL A   1      30.594  29.207  22.277  1.00  0.00     0.047 A 
ATOM     15  C   UNL A   1      28.976  27.794  23.351  1.00  0.00     0.067 A 
ATOM     16  C   UNL A   1      31.626  28.426  22.794  1.00  0.00     0.014 A 
ATOM     17  C   UNL A   1      30.015  27.036  23.907  1.00  0.00     0.052 A 
ATOM     18  Cl  UNL A   1      29.582  25.810  25.050  1.00  0.00    -0.084 Cl
BRANCH  13  19
ATOM     19  O   UNL A   1      28.211  29.595  22.046  1.00  0.00    -0.494 OA
BRANCH  19  20
ATOM     20  C   UNL A   1      28.284  31.005  22.298  1.00  0.00     0.226 C 
ATOM     21  C   UNL A   1      27.868  31.357  23.718  1.00  0.00     0.049 C 
ENDBRANCH  19  20
ENDBRANCH  13  19
ENDBRANCH   7  12
BRANCH  11  22
ATOM     22  N   UNL A   1      35.572  23.871  25.034  1.00  0.00    -0.384 N 
ATOM     23  H   UNL A   1      35.689  23.056  24.494  1.00  0.00     0.158 HD
ATOM     24  H   UNL A   1      36.156  24.036  25.809  1.00  0.00     0.158 HD
ENDBRANCH  11  22
ENDBRANCH   4   6
ENDBRANCH   3   4
ENDBRANCH   2   3
ENDBRANCH   1   2
BRANCH   1  25
ATOM     25  O   UNL A   1      32.267  31.049  26.979  1.00  0.00    -0.374 OA
BRANCH  25  26
ATOM     26  C   UNL A   1      31.836  32.405  26.969  1.00  0.00     0.202 C 
BRANCH  26  27
ATOM     27  C   UNL A   1      32.827  33.494  27.409  1.00  0.00     0.261 C 
BRANCH  27  28
ATOM     28  O   UNL A   1      32.287  34.424  28.350  1.00  0.00    -0.460 OA
BRANCH  28  29
ATOM     29  C   UNL A   1      33.195  35.306  28.828  1.00  0.00     0.338 C 
ATOM     30  O   UNL A   1      33.074  36.513  28.965  1.00  0.00    -0.246 OA
BRANCH  29  31
ATOM     31  C   UNL A   1      34.345  34.551  29.342  1.00  0.00     0.060 A 
ATOM     32  C   UNL A   1      34.133  33.715  30.444  1.00  0.00     0.016 A 
ATOM     33  C   UNL A   1      35.606  34.668  28.754  1.00  0.00     0.016 A 
ATOM     34  C   UNL A   1      35.198  33.005  30.984  1.00  0.00     0.010 A 
ATOM     35  C   UNL A   1      36.676  33.962  29.305  1.00  0.00     0.010 A 
ATOM     36  C   UNL A   1      36.478  33.150  30.436  1.00  0.00    -0.014 A 
BRANCH  36  37
ATOM     37  C   UNL A   1      37.637  32.539  31.119  1.00  0.00     0.031 A 
ATOM     38  C   UNL A   1      38.367  31.415  30.447  1.00  0.00     0.074 A 
ATOM     39  C   UNL A   1      38.026  32.991  32.323  1.00  0.00     0.049 A 
ATOM     40  N   UNL A   1      39.370  30.698  30.882  1.00  0.00    -0.248 NA
ATOM     41  C   UNL A   1      37.895  31.044  29.104  1.00  0.00     0.031 C 
ATOM     42  C   UNL A   1      37.398  34.091  33.052  1.00  0.00     0.029 A 
ATOM     43  N   UNL A   1      39.033  32.566  33.150  1.00  0.00    -0.354 N 
ATOM     44  C   UNL A   1      39.642  29.785  29.872  1.00  0.00     0.074 A 
ATOM     45  C   UNL A   1      38.677  30.015  28.819  1.00  0.00     0.031 C 
ATOM     46  C   UNL A   1      38.023  34.242  34.231  1.00  0.00     0.029 A 
ATOM     47  C   UNL A   1      39.066  33.225  34.352  1.00  0.00     0.049 A 
ATOM     48  H   UNL A   1      39.670  31.856  32.906  1.00  0.00     0.167 HD
ATOM     49  C   UNL A   1      40.615  28.845  29.831  1.00  0.00     0.037 A 
ATOM     50  C   UNL A   1      39.831  33.007  35.439  1.00  0.00     0.037 A 
ATOM     51  C   UNL A   1      41.563  28.626  30.892  1.00  0.00     0.049 A 
ATOM     52  C   UNL A   1      40.868  31.917  35.396  1.00  0.00     0.074 A 
ATOM     53  C   UNL A   1      42.617  27.731  30.940  1.00  0.00     0.029 A 
ATOM     54  N   UNL A   1      41.559  29.303  32.106  1.00  0.00    -0.354 N 
ATOM     55  N   UNL A   1      41.155  31.087  34.421  1.00  0.00    -0.248 NA
ATOM     56  C   UNL A   1      41.689  31.735  36.599  1.00  0.00     0.031 C 
ATOM     57  C   UNL A   1      43.203  27.814  32.206  1.00  0.00     0.029 A 
ATOM     58  C   UNL A   1      42.564  28.812  32.925  1.00  0.00     0.049 A 
ATOM     59  H   UNL A   1      40.934  30.024  32.348  1.00  0.00     0.167 HD
ATOM     60  C   UNL A   1      42.199  30.297  34.885  1.00  0.00     0.074 A 
ATOM     61  C   UNL A   1      42.508  30.762  36.222  1.00  0.00     0.031 C 
ATOM     62  C   UNL A   1      42.846  29.281  34.261  1.00  0.00     0.037 A 
BRANCH  49  63
ATOM     63  C   UNL A   1      40.669  27.957  28.621  1.00  0.00     0.064 A 
ATOM     64  C   UNL A   1      41.420  28.291  27.484  1.00  0.00     0.173 A 
ATOM     65  C   UNL A   1      39.959  26.746  28.602  1.00  0.00     0.173 A 
ATOM     66  F   UNL A   1      42.107  29.442  27.443  1.00  0.00    -0.203 F 
ATOM     67  C   UNL A   1      41.426  27.467  26.360  1.00  0.00     0.198 A 
ATOM     68  C   UNL A   1      39.996  25.908  27.491  1.00  0.00     0.198 A 
ATOM     69  F   UNL A   1      39.226  26.374  29.663  1.00  0.00    -0.203 F 
ATOM     70  F   UNL A   1      42.099  27.839  25.262  1.00  0.00    -0.200 F 
ATOM     71  C   UNL A   1      40.719  26.274  26.367  1.00  0.00     0.200 A 
ATOM     72  F   UNL A   1      39.323  24.749  27.505  1.00  0.00    -0.200 F 
ATOM     73  F   UNL A   1      40.725  25.483  25.285  1.00  0.00    -0.200 F 
ENDBRANCH  49  63
BRANCH  50  74
ATOM     74  C   UNL A   1      39.617  33.826  36.661  1.00  0.00     0.064 A 
ATOM     75  C   UNL A   1      40.192  35.096  36.797  1.00  0.00     0.173 A 
ATOM     76  C   UNL A   1      38.811  33.358  37.711  1.00  0.00     0.173 A 
ATOM     77  F   UNL A   1      40.987  35.578  35.831  1.00  0.00    -0.203 F 
ATOM     78  C   UNL A   1      39.978  35.862  37.941  1.00  0.00     0.198 A 
ATOM     79  C   UNL A   1      38.572  34.138  38.839  1.00  0.00     0.198 A 
ATOM     80  F   UNL A   1      38.234  32.150  37.628  1.00  0.00    -0.203 F 
ATOM     81  F   UNL A   1      40.570  37.058  38.063  1.00  0.00    -0.200 F 
ATOM     82  C   UNL A   1      39.161  35.387  38.956  1.00  0.00     0.200 A 
ATOM     83  F   UNL A   1      37.767  33.682  39.808  1.00  0.00    -0.200 F 
ATOM     84  F   UNL A   1      38.944  36.132  40.049  1.00  0.00    -0.200 F 
ENDBRANCH  50  74
BRANCH  62  85
ATOM     85  C   UNL A   1      43.964  28.611  35.011  1.00  0.00     0.064 A 
ATOM     86  C   UNL A   1      45.290  29.056  34.908  1.00  0.00     0.173 A 
ATOM     87  C   UNL A   1      43.696  27.542  35.879  1.00  0.00     0.173 A 
ATOM     88  F   UNL A   1      45.603  30.065  34.082  1.00  0.00    -0.203 F 
ATOM     89  C   UNL A   1      46.310  28.439  35.628  1.00  0.00     0.198 A 
ATOM     90  C   UNL A   1      44.712  26.951  36.624  1.00  0.00     0.198 A 
ATOM     91  F   UNL A   1      42.444  27.082  36.021  1.00  0.00    -0.203 F 
ATOM     92  F   UNL A   1      47.578  28.847  35.476  1.00  0.00    -0.200 F 
ATOM     93  C   UNL A   1      46.018  27.393  36.491  1.00  0.00     0.200 A 
ATOM     94  F   UNL A   1      44.426  25.953  37.471  1.00  0.00    -0.200 F 
ATOM     95  F   UNL A   1      47.000  26.808  37.193  1.00  0.00    -0.200 F 
ENDBRANCH  62  85
ENDBRANCH  36  37
ENDBRANCH  29  31
ENDBRANCH  28  29
ENDBRANCH  27  28
ENDBRANCH  26  27
ENDBRANCH  25  26
ENDBRANCH   1  25
TORSDOF 18
ENDMDL
MODEL 2
REMARK VINA RESULT:     -11.4      0.710      7.267
REMARK SMILES CCOc1ccc(-c2cnc(N)cc2C(=O)OCCOCCOC(=O)c2ccc(-c3c4nc(c(-c5c(F)c(F)c(F)c(F)c5F)c5ccc([nH]5)c(-c5c(F)c(F)c(F)c(F)c5F)c5nc(c(-c6c(F)c(F)c(F)c(F)c6F)c6ccc3[nH]6)C=C5)C=C4)cc2)c(Cl)c1
REMARK SMILES IDX 19 1 18 2 17 3 15 4 16 5 14 6 8 7 9 8 10 9 13 10 11 11 7 12
REMARK SMILES IDX 4 13 5 14 91 15 6 16 89 17 90 18 3 19 2 20 1 21 12 22 20 25
REMARK SMILES IDX 21 26 22 27 23 28 24 29 25 30 26 31 27 32 88 33 28 34 87 35
REMARK SMILES IDX 29 36 30 37 31 38 81 39 32 40 86 41 80 42 82 43 33 44 85 45
REMARK SMILES IDX 79 46 78 47 34 49 66 50 46 51 65 52 47 53 50 54 64 55 83 56
REMARK SMILES IDX 48 57 49 58 63 60 84 61 51 62 35 63 36 64 44 65 37 66 38 67
REMARK SMILES IDX 42 68 45 69 39 70 40 71 43 72 41 73 67 74 68 75 76 76 69 77
REMARK SMILES IDX 70 78 74 79 77 80 71 81 72 82 75 83 73 84 52 85 53 86 61 87
REMARK SMILES IDX 54 88 55 89 59 90 62 91 56 92 57 93 60 94 58 95
REMARK H PARENT 12 23 12 24 82 48 50 59
REMARK Flexibility Score: inf
ROOT
ATOM      1  C   UNL A   1      33.447  30.780  27.303  1.00  0.00     0.202 C 
ENDROOT
BRANCH   1   2
ATOM      2  C   UNL A   1      34.119  29.427  27.067  1.00  0.00     0.261 C 
BRANCH   2   3
ATOM      3  O   UNL A   1      33.566  28.774  25.909  1.00  0.00    -0.460 OA
BRANCH   3   4
ATOM      4  C   UNL A   1      32.882  27.628  26.158  1.00  0.00     0.339 C 
ATOM      5  O   UNL A   1      32.042  27.462  27.024  1.00  0.00    -0.246 OA
BRANCH   4   6
ATOM      6  C   UNL A   1      33.265  26.597  25.163  1.00  0.00     0.073 A 
ATOM      7  C   UNL A   1      32.541  26.424  23.970  1.00  0.00     0.016 A 
ATOM      8  C   UNL A   1      32.938  25.352  23.178  1.00  0.00     0.123 A 
ATOM      9  N   UNL A   1      33.950  24.504  23.479  1.00  0.00    -0.239 NA
ATOM     10  C   UNL A   1      34.336  25.752  25.475  1.00  0.00     0.062 A 
ATOM     11  C   UNL A   1      34.640  24.720  24.608  1.00  0.00     0.124 A 
BRANCH   7  12
ATOM     12  C   UNL A   1      31.413  27.271  23.551  1.00  0.00     0.003 A 
ATOM     13  C   UNL A   1      29.316  28.859  22.519  1.00  0.00     0.120 A 
ATOM     14  C   UNL A   1      30.640  29.181  22.249  1.00  0.00     0.047 A 
ATOM     15  C   UNL A   1      29.031  27.802  23.380  1.00  0.00     0.067 A 
ATOM     16  C   UNL A   1      31.675  28.389  22.746  1.00  0.00     0.014 A 
ATOM     17  C   UNL A   1      30.073  27.034  23.916  1.00  0.00     0.052 A 
ATOM     18  Cl  UNL A   1      29.653  25.826  25.083  1.00  0.00    -0.084 Cl
BRANCH  13  19
ATOM     19  O   UNL A   1      28.259  29.603  22.079  1.00  0.00    -0.494 OA
BRANCH  19  20
ATOM     20  C   UNL A   1      28.343  31.009  22.345  1.00  0.00     0.226 C 
ATOM     21  C   UNL A   1      27.655  31.390  23.647  1.00  0.00     0.049 C 
ENDBRANCH  19  20
ENDBRANCH  13  19
ENDBRANCH   7  12
BRANCH  11  22
ATOM     22  N   UNL A   1      35.619  23.802  24.914  1.00  0.00    -0.384 N 
ATOM     23  H   UNL A   1      35.614  22.916  24.485  1.00  0.00     0.158 HD
ATOM     24  H   UNL A   1      36.325  24.032  25.561  1.00  0.00     0.158 HD
ENDBRANCH  11  22
ENDBRANCH   4   6
ENDBRANCH   3   4
ENDBRANCH   2   3
ENDBRANCH   1   2
BRANCH   1  25
ATOM     25  O   UNL A   1      32.085  30.922  26.901  1.00  0.00    -0.374 OA
BRANCH  25  26
ATOM     26  C   UNL A   1      31.527  32.232  26.896  1.00  0.00     0.202 C 
BRANCH  26  27
ATOM     27  C   UNL A   1      32.468  33.431  27.095  1.00  0.00     0.261 C 
BRANCH  27  28
ATOM     28  O   UNL A   1      32.315  34.085  28.356  1.00  0.00    -0.460 OA
BRANCH  28  29
ATOM     29  C   UNL A   1      33.344  34.904  28.674  1.00  0.00     0.338 C 
ATOM     30  O   UNL A   1      33.347  36.123  28.733  1.00  0.00    -0.246 OA
BRANCH  29  31
ATOM     31  C   UNL A   1      34.470  34.075  29.124  1.00  0.00     0.060 A 
ATOM     32  C   UNL A   1      34.198  33.050  30.036  1.00  0.00     0.016 A 
ATOM     33  C   UNL A   1      35.767  34.306  28.661  1.00  0.00     0.016 A 
ATOM     34  C   UNL A   1      35.235  32.260  30.514  1.00  0.00     0.010 A 
ATOM     35  C   UNL A   1      36.809  33.519  29.150  1.00  0.00     0.010 A 
ATOM     36  C   UNL A   1      36.548  32.511  30.096  1.00  0.00    -0.014 A 
BRANCH  36  37
ATOM     37  C   UNL A   1      37.668  31.793  30.739  1.00  0.00     0.031 A 
ATOM     38  C   UNL A   1      38.083  32.188  32.125  1.00  0.00     0.074 A 
ATOM     39  C   UNL A   1      38.298  30.802  30.087  1.00  0.00     0.049 A 
ATOM     40  N   UNL A   1      39.067  31.737  32.857  1.00  0.00    -0.248 NA
ATOM     41  C   UNL A   1      37.284  33.242  32.768  1.00  0.00     0.031 C 
ATOM     42  C   UNL A   1      37.959  30.328  28.748  1.00  0.00     0.029 A 
ATOM     43  N   UNL A   1      39.367  30.029  30.461  1.00  0.00    -0.354 N 
ATOM     44  C   UNL A   1      39.013  32.458  34.043  1.00  0.00     0.074 A 
ATOM     45  C   UNL A   1      37.922  33.400  33.918  1.00  0.00     0.031 C 
ATOM     46  C   UNL A   1      38.819  29.356  28.401  1.00  0.00     0.029 A 
ATOM     47  C   UNL A   1      39.788  29.170  29.479  1.00  0.00     0.049 A 
ATOM     48  H   UNL A   1      39.792  30.087  31.347  1.00  0.00     0.167 HD
ATOM     49  C   UNL A   1      39.802  32.336  35.136  1.00  0.00     0.037 A 
ATOM     50  C   UNL A   1      40.857  28.352  29.444  1.00  0.00     0.037 A 
ATOM     51  C   UNL A   1      40.887  31.397  35.240  1.00  0.00     0.049 A 
ATOM     52  C   UNL A   1      41.758  28.274  30.648  1.00  0.00     0.074 A 
ATOM     53  C   UNL A   1      41.724  31.158  36.315  1.00  0.00     0.029 A 
ATOM     54  N   UNL A   1      41.299  30.549  34.218  1.00  0.00    -0.354 N 
ATOM     55  N   UNL A   1      41.674  28.922  31.786  1.00  0.00    -0.248 NA
ATOM     56  C   UNL A   1      42.896  27.351  30.566  1.00  0.00     0.031 C 
ATOM     57  C   UNL A   1      42.685  30.221  35.922  1.00  0.00     0.029 A 
ATOM     58  C   UNL A   1      42.405  29.820  34.624  1.00  0.00     0.049 A 
ATOM     59  H   UNL A   1      40.867  30.478  33.337  1.00  0.00     0.167 HD
ATOM     60  C   UNL A   1      42.736  28.474  32.561  1.00  0.00     0.074 A 
ATOM     61  C   UNL A   1      43.437  27.483  31.770  1.00  0.00     0.031 C 
ATOM     62  C   UNL A   1      43.097  28.846  33.815  1.00  0.00     0.037 A 
BRANCH  49  63
ATOM     63  C   UNL A   1      39.545  33.272  36.282  1.00  0.00     0.064 A 
ATOM     64  C   UNL A   1      40.194  34.512  36.392  1.00  0.00     0.173 A 
ATOM     65  C   UNL A   1      38.628  32.924  37.286  1.00  0.00     0.173 A 
ATOM     66  F   UNL A   1      41.089  34.890  35.468  1.00  0.00    -0.203 F 
ATOM     67  C   UNL A   1      39.964  35.347  37.484  1.00  0.00     0.198 A 
ATOM     68  C   UNL A   1      38.375  33.777  38.356  1.00  0.00     0.198 A 
ATOM     69  F   UNL A   1      37.976  31.753  37.230  1.00  0.00    -0.203 F 
ATOM     70  F   UNL A   1      40.644  36.497  37.600  1.00  0.00    -0.200 F 
ATOM     71  C   UNL A   1      39.052  34.982  38.461  1.00  0.00     0.200 A 
ATOM     72  F   UNL A   1      37.482  33.428  39.293  1.00  0.00    -0.200 F 
ATOM     73  F   UNL A   1      38.832  35.787  39.510  1.00  0.00    -0.200 F 
ENDBRANCH  49  63
BRANCH  50  74
ATOM     74  C   UNL A   1      41.138  27.567  28.214  1.00  0.00     0.064 A 
ATOM     75  C   UNL A   1      41.946  28.080  27.191  1.00  0.00     0.173 A 
ATOM     76  C   UNL A   1      40.619  26.273  28.048  1.00  0.00     0.173 A 
ATOM     77  F   UNL A   1      42.449  29.319  27.293  1.00  0.00    -0.203 F 
ATOM     78  C   UNL A   1      42.215  27.334  26.045  1.00  0.00     0.198 A 
ATOM     79  C   UNL A   1      40.915  25.516  26.918  1.00  0.00     0.198 A 
ATOM     80  F   UNL A   1      39.843  25.734  29.000  1.00  0.00    -0.203 F 
ATOM     81  F   UNL A   1      42.960  27.862  25.065  1.00  0.00    -0.200 F 
ATOM     82  C   UNL A   1      41.707  26.050  25.914  1.00  0.00     0.200 A 
ATOM     83  F   UNL A   1      40.436  24.270  26.804  1.00  0.00    -0.200 F 
ATOM     84  F   UNL A   1      41.979  25.328  24.818  1.00  0.00    -0.200 F 
ENDBRANCH  50  74
BRANCH  62  85
ATOM     85  C   UNL A   1      44.297  28.168  34.416  1.00  0.00     0.064 A 
ATOM     86  C   UNL A   1      44.187  26.951  35.105  1.00  0.00     0.173 A 
ATOM     87  C   UNL A   1      45.578  28.720  34.261  1.00  0.00     0.173 A 
ATOM     88  F   UNL A   1      42.985  26.388  35.294  1.00  0.00    -0.203 F 
ATOM     89  C   UNL A   1      45.312  26.325  35.636  1.00  0.00     0.198 A 
ATOM     90  C   UNL A   1      46.704  28.074  34.762  1.00  0.00     0.198 A 
ATOM     91  F   UNL A   1      45.740  29.879  33.604  1.00  0.00    -0.203 F 
ATOM     92  F   UNL A   1      45.178  25.188  36.333  1.00  0.00    -0.200 F 
ATOM     93  C   UNL A   1      46.569  26.882  35.456  1.00  0.00     0.200 A 
ATOM     94  F   UNL A   1      47.919  28.605  34.572  1.00  0.00    -0.200 F 
ATOM     95  F   UNL A   1      47.652  26.271  35.958  1.00  0.00    -0.200 F 
ENDBRANCH  62  85
ENDBRANCH  36  37
ENDBRANCH  29  31
ENDBRANCH  28  29
ENDBRANCH  27  28
ENDBRANCH  26  27
ENDBRANCH  25  26
ENDBRANCH   1  25
TORSDOF 18
ENDMDL
MODEL 3
REMARK VINA RESULT:     -11.3      5.994     11.318
REMARK SMILES CCOc1ccc(-c2cnc(N)cc2C(=O)OCCOCCOC(=O)c2ccc(-c3c4nc(c(-c5c(F)c(F)c(F)c(F)c5F)c5ccc([nH]5)c(-c5c(F)c(F)c(F)c(F)c5F)c5nc(c(-c6c(F)c(F)c(F)c(F)c6F)c6ccc3[nH]6)C=C5)C=C4)cc2)c(Cl)c1
REMARK SMILES IDX 19 1 18 2 17 3 15 4 16 5 14 6 8 7 9 8 10 9 13 10 11 11 7 12
REMARK SMILES IDX 4 13 5 14 91 15 6 16 89 17 90 18 3 19 2 20 1 21 12 22 20 25
REMARK SMILES IDX 21 26 22 27 23 28 24 29 25 30 26 31 27 32 88 33 28 34 87 35
REMARK SMILES IDX 29 36 30 37 31 38 81 39 32 40 86 41 80 42 82 43 33 44 85 45
REMARK SMILES IDX 79 46 78 47 34 49 66 50 46 51 65 52 47 53 50 54 64 55 83 56
REMARK SMILES IDX 48 57 49 58 63 60 84 61 51 62 35 63 36 64 44 65 37 66 38 67
REMARK SMILES IDX 42 68 45 69 39 70 40 71 43 72 41 73 67 74 68 75 76 76 69 77
REMARK SMILES IDX 70 78 74 79 77 80 71 81 72 82 75 83 73 84 52 85 53 86 61 87
REMARK SMILES IDX 54 88 55 89 59 90 62 91 56 92 57 93 60 94 58 95
REMARK H PARENT 12 23 12 24 82 48 50 59
REMARK Flexibility Score: inf
ROOT
ATOM      1  C   UNL A   1      38.401  22.049  25.722  1.00  0.00     0.202 C 
ENDROOT
BRANCH   1   2
ATOM      2  C   UNL A   1      37.648  23.379  25.671  1.00  0.00     0.261 C 
BRANCH   2   3
ATOM      3  O   UNL A   1      36.227  23.169  25.762  1.00  0.00    -0.460 OA
BRANCH   3   4
ATOM      4  C   UNL A   1      35.493  23.714  24.758  1.00  0.00     0.339 C 
ATOM      5  O   UNL A   1      35.763  23.689  23.570  1.00  0.00    -0.246 OA
BRANCH   4   6
ATOM      6  C   UNL A   1      34.252  24.304  25.316  1.00  0.00     0.073 A 
ATOM      7  C   UNL A   1      33.060  23.563  25.401  1.00  0.00     0.016 A 
ATOM      8  C   UNL A   1      31.946  24.269  25.841  1.00  0.00     0.123 A 
ATOM      9  N   UNL A   1      31.948  25.579  26.186  1.00  0.00    -0.239 NA
ATOM     10  C   UNL A   1      34.283  25.649  25.701  1.00  0.00     0.062 A 
ATOM     11  C   UNL A   1      33.111  26.244  26.125  1.00  0.00     0.124 A 
BRANCH   7  12
ATOM     12  C   UNL A   1      32.936  22.144  25.035  1.00  0.00     0.003 A 
ATOM     13  C   UNL A   1      32.530  19.398  24.504  1.00  0.00     0.120 A 
ATOM     14  C   UNL A   1      32.944  19.818  25.763  1.00  0.00     0.047 A 
ATOM     15  C   UNL A   1      32.407  20.332  23.479  1.00  0.00     0.067 A 
ATOM     16  C   UNL A   1      33.129  21.174  26.029  1.00  0.00     0.014 A 
ATOM     17  C   UNL A   1      32.638  21.690  23.735  1.00  0.00     0.052 A 
ATOM     18  Cl  UNL A   1      32.600  22.772  22.385  1.00  0.00    -0.084 Cl
BRANCH  13  19
ATOM     19  O   UNL A   1      32.347  18.085  24.174  1.00  0.00    -0.494 OA
BRANCH  19  20
ATOM     20  C   UNL A   1      32.951  17.672  22.941  1.00  0.00     0.226 C 
ATOM     21  C   UNL A   1      34.060  16.654  23.156  1.00  0.00     0.049 C 
ENDBRANCH  19  20
ENDBRANCH  13  19
ENDBRANCH   7  12
BRANCH  11  22
ATOM     22  N   UNL A   1      33.064  27.588  26.422  1.00  0.00    -0.384 N 
ATOM     23  H   UNL A   1      32.677  27.890  27.276  1.00  0.00     0.158 HD
ATOM     24  H   UNL A   1      33.417  28.247  25.781  1.00  0.00     0.158 HD
ENDBRANCH  11  22
ENDBRANCH   4   6
ENDBRANCH   3   4
ENDBRANCH   2   3
ENDBRANCH   1   2
BRANCH   1  25
ATOM     25  O   UNL A   1      37.851  20.949  24.999  1.00  0.00    -0.374 OA
BRANCH  25  26
ATOM     26  C   UNL A   1      38.445  19.669  25.185  1.00  0.00     0.202 C 
BRANCH  26  27
ATOM     27  C   UNL A   1      39.689  19.560  26.081  1.00  0.00     0.261 C 
BRANCH  27  28
ATOM     28  O   UNL A   1      40.878  19.191  25.380  1.00  0.00    -0.460 OA
BRANCH  28  29
ATOM     29  C   UNL A   1      41.993  19.218  26.146  1.00  0.00     0.338 C 
ATOM     30  O   UNL A   1      42.748  18.296  26.411  1.00  0.00    -0.246 OA
BRANCH  29  31
ATOM     31  C   UNL A   1      42.279  20.615  26.495  1.00  0.00     0.060 A 
ATOM     32  C   UNL A   1      42.308  21.552  25.456  1.00  0.00     0.016 A 
ATOM     33  C   UNL A   1      42.518  20.994  27.818  1.00  0.00     0.016 A 
ATOM     34  C   UNL A   1      42.605  22.880  25.734  1.00  0.00     0.010 A 
ATOM     35  C   UNL A   1      42.826  22.327  28.093  1.00  0.00     0.010 A 
ATOM     36  C   UNL A   1      42.894  23.265  27.049  1.00  0.00    -0.014 A 
BRANCH  36  37
ATOM     37  C   UNL A   1      43.385  24.634  27.316  1.00  0.00     0.031 A 
ATOM     38  C   UNL A   1      42.430  25.654  27.859  1.00  0.00     0.074 A 
ATOM     39  C   UNL A   1      44.667  24.950  27.075  1.00  0.00     0.049 A 
ATOM     40  N   UNL A   1      42.625  26.921  28.115  1.00  0.00    -0.248 NA
ATOM     41  C   UNL A   1      41.066  25.182  28.144  1.00  0.00     0.031 C 
ATOM     42  C   UNL A   1      45.681  24.028  26.568  1.00  0.00     0.029 A 
ATOM     43  N   UNL A   1      45.331  26.143  27.210  1.00  0.00    -0.354 N 
ATOM     44  C   UNL A   1      41.408  27.400  28.580  1.00  0.00     0.074 A 
ATOM     45  C   UNL A   1      40.472  26.298  28.539  1.00  0.00     0.031 C 
ATOM     46  C   UNL A   1      46.837  24.694  26.414  1.00  0.00     0.029 A 
ATOM     47  C   UNL A   1      46.631  26.095  26.775  1.00  0.00     0.049 A 
ATOM     48  H   UNL A   1      44.914  26.953  27.582  1.00  0.00     0.167 HD
ATOM     49  C   UNL A   1      41.106  28.649  29.008  1.00  0.00     0.037 A 
ATOM     50  C   UNL A   1      47.539  27.082  26.653  1.00  0.00     0.037 A 
ATOM     51  C   UNL A   1      42.049  29.736  29.037  1.00  0.00     0.049 A 
ATOM     52  C   UNL A   1      47.165  28.477  27.078  1.00  0.00     0.074 A 
ATOM     53  C   UNL A   1      41.864  31.029  29.490  1.00  0.00     0.029 A 
ATOM     54  N   UNL A   1      43.357  29.658  28.574  1.00  0.00    -0.354 N 
ATOM     55  N   UNL A   1      46.028  28.916  27.564  1.00  0.00    -0.248 NA
ATOM     56  C   UNL A   1      48.198  29.511  26.943  1.00  0.00     0.031 C 
ATOM     57  C   UNL A   1      43.033  31.753  29.235  1.00  0.00     0.029 A 
ATOM     58  C   UNL A   1      43.974  30.894  28.690  1.00  0.00     0.049 A 
ATOM     59  H   UNL A   1      43.782  28.846  28.216  1.00  0.00     0.167 HD
ATOM     60  C   UNL A   1      46.214  30.270  27.810  1.00  0.00     0.074 A 
ATOM     61  C   UNL A   1      47.580  30.575  27.437  1.00  0.00     0.031 C 
ATOM     62  C   UNL A   1      45.335  31.180  28.300  1.00  0.00     0.037 A 
BRANCH  49  63
ATOM     63  C   UNL A   1      39.690  28.911  29.434  1.00  0.00     0.064 A 
ATOM     64  C   UNL A   1      39.268  28.747  30.762  1.00  0.00     0.173 A 
ATOM     65  C   UNL A   1      38.739  29.338  28.495  1.00  0.00     0.173 A 
ATOM     66  F   UNL A   1      40.132  28.328  31.699  1.00  0.00    -0.203 F 
ATOM     67  C   UNL A   1      37.940  28.963  31.126  1.00  0.00     0.198 A 
ATOM     68  C   UNL A   1      37.421  29.588  28.869  1.00  0.00     0.198 A 
ATOM     69  F   UNL A   1      39.086  29.515  27.211  1.00  0.00    -0.203 F 
ATOM     70  F   UNL A   1      37.547  28.737  32.387  1.00  0.00    -0.200 F 
ATOM     71  C   UNL A   1      37.019  29.388  30.180  1.00  0.00     0.200 A 
ATOM     72  F   UNL A   1      36.535  30.013  27.956  1.00  0.00    -0.200 F 
ATOM     73  F   UNL A   1      35.743  29.596  30.531  1.00  0.00    -0.200 F 
ENDBRANCH  49  63
BRANCH  50  74
ATOM     74  C   UNL A   1      48.875  26.779  26.077  1.00  0.00     0.064 A 
ATOM     75  C   UNL A   1      49.146  26.984  24.718  1.00  0.00     0.173 A 
ATOM     76  C   UNL A   1      49.917  26.298  26.885  1.00  0.00     0.173 A 
ATOM     77  F   UNL A   1      48.178  27.423  23.901  1.00  0.00    -0.203 F 
ATOM     78  C   UNL A   1      50.405  26.708  24.187  1.00  0.00     0.198 A 
ATOM     79  C   UNL A   1      51.183  26.053  26.360  1.00  0.00     0.198 A 
ATOM     80  F   UNL A   1      49.710  26.089  28.193  1.00  0.00    -0.203 F 
ATOM     81  F   UNL A   1      50.628  26.878  22.877  1.00  0.00    -0.200 F 
ATOM     82  C   UNL A   1      51.424  26.253  25.009  1.00  0.00     0.200 A 
ATOM     83  F   UNL A   1      52.169  25.631  27.163  1.00  0.00    -0.200 F 
ATOM     84  F   UNL A   1      52.638  26.002  24.500  1.00  0.00    -0.200 F 
ENDBRANCH  50  74
BRANCH  62  85
ATOM     85  C   UNL A   1      45.827  32.589  28.478  1.00  0.00     0.064 A 
ATOM     86  C   UNL A   1      46.481  32.998  29.649  1.00  0.00     0.173 A 
ATOM     87  C   UNL A   1      45.685  33.527  27.444  1.00  0.00     0.173 A 
ATOM     88  F   UNL A   1      46.630  32.145  30.674  1.00  0.00    -0.203 F 
ATOM     89  C   UNL A   1      46.952  34.302  29.789  1.00  0.00     0.198 A 
ATOM     90  C   UNL A   1      46.188  34.819  27.573  1.00  0.00     0.198 A 
ATOM     91  F   UNL A   1      45.075  33.186  26.299  1.00  0.00    -0.203 F 
ATOM     92  F   UNL A   1      47.529  34.686  30.936  1.00  0.00    -0.200 F 
ATOM     93  C   UNL A   1      46.813  35.207  28.747  1.00  0.00     0.200 A 
ATOM     94  F   UNL A   1      46.069  35.686  26.559  1.00  0.00    -0.200 F 
ATOM     95  F   UNL A   1      47.278  36.458  28.878  1.00  0.00    -0.200 F 
ENDBRANCH  62  85
ENDBRANCH  36  37
ENDBRANCH  29  31
ENDBRANCH  28  29
ENDBRANCH  27  28
ENDBRANCH  26  27
ENDBRANCH  25  26
ENDBRANCH   1  25
TORSDOF 18
ENDMDL
