MODEL 1
REMARK VINA RESULT:     -11.1      0.000      0.000
REMARK SMILES Cc1ccc(C(N)=O)c(NCc2ccc(C(=O)OCCOCCOC(=O)c3ccc(-c4c5nc(c(-c6c(F)c(F)c(F)c(F)c6F)c6ccc([nH]6)c(-c6c(F)c(F)c(F)c(F)c6F)c6nc(c(-c7c(F)c(F)c(F)c(F)c7F)c7ccc4[nH]7)C=C6)C=C5)cc3)o2)n1
REMARK SMILES IDX 20 1 19 2 18 3 16 4 17 5 15 6 12 7 13 8 90 9 14 10 11 11
REMARK SMILES IDX 10 12 9 14 1 15 2 16 3 17 91 18 4 19 5 20 6 21 7 22 8 23
REMARK SMILES IDX 21 26 22 27 23 28 24 29 25 30 26 31 27 32 28 33 89 34 29 35
REMARK SMILES IDX 88 36 30 37 31 38 32 39 82 40 33 41 87 42 81 43 83 44 34 45
REMARK SMILES IDX 86 46 80 47 79 48 35 50 67 51 47 52 66 53 48 54 51 55 65 56
REMARK SMILES IDX 84 57 49 58 50 59 64 61 85 62 52 63 36 64 37 65 45 66 38 67
REMARK SMILES IDX 39 68 43 69 46 70 40 71 41 72 44 73 42 74 68 75 69 76 77 77
REMARK SMILES IDX 70 78 71 79 75 80 78 81 72 82 73 83 76 84 74 85 53 86 54 87
REMARK SMILES IDX 62 88 55 89 56 90 60 91 63 92 57 93 58 94 61 95 59 96
REMARK H PARENT 10 13 7 24 7 25 83 49 51 60
REMARK Flexibility Score: inf
ROOT
ATOM      1  C   UNL A   1      36.798  23.059  25.198  1.00  0.00     0.202 C 
ENDROOT
BRANCH   1   2
ATOM      2  C   UNL A   1      35.461  23.231  24.472  1.00  0.00     0.261 C 
BRANCH   2   3
ATOM      3  O   UNL A   1      35.087  24.619  24.447  1.00  0.00    -0.457 OA
BRANCH   3   4
ATOM      4  C   UNL A   1      34.136  24.990  25.354  1.00  0.00     0.374 C 
ATOM      5  O   UNL A   1      33.714  24.273  26.254  1.00  0.00    -0.242 OA
BRANCH   4   6
ATOM      6  C   UNL A   1      33.797  26.380  25.161  1.00  0.00     0.211 A 
ATOM      7  C   UNL A   1      33.022  28.070  23.965  1.00  0.00     0.124 A 
ATOM      8  C   UNL A   1      33.242  28.561  25.234  1.00  0.00     0.048 A 
ATOM      9  O   UNL A   1      33.379  26.755  23.914  1.00  0.00    -0.452 OA
ATOM     10  C   UNL A   1      33.723  27.473  26.008  1.00  0.00     0.058 A 
BRANCH   7  11
ATOM     11  C   UNL A   1      32.468  28.627  22.697  1.00  0.00     0.190 C 
BRANCH  11  12
ATOM     12  N   UNL A   1      31.245  27.997  22.218  1.00  0.00    -0.362 N 
ATOM     13  H   UNL A   1      31.277  27.107  21.796  1.00  0.00     0.162 HD
BRANCH  12  14
ATOM     14  C   UNL A   1      30.030  28.663  22.361  1.00  0.00     0.139 A 
ATOM     15  C   UNL A   1      28.601  31.752  20.945  1.00  0.00     0.067 C 
ATOM     16  C   UNL A   1      28.698  30.490  21.747  1.00  0.00     0.040 A 
ATOM     17  C   UNL A   1      27.613  30.009  22.462  1.00  0.00     0.024 A 
ATOM     18  N   UNL A   1      29.886  29.841  21.709  1.00  0.00    -0.236 NA
ATOM     19  C   UNL A   1      27.764  28.820  23.166  1.00  0.00     0.019 A 
ATOM     20  C   UNL A   1      28.985  28.134  23.130  1.00  0.00     0.081 A 
BRANCH  20  21
ATOM     21  C   UNL A   1      29.074  26.878  23.922  1.00  0.00     0.252 C 
ATOM     22  N   UNL A   1      27.974  26.069  23.971  1.00  0.00    -0.365 N 
ATOM     23  O   UNL A   1      30.107  26.549  24.492  1.00  0.00    -0.269 OA
ATOM     24  H   UNL A   1      27.145  26.337  23.511  1.00  0.00     0.159 HD
ATOM     25  H   UNL A   1      28.009  25.219  24.466  1.00  0.00     0.159 HD
ENDBRANCH  20  21
ENDBRANCH  12  14
ENDBRANCH  11  12
ENDBRANCH   7  11
ENDBRANCH   4   6
ENDBRANCH   3   4
ENDBRANCH   2   3
ENDBRANCH   1   2
BRANCH   1  26
ATOM     26  O   UNL A   1      37.408  21.781  25.014  1.00  0.00    -0.374 OA
BRANCH  26  27
ATOM     27  C   UNL A   1      38.643  21.561  25.698  1.00  0.00     0.202 C 
BRANCH  27  28
ATOM     28  C   UNL A   1      39.283  20.192  25.443  1.00  0.00     0.261 C 
BRANCH  28  29
ATOM     29  O   UNL A   1      40.132  19.807  26.541  1.00  0.00    -0.460 OA
BRANCH  29  30
ATOM     30  C   UNL A   1      41.442  19.663  26.230  1.00  0.00     0.338 C 
ATOM     31  O   UNL A   1      41.966  18.733  25.641  1.00  0.00    -0.246 OA
BRANCH  30  32
ATOM     32  C   UNL A   1      42.173  20.902  26.564  1.00  0.00     0.060 A 
ATOM     33  C   UNL A   1      42.238  21.266  27.915  1.00  0.00     0.016 A 
ATOM     34  C   UNL A   1      42.737  21.721  25.583  1.00  0.00     0.016 A 
ATOM     35  C   UNL A   1      42.824  22.475  28.286  1.00  0.00     0.010 A 
ATOM     36  C   UNL A   1      43.319  22.937  25.955  1.00  0.00     0.010 A 
ATOM     37  C   UNL A   1      43.335  23.335  27.304  1.00  0.00    -0.014 A 
BRANCH  37  38
ATOM     38  C   UNL A   1      43.759  24.704  27.682  1.00  0.00     0.031 A 
ATOM     39  C   UNL A   1      42.709  25.732  28.003  1.00  0.00     0.074 A 
ATOM     40  C   UNL A   1      45.063  25.024  27.767  1.00  0.00     0.049 A 
ATOM     41  N   UNL A   1      42.851  26.990  28.334  1.00  0.00    -0.248 NA
ATOM     42  C   UNL A   1      41.311  25.278  27.941  1.00  0.00     0.031 C 
ATOM     43  C   UNL A   1      46.173  24.108  27.516  1.00  0.00     0.029 A 
ATOM     44  N   UNL A   1      45.669  26.213  28.086  1.00  0.00    -0.354 N 
ATOM     45  C   UNL A   1      41.563  27.478  28.517  1.00  0.00     0.074 A 
ATOM     46  C   UNL A   1      40.652  26.391  28.231  1.00  0.00     0.031 C 
ATOM     47  C   UNL A   1      47.330  24.774  27.679  1.00  0.00     0.029 A 
ATOM     48  C   UNL A   1      47.039  26.166  28.021  1.00  0.00     0.049 A 
ATOM     49  H   UNL A   1      45.169  27.023  28.337  1.00  0.00     0.167 HD
ATOM     50  C   UNL A   1      41.177  28.718  28.900  1.00  0.00     0.037 A 
ATOM     51  C   UNL A   1      47.952  27.139  28.199  1.00  0.00     0.037 A 
ATOM     52  C   UNL A   1      42.081  29.801  29.187  1.00  0.00     0.049 A 
ATOM     53  C   UNL A   1      47.493  28.529  28.560  1.00  0.00     0.074 A 
ATOM     54  C   UNL A   1      41.786  31.087  29.601  1.00  0.00     0.029 A 
ATOM     55  N   UNL A   1      43.462  29.722  29.081  1.00  0.00    -0.354 N 
ATOM     56  N   UNL A   1      46.276  28.974  28.758  1.00  0.00    -0.248 NA
ATOM     57  C   UNL A   1      48.538  29.551  28.722  1.00  0.00     0.031 C 
ATOM     58  C   UNL A   1      42.985  31.800  29.703  1.00  0.00     0.029 A 
ATOM     59  C   UNL A   1      44.031  30.945  29.398  1.00  0.00     0.049 A 
ATOM     60  H   UNL A   1      43.964  28.916  28.819  1.00  0.00     0.167 HD
ATOM     61  C   UNL A   1      46.410  30.315  29.096  1.00  0.00     0.074 A 
ATOM     62  C   UNL A   1      47.827  30.610  29.086  1.00  0.00     0.031 C 
ATOM     63  C   UNL A   1      45.445  31.221  29.390  1.00  0.00     0.037 A 
BRANCH  50  64
ATOM     64  C   UNL A   1      39.704  28.980  29.010  1.00  0.00     0.064 A 
ATOM     65  C   UNL A   1      38.940  29.365  27.898  1.00  0.00     0.173 A 
ATOM     66  C   UNL A   1      39.042  28.808  30.235  1.00  0.00     0.173 A 
ATOM     67  F   UNL A   1      39.529  29.556  26.708  1.00  0.00    -0.203 F 
ATOM     68  C   UNL A   1      37.572  29.592  28.015  1.00  0.00     0.198 A 
ATOM     69  C   UNL A   1      37.670  29.012  30.343  1.00  0.00     0.198 A 
ATOM     70  F   UNL A   1      39.727  28.438  31.327  1.00  0.00    -0.203 F 
ATOM     71  F   UNL A   1      36.868  30.001  26.950  1.00  0.00    -0.200 F 
ATOM     72  C   UNL A   1      36.936  29.408  29.235  1.00  0.00     0.200 A 
ATOM     73  F   UNL A   1      37.056  28.824  31.520  1.00  0.00    -0.200 F 
ATOM     74  F   UNL A   1      35.618  29.622  29.344  1.00  0.00    -0.200 F 
ENDBRANCH  50  64
BRANCH  51  75
ATOM     75  C   UNL A   1      49.398  26.841  28.031  1.00  0.00     0.064 A 
ATOM     76  C   UNL A   1      50.003  26.886  26.767  1.00  0.00     0.173 A 
ATOM     77  C   UNL A   1      50.197  26.485  29.127  1.00  0.00     0.173 A 
ATOM     78  F   UNL A   1      49.273  27.195  25.686  1.00  0.00    -0.203 F 
ATOM     79  C   UNL A   1      51.351  26.572  26.605  1.00  0.00     0.198 A 
ATOM     80  C   UNL A   1      51.551  26.197  28.967  1.00  0.00     0.198 A 
ATOM     81  F   UNL A   1      49.664  26.423  30.355  1.00  0.00    -0.203 F 
ATOM     82  F   UNL A   1      51.896  26.581  25.381  1.00  0.00    -0.200 F 
ATOM     83  C   UNL A   1      52.125  26.234  27.705  1.00  0.00     0.200 A 
ATOM     84  F   UNL A   1      52.296  25.880  30.034  1.00  0.00    -0.200 F 
ATOM     85  F   UNL A   1      53.422  25.934  27.549  1.00  0.00    -0.200 F 
ENDBRANCH  51  75
BRANCH  63  86
ATOM     86  C   UNL A   1      45.886  32.606  29.758  1.00  0.00     0.064 A 
ATOM     87  C   UNL A   1      46.008  33.620  28.795  1.00  0.00     0.173 A 
ATOM     88  C   UNL A   1      46.150  32.936  31.096  1.00  0.00     0.173 A 
ATOM     89  F   UNL A   1      45.782  33.351  27.501  1.00  0.00    -0.203 F 
ATOM     90  C   UNL A   1      46.398  34.907  29.157  1.00  0.00     0.198 A 
ATOM     91  C   UNL A   1      46.514  34.230  31.457  1.00  0.00     0.198 A 
ATOM     92  F   UNL A   1      46.042  32.004  32.055  1.00  0.00    -0.203 F 
ATOM     93  F   UNL A   1      46.549  35.849  28.216  1.00  0.00    -0.200 F 
ATOM     94  C   UNL A   1      46.643  35.212  30.488  1.00  0.00     0.200 A 
ATOM     95  F   UNL A   1      46.738  34.527  32.745  1.00  0.00    -0.200 F 
ATOM     96  F   UNL A   1      47.011  36.453  30.835  1.00  0.00    -0.200 F 
ENDBRANCH  63  86
ENDBRANCH  37  38
ENDBRANCH  30  32
ENDBRANCH  29  30
ENDBRANCH  28  29
ENDBRANCH  27  28
ENDBRANCH  26  27
ENDBRANCH   1  26
TORSDOF 18
ENDMDL
MODEL 2
REMARK VINA RESULT:     -11.1      6.286     10.715
REMARK SMILES Cc1ccc(C(N)=O)c(NCc2ccc(C(=O)OCCOCCOC(=O)c3ccc(-c4c5nc(c(-c6c(F)c(F)c(F)c(F)c6F)c6ccc([nH]6)c(-c6c(F)c(F)c(F)c(F)c6F)c6nc(c(-c7c(F)c(F)c(F)c(F)c7F)c7ccc4[nH]7)C=C6)C=C5)cc3)o2)n1
REMARK SMILES IDX 20 1 19 2 18 3 16 4 17 5 15 6 12 7 13 8 90 9 14 10 11 11
REMARK SMILES IDX 10 12 9 14 1 15 2 16 3 17 91 18 4 19 5 20 6 21 7 22 8 23
REMARK SMILES IDX 21 26 22 27 23 28 24 29 25 30 26 31 27 32 28 33 89 34 29 35
REMARK SMILES IDX 88 36 30 37 31 38 32 39 82 40 33 41 87 42 81 43 83 44 34 45
REMARK SMILES IDX 86 46 80 47 79 48 35 50 67 51 47 52 66 53 48 54 51 55 65 56
REMARK SMILES IDX 84 57 49 58 50 59 64 61 85 62 52 63 36 64 37 65 45 66 38 67
REMARK SMILES IDX 39 68 43 69 46 70 40 71 41 72 44 73 42 74 68 75 69 76 77 77
REMARK SMILES IDX 70 78 71 79 75 80 78 81 72 82 73 83 76 84 74 85 53 86 54 87
REMARK SMILES IDX 62 88 55 89 56 90 60 91 63 92 57 93 58 94 61 95 59 96
REMARK H PARENT 10 13 7 24 7 25 83 49 51 60
REMARK Flexibility Score: inf
ROOT
ATOM      1  C   UNL A   1      35.081  33.516  29.690  1.00  0.00     0.202 C 
ENDROOT
BRANCH   1   2
ATOM      2  C   UNL A   1      36.226  33.369  28.683  1.00  0.00     0.261 C 
BRANCH   2   3
ATOM      3  O   UNL A   1      35.826  32.511  27.601  1.00  0.00    -0.457 OA
BRANCH   3   4
ATOM      4  C   UNL A   1      36.191  31.201  27.721  1.00  0.00     0.374 C 
ATOM      5  O   UNL A   1      37.307  30.817  28.053  1.00  0.00    -0.242 OA
BRANCH   4   6
ATOM      6  C   UNL A   1      35.040  30.355  27.513  1.00  0.00     0.211 A 
ATOM      7  C   UNL A   1      32.955  29.988  26.876  1.00  0.00     0.124 A 
ATOM      8  C   UNL A   1      33.494  28.754  27.173  1.00  0.00     0.048 A 
ATOM      9  O   UNL A   1      33.884  30.960  27.103  1.00  0.00    -0.452 OA
ATOM     10  C   UNL A   1      34.838  28.986  27.565  1.00  0.00     0.058 A 
BRANCH   7  11
ATOM     11  C   UNL A   1      31.647  30.471  26.348  1.00  0.00     0.190 C 
BRANCH  11  12
ATOM     12  N   UNL A   1      31.489  30.396  24.902  1.00  0.00    -0.362 N 
ATOM     13  H   UNL A   1      31.921  31.063  24.319  1.00  0.00     0.162 HD
BRANCH  12  14
ATOM     14  C   UNL A   1      30.721  29.373  24.350  1.00  0.00     0.139 A 
ATOM     15  C   UNL A   1      30.640  25.709  24.746  1.00  0.00     0.067 C 
ATOM     16  C   UNL A   1      30.267  27.076  24.258  1.00  0.00     0.040 A 
ATOM     17  C   UNL A   1      29.179  27.269  23.423  1.00  0.00     0.024 A 
ATOM     18  N   UNL A   1      31.033  28.102  24.701  1.00  0.00    -0.236 NA
ATOM     19  C   UNL A   1      28.875  28.566  23.027  1.00  0.00     0.019 A 
ATOM     20  C   UNL A   1      29.653  29.639  23.482  1.00  0.00     0.081 A 
BRANCH  20  21
ATOM     21  C   UNL A   1      29.275  30.995  23.002  1.00  0.00     0.252 C 
ATOM     22  N   UNL A   1      29.485  31.295  21.686  1.00  0.00    -0.365 N 
ATOM     23  O   UNL A   1      28.759  31.820  23.748  1.00  0.00    -0.269 OA
ATOM     24  H   UNL A   1      29.900  30.628  21.090  1.00  0.00     0.159 HD
ATOM     25  H   UNL A   1      29.222  32.175  21.333  1.00  0.00     0.159 HD
ENDBRANCH  20  21
ENDBRANCH  12  14
ENDBRANCH  11  12
ENDBRANCH   7  11
ENDBRANCH   4   6
ENDBRANCH   3   4
ENDBRANCH   2   3
ENDBRANCH   1   2
BRANCH   1  26
ATOM     26  O   UNL A   1      33.872  34.036  29.134  1.00  0.00    -0.374 OA
BRANCH  26  27
ATOM     27  C   UNL A   1      33.798  35.456  28.990  1.00  0.00     0.202 C 
BRANCH  27  28
ATOM     28  C   UNL A   1      32.699  36.128  29.821  1.00  0.00     0.261 C 
BRANCH  28  29
ATOM     29  O   UNL A   1      33.183  36.472  31.133  1.00  0.00    -0.460 OA
BRANCH  29  30
ATOM     30  C   UNL A   1      32.779  35.647  32.127  1.00  0.00     0.338 C 
ATOM     31  O   UNL A   1      31.634  35.369  32.441  1.00  0.00    -0.246 OA
BRANCH  30  32
ATOM     32  C   UNL A   1      33.949  34.962  32.713  1.00  0.00     0.060 A 
ATOM     33  C   UNL A   1      35.188  35.609  32.617  1.00  0.00     0.016 A 
ATOM     34  C   UNL A   1      33.856  33.696  33.296  1.00  0.00     0.016 A 
ATOM     35  C   UNL A   1      36.346  34.971  33.058  1.00  0.00     0.010 A 
ATOM     36  C   UNL A   1      35.020  33.053  33.732  1.00  0.00     0.010 A 
ATOM     37  C   UNL A   1      36.274  33.675  33.585  1.00  0.00    -0.014 A 
BRANCH  37  38
ATOM     38  C   UNL A   1      37.523  32.924  33.850  1.00  0.00     0.031 A 
ATOM     39  C   UNL A   1      38.286  33.199  35.117  1.00  0.00     0.074 A 
ATOM     40  C   UNL A   1      37.961  31.987  32.990  1.00  0.00     0.049 A 
ATOM     41  N   UNL A   1      39.409  32.678  35.542  1.00  0.00    -0.248 NA
ATOM     42  C   UNL A   1      37.702  34.197  36.027  1.00  0.00     0.031 C 
ATOM     43  C   UNL A   1      37.294  31.605  31.748  1.00  0.00     0.029 A 
ATOM     44  N   UNL A   1      39.078  31.191  33.034  1.00  0.00    -0.354 N 
ATOM     45  C   UNL A   1      39.667  33.286  36.764  1.00  0.00     0.074 A 
ATOM     46  C   UNL A   1      38.601  34.236  37.000  1.00  0.00     0.031 C 
ATOM     47  C   UNL A   1      38.022  30.652  31.140  1.00  0.00     0.029 A 
ATOM     48  C   UNL A   1      39.217  30.379  31.936  1.00  0.00     0.049 A 
ATOM     49  H   UNL A   1      39.720  31.202  33.781  1.00  0.00     0.167 HD
ATOM     50  C   UNL A   1      40.695  33.063  37.617  1.00  0.00     0.037 A 
ATOM     51  C   UNL A   1      40.205  29.526  31.605  1.00  0.00     0.037 A 
ATOM     52  C   UNL A   1      41.755  32.117  37.385  1.00  0.00     0.049 A 
ATOM     53  C   UNL A   1      41.373  29.345  32.541  1.00  0.00     0.074 A 
ATOM     54  C   UNL A   1      42.829  31.806  38.200  1.00  0.00     0.029 A 
ATOM     55  N   UNL A   1      41.876  31.334  36.247  1.00  0.00    -0.354 N 
ATOM     56  N   UNL A   1      41.594  29.902  33.707  1.00  0.00    -0.248 NA
ATOM     57  C   UNL A   1      42.427  28.413  32.114  1.00  0.00     0.031 C 
ATOM     58  C   UNL A   1      43.625  30.868  37.535  1.00  0.00     0.029 A 
ATOM     59  C   UNL A   1      43.022  30.558  36.327  1.00  0.00     0.049 A 
ATOM     60  H   UNL A   1      41.243  31.330  35.493  1.00  0.00     0.167 HD
ATOM     61  C   UNL A   1      42.794  29.370  34.164  1.00  0.00     0.074 A 
ATOM     62  C   UNL A   1      43.248  28.437  33.154  1.00  0.00     0.031 C 
ATOM     63  C   UNL A   1      43.457  29.629  35.317  1.00  0.00     0.037 A 
BRANCH  50  64
ATOM     64  C   UNL A   1      40.735  33.876  38.877  1.00  0.00     0.064 A 
ATOM     65  C   UNL A   1      41.459  35.076  38.956  1.00  0.00     0.173 A 
ATOM     66  C   UNL A   1      40.013  33.468  40.008  1.00  0.00     0.173 A 
ATOM     67  F   UNL A   1      42.176  35.501  37.906  1.00  0.00    -0.203 F 
ATOM     68  C   UNL A   1      41.476  35.824  40.129  1.00  0.00     0.198 A 
ATOM     69  C   UNL A   1      40.012  34.232  41.171  1.00  0.00     0.198 A 
ATOM     70  F   UNL A   1      39.303  32.330  39.983  1.00  0.00    -0.203 F 
ATOM     71  F   UNL A   1      42.208  36.945  40.197  1.00  0.00    -0.200 F 
ATOM     72  C   UNL A   1      40.747  35.406  41.233  1.00  0.00     0.200 A 
ATOM     73  F   UNL A   1      39.300  33.832  42.234  1.00  0.00    -0.200 F 
ATOM     74  F   UNL A   1      40.760  36.131  42.360  1.00  0.00    -0.200 F 
ENDBRANCH  50  64
BRANCH  51  75
ATOM     75  C   UNL A   1      40.142  28.780  30.322  1.00  0.00     0.064 A 
ATOM     76  C   UNL A   1      39.522  27.526  30.244  1.00  0.00     0.173 A 
ATOM     77  C   UNL A   1      40.718  29.299  29.153  1.00  0.00     0.173 A 
ATOM     78  F   UNL A   1      38.981  26.977  31.341  1.00  0.00    -0.203 F 
ATOM     79  C   UNL A   1      39.494  26.811  29.048  1.00  0.00     0.198 A 
ATOM     80  C   UNL A   1      40.666  28.595  27.952  1.00  0.00     0.198 A 
ATOM     81  F   UNL A   1      41.327  30.493  29.177  1.00  0.00    -0.203 F 
ATOM     82  F   UNL A   1      38.932  25.595  29.010  1.00  0.00    -0.200 F 
ATOM     83  C   UNL A   1      40.060  27.349  27.902  1.00  0.00     0.200 A 
ATOM     84  F   UNL A   1      41.206  29.123  26.845  1.00  0.00    -0.200 F 
ATOM     85  F   UNL A   1      40.031  26.662  26.752  1.00  0.00    -0.200 F 
ENDBRANCH  51  75
BRANCH  63  86
ATOM     86  C   UNL A   1      44.728  28.872  35.568  1.00  0.00     0.064 A 
ATOM     87  C   UNL A   1      44.727  27.626  36.214  1.00  0.00     0.173 A 
ATOM     88  C   UNL A   1      45.958  29.378  35.119  1.00  0.00     0.173 A 
ATOM     89  F   UNL A   1      43.580  27.107  36.676  1.00  0.00    -0.203 F 
ATOM     90  C   UNL A   1      45.913  26.927  36.420  1.00  0.00     0.198 A 
ATOM     91  C   UNL A   1      47.137  28.663  35.303  1.00  0.00     0.198 A 
ATOM     92  F   UNL A   1      46.011  30.561  34.490  1.00  0.00    -0.203 F 
ATOM     93  F   UNL A   1      45.895  25.759  37.078  1.00  0.00    -0.200 F 
ATOM     94  C   UNL A   1      47.116  27.442  35.958  1.00  0.00     0.200 A 
ATOM     95  F   UNL A   1      48.297  29.156  34.845  1.00  0.00    -0.200 F 
ATOM     96  F   UNL A   1      48.255  26.763  36.151  1.00  0.00    -0.200 F 
ENDBRANCH  63  86
ENDBRANCH  37  38
ENDBRANCH  30  32
ENDBRANCH  29  30
ENDBRANCH  28  29
ENDBRANCH  27  28
ENDBRANCH  26  27
ENDBRANCH   1  26
TORSDOF 18
ENDMDL
MODEL 3
REMARK VINA RESULT:     -10.9      0.875      7.357
REMARK SMILES Cc1ccc(C(N)=O)c(NCc2ccc(C(=O)OCCOCCOC(=O)c3ccc(-c4c5nc(c(-c6c(F)c(F)c(F)c(F)c6F)c6ccc([nH]6)c(-c6c(F)c(F)c(F)c(F)c6F)c6nc(c(-c7c(F)c(F)c(F)c(F)c7F)c7ccc4[nH]7)C=C6)C=C5)cc3)o2)n1
REMARK SMILES IDX 20 1 19 2 18 3 16 4 17 5 15 6 12 7 13 8 90 9 14 10 11 11
REMARK SMILES IDX 10 12 9 14 1 15 2 16 3 17 91 18 4 19 5 20 6 21 7 22 8 23
REMARK SMILES IDX 21 26 22 27 23 28 24 29 25 30 26 31 27 32 28 33 89 34 29 35
REMARK SMILES IDX 88 36 30 37 31 38 32 39 82 40 33 41 87 42 81 43 83 44 34 45
REMARK SMILES IDX 86 46 80 47 79 48 35 50 67 51 47 52 66 53 48 54 51 55 65 56
REMARK SMILES IDX 84 57 49 58 50 59 64 61 85 62 52 63 36 64 37 65 45 66 38 67
REMARK SMILES IDX 39 68 43 69 46 70 40 71 41 72 44 73 42 74 68 75 69 76 77 77
REMARK SMILES IDX 70 78 71 79 75 80 78 81 72 82 73 83 76 84 74 85 53 86 54 87
REMARK SMILES IDX 62 88 55 89 56 90 60 91 63 92 57 93 58 94 61 95 59 96
REMARK H PARENT 10 13 7 24 7 25 83 49 51 60
REMARK Flexibility Score: inf
ROOT
ATOM      1  C   UNL A   1      36.692  22.969  25.292  1.00  0.00     0.202 C 
ENDROOT
BRANCH   1   2
ATOM      2  C   UNL A   1      35.366  23.171  24.553  1.00  0.00     0.261 C 
BRANCH   2   3
ATOM      3  O   UNL A   1      35.023  24.567  24.525  1.00  0.00    -0.457 OA
BRANCH   3   4
ATOM      4  C   UNL A   1      34.091  24.964  25.440  1.00  0.00     0.374 C 
ATOM      5  O   UNL A   1      33.674  24.266  26.357  1.00  0.00    -0.242 OA
BRANCH   4   6
ATOM      6  C   UNL A   1      33.766  26.355  25.230  1.00  0.00     0.211 A 
ATOM      7  C   UNL A   1      33.022  28.040  24.008  1.00  0.00     0.124 A 
ATOM      8  C   UNL A   1      33.230  28.541  25.276  1.00  0.00     0.048 A 
ATOM      9  O   UNL A   1      33.368  26.722  23.974  1.00  0.00    -0.452 OA
ATOM     10  C   UNL A   1      33.692  27.456  26.066  1.00  0.00     0.058 A 
BRANCH   7  11
ATOM     11  C   UNL A   1      32.489  28.590  22.729  1.00  0.00     0.190 C 
BRANCH  11  12
ATOM     12  N   UNL A   1      31.272  27.959  22.234  1.00  0.00    -0.362 N 
ATOM     13  H   UNL A   1      31.310  27.070  21.812  1.00  0.00     0.162 HD
BRANCH  12  14
ATOM     14  C   UNL A   1      30.055  28.624  22.363  1.00  0.00     0.139 A 
ATOM     15  C   UNL A   1      28.627  31.693  20.903  1.00  0.00     0.067 C 
ATOM     16  C   UNL A   1      28.722  30.440  21.720  1.00  0.00     0.040 A 
ATOM     17  C   UNL A   1      27.634  29.965  22.434  1.00  0.00     0.024 A 
ATOM     18  N   UNL A   1      29.912  29.794  21.696  1.00  0.00    -0.236 NA
ATOM     19  C   UNL A   1      27.784  28.784  23.152  1.00  0.00     0.019 A 
ATOM     20  C   UNL A   1      29.006  28.101  23.131  1.00  0.00     0.081 A 
BRANCH  20  21
ATOM     21  C   UNL A   1      29.094  26.853  23.937  1.00  0.00     0.252 C 
ATOM     22  N   UNL A   1      27.985  26.058  24.015  1.00  0.00    -0.365 N 
ATOM     23  O   UNL A   1      30.132  26.520  24.494  1.00  0.00    -0.269 OA
ATOM     24  H   UNL A   1      27.152  26.331  23.564  1.00  0.00     0.159 HD
ATOM     25  H   UNL A   1      28.019  25.214  24.519  1.00  0.00     0.159 HD
ENDBRANCH  20  21
ENDBRANCH  12  14
ENDBRANCH  11  12
ENDBRANCH   7  11
ENDBRANCH   4   6
ENDBRANCH   3   4
ENDBRANCH   2   3
ENDBRANCH   1   2
BRANCH   1  26
ATOM     26  O   UNL A   1      37.277  21.679  25.109  1.00  0.00    -0.374 OA
BRANCH  26  27
ATOM     27  C   UNL A   1      38.553  21.467  25.718  1.00  0.00     0.202 C 
BRANCH  27  28
ATOM     28  C   UNL A   1      39.181  20.099  25.431  1.00  0.00     0.261 C 
BRANCH  28  29
ATOM     29  O   UNL A   1      40.052  19.697  26.506  1.00  0.00    -0.460 OA
BRANCH  29  30
ATOM     30  C   UNL A   1      41.366  19.632  26.185  1.00  0.00     0.338 C 
ATOM     31  O   UNL A   1      41.955  18.705  25.656  1.00  0.00    -0.246 OA
BRANCH  30  32
ATOM     32  C   UNL A   1      42.002  20.945  26.416  1.00  0.00     0.060 A 
ATOM     33  C   UNL A   1      42.242  21.318  27.745  1.00  0.00     0.016 A 
ATOM     34  C   UNL A   1      42.308  21.818  25.370  1.00  0.00     0.016 A 
ATOM     35  C   UNL A   1      42.744  22.585  28.035  1.00  0.00     0.010 A 
ATOM     36  C   UNL A   1      42.806  23.092  25.662  1.00  0.00     0.010 A 
ATOM     37  C   UNL A   1      42.994  23.494  26.997  1.00  0.00    -0.014 A 
BRANCH  37  38
ATOM     38  C   UNL A   1      43.321  24.902  27.323  1.00  0.00     0.031 A 
ATOM     39  C   UNL A   1      44.718  25.404  27.077  1.00  0.00     0.074 A 
ATOM     40  C   UNL A   1      42.381  25.735  27.804  1.00  0.00     0.049 A 
ATOM     41  N   UNL A   1      45.229  26.586  27.307  1.00  0.00    -0.248 NA
ATOM     42  C   UNL A   1      45.664  24.441  26.493  1.00  0.00     0.031 C 
ATOM     43  C   UNL A   1      40.986  25.378  28.052  1.00  0.00     0.029 A 
ATOM     44  N   UNL A   1      42.465  27.054  28.175  1.00  0.00    -0.354 N 
ATOM     45  C   UNL A   1      46.555  26.509  26.900  1.00  0.00     0.074 A 
ATOM     46  C   UNL A   1      46.779  25.156  26.437  1.00  0.00     0.031 C 
ATOM     47  C   UNL A   1      40.345  26.452  28.545  1.00  0.00     0.029 A 
ATOM     48  C   UNL A   1      41.291  27.560  28.672  1.00  0.00     0.049 A 
ATOM     49  H   UNL A   1      43.290  27.585  28.093  1.00  0.00     0.167 HD
ATOM     50  C   UNL A   1      47.497  27.481  26.902  1.00  0.00     0.037 A 
ATOM     51  C   UNL A   1      41.016  28.774  29.186  1.00  0.00     0.037 A 
ATOM     52  C   UNL A   1      47.276  28.828  27.360  1.00  0.00     0.049 A 
ATOM     53  C   UNL A   1      42.101  29.820  29.238  1.00  0.00     0.074 A 
ATOM     54  C   UNL A   1      48.163  29.889  27.381  1.00  0.00     0.029 A 
ATOM     55  N   UNL A   1      46.080  29.294  27.884  1.00  0.00    -0.354 N 
ATOM     56  N   UNL A   1      43.343  29.747  28.825  1.00  0.00    -0.248 NA
ATOM     57  C   UNL A   1      41.742  31.118  29.828  1.00  0.00     0.031 C 
ATOM     58  C   UNL A   1      47.517  30.987  27.961  1.00  0.00     0.029 A 
ATOM     59  C   UNL A   1      46.214  30.623  28.256  1.00  0.00     0.049 A 
ATOM     60  H   UNL A   1      45.258  28.762  27.978  1.00  0.00     0.167 HD
ATOM     61  C   UNL A   1      43.904  30.992  29.078  1.00  0.00     0.074 A 
ATOM     62  C   UNL A   1      42.865  31.806  29.671  1.00  0.00     0.031 C 
ATOM     63  C   UNL A   1      45.167  31.423  28.838  1.00  0.00     0.037 A 
BRANCH  50  64
ATOM     64  C   UNL A   1      48.867  27.117  26.412  1.00  0.00     0.064 A 
ATOM     65  C   UNL A   1      49.858  26.638  27.282  1.00  0.00     0.173 A 
ATOM     66  C   UNL A   1      49.182  27.214  25.047  1.00  0.00     0.173 A 
ATOM     67  F   UNL A   1      49.609  26.541  28.597  1.00  0.00    -0.203 F 
ATOM     68  C   UNL A   1      51.120  26.293  26.809  1.00  0.00     0.198 A 
ATOM     69  C   UNL A   1      50.437  26.844  24.574  1.00  0.00     0.198 A 
ATOM     70  F   UNL A   1      48.269  27.662  24.173  1.00  0.00    -0.203 F 
ATOM     71  F   UNL A   1      52.065  25.879  27.665  1.00  0.00    -0.200 F 
ATOM     72  C   UNL A   1      51.407  26.389  25.455  1.00  0.00     0.200 A 
ATOM     73  F   UNL A   1      50.710  26.928  23.264  1.00  0.00    -0.200 F 
ATOM     74  F   UNL A   1      52.621  26.051  25.000  1.00  0.00    -0.200 F 
ENDBRANCH  50  64
BRANCH  51  75
ATOM     75  C   UNL A   1      39.656  29.070  29.704  1.00  0.00     0.064 A 
ATOM     76  C   UNL A   1      39.339  28.877  31.055  1.00  0.00     0.173 A 
ATOM     77  C   UNL A   1      38.641  29.533  28.853  1.00  0.00     0.173 A 
ATOM     78  F   UNL A   1      40.268  28.411  31.901  1.00  0.00    -0.203 F 
ATOM     79  C   UNL A   1      38.053  29.122  31.534  1.00  0.00     0.198 A 
ATOM     80  C   UNL A   1      37.362  29.802  29.338  1.00  0.00     0.198 A 
ATOM     81  F   UNL A   1      38.893  29.728  27.551  1.00  0.00    -0.203 F 
ATOM     82  F   UNL A   1      37.763  28.890  32.821  1.00  0.00    -0.200 F 
ATOM     83  C   UNL A   1      37.068  29.590  30.676  1.00  0.00     0.200 A 
ATOM     84  F   UNL A   1      36.417  30.262  28.508  1.00  0.00    -0.200 F 
ATOM     85  F   UNL A   1      35.832  29.826  31.137  1.00  0.00    -0.200 F 
ENDBRANCH  51  75
BRANCH  63  86
ATOM     86  C   UNL A   1      45.489  32.847  29.184  1.00  0.00     0.064 A 
ATOM     87  C   UNL A   1      46.061  33.193  30.418  1.00  0.00     0.173 A 
ATOM     88  C   UNL A   1      45.262  33.873  28.254  1.00  0.00     0.173 A 
ATOM     89  F   UNL A   1      46.283  32.251  31.346  1.00  0.00    -0.203 F 
ATOM     90  C   UNL A   1      46.373  34.517  30.714  1.00  0.00     0.198 A 
ATOM     91  C   UNL A   1      45.600  35.191  28.544  1.00  0.00     0.198 A 
ATOM     92  F   UNL A   1      44.722  33.592  27.058  1.00  0.00    -0.203 F 
ATOM     93  F   UNL A   1      46.880  34.831  31.915  1.00  0.00    -0.200 F 
ATOM     94  C   UNL A   1      46.150  35.514  29.775  1.00  0.00     0.200 A 
ATOM     95  F   UNL A   1      45.395  36.151  27.631  1.00  0.00    -0.200 F 
ATOM     96  F   UNL A   1      46.459  36.786  30.060  1.00  0.00    -0.200 F 
ENDBRANCH  63  86
ENDBRANCH  37  38
ENDBRANCH  30  32
ENDBRANCH  29  30
ENDBRANCH  28  29
ENDBRANCH  27  28
ENDBRANCH  26  27
ENDBRANCH   1  26
TORSDOF 18
ENDMDL
