MODEL 1
REMARK VINA RESULT:     -12.5      0.000      0.000
REMARK SMILES COc1ccccc1[C@@H]1C[N@@H+](Cc2cc3c(cc2C)OCO3)C[C@H]1C(=O)OCCOCCOC(=O)c1ccc(-c2c3nc(c(-c4c(F)c(F)c(F)c(F)c4F)c4ccc([nH]4)c(-c4c(F)c(F)c(F)c(F)c4F)c4nc(c(-c5c(F)c(F)c(F)c(F)c5F)c5ccc2[nH]5)C=C4)C=C3)cc1
REMARK SMILES IDX 30 1 29 2 28 3 27 4 25 5 26 6 24 7 9 8 10 9 11 10 23 11 8 13
REMARK SMILES IDX 3 14 4 15 5 16 7 17 6 18 2 19 1 20 12 21 13 22 14 23 18 24
REMARK SMILES IDX 15 25 17 26 19 27 16 28 22 29 20 30 21 31 31 32 32 33 33 34
REMARK SMILES IDX 34 35 35 36 36 37 37 38 98 39 38 40 97 41 39 42 40 43 41 44
REMARK SMILES IDX 91 45 42 46 96 47 90 48 92 49 43 50 95 51 89 52 88 53 44 55
REMARK SMILES IDX 76 56 56 57 75 58 57 59 60 60 74 61 93 62 58 63 59 64 73 66
REMARK SMILES IDX 94 67 61 68 45 69 46 70 54 71 47 72 48 73 52 74 55 75 49 76
REMARK SMILES IDX 50 77 53 78 51 79 77 80 78 81 86 82 79 83 80 84 84 85 87 86
REMARK SMILES IDX 81 87 82 88 85 89 83 90 62 91 63 92 71 93 64 94 65 95 69 96
REMARK SMILES IDX 72 97 66 98 67 99 70 100 68 101
REMARK H PARENT 11 12 92 54 60 65
REMARK Flexibility Score: inf
ROOT
ATOM      1  O   UNL A   1      32.905  30.829  27.438  1.00  0.00    -0.374 OA
ENDROOT
BRANCH   1   2
ATOM      2  C   UNL A   1      33.652  29.925  26.618  1.00  0.00     0.202 C 
BRANCH   2   3
ATOM      3  C   UNL A   1      33.766  28.518  27.214  1.00  0.00     0.261 C 
BRANCH   3   4
ATOM      4  O   UNL A   1      33.006  27.566  26.440  1.00  0.00    -0.463 OA
BRANCH   4   5
ATOM      5  C   UNL A   1      31.780  27.290  26.955  1.00  0.00     0.315 C 
ATOM      6  O   UNL A   1      31.387  27.731  28.030  1.00  0.00    -0.252 OA
BRANCH   5   7
ATOM      7  C   UNL A   1      30.870  26.546  25.989  1.00  0.00     0.167 C 
ATOM      8  C   UNL A   1      31.117  26.675  24.478  1.00  0.00     0.098 C 
ATOM      9  C   UNL A   1      30.986  25.243  23.937  1.00  0.00     0.272 C 
ATOM     10  N   UNL A   1      31.283  24.333  25.042  1.00  0.00    -0.330 N 
ATOM     11  C   UNL A   1      30.917  25.039  26.274  1.00  0.00     0.278 C 
ATOM     12  H   UNL A   1      30.722  23.486  24.954  1.00  0.00     0.348 HD
BRANCH   8  13
ATOM     13  C   UNL A   1      30.218  27.632  23.703  1.00  0.00     0.004 A 
ATOM     14  C   UNL A   1      30.665  28.831  23.116  1.00  0.00     0.122 A 
ATOM     15  C   UNL A   1      29.786  29.655  22.402  1.00  0.00     0.047 A 
ATOM     16  C   UNL A   1      28.431  29.330  22.323  1.00  0.00     0.004 A 
ATOM     17  C   UNL A   1      28.840  27.352  23.648  1.00  0.00     0.008 A 
ATOM     18  C   UNL A   1      27.954  28.202  22.980  1.00  0.00     0.001 A 
BRANCH  14  19
ATOM     19  O   UNL A   1      31.884  29.343  23.474  1.00  0.00    -0.496 OA
ATOM     20  C   UNL A   1      32.987  28.860  22.722  1.00  0.00     0.278 C 
ENDBRANCH  14  19
ENDBRANCH   8  13
BRANCH  10  21
ATOM     21  C   UNL A   1      32.618  23.723  25.021  1.00  0.00     0.299 C 
BRANCH  21  22
ATOM     22  C   UNL A   1      32.681  22.310  24.482  1.00  0.00     0.013 A 
ATOM     23  C   UNL A   1      32.644  21.271  25.427  1.00  0.00     0.060 A 
ATOM     24  C   UNL A   1      32.676  21.996  23.091  1.00  0.00    -0.038 A 
ATOM     25  C   UNL A   1      32.477  19.994  24.972  1.00  0.00     0.166 A 
ATOM     26  C   UNL A   1      32.445  20.678  22.675  1.00  0.00     0.054 A 
ATOM     27  C   UNL A   1      32.914  22.998  21.996  1.00  0.00     0.045 C 
ATOM     28  C   UNL A   1      32.357  19.709  23.636  1.00  0.00     0.166 A 
ATOM     29  O   UNL A   1      32.381  18.896  25.756  1.00  0.00    -0.454 OA
ATOM     30  O   UNL A   1      32.188  18.388  23.397  1.00  0.00    -0.454 OA
ATOM     31  C   UNL A   1      32.302  17.890  24.739  1.00  0.00     0.468 C 
ENDBRANCH  21  22
ENDBRANCH  10  21
ENDBRANCH   5   7
ENDBRANCH   4   5
ENDBRANCH   3   4
ENDBRANCH   2   3
ENDBRANCH   1   2
BRANCH   1  32
ATOM     32  C   UNL A   1      31.795  31.453  26.794  1.00  0.00     0.202 C 
BRANCH  32  33
ATOM     33  C   UNL A   1      31.796  32.980  26.913  1.00  0.00     0.261 C 
BRANCH  33  34
ATOM     34  O   UNL A   1      33.118  33.527  27.056  1.00  0.00    -0.460 OA
BRANCH  34  35
ATOM     35  C   UNL A   1      33.360  34.127  28.254  1.00  0.00     0.338 C 
ATOM     36  O   UNL A   1      32.723  35.003  28.788  1.00  0.00    -0.246 OA
BRANCH  35  37
ATOM     37  C   UNL A   1      34.521  33.476  28.898  1.00  0.00     0.060 A 
ATOM     38  C   UNL A   1      35.796  33.735  28.379  1.00  0.00     0.016 A 
ATOM     39  C   UNL A   1      34.366  32.614  29.987  1.00  0.00     0.016 A 
ATOM     40  C   UNL A   1      36.927  33.149  28.958  1.00  0.00     0.010 A 
ATOM     41  C   UNL A   1      35.503  32.045  30.578  1.00  0.00     0.010 A 
ATOM     42  C   UNL A   1      36.797  32.300  30.065  1.00  0.00    -0.014 A 
BRANCH  42  43
ATOM     43  C   UNL A   1      37.974  31.557  30.603  1.00  0.00     0.031 A 
ATOM     44  C   UNL A   1      38.441  31.907  31.991  1.00  0.00     0.074 A 
ATOM     45  C   UNL A   1      38.633  30.610  29.902  1.00  0.00     0.049 A 
ATOM     46  N   UNL A   1      39.446  31.431  32.680  1.00  0.00    -0.248 NA
ATOM     47  C   UNL A   1      37.672  32.950  32.693  1.00  0.00     0.031 C 
ATOM     48  C   UNL A   1      38.297  30.139  28.559  1.00  0.00     0.029 A 
ATOM     49  N   UNL A   1      39.754  29.877  30.229  1.00  0.00    -0.354 N 
ATOM     50  C   UNL A   1      39.415  32.106  33.891  1.00  0.00     0.074 A 
ATOM     51  C   UNL A   1      38.370  33.100  33.804  1.00  0.00     0.031 C 
ATOM     52  C   UNL A   1      39.216  29.243  28.156  1.00  0.00     0.029 A 
ATOM     53  C   UNL A   1      40.188  29.039  29.226  1.00  0.00     0.049 A 
ATOM     54  H   UNL A   1      40.204  29.947  31.101  1.00  0.00     0.167 HD
ATOM     55  C   UNL A   1      40.144  31.885  35.009  1.00  0.00     0.037 A 
ATOM     56  C   UNL A   1      41.235  28.190  29.186  1.00  0.00     0.037 A 
ATOM     57  C   UNL A   1      41.171  30.893  35.120  1.00  0.00     0.049 A 
ATOM     58  C   UNL A   1      42.088  28.010  30.419  1.00  0.00     0.074 A 
ATOM     59  C   UNL A   1      41.949  30.573  36.218  1.00  0.00     0.029 A 
ATOM     60  N   UNL A   1      41.566  30.058  34.086  1.00  0.00    -0.354 N 
ATOM     61  N   UNL A   1      41.982  28.586  31.592  1.00  0.00    -0.248 NA
ATOM     62  C   UNL A   1      43.186  27.034  30.333  1.00  0.00     0.031 C 
ATOM     63  C   UNL A   1      42.843  29.568  35.835  1.00  0.00     0.029 A 
ATOM     64  C   UNL A   1      42.593  29.235  34.514  1.00  0.00     0.049 A 
ATOM     65  H   UNL A   1      41.174  30.052  33.183  1.00  0.00     0.167 HD
ATOM     66  C   UNL A   1      42.955  28.003  32.394  1.00  0.00     0.074 A 
ATOM     67  C   UNL A   1      43.647  27.030  31.575  1.00  0.00     0.031 C 
ATOM     68  C   UNL A   1      43.245  28.247  33.695  1.00  0.00     0.037 A 
BRANCH  55  69
ATOM     69  C   UNL A   1      39.817  32.741  36.194  1.00  0.00     0.064 A 
ATOM     70  C   UNL A   1      38.762  32.408  37.060  1.00  0.00     0.173 A 
ATOM     71  C   UNL A   1      40.513  33.933  36.429  1.00  0.00     0.173 A 
ATOM     72  F   UNL A   1      38.048  31.289  36.856  1.00  0.00    -0.203 F 
ATOM     73  C   UNL A   1      38.382  33.266  38.086  1.00  0.00     0.198 A 
ATOM     74  C   UNL A   1      40.150  34.774  37.477  1.00  0.00     0.198 A 
ATOM     75  F   UNL A   1      41.525  34.295  35.627  1.00  0.00    -0.203 F 
ATOM     76  F   UNL A   1      37.319  32.969  38.846  1.00  0.00    -0.200 F 
ATOM     77  C   UNL A   1      39.077  34.448  38.295  1.00  0.00     0.200 A 
ATOM     78  F   UNL A   1      40.822  35.915  37.680  1.00  0.00    -0.200 F 
ATOM     79  F   UNL A   1      38.699  35.284  39.270  1.00  0.00    -0.200 F 
ENDBRANCH  55  69
BRANCH  56  80
ATOM     80  C   UNL A   1      41.522  27.383  27.967  1.00  0.00     0.064 A 
ATOM     81  C   UNL A   1      41.023  26.078  27.834  1.00  0.00     0.173 A 
ATOM     82  C   UNL A   1      42.363  27.862  26.953  1.00  0.00     0.173 A 
ATOM     83  F   UNL A   1      40.238  25.563  28.792  1.00  0.00    -0.203 F 
ATOM     84  C   UNL A   1      41.383  25.272  26.755  1.00  0.00     0.198 A 
ATOM     85  C   UNL A   1      42.706  27.062  25.862  1.00  0.00     0.198 A 
ATOM     86  F   UNL A   1      42.874  29.100  27.033  1.00  0.00    -0.203 F 
ATOM     87  F   UNL A   1      40.944  24.008  26.689  1.00  0.00    -0.200 F 
ATOM     88  C   UNL A   1      42.225  25.765  25.769  1.00  0.00     0.200 A 
ATOM     89  F   UNL A   1      43.520  27.540  24.910  1.00  0.00    -0.200 F 
ATOM     90  F   UNL A   1      42.588  24.982  24.743  1.00  0.00    -0.200 F 
ENDBRANCH  56  80
BRANCH  68  91
ATOM     91  C   UNL A   1      44.315  27.419  34.343  1.00  0.00     0.064 A 
ATOM     92  C   UNL A   1      44.034  26.171  34.917  1.00  0.00     0.173 A 
ATOM     93  C   UNL A   1      45.652  27.843  34.311  1.00  0.00     0.173 A 
ATOM     94  F   UNL A   1      42.769  25.728  34.983  1.00  0.00    -0.203 F 
ATOM     95  C   UNL A   1      45.053  25.381  35.441  1.00  0.00     0.198 A 
ATOM     96  C   UNL A   1      46.671  27.039  34.811  1.00  0.00     0.198 A 
ATOM     97  F   UNL A   1      45.973  29.027  33.767  1.00  0.00    -0.203 F 
ATOM     98  F   UNL A   1      44.760  24.204  36.011  1.00  0.00    -0.200 F 
ATOM     99  C   UNL A   1      46.371  25.810  35.378  1.00  0.00     0.200 A 
ATOM    100  F   UNL A   1      47.945  27.447  34.733  1.00  0.00    -0.200 F 
ATOM    101  F   UNL A   1      47.352  25.037  35.865  1.00  0.00    -0.200 F 
ENDBRANCH  68  91
ENDBRANCH  42  43
ENDBRANCH  35  37
ENDBRANCH  34  35
ENDBRANCH  33  34
ENDBRANCH  32  33
ENDBRANCH   1  32
TORSDOF 18
ENDMDL
MODEL 2
REMARK VINA RESULT:     -12.3      1.097      2.108
REMARK SMILES COc1ccccc1[C@@H]1C[N@@H+](Cc2cc3c(cc2C)OCO3)C[C@H]1C(=O)OCCOCCOC(=O)c1ccc(-c2c3nc(c(-c4c(F)c(F)c(F)c(F)c4F)c4ccc([nH]4)c(-c4c(F)c(F)c(F)c(F)c4F)c4nc(c(-c5c(F)c(F)c(F)c(F)c5F)c5ccc2[nH]5)C=C4)C=C3)cc1
REMARK SMILES IDX 30 1 29 2 28 3 27 4 25 5 26 6 24 7 9 8 10 9 11 10 23 11 8 13
REMARK SMILES IDX 3 14 4 15 5 16 7 17 6 18 2 19 1 20 12 21 13 22 14 23 18 24
REMARK SMILES IDX 15 25 17 26 19 27 16 28 22 29 20 30 21 31 31 32 32 33 33 34
REMARK SMILES IDX 34 35 35 36 36 37 37 38 98 39 38 40 97 41 39 42 40 43 41 44
REMARK SMILES IDX 91 45 42 46 96 47 90 48 92 49 43 50 95 51 89 52 88 53 44 55
REMARK SMILES IDX 76 56 56 57 75 58 57 59 60 60 74 61 93 62 58 63 59 64 73 66
REMARK SMILES IDX 94 67 61 68 45 69 46 70 54 71 47 72 48 73 52 74 55 75 49 76
REMARK SMILES IDX 50 77 53 78 51 79 77 80 78 81 86 82 79 83 80 84 84 85 87 86
REMARK SMILES IDX 81 87 82 88 85 89 83 90 62 91 63 92 71 93 64 94 65 95 69 96
REMARK SMILES IDX 72 97 66 98 67 99 70 100 68 101
REMARK H PARENT 11 12 92 54 60 65
REMARK Flexibility Score: inf
ROOT
ATOM      1  O   UNL A   1      32.257  30.054  26.723  1.00  0.00    -0.374 OA
ENDROOT
BRANCH   1   2
ATOM      2  C   UNL A   1      31.688  28.918  27.384  1.00  0.00     0.202 C 
BRANCH   2   3
ATOM      3  C   UNL A   1      32.004  27.591  26.689  1.00  0.00     0.261 C 
BRANCH   3   4
ATOM      4  O   UNL A   1      30.836  26.745  26.637  1.00  0.00    -0.463 OA
BRANCH   4   5
ATOM      5  C   UNL A   1      31.070  25.513  26.114  1.00  0.00     0.315 C 
ATOM      6  O   UNL A   1      31.491  24.569  26.776  1.00  0.00    -0.252 OA
BRANCH   5   7
ATOM      7  C   UNL A   1      30.579  25.359  24.683  1.00  0.00     0.167 C 
ATOM      8  C   UNL A   1      31.232  26.197  23.573  1.00  0.00     0.098 C 
ATOM      9  C   UNL A   1      31.445  25.211  22.413  1.00  0.00     0.272 C 
ATOM     10  N   UNL A   1      31.525  23.872  22.992  1.00  0.00    -0.330 N 
ATOM     11  C   UNL A   1      30.733  23.902  24.226  1.00  0.00     0.278 C 
ATOM     12  H   UNL A   1      31.125  23.191  22.347  1.00  0.00     0.348 HD
BRANCH   8  13
ATOM     13  C   UNL A   1      30.480  27.437  23.100  1.00  0.00     0.004 A 
ATOM     14  C   UNL A   1      31.083  28.514  22.425  1.00  0.00     0.122 A 
ATOM     15  C   UNL A   1      30.327  29.614  22.003  1.00  0.00     0.047 A 
ATOM     16  C   UNL A   1      28.968  29.689  22.313  1.00  0.00     0.004 A 
ATOM     17  C   UNL A   1      29.120  27.558  23.440  1.00  0.00     0.008 A 
ATOM     18  C   UNL A   1      28.376  28.681  23.065  1.00  0.00     0.001 A 
BRANCH  14  19
ATOM     19  O   UNL A   1      32.448  28.629  22.424  1.00  0.00    -0.496 OA
ATOM     20  C   UNL A   1      33.007  29.198  23.599  1.00  0.00     0.278 C 
ENDBRANCH  14  19
ENDBRANCH   8  13
BRANCH  10  21
ATOM     21  C   UNL A   1      32.876  23.308  23.107  1.00  0.00     0.299 C 
BRANCH  21  22
ATOM     22  C   UNL A   1      32.971  21.989  23.843  1.00  0.00     0.013 A 
ATOM     23  C   UNL A   1      32.344  20.884  23.242  1.00  0.00     0.060 A 
ATOM     24  C   UNL A   1      33.731  21.804  25.034  1.00  0.00    -0.038 A 
ATOM     25  C   UNL A   1      32.594  19.645  23.758  1.00  0.00     0.166 A 
ATOM     26  C   UNL A   1      34.006  20.508  25.492  1.00  0.00     0.054 A 
ATOM     27  C   UNL A   1      34.275  22.926  25.875  1.00  0.00     0.045 C 
ATOM     28  C   UNL A   1      33.420  19.460  24.838  1.00  0.00     0.166 A 
ATOM     29  O   UNL A   1      32.101  18.485  23.267  1.00  0.00    -0.454 OA
ATOM     30  O   UNL A   1      33.544  18.158  25.184  1.00  0.00    -0.454 OA
ATOM     31  C   UNL A   1      32.630  17.576  24.241  1.00  0.00     0.468 C 
ENDBRANCH  21  22
ENDBRANCH  10  21
ENDBRANCH   5   7
ENDBRANCH   4   5
ENDBRANCH   3   4
ENDBRANCH   2   3
ENDBRANCH   1   2
BRANCH   1  32
ATOM     32  C   UNL A   1      31.375  31.164  26.562  1.00  0.00     0.202 C 
BRANCH  32  33
ATOM     33  C   UNL A   1      31.953  32.485  27.077  1.00  0.00     0.261 C 
BRANCH  33  34
ATOM     34  O   UNL A   1      33.389  32.534  27.001  1.00  0.00    -0.460 OA
BRANCH  34  35
ATOM     35  C   UNL A   1      33.983  33.318  27.943  1.00  0.00     0.338 C 
ATOM     36  O   UNL A   1      33.602  34.381  28.372  1.00  0.00    -0.246 OA
BRANCH  35  37
ATOM     37  C   UNL A   1      35.180  32.626  28.468  1.00  0.00     0.060 A 
ATOM     38  C   UNL A   1      35.013  31.354  29.032  1.00  0.00     0.016 A 
ATOM     39  C   UNL A   1      36.445  33.215  28.420  1.00  0.00     0.016 A 
ATOM     40  C   UNL A   1      36.115  30.656  29.536  1.00  0.00     0.010 A 
ATOM     41  C   UNL A   1      37.551  32.504  28.907  1.00  0.00     0.010 A 
ATOM     42  C   UNL A   1      37.397  31.218  29.478  1.00  0.00    -0.014 A 
BRANCH  42  43
ATOM     43  C   UNL A   1      38.557  30.550  30.137  1.00  0.00     0.031 A 
ATOM     44  C   UNL A   1      38.872  30.942  31.556  1.00  0.00     0.074 A 
ATOM     45  C   UNL A   1      39.330  29.632  29.517  1.00  0.00     0.049 A 
ATOM     46  N   UNL A   1      39.833  30.532  32.344  1.00  0.00    -0.248 NA
ATOM     47  C   UNL A   1      37.986  31.949  32.165  1.00  0.00     0.031 C 
ATOM     48  C   UNL A   1      39.147  29.127  28.157  1.00  0.00     0.029 A 
ATOM     49  N   UNL A   1      40.454  28.967  29.960  1.00  0.00    -0.354 N 
ATOM     50  C   UNL A   1      39.652  31.219  33.534  1.00  0.00     0.074 A 
ATOM     51  C   UNL A   1      38.567  32.152  33.333  1.00  0.00     0.031 C 
ATOM     52  C   UNL A   1      40.148  28.279  27.857  1.00  0.00     0.029 A 
ATOM     53  C   UNL A   1      41.025  28.143  29.016  1.00  0.00     0.049 A 
ATOM     54  H   UNL A   1      40.816  29.073  30.868  1.00  0.00     0.167 HD
ATOM     55  C   UNL A   1      40.283  31.053  34.719  1.00  0.00     0.037 A 
ATOM     56  C   UNL A   1      42.115  27.353  29.089  1.00  0.00     0.037 A 
ATOM     57  C   UNL A   1      41.348  30.121  34.943  1.00  0.00     0.049 A 
ATOM     58  C   UNL A   1      42.858  27.236  30.398  1.00  0.00     0.074 A 
ATOM     59  C   UNL A   1      42.035  29.859  36.113  1.00  0.00     0.029 A 
ATOM     60  N   UNL A   1      41.883  29.297  33.965  1.00  0.00    -0.354 N 
ATOM     61  N   UNL A   1      42.611  27.819  31.546  1.00  0.00    -0.248 NA
ATOM     62  C   UNL A   1      44.010  26.321  30.432  1.00  0.00     0.031 C 
ATOM     63  C   UNL A   1      43.015  28.901  35.834  1.00  0.00     0.029 A 
ATOM     64  C   UNL A   1      42.908  28.538  34.501  1.00  0.00     0.049 A 
ATOM     65  H   UNL A   1      41.579  29.257  33.029  1.00  0.00     0.167 HD
ATOM     66  C   UNL A   1      43.535  27.301  32.446  1.00  0.00     0.074 A 
ATOM     67  C   UNL A   1      44.352  26.359  31.712  1.00  0.00     0.031 C 
ATOM     68  C   UNL A   1      43.688  27.578  33.764  1.00  0.00     0.037 A 
BRANCH  55  69
ATOM     69  C   UNL A   1      39.801  31.904  35.853  1.00  0.00     0.064 A 
ATOM     70  C   UNL A   1      38.654  31.553  36.585  1.00  0.00     0.173 A 
ATOM     71  C   UNL A   1      40.443  33.107  36.168  1.00  0.00     0.173 A 
ATOM     72  F   UNL A   1      37.989  30.423  36.299  1.00  0.00    -0.203 F 
ATOM     73  C   UNL A   1      38.138  32.406  37.556  1.00  0.00     0.198 A 
ATOM     74  C   UNL A   1      39.941  33.943  37.162  1.00  0.00     0.198 A 
ATOM     75  F   UNL A   1      41.539  33.486  35.494  1.00  0.00    -0.203 F 
ATOM     76  F   UNL A   1      36.995  32.092  38.181  1.00  0.00    -0.200 F 
ATOM     77  C   UNL A   1      38.782  33.599  37.844  1.00  0.00     0.200 A 
ATOM     78  F   UNL A   1      40.564  35.095  37.442  1.00  0.00    -0.200 F 
ATOM     79  F   UNL A   1      38.275  34.430  38.764  1.00  0.00    -0.200 F 
ENDBRANCH  55  69
BRANCH  56  80
ATOM     80  C   UNL A   1      42.559  26.548  27.916  1.00  0.00     0.064 A 
ATOM     81  C   UNL A   1      43.472  27.071  26.987  1.00  0.00     0.173 A 
ATOM     82  C   UNL A   1      42.021  25.280  27.653  1.00  0.00     0.173 A 
ATOM     83  F   UNL A   1      43.991  28.293  27.178  1.00  0.00    -0.203 F 
ATOM     84  C   UNL A   1      43.801  26.374  25.825  1.00  0.00     0.198 A 
ATOM     85  C   UNL A   1      42.368  24.574  26.500  1.00  0.00     0.198 A 
ATOM     86  F   UNL A   1      41.138  24.735  28.503  1.00  0.00    -0.203 F 
ATOM     87  F   UNL A   1      44.625  26.929  24.925  1.00  0.00    -0.200 F 
ATOM     88  C   UNL A   1      43.248  25.126  25.582  1.00  0.00     0.200 A 
ATOM     89  F   UNL A   1      41.832  23.368  26.267  1.00  0.00    -0.200 F 
ATOM     90  F   UNL A   1      43.549  24.467  24.455  1.00  0.00    -0.200 F 
ENDBRANCH  56  80
BRANCH  68  91
ATOM     91  C   UNL A   1      44.735  26.818  34.523  1.00  0.00     0.064 A 
ATOM     92  C   UNL A   1      46.030  27.326  34.700  1.00  0.00     0.173 A 
ATOM     93  C   UNL A   1      44.410  25.608  35.154  1.00  0.00     0.173 A 
ATOM     94  F   UNL A   1      46.392  28.473  34.106  1.00  0.00    -0.203 F 
ATOM     95  C   UNL A   1      46.963  26.645  35.476  1.00  0.00     0.198 A 
ATOM     96  C   UNL A   1      45.337  24.944  35.951  1.00  0.00     0.198 A 
ATOM     97  F   UNL A   1      43.182  25.084  35.019  1.00  0.00    -0.203 F 
ATOM     98  F   UNL A   1      48.204  27.133  35.610  1.00  0.00    -0.200 F 
ATOM     99  C   UNL A   1      46.614  25.461  36.109  1.00  0.00     0.200 A 
ATOM    100  F   UNL A   1      44.992  23.809  36.576  1.00  0.00    -0.200 F 
ATOM    101  F   UNL A   1      47.508  24.818  36.873  1.00  0.00    -0.200 F 
ENDBRANCH  68  91
ENDBRANCH  42  43
ENDBRANCH  35  37
ENDBRANCH  34  35
ENDBRANCH  33  34
ENDBRANCH  32  33
ENDBRANCH   1  32
TORSDOF 18
ENDMDL
MODEL 3
REMARK VINA RESULT:     -12.3      1.589      3.664
REMARK SMILES COc1ccccc1[C@@H]1C[N@@H+](Cc2cc3c(cc2C)OCO3)C[C@H]1C(=O)OCCOCCOC(=O)c1ccc(-c2c3nc(c(-c4c(F)c(F)c(F)c(F)c4F)c4ccc([nH]4)c(-c4c(F)c(F)c(F)c(F)c4F)c4nc(c(-c5c(F)c(F)c(F)c(F)c5F)c5ccc2[nH]5)C=C4)C=C3)cc1
REMARK SMILES IDX 30 1 29 2 28 3 27 4 25 5 26 6 24 7 9 8 10 9 11 10 23 11 8 13
REMARK SMILES IDX 3 14 4 15 5 16 7 17 6 18 2 19 1 20 12 21 13 22 14 23 18 24
REMARK SMILES IDX 15 25 17 26 19 27 16 28 22 29 20 30 21 31 31 32 32 33 33 34
REMARK SMILES IDX 34 35 35 36 36 37 37 38 98 39 38 40 97 41 39 42 40 43 41 44
REMARK SMILES IDX 91 45 42 46 96 47 90 48 92 49 43 50 95 51 89 52 88 53 44 55
REMARK SMILES IDX 76 56 56 57 75 58 57 59 60 60 74 61 93 62 58 63 59 64 73 66
REMARK SMILES IDX 94 67 61 68 45 69 46 70 54 71 47 72 48 73 52 74 55 75 49 76
REMARK SMILES IDX 50 77 53 78 51 79 77 80 78 81 86 82 79 83 80 84 84 85 87 86
REMARK SMILES IDX 81 87 82 88 85 89 83 90 62 91 63 92 71 93 64 94 65 95 69 96
REMARK SMILES IDX 72 97 66 98 67 99 70 100 68 101
REMARK H PARENT 11 12 92 54 60 65
REMARK Flexibility Score: inf
ROOT
ATOM      1  O   UNL A   1      32.390  30.507  27.230  1.00  0.00    -0.374 OA
ENDROOT
BRANCH   1   2
ATOM      2  C   UNL A   1      33.368  29.794  26.465  1.00  0.00     0.202 C 
BRANCH   2   3
ATOM      3  C   UNL A   1      33.308  28.277  26.668  1.00  0.00     0.261 C 
BRANCH   3   4
ATOM      4  O   UNL A   1      33.666  27.580  25.456  1.00  0.00    -0.463 OA
BRANCH   4   5
ATOM      5  C   UNL A   1      33.749  26.232  25.599  1.00  0.00     0.315 C 
ATOM      6  O   UNL A   1      33.254  25.624  26.543  1.00  0.00    -0.252 OA
BRANCH   5   7
ATOM      7  C   UNL A   1      34.339  25.528  24.386  1.00  0.00     0.167 C 
ATOM      8  C   UNL A   1      34.134  24.014  24.225  1.00  0.00     0.098 C 
ATOM      9  C   UNL A   1      33.762  23.824  22.747  1.00  0.00     0.272 C 
ATOM     10  N   UNL A   1      33.184  25.083  22.281  1.00  0.00    -0.330 N 
ATOM     11  C   UNL A   1      33.783  26.145  23.096  1.00  0.00     0.278 C 
ATOM     12  H   UNL A   1      33.420  25.232  21.300  1.00  0.00     0.348 HD
BRANCH   8  13
ATOM     13  C   UNL A   1      35.297  23.107  24.613  1.00  0.00     0.004 A 
ATOM     14  C   UNL A   1      35.157  21.750  24.959  1.00  0.00     0.122 A 
ATOM     15  C   UNL A   1      36.272  20.971  25.287  1.00  0.00     0.047 A 
ATOM     16  C   UNL A   1      37.540  21.553  25.345  1.00  0.00     0.004 A 
ATOM     17  C   UNL A   1      36.577  23.681  24.723  1.00  0.00     0.008 A 
ATOM     18  C   UNL A   1      37.684  22.914  25.103  1.00  0.00     0.001 A 
BRANCH  14  19
ATOM     19  O   UNL A   1      33.914  21.255  25.253  1.00  0.00    -0.496 OA
ATOM     20  C   UNL A   1      33.565  20.055  24.577  1.00  0.00     0.278 C 
ENDBRANCH  14  19
ENDBRANCH   8  13
BRANCH  10  21
ATOM     21  C   UNL A   1      31.720  25.107  22.166  1.00  0.00     0.299 C 
BRANCH  21  22
ATOM     22  C   UNL A   1      30.961  24.910  23.461  1.00  0.00     0.013 A 
ATOM     23  C   UNL A   1      30.958  23.613  24.000  1.00  0.00     0.060 A 
ATOM     24  C   UNL A   1      30.350  25.975  24.186  1.00  0.00    -0.038 A 
ATOM     25  C   UNL A   1      30.477  23.445  25.267  1.00  0.00     0.166 A 
ATOM     26  C   UNL A   1      29.922  25.764  25.504  1.00  0.00     0.054 A 
ATOM     27  C   UNL A   1      30.112  27.351  23.630  1.00  0.00     0.045 C 
ATOM     28  C   UNL A   1      29.994  24.494  26.006  1.00  0.00     0.166 A 
ATOM     29  O   UNL A   1      30.445  22.270  25.937  1.00  0.00    -0.454 OA
ATOM     30  O   UNL A   1      29.577  24.119  27.237  1.00  0.00    -0.454 OA
ATOM     31  C   UNL A   1      29.783  22.701  27.132  1.00  0.00     0.468 C 
ENDBRANCH  21  22
ENDBRANCH  10  21
ENDBRANCH   5   7
ENDBRANCH   4   5
ENDBRANCH   3   4
ENDBRANCH   2   3
ENDBRANCH   1   2
BRANCH   1  32
ATOM     32  C   UNL A   1      31.635  31.471  26.498  1.00  0.00     0.202 C 
BRANCH  32  33
ATOM     33  C   UNL A   1      31.978  32.920  26.858  1.00  0.00     0.261 C 
BRANCH  33  34
ATOM     34  O   UNL A   1      32.742  33.028  28.072  1.00  0.00    -0.460 OA
BRANCH  34  35
ATOM     35  C   UNL A   1      33.847  33.818  27.981  1.00  0.00     0.338 C 
ATOM     36  O   UNL A   1      33.908  34.972  27.629  1.00  0.00    -0.246 OA
BRANCH  35  37
ATOM     37  C   UNL A   1      35.022  33.070  28.476  1.00  0.00     0.060 A 
ATOM     38  C   UNL A   1      34.804  31.837  29.104  1.00  0.00     0.016 A 
ATOM     39  C   UNL A   1      36.319  33.571  28.340  1.00  0.00     0.016 A 
ATOM     40  C   UNL A   1      35.884  31.087  29.583  1.00  0.00     0.010 A 
ATOM     41  C   UNL A   1      37.401  32.808  28.802  1.00  0.00     0.010 A 
ATOM     42  C   UNL A   1      37.194  31.560  29.437  1.00  0.00    -0.014 A 
BRANCH  42  43
ATOM     43  C   UNL A   1      38.342  30.843  30.066  1.00  0.00     0.031 A 
ATOM     44  C   UNL A   1      38.678  31.186  31.493  1.00  0.00     0.074 A 
ATOM     45  C   UNL A   1      39.087  29.924  29.414  1.00  0.00     0.049 A 
ATOM     46  N   UNL A   1      39.633  30.728  32.262  1.00  0.00    -0.248 NA
ATOM     47  C   UNL A   1      37.822  32.196  32.139  1.00  0.00     0.031 C 
ATOM     48  C   UNL A   1      38.881  29.465  28.041  1.00  0.00     0.029 A 
ATOM     49  N   UNL A   1      40.196  29.219  29.827  1.00  0.00    -0.354 N 
ATOM     50  C   UNL A   1      39.478  31.384  33.473  1.00  0.00     0.074 A 
ATOM     51  C   UNL A   1      38.417  32.350  33.307  1.00  0.00     0.031 C 
ATOM     52  C   UNL A   1      39.857  28.600  27.708  1.00  0.00     0.029 A 
ATOM     53  C   UNL A   1      40.739  28.408  28.855  1.00  0.00     0.049 A 
ATOM     54  H   UNL A   1      40.567  29.289  30.735  1.00  0.00     0.167 HD
ATOM     55  C   UNL A   1      40.114  31.168  34.647  1.00  0.00     0.037 A 
ATOM     56  C   UNL A   1      41.809  27.589  28.896  1.00  0.00     0.037 A 
ATOM     57  C   UNL A   1      41.156  30.203  34.835  1.00  0.00     0.049 A 
ATOM     58  C   UNL A   1      42.558  27.415  30.196  1.00  0.00     0.074 A 
ATOM     59  C   UNL A   1      41.846  29.889  35.991  1.00  0.00     0.029 A 
ATOM     60  N   UNL A   1      41.663  29.394  33.829  1.00  0.00    -0.354 N 
ATOM     61  N   UNL A   1      42.335  27.971  31.362  1.00  0.00    -0.248 NA
ATOM     62  C   UNL A   1      43.687  26.471  30.193  1.00  0.00     0.031 C 
ATOM     63  C   UNL A   1      42.799  28.915  35.676  1.00  0.00     0.029 A 
ATOM     64  C   UNL A   1      42.672  28.594  34.334  1.00  0.00     0.049 A 
ATOM     65  H   UNL A   1      41.351  29.390  32.895  1.00  0.00     0.167 HD
ATOM     66  C   UNL A   1      43.252  27.403  32.239  1.00  0.00     0.074 A 
ATOM     67  C   UNL A   1      44.039  26.462  31.471  1.00  0.00     0.031 C 
ATOM     68  C   UNL A   1      43.422  27.637  33.563  1.00  0.00     0.037 A 
BRANCH  55  69
ATOM     69  C   UNL A   1      39.662  31.996  35.809  1.00  0.00     0.064 A 
ATOM     70  C   UNL A   1      40.349  33.166  36.176  1.00  0.00     0.173 A 
ATOM     71  C   UNL A   1      38.583  31.588  36.603  1.00  0.00     0.173 A 
ATOM     72  F   UNL A   1      41.408  33.581  35.462  1.00  0.00    -0.203 F 
ATOM     73  C   UNL A   1      40.003  33.866  37.327  1.00  0.00     0.198 A 
ATOM     74  C   UNL A   1      38.220  32.310  37.736  1.00  0.00     0.198 A 
ATOM     75  F   UNL A   1      37.901  30.475  36.294  1.00  0.00    -0.203 F 
ATOM     76  F   UNL A   1      40.725  34.930  37.705  1.00  0.00    -0.200 F 
ATOM     77  C   UNL A   1      38.938  33.438  38.106  1.00  0.00     0.200 A 
ATOM     78  F   UNL A   1      37.191  31.897  38.488  1.00  0.00    -0.200 F 
ATOM     79  F   UNL A   1      38.617  34.100  39.225  1.00  0.00    -0.200 F 
ENDBRANCH  55  69
BRANCH  56  80
ATOM     80  C   UNL A   1      42.223  26.808  27.697  1.00  0.00     0.064 A 
ATOM     81  C   UNL A   1      41.699  25.529  27.455  1.00  0.00     0.173 A 
ATOM     82  C   UNL A   1      43.206  27.283  26.818  1.00  0.00     0.173 A 
ATOM     83  F   UNL A   1      40.778  25.017  28.285  1.00  0.00    -0.203 F 
ATOM     84  C   UNL A   1      42.167  24.742  26.403  1.00  0.00     0.198 A 
ATOM     85  C   UNL A   1      43.659  26.503  25.753  1.00  0.00     0.198 A 
ATOM     86  F   UNL A   1      43.747  28.495  27.006  1.00  0.00    -0.203 F 
ATOM     87  F   UNL A   1      41.695  23.499  26.238  1.00  0.00    -0.200 F 
ATOM     88  C   UNL A   1      43.148  25.229  25.553  1.00  0.00     0.200 A 
ATOM     89  F   UNL A   1      44.607  26.975  24.932  1.00  0.00    -0.200 F 
ATOM     90  F   UNL A   1      43.613  24.464  24.556  1.00  0.00    -0.200 F 
ENDBRANCH  56  80
BRANCH  68  91
ATOM     91  C   UNL A   1      44.455  26.829  34.291  1.00  0.00     0.064 A 
ATOM     92  C   UNL A   1      44.151  25.583  34.857  1.00  0.00     0.173 A 
ATOM     93  C   UNL A   1      45.786  27.271  34.345  1.00  0.00     0.173 A 
ATOM     94  F   UNL A   1      42.891  25.124  34.843  1.00  0.00    -0.203 F 
ATOM     95  C   UNL A   1      45.142  24.813  35.459  1.00  0.00     0.198 A 
ATOM     96  C   UNL A   1      46.778  26.486  34.922  1.00  0.00     0.198 A 
ATOM     97  F   UNL A   1      46.127  28.454  33.811  1.00  0.00    -0.203 F 
ATOM     98  F   UNL A   1      44.826  23.637  36.019  1.00  0.00    -0.200 F 
ATOM     99  C   UNL A   1      46.456  25.258  35.480  1.00  0.00     0.200 A 
ATOM    100  F   UNL A   1      48.050  26.910  34.926  1.00  0.00    -0.200 F 
ATOM    101  F   UNL A   1      47.411  24.504  36.041  1.00  0.00    -0.200 F 
ENDBRANCH  68  91
ENDBRANCH  42  43
ENDBRANCH  35  37
ENDBRANCH  34  35
ENDBRANCH  33  34
ENDBRANCH  32  33
ENDBRANCH   1  32
TORSDOF 18
ENDMDL
