MODEL 1
REMARK VINA RESULT:     -10.8      0.000      0.000
REMARK SMILES O=C(/C=C/c1c(Cl)cccc1Cl)NCC(=O)OCCOCCOC(=O)c1ccc(-c2c3nc(c(-c4c(F)c(F)c(F)c(F)c4F)c4ccc([nH]4)c(-c4c(F)c(F)c(F)c(F)c4F)c4nc(c(-c5c(F)c(F)c(F)c(F)c5F)c5ccc2[nH]5)C=C4)C=C3)cc1
REMARK SMILES IDX 19 1 18 2 17 3 15 4 16 5 14 6 13 7 1 8 2 9 3 11 4 12 5 13
REMARK SMILES IDX 6 14 11 15 7 16 8 17 10 18 12 19 9 20 20 21 21 22 22 23
REMARK SMILES IDX 23 24 24 25 25 26 26 27 27 28 88 29 28 30 87 31 29 32 30 33
REMARK SMILES IDX 31 34 81 35 32 36 86 37 80 38 82 39 33 40 85 41 79 42 78 43
REMARK SMILES IDX 34 45 66 46 46 47 65 48 47 49 50 50 64 51 83 52 48 53 49 54
REMARK SMILES IDX 63 56 84 57 51 58 35 59 36 60 44 61 37 62 38 63 42 64 45 65
REMARK SMILES IDX 39 66 40 67 43 68 41 69 67 70 68 71 76 72 69 73 70 74 74 75
REMARK SMILES IDX 77 76 71 77 72 78 75 79 73 80 52 81 53 82 61 83 54 84 55 85
REMARK SMILES IDX 59 86 62 87 56 88 57 89 60 90 58 91
REMARK H PARENT 13 10 82 44 50 55
REMARK Flexibility Score: inf
ROOT
ATOM      1  C   UNL A   1      33.285  29.416  27.090  1.00  0.00     0.202 C 
ENDROOT
BRANCH   1   2
ATOM      2  C   UNL A   1      33.756  28.805  25.768  1.00  0.00     0.261 C 
BRANCH   2   3
ATOM      3  O   UNL A   1      33.001  29.331  24.664  1.00  0.00    -0.462 OA
BRANCH   3   4
ATOM      4  C   UNL A   1      33.290  28.781  23.450  1.00  0.00     0.325 C 
ATOM      5  O   UNL A   1      34.295  29.030  22.794  1.00  0.00    -0.250 OA
BRANCH   4   6
ATOM      6  C   UNL A   1      32.306  27.680  23.057  1.00  0.00     0.239 C 
BRANCH   6   7
ATOM      7  N   UNL A   1      32.667  26.300  23.354  1.00  0.00    -0.342 N 
ATOM      8  O   UNL A   1      33.566  25.901  21.293  1.00  0.00    -0.270 OA
ATOM      9  C   UNL A   1      33.346  25.541  22.445  1.00  0.00     0.244 C 
ATOM     10  H   UNL A   1      32.419  25.909  24.223  1.00  0.00     0.164 HD
BRANCH   9  11
ATOM     11  C   UNL A   1      33.848  24.219  22.905  1.00  0.00     0.072 C 
ATOM     12  C   UNL A   1      34.074  23.836  24.172  1.00  0.00     0.017 C 
BRANCH  12  13
ATOM     13  C   UNL A   1      34.690  22.528  24.489  1.00  0.00     0.012 A 
ATOM     14  C   UNL A   1      36.056  22.410  24.821  1.00  0.00     0.049 A 
ATOM     15  C   UNL A   1      33.918  21.351  24.488  1.00  0.00     0.049 A 
ATOM     16  Cl  UNL A   1      37.095  23.791  24.961  1.00  0.00    -0.084 Cl
ATOM     17  C   UNL A   1      36.629  21.161  25.091  1.00  0.00     0.021 A 
ATOM     18  C   UNL A   1      34.497  20.103  24.753  1.00  0.00     0.021 A 
ATOM     19  Cl  UNL A   1      32.214  21.377  24.182  1.00  0.00    -0.084 Cl
ATOM     20  C   UNL A   1      35.854  20.007  25.046  1.00  0.00     0.003 A 
ENDBRANCH  12  13
ENDBRANCH   9  11
ENDBRANCH   6   7
ENDBRANCH   4   6
ENDBRANCH   3   4
ENDBRANCH   2   3
ENDBRANCH   1   2
BRANCH   1  21
ATOM     21  O   UNL A   1      32.671  30.703  26.998  1.00  0.00    -0.374 OA
BRANCH  21  22
ATOM     22  C   UNL A   1      33.315  31.794  27.655  1.00  0.00     0.202 C 
BRANCH  22  23
ATOM     23  C   UNL A   1      32.784  33.197  27.334  1.00  0.00     0.261 C 
BRANCH  23  24
ATOM     24  O   UNL A   1      32.279  33.878  28.498  1.00  0.00    -0.460 OA
BRANCH  24  25
ATOM     25  C   UNL A   1      33.018  34.939  28.903  1.00  0.00     0.338 C 
ATOM     26  O   UNL A   1      32.710  36.122  28.854  1.00  0.00    -0.246 OA
BRANCH  25  27
ATOM     27  C   UNL A   1      34.230  34.477  29.602  1.00  0.00     0.060 A 
ATOM     28  C   UNL A   1      35.459  34.602  28.942  1.00  0.00     0.016 A 
ATOM     29  C   UNL A   1      34.160  33.863  30.853  1.00  0.00     0.016 A 
ATOM     30  C   UNL A   1      36.622  34.102  29.526  1.00  0.00     0.010 A 
ATOM     31  C   UNL A   1      35.323  33.349  31.432  1.00  0.00     0.010 A 
ATOM     32  C   UNL A   1      36.556  33.452  30.766  1.00  0.00    -0.014 A 
BRANCH  32  33
ATOM     33  C   UNL A   1      37.763  32.818  31.348  1.00  0.00     0.031 A 
ATOM     34  C   UNL A   1      38.365  31.616  30.683  1.00  0.00     0.074 A 
ATOM     35  C   UNL A   1      38.298  33.305  32.482  1.00  0.00     0.049 A 
ATOM     36  N   UNL A   1      39.353  30.856  31.081  1.00  0.00    -0.248 NA
ATOM     37  C   UNL A   1      37.775  31.214  29.397  1.00  0.00     0.031 C 
ATOM     38  C   UNL A   1      37.820  34.485  33.199  1.00  0.00     0.029 A 
ATOM     39  N   UNL A   1      39.349  32.851  33.238  1.00  0.00    -0.354 N 
ATOM     40  C   UNL A   1      39.503  29.885  30.101  1.00  0.00     0.074 A 
ATOM     41  C   UNL A   1      38.490  30.138  29.098  1.00  0.00     0.031 C 
ATOM     42  C   UNL A   1      38.561  34.650  34.307  1.00  0.00     0.029 A 
ATOM     43  C   UNL A   1      39.537  33.566  34.395  1.00  0.00     0.049 A 
ATOM     44  H   UNL A   1      39.913  32.088  32.977  1.00  0.00     0.167 HD
ATOM     45  C   UNL A   1      40.406  28.878  30.045  1.00  0.00     0.037 A 
ATOM     46  C   UNL A   1      40.376  33.346  35.426  1.00  0.00     0.037 A 
ATOM     47  C   UNL A   1      41.410  28.630  31.046  1.00  0.00     0.049 A 
ATOM     48  C   UNL A   1      41.306  32.163  35.382  1.00  0.00     0.074 A 
ATOM     49  C   UNL A   1      42.401  27.663  31.054  1.00  0.00     0.029 A 
ATOM     50  N   UNL A   1      41.540  29.346  32.226  1.00  0.00    -0.354 N 
ATOM     51  N   UNL A   1      41.467  31.270  34.437  1.00  0.00    -0.248 NA
ATOM     52  C   UNL A   1      42.165  31.951  36.557  1.00  0.00     0.031 C 
ATOM     53  C   UNL A   1      43.097  27.760  32.264  1.00  0.00     0.029 A 
ATOM     54  C   UNL A   1      42.568  28.816  32.990  1.00  0.00     0.049 A 
ATOM     55  H   UNL A   1      40.985  30.117  32.483  1.00  0.00     0.167 HD
ATOM     56  C   UNL A   1      42.449  30.401  34.892  1.00  0.00     0.074 A 
ATOM     57  C   UNL A   1      42.862  30.882  36.194  1.00  0.00     0.031 C 
ATOM     58  C   UNL A   1      42.960  29.300  34.288  1.00  0.00     0.037 A 
BRANCH  45  59
ATOM     59  C   UNL A   1      40.339  27.949  28.869  1.00  0.00     0.064 A 
ATOM     60  C   UNL A   1      41.043  28.208  27.685  1.00  0.00     0.173 A 
ATOM     61  C   UNL A   1      39.600  26.758  28.949  1.00  0.00     0.173 A 
ATOM     62  F   UNL A   1      41.755  29.338  27.556  1.00  0.00    -0.203 F 
ATOM     63  C   UNL A   1      40.995  27.318  26.615  1.00  0.00     0.198 A 
ATOM     64  C   UNL A   1      39.573  25.860  27.887  1.00  0.00     0.198 A 
ATOM     65  F   UNL A   1      38.913  26.463  30.062  1.00  0.00    -0.203 F 
ATOM     66  F   UNL A   1      41.647  27.601  25.479  1.00  0.00    -0.200 F 
ATOM     67  C   UNL A   1      40.267  26.141  26.719  1.00  0.00     0.200 A 
ATOM     68  F   UNL A   1      38.878  24.720  27.992  1.00  0.00    -0.200 F 
ATOM     69  F   UNL A   1      40.228  25.282  25.691  1.00  0.00    -0.200 F 
ENDBRANCH  45  59
BRANCH  46  70
ATOM     70  C   UNL A   1      40.348  34.245  36.607  1.00  0.00     0.064 A 
ATOM     71  C   UNL A   1      41.165  35.381  36.671  1.00  0.00     0.173 A 
ATOM     72  C   UNL A   1      39.512  33.979  37.702  1.00  0.00     0.173 A 
ATOM     73  F   UNL A   1      42.003  35.659  35.661  1.00  0.00    -0.203 F 
ATOM     74  C   UNL A   1      41.157  36.210  37.790  1.00  0.00     0.198 A 
ATOM     75  C   UNL A   1      39.484  34.823  38.808  1.00  0.00     0.198 A 
ATOM     76  F   UNL A   1      38.716  32.899  37.692  1.00  0.00    -0.203 F 
ATOM     77  F   UNL A   1      41.980  37.267  37.844  1.00  0.00    -0.200 F 
ATOM     78  C   UNL A   1      40.312  35.935  38.855  1.00  0.00     0.200 A 
ATOM     79  F   UNL A   1      38.662  34.557  39.832  1.00  0.00    -0.200 F 
ATOM     80  F   UNL A   1      40.304  36.734  39.930  1.00  0.00    -0.200 F 
ENDBRANCH  46  70
BRANCH  58  81
ATOM     81  C   UNL A   1      44.024  28.542  35.026  1.00  0.00     0.064 A 
ATOM     82  C   UNL A   1      43.701  27.490  35.896  1.00  0.00     0.173 A 
ATOM     83  C   UNL A   1      45.381  28.835  34.824  1.00  0.00     0.173 A 
ATOM     84  F   UNL A   1      42.417  27.183  36.135  1.00  0.00    -0.203 F 
ATOM     85  C   UNL A   1      44.697  26.771  36.550  1.00  0.00     0.198 A 
ATOM     86  C   UNL A   1      46.376  28.096  35.459  1.00  0.00     0.198 A 
ATOM     87  F   UNL A   1      45.743  29.827  33.997  1.00  0.00    -0.203 F 
ATOM     88  F   UNL A   1      44.364  25.794  37.407  1.00  0.00    -0.200 F 
ATOM     89  C   UNL A   1      46.033  27.069  36.325  1.00  0.00     0.200 A 
ATOM     90  F   UNL A   1      47.666  28.377  35.232  1.00  0.00    -0.200 F 
ATOM     91  F   UNL A   1      46.990  26.367  36.948  1.00  0.00    -0.200 F 
ENDBRANCH  58  81
ENDBRANCH  32  33
ENDBRANCH  25  27
ENDBRANCH  24  25
ENDBRANCH  23  24
ENDBRANCH  22  23
ENDBRANCH  21  22
ENDBRANCH   1  21
TORSDOF 17
ENDMDL
MODEL 2
REMARK VINA RESULT:     -10.6      0.703      1.381
REMARK SMILES O=C(/C=C/c1c(Cl)cccc1Cl)NCC(=O)OCCOCCOC(=O)c1ccc(-c2c3nc(c(-c4c(F)c(F)c(F)c(F)c4F)c4ccc([nH]4)c(-c4c(F)c(F)c(F)c(F)c4F)c4nc(c(-c5c(F)c(F)c(F)c(F)c5F)c5ccc2[nH]5)C=C4)C=C3)cc1
REMARK SMILES IDX 19 1 18 2 17 3 15 4 16 5 14 6 13 7 1 8 2 9 3 11 4 12 5 13
REMARK SMILES IDX 6 14 11 15 7 16 8 17 10 18 12 19 9 20 20 21 21 22 22 23
REMARK SMILES IDX 23 24 24 25 25 26 26 27 27 28 88 29 28 30 87 31 29 32 30 33
REMARK SMILES IDX 31 34 81 35 32 36 86 37 80 38 82 39 33 40 85 41 79 42 78 43
REMARK SMILES IDX 34 45 66 46 46 47 65 48 47 49 50 50 64 51 83 52 48 53 49 54
REMARK SMILES IDX 63 56 84 57 51 58 35 59 36 60 44 61 37 62 38 63 42 64 45 65
REMARK SMILES IDX 39 66 40 67 43 68 41 69 67 70 68 71 76 72 69 73 70 74 74 75
REMARK SMILES IDX 77 76 71 77 72 78 75 79 73 80 52 81 53 82 61 83 54 84 55 85
REMARK SMILES IDX 59 86 62 87 56 88 57 89 60 90 58 91
REMARK H PARENT 13 10 82 44 50 55
REMARK Flexibility Score: inf
ROOT
ATOM      1  C   UNL A   1      32.623  30.278  26.337  1.00  0.00     0.202 C 
ENDROOT
BRANCH   1   2
ATOM      2  C   UNL A   1      32.555  29.663  24.937  1.00  0.00     0.261 C 
BRANCH   2   3
ATOM      3  O   UNL A   1      31.253  29.108  24.686  1.00  0.00    -0.462 OA
BRANCH   3   4
ATOM      4  C   UNL A   1      31.244  27.972  23.932  1.00  0.00     0.325 C 
ATOM      5  O   UNL A   1      30.230  27.413  23.527  1.00  0.00    -0.250 OA
BRANCH   4   6
ATOM      6  C   UNL A   1      32.644  27.548  23.493  1.00  0.00     0.239 C 
BRANCH   6   7
ATOM      7  N   UNL A   1      33.044  26.166  23.717  1.00  0.00    -0.342 N 
ATOM      8  O   UNL A   1      33.606  25.784  21.538  1.00  0.00    -0.270 OA
ATOM      9  C   UNL A   1      33.570  25.414  22.706  1.00  0.00     0.244 C 
ATOM     10  H   UNL A   1      32.934  25.768  24.611  1.00  0.00     0.164 HD
BRANCH   9  11
ATOM     11  C   UNL A   1      34.135  24.088  23.071  1.00  0.00     0.072 C 
ATOM     12  C   UNL A   1      34.166  23.530  24.292  1.00  0.00     0.017 C 
BRANCH  12  13
ATOM     13  C   UNL A   1      34.867  22.250  24.543  1.00  0.00     0.012 A 
ATOM     14  C   UNL A   1      36.253  22.200  24.799  1.00  0.00     0.049 A 
ATOM     15  C   UNL A   1      34.160  21.032  24.552  1.00  0.00     0.049 A 
ATOM     16  Cl  UNL A   1      37.222  23.632  24.920  1.00  0.00    -0.084 Cl
ATOM     17  C   UNL A   1      36.906  20.978  25.006  1.00  0.00     0.021 A 
ATOM     18  C   UNL A   1      34.818  19.812  24.754  1.00  0.00     0.021 A 
ATOM     19  Cl  UNL A   1      32.443  20.972  24.336  1.00  0.00    -0.084 Cl
ATOM     20  C   UNL A   1      36.193  19.784  24.973  1.00  0.00     0.003 A 
ENDBRANCH  12  13
ENDBRANCH   9  11
ENDBRANCH   6   7
ENDBRANCH   4   6
ENDBRANCH   3   4
ENDBRANCH   2   3
ENDBRANCH   1   2
BRANCH   1  21
ATOM     21  O   UNL A   1      31.479  31.031  26.743  1.00  0.00    -0.374 OA
BRANCH  21  22
ATOM     22  C   UNL A   1      31.626  32.445  26.871  1.00  0.00     0.202 C 
BRANCH  22  23
ATOM     23  C   UNL A   1      32.764  32.938  27.774  1.00  0.00     0.261 C 
BRANCH  23  24
ATOM     24  O   UNL A   1      33.058  34.335  27.582  1.00  0.00    -0.460 OA
BRANCH  24  25
ATOM     25  C   UNL A   1      33.193  35.051  28.724  1.00  0.00     0.338 C 
ATOM     26  O   UNL A   1      32.421  35.885  29.176  1.00  0.00    -0.246 OA
BRANCH  25  27
ATOM     27  C   UNL A   1      34.356  34.569  29.490  1.00  0.00     0.060 A 
ATOM     28  C   UNL A   1      35.613  34.605  28.872  1.00  0.00     0.016 A 
ATOM     29  C   UNL A   1      34.211  34.023  30.765  1.00  0.00     0.016 A 
ATOM     30  C   UNL A   1      36.729  34.082  29.524  1.00  0.00     0.010 A 
ATOM     31  C   UNL A   1      35.327  33.485  31.412  1.00  0.00     0.010 A 
ATOM     32  C   UNL A   1      36.588  33.498  30.791  1.00  0.00    -0.014 A 
BRANCH  32  33
ATOM     33  C   UNL A   1      37.741  32.839  31.448  1.00  0.00     0.031 A 
ATOM     34  C   UNL A   1      38.367  31.632  30.815  1.00  0.00     0.074 A 
ATOM     35  C   UNL A   1      38.205  33.309  32.620  1.00  0.00     0.049 A 
ATOM     36  N   UNL A   1      39.313  30.852  31.274  1.00  0.00    -0.248 NA
ATOM     37  C   UNL A   1      37.860  31.250  29.488  1.00  0.00     0.031 C 
ATOM     38  C   UNL A   1      37.698  34.492  33.313  1.00  0.00     0.029 A 
ATOM     39  N   UNL A   1      39.194  32.831  33.442  1.00  0.00    -0.354 N 
ATOM     40  C   UNL A   1      39.513  29.887  30.298  1.00  0.00     0.074 A 
ATOM     41  C   UNL A   1      38.575  30.164  29.230  1.00  0.00     0.031 C 
ATOM     42  C   UNL A   1      38.364  34.635  34.470  1.00  0.00     0.029 A 
ATOM     43  C   UNL A   1      39.314  33.534  34.616  1.00  0.00     0.049 A 
ATOM     44  H   UNL A   1      39.762  32.061  33.214  1.00  0.00     0.167 HD
ATOM     45  C   UNL A   1      40.402  28.864  30.295  1.00  0.00     0.037 A 
ATOM     46  C   UNL A   1      40.077  33.292  35.699  1.00  0.00     0.037 A 
ATOM     47  C   UNL A   1      41.330  28.592  31.360  1.00  0.00     0.049 A 
ATOM     48  C   UNL A   1      40.988  32.093  35.710  1.00  0.00     0.074 A 
ATOM     49  C   UNL A   1      42.302  27.608  31.428  1.00  0.00     0.029 A 
ATOM     50  N   UNL A   1      41.391  29.296  32.553  1.00  0.00    -0.354 N 
ATOM     51  N   UNL A   1      41.199  31.205  34.769  1.00  0.00    -0.248 NA
ATOM     52  C   UNL A   1      41.760  31.858  36.938  1.00  0.00     0.031 C 
ATOM     53  C   UNL A   1      42.915  27.684  32.683  1.00  0.00     0.029 A 
ATOM     54  C   UNL A   1      42.355  28.744  33.380  1.00  0.00     0.049 A 
ATOM     55  H   UNL A   1      40.832  30.075  32.778  1.00  0.00     0.167 HD
ATOM     56  C   UNL A   1      42.132  30.316  35.284  1.00  0.00     0.074 A 
ATOM     57  C   UNL A   1      42.463  30.781  36.615  1.00  0.00     0.031 C 
ATOM     58  C   UNL A   1      42.665  29.211  34.707  1.00  0.00     0.037 A 
BRANCH  45  59
ATOM     59  C   UNL A   1      40.400  27.945  29.110  1.00  0.00     0.064 A 
ATOM     60  C   UNL A   1      39.605  26.791  29.075  1.00  0.00     0.173 A 
ATOM     61  C   UNL A   1      41.167  28.251  27.975  1.00  0.00     0.173 A 
ATOM     62  F   UNL A   1      38.863  26.449  30.139  1.00  0.00    -0.203 F 
ATOM     63  C   UNL A   1      39.591  25.966  27.952  1.00  0.00     0.198 A 
ATOM     64  C   UNL A   1      41.133  27.437  26.847  1.00  0.00     0.198 A 
ATOM     65  F   UNL A   1      41.941  29.346  27.957  1.00  0.00    -0.203 F 
ATOM     66  F   UNL A   1      38.851  24.849  27.953  1.00  0.00    -0.200 F 
ATOM     67  C   UNL A   1      40.349  26.293  26.837  1.00  0.00     0.200 A 
ATOM     68  F   UNL A   1      41.857  27.760  25.767  1.00  0.00    -0.200 F 
ATOM     69  F   UNL A   1      40.328  25.502  25.756  1.00  0.00    -0.200 F 
ENDBRANCH  45  59
BRANCH  46  70
ATOM     70  C   UNL A   1      39.982  34.183  36.883  1.00  0.00     0.064 A 
ATOM     71  C   UNL A   1      40.788  35.323  36.996  1.00  0.00     0.173 A 
ATOM     72  C   UNL A   1      39.094  33.903  37.933  1.00  0.00     0.173 A 
ATOM     73  F   UNL A   1      41.673  35.614  36.032  1.00  0.00    -0.203 F 
ATOM     74  C   UNL A   1      40.717  36.145  38.119  1.00  0.00     0.198 A 
ATOM     75  C   UNL A   1      39.005  34.740  39.042  1.00  0.00     0.198 A 
ATOM     76  F   UNL A   1      38.307  32.819  37.876  1.00  0.00    -0.203 F 
ATOM     77  F   UNL A   1      41.529  37.206  38.222  1.00  0.00    -0.200 F 
ATOM     78  C   UNL A   1      39.821  35.857  39.138  1.00  0.00     0.200 A 
ATOM     79  F   UNL A   1      38.133  34.461  40.022  1.00  0.00    -0.200 F 
ATOM     80  F   UNL A   1      39.753  36.648  40.216  1.00  0.00    -0.200 F 
ENDBRANCH  46  70
BRANCH  58  81
ATOM     81  C   UNL A   1      43.664  28.429  35.509  1.00  0.00     0.064 A 
ATOM     82  C   UNL A   1      43.259  27.409  36.383  1.00  0.00     0.173 A 
ATOM     83  C   UNL A   1      45.039  28.667  35.366  1.00  0.00     0.173 A 
ATOM     84  F   UNL A   1      41.954  27.156  36.567  1.00  0.00    -0.203 F 
ATOM     85  C   UNL A   1      44.195  26.667  37.098  1.00  0.00     0.198 A 
ATOM     86  C   UNL A   1      45.973  27.905  36.062  1.00  0.00     0.198 A 
ATOM     87  F   UNL A   1      45.477  29.627  34.538  1.00  0.00    -0.203 F 
ATOM     88  F   UNL A   1      43.785  25.723  37.957  1.00  0.00    -0.200 F 
ATOM     89  C   UNL A   1      45.551  26.910  36.931  1.00  0.00     0.200 A 
ATOM     90  F   UNL A   1      47.282  28.131  35.891  1.00  0.00    -0.200 F 
ATOM     91  F   UNL A   1      46.450  26.186  37.612  1.00  0.00    -0.200 F 
ENDBRANCH  58  81
ENDBRANCH  32  33
ENDBRANCH  25  27
ENDBRANCH  24  25
ENDBRANCH  23  24
ENDBRANCH  22  23
ENDBRANCH  21  22
ENDBRANCH   1  21
TORSDOF 17
ENDMDL
MODEL 3
REMARK VINA RESULT:     -10.6      1.078      2.462
REMARK SMILES O=C(/C=C/c1c(Cl)cccc1Cl)NCC(=O)OCCOCCOC(=O)c1ccc(-c2c3nc(c(-c4c(F)c(F)c(F)c(F)c4F)c4ccc([nH]4)c(-c4c(F)c(F)c(F)c(F)c4F)c4nc(c(-c5c(F)c(F)c(F)c(F)c5F)c5ccc2[nH]5)C=C4)C=C3)cc1
REMARK SMILES IDX 19 1 18 2 17 3 15 4 16 5 14 6 13 7 1 8 2 9 3 11 4 12 5 13
REMARK SMILES IDX 6 14 11 15 7 16 8 17 10 18 12 19 9 20 20 21 21 22 22 23
REMARK SMILES IDX 23 24 24 25 25 26 26 27 27 28 88 29 28 30 87 31 29 32 30 33
REMARK SMILES IDX 31 34 81 35 32 36 86 37 80 38 82 39 33 40 85 41 79 42 78 43
REMARK SMILES IDX 34 45 66 46 46 47 65 48 47 49 50 50 64 51 83 52 48 53 49 54
REMARK SMILES IDX 63 56 84 57 51 58 35 59 36 60 44 61 37 62 38 63 42 64 45 65
REMARK SMILES IDX 39 66 40 67 43 68 41 69 67 70 68 71 76 72 69 73 70 74 74 75
REMARK SMILES IDX 77 76 71 77 72 78 75 79 73 80 52 81 53 82 61 83 54 84 55 85
REMARK SMILES IDX 59 86 62 87 56 88 57 89 60 90 58 91
REMARK H PARENT 13 10 82 44 50 55
REMARK Flexibility Score: inf
ROOT
ATOM      1  C   UNL A   1      32.896  29.900  26.326  1.00  0.00     0.202 C 
ENDROOT
BRANCH   1   2
ATOM      2  C   UNL A   1      31.726  29.909  25.340  1.00  0.00     0.261 C 
BRANCH   2   3
ATOM      3  O   UNL A   1      31.653  28.666  24.623  1.00  0.00    -0.462 OA
BRANCH   3   4
ATOM      4  C   UNL A   1      30.880  28.689  23.500  1.00  0.00     0.325 C 
ATOM      5  O   UNL A   1      29.931  29.446  23.323  1.00  0.00    -0.250 OA
BRANCH   4   6
ATOM      6  C   UNL A   1      31.421  27.782  22.397  1.00  0.00     0.239 C 
BRANCH   6   7
ATOM      7  N   UNL A   1      31.682  26.387  22.724  1.00  0.00    -0.342 N 
ATOM      8  O   UNL A   1      33.687  26.318  21.634  1.00  0.00    -0.270 OA
ATOM      9  C   UNL A   1      32.856  25.789  22.363  1.00  0.00     0.244 C 
ATOM     10  H   UNL A   1      31.004  25.867  23.212  1.00  0.00     0.164 HD
BRANCH   9  11
ATOM     11  C   UNL A   1      33.122  24.432  22.910  1.00  0.00     0.072 C 
ATOM     12  C   UNL A   1      32.267  23.653  23.594  1.00  0.00     0.017 C 
BRANCH  12  13
ATOM     13  C   UNL A   1      32.696  22.367  24.189  1.00  0.00     0.012 A 
ATOM     14  C   UNL A   1      32.494  21.138  23.528  1.00  0.00     0.049 A 
ATOM     15  C   UNL A   1      33.343  22.334  25.439  1.00  0.00     0.049 A 
ATOM     16  Cl  UNL A   1      31.805  21.046  21.940  1.00  0.00    -0.084 Cl
ATOM     17  C   UNL A   1      32.880  19.928  24.118  1.00  0.00     0.021 A 
ATOM     18  C   UNL A   1      33.722  21.121  26.028  1.00  0.00     0.021 A 
ATOM     19  Cl  UNL A   1      33.724  23.782  26.308  1.00  0.00    -0.084 Cl
ATOM     20  C   UNL A   1      33.484  19.917  25.371  1.00  0.00     0.003 A 
ENDBRANCH  12  13
ENDBRANCH   9  11
ENDBRANCH   6   7
ENDBRANCH   4   6
ENDBRANCH   3   4
ENDBRANCH   2   3
ENDBRANCH   1   2
BRANCH   1  21
ATOM     21  O   UNL A   1      32.908  30.955  27.290  1.00  0.00    -0.374 OA
BRANCH  21  22
ATOM     22  C   UNL A   1      32.012  32.047  27.090  1.00  0.00     0.202 C 
BRANCH  22  23
ATOM     23  C   UNL A   1      32.627  33.452  27.112  1.00  0.00     0.261 C 
BRANCH  23  24
ATOM     24  O   UNL A   1      32.159  34.243  28.221  1.00  0.00    -0.460 OA
BRANCH  24  25
ATOM     25  C   UNL A   1      33.067  35.115  28.723  1.00  0.00     0.338 C 
ATOM     26  O   UNL A   1      32.929  36.319  28.891  1.00  0.00    -0.246 OA
BRANCH  25  27
ATOM     27  C   UNL A   1      34.245  34.387  29.227  1.00  0.00     0.060 A 
ATOM     28  C   UNL A   1      34.065  33.505  30.300  1.00  0.00     0.016 A 
ATOM     29  C   UNL A   1      35.520  34.618  28.709  1.00  0.00     0.016 A 
ATOM     30  C   UNL A   1      35.163  32.859  30.867  1.00  0.00     0.010 A 
ATOM     31  C   UNL A   1      36.622  33.981  29.286  1.00  0.00     0.010 A 
ATOM     32  C   UNL A   1      36.451  33.110  30.376  1.00  0.00    -0.014 A 
BRANCH  32  33
ATOM     33  C   UNL A   1      37.637  32.518  31.039  1.00  0.00     0.031 A 
ATOM     34  C   UNL A   1      38.367  31.384  30.380  1.00  0.00     0.074 A 
ATOM     35  C   UNL A   1      38.039  32.979  32.236  1.00  0.00     0.049 A 
ATOM     36  N   UNL A   1      39.360  30.662  30.835  1.00  0.00    -0.248 NA
ATOM     37  C   UNL A   1      37.918  31.012  29.030  1.00  0.00     0.031 C 
ATOM     38  C   UNL A   1      37.429  34.095  32.956  1.00  0.00     0.029 A 
ATOM     39  N   UNL A   1      39.044  32.549  33.065  1.00  0.00    -0.354 N 
ATOM     40  C   UNL A   1      39.653  29.750  29.832  1.00  0.00     0.074 A 
ATOM     41  C   UNL A   1      38.720  29.993  28.752  1.00  0.00     0.031 C 
ATOM     42  C   UNL A   1      38.058  34.247  34.133  1.00  0.00     0.029 A 
ATOM     43  C   UNL A   1      39.085  33.217  34.264  1.00  0.00     0.049 A 
ATOM     44  H   UNL A   1      39.674  31.832  32.825  1.00  0.00     0.167 HD
ATOM     45  C   UNL A   1      40.617  28.798  29.816  1.00  0.00     0.037 A 
ATOM     46  C   UNL A   1      39.842  32.995  35.357  1.00  0.00     0.037 A 
ATOM     47  C   UNL A   1      41.541  28.559  30.893  1.00  0.00     0.049 A 
ATOM     48  C   UNL A   1      40.841  31.869  35.348  1.00  0.00     0.074 A 
ATOM     49  C   UNL A   1      42.583  27.649  30.951  1.00  0.00     0.029 A 
ATOM     50  N   UNL A   1      41.522  29.223  32.110  1.00  0.00    -0.354 N 
ATOM     51  N   UNL A   1      41.138  31.033  34.384  1.00  0.00    -0.248 NA
ATOM     52  C   UNL A   1      41.603  31.649  36.586  1.00  0.00     0.031 C 
ATOM     53  C   UNL A   1      43.162  27.727  32.222  1.00  0.00     0.029 A 
ATOM     54  C   UNL A   1      42.508  28.716  32.941  1.00  0.00     0.049 A 
ATOM     55  H   UNL A   1      40.901  29.949  32.348  1.00  0.00     0.167 HD
ATOM     56  C   UNL A   1      42.126  30.199  34.890  1.00  0.00     0.074 A 
ATOM     57  C   UNL A   1      42.392  30.640  36.244  1.00  0.00     0.031 C 
ATOM     58  C   UNL A   1      42.754  29.158  34.290  1.00  0.00     0.037 A 
BRANCH  45  59
ATOM     59  C   UNL A   1      40.710  27.924  28.601  1.00  0.00     0.064 A 
ATOM     60  C   UNL A   1      40.018  26.707  28.515  1.00  0.00     0.173 A 
ATOM     61  C   UNL A   1      41.463  28.334  27.489  1.00  0.00     0.173 A 
ATOM     62  F   UNL A   1      39.295  26.267  29.554  1.00  0.00    -0.203 F 
ATOM     63  C   UNL A   1      40.091  25.924  27.365  1.00  0.00     0.198 A 
ATOM     64  C   UNL A   1      41.514  27.559  26.335  1.00  0.00     0.198 A 
ATOM     65  F   UNL A   1      42.140  29.491  27.521  1.00  0.00    -0.203 F 
ATOM     66  F   UNL A   1      39.450  24.748  27.316  1.00  0.00    -0.200 F 
ATOM     67  C   UNL A   1      40.832  26.353  26.274  1.00  0.00     0.200 A 
ATOM     68  F   UNL A   1      42.222  27.980  25.277  1.00  0.00    -0.200 F 
ATOM     69  F   UNL A   1      40.894  25.601  25.166  1.00  0.00    -0.200 F 
ENDBRANCH  45  59
BRANCH  46  70
ATOM     70  C   UNL A   1      39.654  33.834  36.568  1.00  0.00     0.064 A 
ATOM     71  C   UNL A   1      38.823  33.417  37.615  1.00  0.00     0.173 A 
ATOM     72  C   UNL A   1      40.293  35.077  36.694  1.00  0.00     0.173 A 
ATOM     73  F   UNL A   1      38.168  32.250  37.525  1.00  0.00    -0.203 F 
ATOM     74  C   UNL A   1      38.628  34.217  38.739  1.00  0.00     0.198 A 
ATOM     75  C   UNL A   1      40.118  35.863  37.830  1.00  0.00     0.198 A 
ATOM     76  F   UNL A   1      41.093  35.524  35.715  1.00  0.00    -0.203 F 
ATOM     77  F   UNL A   1      37.794  33.814  39.708  1.00  0.00    -0.200 F 
ATOM     78  C   UNL A   1      39.281  35.436  38.849  1.00  0.00     0.200 A 
ATOM     79  F   UNL A   1      40.756  37.038  37.935  1.00  0.00    -0.200 F 
ATOM     80  F   UNL A   1      39.093  36.203  39.931  1.00  0.00    -0.200 F 
ENDBRANCH  46  70
BRANCH  58  81
ATOM     81  C   UNL A   1      43.792  28.426  35.088  1.00  0.00     0.064 A 
ATOM     82  C   UNL A   1      45.125  28.862  35.126  1.00  0.00     0.173 A 
ATOM     83  C   UNL A   1      43.443  27.309  35.861  1.00  0.00     0.173 A 
ATOM     84  F   UNL A   1      45.511  29.916  34.390  1.00  0.00    -0.203 F 
ATOM     85  C   UNL A   1      46.074  28.196  35.896  1.00  0.00     0.198 A 
ATOM     86  C   UNL A   1      44.389  26.661  36.651  1.00  0.00     0.198 A 
ATOM     87  F   UNL A   1      42.180  26.856  35.864  1.00  0.00    -0.203 F 
ATOM     88  F   UNL A   1      47.350  28.608  35.888  1.00  0.00    -0.200 F 
ATOM     89  C   UNL A   1      45.704  27.102  36.664  1.00  0.00     0.200 A 
ATOM     90  F   UNL A   1      44.028  25.612  37.401  1.00  0.00    -0.200 F 
ATOM     91  F   UNL A   1      46.617  26.469  37.413  1.00  0.00    -0.200 F 
ENDBRANCH  58  81
ENDBRANCH  32  33
ENDBRANCH  25  27
ENDBRANCH  24  25
ENDBRANCH  23  24
ENDBRANCH  22  23
ENDBRANCH  21  22
ENDBRANCH   1  21
TORSDOF 17
ENDMDL
