MODEL 1
REMARK VINA RESULT:     -10.2      0.000      0.000
REMARK SMILES COC(=O)CCN(C)C(=O)NCc1ccc(C(=O)OCCOCCOC(=O)c2ccc(-c3c4nc(c(-c5c(F)c(F)c(F)c(F)c5F)c5ccc([nH]5)c(-c5c(F)c(F)c(F)c(F)c5F)c5nc(c(-c6c(F)c(F)c(F)c(F)c6F)c6ccc3[nH]6)C=C5)C=C4)cc2)o1
REMARK SMILES IDX 20 1 19 2 17 3 18 4 16 5 13 6 14 7 91 8 15 9 12 10 11 11
REMARK SMILES IDX 9 12 10 13 7 15 8 16 6 17 5 18 3 19 4 20 2 21 1 22 21 23
REMARK SMILES IDX 22 24 23 25 24 26 25 27 26 28 27 29 28 30 29 31 90 32 30 33
REMARK SMILES IDX 89 34 31 35 32 36 33 37 83 38 34 39 88 40 82 41 84 42 35 43
REMARK SMILES IDX 87 44 81 45 80 46 36 48 68 49 48 50 67 51 49 52 52 53 66 54
REMARK SMILES IDX 85 55 50 56 51 57 65 59 86 60 53 61 37 62 38 63 46 64 39 65
REMARK SMILES IDX 40 66 44 67 47 68 41 69 42 70 45 71 43 72 69 73 70 74 78 75
REMARK SMILES IDX 71 76 72 77 76 78 79 79 73 80 74 81 77 82 75 83 54 84 55 85
REMARK SMILES IDX 63 86 56 87 57 88 61 89 64 90 58 91 59 92 62 93 60 94
REMARK H PARENT 11 14 84 47 52 58
REMARK Flexibility Score: inf
ROOT
ATOM      1  C   UNL A   1      34.128  35.095  28.715  1.00  0.00     0.261 C 
ENDROOT
BRANCH   1   2
ATOM      2  O   UNL A   1      33.868  33.691  28.542  1.00  0.00    -0.457 OA
BRANCH   2   3
ATOM      3  C   UNL A   1      34.897  32.958  28.026  1.00  0.00     0.374 C 
ATOM      4  O   UNL A   1      36.054  33.344  27.935  1.00  0.00    -0.242 OA
BRANCH   3   5
ATOM      5  C   UNL A   1      34.426  31.628  27.717  1.00  0.00     0.211 A 
ATOM      6  C   UNL A   1      33.036  30.211  26.757  1.00  0.00     0.124 A 
ATOM      7  C   UNL A   1      34.085  29.457  27.237  1.00  0.00     0.048 A 
ATOM      8  O   UNL A   1      33.219  31.519  27.081  1.00  0.00    -0.452 OA
ATOM      9  C   UNL A   1      34.985  30.368  27.844  1.00  0.00     0.058 A 
BRANCH   6  10
ATOM     10  C   UNL A   1      31.846  29.910  25.923  1.00  0.00     0.193 C 
BRANCH  10  11
ATOM     11  N   UNL A   1      32.328  29.421  24.650  1.00  0.00    -0.331 N 
ATOM     12  C   UNL A   1      31.846  28.703  23.627  1.00  0.00     0.317 C 
ATOM     13  O   UNL A   1      32.605  28.598  22.660  1.00  0.00    -0.249 OA
ATOM     14  H   UNL A   1      33.262  29.689  24.493  1.00  0.00     0.165 HD
BRANCH  12  15
ATOM     15  N   UNL A   1      30.594  28.155  23.621  1.00  0.00    -0.327 N 
ATOM     16  C   UNL A   1      29.369  28.780  23.158  1.00  0.00     0.148 C 
BRANCH  15  17
ATOM     17  C   UNL A   1      30.474  26.756  24.065  1.00  0.00     0.132 C 
BRANCH  17  18
ATOM     18  C   UNL A   1      31.661  26.300  24.905  1.00  0.00     0.144 C 
BRANCH  18  19
ATOM     19  C   UNL A   1      31.243  26.052  26.330  1.00  0.00     0.307 C 
ATOM     20  O   UNL A   1      30.703  26.894  27.035  1.00  0.00    -0.252 OA
BRANCH  19  21
ATOM     21  O   UNL A   1      31.563  24.785  26.709  1.00  0.00    -0.469 OA
ATOM     22  C   UNL A   1      31.196  23.780  25.762  1.00  0.00     0.282 C 
ENDBRANCH  19  21
ENDBRANCH  18  19
ENDBRANCH  17  18
ENDBRANCH  15  17
ENDBRANCH  12  15
ENDBRANCH  10  11
ENDBRANCH   6  10
ENDBRANCH   3   5
ENDBRANCH   2   3
ENDBRANCH   1   2
BRANCH   1  23
ATOM     23  C   UNL A   1      33.105  35.694  29.683  1.00  0.00     0.202 C 
BRANCH  23  24
ATOM     24  O   UNL A   1      32.854  34.888  30.834  1.00  0.00    -0.374 OA
BRANCH  24  25
ATOM     25  C   UNL A   1      33.883  34.863  31.828  1.00  0.00     0.202 C 
BRANCH  25  26
ATOM     26  C   UNL A   1      34.172  33.474  32.409  1.00  0.00     0.261 C 
BRANCH  26  27
ATOM     27  O   UNL A   1      35.334  32.894  31.786  1.00  0.00    -0.460 OA
BRANCH  27  28
ATOM     28  C   UNL A   1      36.297  32.466  32.636  1.00  0.00     0.338 C 
ATOM     29  O   UNL A   1      36.303  32.541  33.852  1.00  0.00    -0.246 OA
BRANCH  28  30
ATOM     30  C   UNL A   1      37.308  31.701  31.878  1.00  0.00     0.060 A 
ATOM     31  C   UNL A   1      38.139  30.831  32.597  1.00  0.00     0.016 A 
ATOM     32  C   UNL A   1      37.470  31.859  30.501  1.00  0.00     0.016 A 
ATOM     33  C   UNL A   1      39.166  30.146  31.948  1.00  0.00     0.010 A 
ATOM     34  C   UNL A   1      38.506  31.180  29.852  1.00  0.00     0.010 A 
ATOM     35  C   UNL A   1      39.376  30.346  30.578  1.00  0.00    -0.014 A 
BRANCH  35  36
ATOM     36  C   UNL A   1      40.594  29.818  29.921  1.00  0.00     0.031 A 
ATOM     37  C   UNL A   1      41.755  30.748  29.708  1.00  0.00     0.074 A 
ATOM     38  C   UNL A   1      40.663  28.542  29.506  1.00  0.00     0.049 A 
ATOM     39  N   UNL A   1      42.862  30.557  29.038  1.00  0.00    -0.248 NA
ATOM     40  C   UNL A   1      41.648  32.076  30.332  1.00  0.00     0.031 C 
ATOM     41  C   UNL A   1      39.627  27.531  29.707  1.00  0.00     0.029 A 
ATOM     42  N   UNL A   1      41.645  27.887  28.807  1.00  0.00    -0.354 N 
ATOM     43  C   UNL A   1      43.574  31.745  29.145  1.00  0.00     0.074 A 
ATOM     44  C   UNL A   1      42.769  32.655  29.931  1.00  0.00     0.031 C 
ATOM     45  C   UNL A   1      40.019  26.386  29.121  1.00  0.00     0.029 A 
ATOM     46  C   UNL A   1      41.311  26.598  28.470  1.00  0.00     0.049 A 
ATOM     47  H   UNL A   1      42.507  28.299  28.569  1.00  0.00     0.167 HD
ATOM     48  C   UNL A   1      44.790  32.046  28.632  1.00  0.00     0.037 A 
ATOM     49  C   UNL A   1      41.959  25.709  27.693  1.00  0.00     0.037 A 
ATOM     50  C   UNL A   1      45.587  31.137  27.854  1.00  0.00     0.049 A 
ATOM     51  C   UNL A   1      43.276  26.093  27.068  1.00  0.00     0.074 A 
ATOM     52  C   UNL A   1      46.835  31.344  27.295  1.00  0.00     0.029 A 
ATOM     53  N   UNL A   1      45.207  29.844  27.522  1.00  0.00    -0.354 N 
ATOM     54  N   UNL A   1      43.945  27.215  27.173  1.00  0.00    -0.248 NA
ATOM     55  C   UNL A   1      43.923  25.090  26.208  1.00  0.00     0.031 C 
ATOM     56  C   UNL A   1      47.192  30.192  26.588  1.00  0.00     0.029 A 
ATOM     57  C   UNL A   1      46.189  29.250  26.748  1.00  0.00     0.049 A 
ATOM     58  H   UNL A   1      44.364  29.415  27.796  1.00  0.00     0.167 HD
ATOM     59  C   UNL A   1      45.104  27.041  26.428  1.00  0.00     0.074 A 
ATOM     60  C   UNL A   1      45.048  25.706  25.872  1.00  0.00     0.031 C 
ATOM     61  C   UNL A   1      46.126  27.909  26.227  1.00  0.00     0.037 A 
BRANCH  48  62
ATOM     62  C   UNL A   1      45.318  33.428  28.872  1.00  0.00     0.064 A 
ATOM     63  C   UNL A   1      46.135  33.724  29.973  1.00  0.00     0.173 A 
ATOM     64  C   UNL A   1      45.028  34.463  27.972  1.00  0.00     0.173 A 
ATOM     65  F   UNL A   1      46.429  32.771  30.871  1.00  0.00    -0.203 F 
ATOM     66  C   UNL A   1      46.625  35.012  30.174  1.00  0.00     0.198 A 
ATOM     67  C   UNL A   1      45.540  35.743  28.161  1.00  0.00     0.198 A 
ATOM     68  F   UNL A   1      44.252  34.230  26.902  1.00  0.00    -0.203 F 
ATOM     69  F   UNL A   1      47.369  35.283  31.255  1.00  0.00    -0.200 F 
ATOM     70  C   UNL A   1      46.332  36.019  29.265  1.00  0.00     0.200 A 
ATOM     71  F   UNL A   1      45.264  36.711  27.277  1.00  0.00    -0.200 F 
ATOM     72  F   UNL A   1      46.809  37.255  29.458  1.00  0.00    -0.200 F 
ENDBRANCH  48  62
BRANCH  49  73
ATOM     73  C   UNL A   1      41.364  24.370  27.443  1.00  0.00     0.064 A 
ATOM     74  C   UNL A   1      40.214  24.227  26.655  1.00  0.00     0.173 A 
ATOM     75  C   UNL A   1      41.924  23.209  27.998  1.00  0.00     0.173 A 
ATOM     76  F   UNL A   1      39.627  25.310  26.125  1.00  0.00    -0.203 F 
ATOM     77  C   UNL A   1      39.639  22.976  26.442  1.00  0.00     0.198 A 
ATOM     78  C   UNL A   1      41.363  21.957  27.763  1.00  0.00     0.198 A 
ATOM     79  F   UNL A   1      43.022  23.293  28.763  1.00  0.00    -0.203 F 
ATOM     80  F   UNL A   1      38.517  22.871  25.718  1.00  0.00    -0.200 F 
ATOM     81  C   UNL A   1      40.218  21.841  26.990  1.00  0.00     0.200 A 
ATOM     82  F   UNL A   1      41.931  20.862  28.288  1.00  0.00    -0.200 F 
ATOM     83  F   UNL A   1      39.668  20.637  26.782  1.00  0.00    -0.200 F 
ENDBRANCH  49  73
BRANCH  61  84
ATOM     84  C   UNL A   1      47.298  27.432  25.422  1.00  0.00     0.064 A 
ATOM     85  C   UNL A   1      47.417  27.714  24.054  1.00  0.00     0.173 A 
ATOM     86  C   UNL A   1      48.354  26.754  26.049  1.00  0.00     0.173 A 
ATOM     87  F   UNL A   1      46.427  28.347  23.407  1.00  0.00    -0.203 F 
ATOM     88  C   UNL A   1      48.549  27.327  23.342  1.00  0.00     0.198 A 
ATOM     89  C   UNL A   1      49.495  26.390  25.340  1.00  0.00     0.198 A 
ATOM     90  F   UNL A   1      48.290  26.468  27.358  1.00  0.00    -0.203 F 
ATOM     91  F   UNL A   1      48.632  27.583  22.029  1.00  0.00    -0.200 F 
ATOM     92  C   UNL A   1      49.590  26.675  23.986  1.00  0.00     0.200 A 
ATOM     93  F   UNL A   1      50.505  25.773  25.968  1.00  0.00    -0.200 F 
ATOM     94  F   UNL A   1      50.686  26.319  23.302  1.00  0.00    -0.200 F 
ENDBRANCH  61  84
ENDBRANCH  35  36
ENDBRANCH  28  30
ENDBRANCH  27  28
ENDBRANCH  26  27
ENDBRANCH  25  26
ENDBRANCH  24  25
ENDBRANCH  23  24
ENDBRANCH   1  23
TORSDOF 21
ENDMDL
MODEL 2
REMARK VINA RESULT:     -10.1      2.814      8.593
REMARK SMILES COC(=O)CCN(C)C(=O)NCc1ccc(C(=O)OCCOCCOC(=O)c2ccc(-c3c4nc(c(-c5c(F)c(F)c(F)c(F)c5F)c5ccc([nH]5)c(-c5c(F)c(F)c(F)c(F)c5F)c5nc(c(-c6c(F)c(F)c(F)c(F)c6F)c6ccc3[nH]6)C=C5)C=C4)cc2)o1
REMARK SMILES IDX 20 1 19 2 17 3 18 4 16 5 13 6 14 7 91 8 15 9 12 10 11 11
REMARK SMILES IDX 9 12 10 13 7 15 8 16 6 17 5 18 3 19 4 20 2 21 1 22 21 23
REMARK SMILES IDX 22 24 23 25 24 26 25 27 26 28 27 29 28 30 29 31 90 32 30 33
REMARK SMILES IDX 89 34 31 35 32 36 33 37 83 38 34 39 88 40 82 41 84 42 35 43
REMARK SMILES IDX 87 44 81 45 80 46 36 48 68 49 48 50 67 51 49 52 52 53 66 54
REMARK SMILES IDX 85 55 50 56 51 57 65 59 86 60 53 61 37 62 38 63 46 64 39 65
REMARK SMILES IDX 40 66 44 67 47 68 41 69 42 70 45 71 43 72 69 73 70 74 78 75
REMARK SMILES IDX 71 76 72 77 76 78 79 79 73 80 74 81 77 82 75 83 54 84 55 85
REMARK SMILES IDX 63 86 56 87 57 88 61 89 64 90 58 91 59 92 62 93 60 94
REMARK H PARENT 11 14 84 47 52 58
REMARK Flexibility Score: inf
ROOT
ATOM      1  C   UNL A   1      33.046  23.276  27.420  1.00  0.00     0.261 C 
ENDROOT
BRANCH   1   2
ATOM      2  O   UNL A   1      31.797  22.590  27.614  1.00  0.00    -0.457 OA
BRANCH   2   3
ATOM      3  C   UNL A   1      30.756  23.030  26.851  1.00  0.00     0.374 C 
ATOM      4  O   UNL A   1      29.708  23.486  27.290  1.00  0.00    -0.242 OA
BRANCH   3   5
ATOM      5  C   UNL A   1      31.133  22.980  25.457  1.00  0.00     0.211 A 
ATOM      6  C   UNL A   1      31.496  23.902  23.488  1.00  0.00     0.124 A 
ATOM      7  C   UNL A   1      31.977  22.612  23.405  1.00  0.00     0.048 A 
ATOM      8  O   UNL A   1      30.948  24.114  24.714  1.00  0.00    -0.452 OA
ATOM      9  C   UNL A   1      31.755  22.022  24.675  1.00  0.00     0.058 A 
BRANCH   6  10
ATOM     10  C   UNL A   1      31.531  25.075  22.580  1.00  0.00     0.193 C 
BRANCH  10  11
ATOM     11  N   UNL A   1      32.633  25.910  23.002  1.00  0.00    -0.331 N 
ATOM     12  C   UNL A   1      32.839  26.885  23.897  1.00  0.00     0.317 C 
ATOM     13  O   UNL A   1      34.009  27.268  23.990  1.00  0.00    -0.249 OA
ATOM     14  H   UNL A   1      33.452  25.707  22.496  1.00  0.00     0.165 HD
BRANCH  12  15
ATOM     15  N   UNL A   1      31.850  27.400  24.686  1.00  0.00    -0.327 N 
ATOM     16  C   UNL A   1      30.742  28.238  24.264  1.00  0.00     0.148 C 
BRANCH  15  17
ATOM     17  C   UNL A   1      31.860  27.015  26.108  1.00  0.00     0.132 C 
BRANCH  17  18
ATOM     18  C   UNL A   1      31.652  28.202  27.041  1.00  0.00     0.144 C 
BRANCH  18  19
ATOM     19  C   UNL A   1      32.934  28.969  27.223  1.00  0.00     0.307 C 
ATOM     20  O   UNL A   1      34.045  28.457  27.176  1.00  0.00    -0.252 OA
BRANCH  19  21
ATOM     21  O   UNL A   1      32.676  30.285  27.455  1.00  0.00    -0.469 OA
ATOM     22  C   UNL A   1      31.859  30.906  26.461  1.00  0.00     0.282 C 
ENDBRANCH  19  21
ENDBRANCH  18  19
ENDBRANCH  17  18
ENDBRANCH  15  17
ENDBRANCH  12  15
ENDBRANCH  10  11
ENDBRANCH   6  10
ENDBRANCH   3   5
ENDBRANCH   2   3
ENDBRANCH   1   2
BRANCH   1  23
ATOM     23  C   UNL A   1      34.199  22.269  27.455  1.00  0.00     0.202 C 
BRANCH  23  24
ATOM     24  O   UNL A   1      35.210  22.512  26.477  1.00  0.00    -0.374 OA
BRANCH  24  25
ATOM     25  C   UNL A   1      35.402  21.491  25.494  1.00  0.00     0.202 C 
BRANCH  25  26
ATOM     26  C   UNL A   1      36.820  20.911  25.447  1.00  0.00     0.261 C 
BRANCH  26  27
ATOM     27  O   UNL A   1      37.802  21.965  25.471  1.00  0.00    -0.460 OA
BRANCH  27  28
ATOM     28  C   UNL A   1      38.987  21.643  26.039  1.00  0.00     0.338 C 
ATOM     29  O   UNL A   1      39.586  20.585  25.960  1.00  0.00    -0.246 OA
BRANCH  28  30
ATOM     30  C   UNL A   1      39.578  22.851  26.648  1.00  0.00     0.060 A 
ATOM     31  C   UNL A   1      39.174  24.097  26.148  1.00  0.00     0.016 A 
ATOM     32  C   UNL A   1      40.537  22.772  27.660  1.00  0.00     0.016 A 
ATOM     33  C   UNL A   1      39.759  25.268  26.627  1.00  0.00     0.010 A 
ATOM     34  C   UNL A   1      41.131  23.946  28.133  1.00  0.00     0.010 A 
ATOM     35  C   UNL A   1      40.767  25.194  27.597  1.00  0.00    -0.014 A 
BRANCH  35  36
ATOM     36  C   UNL A   1      41.561  26.396  27.945  1.00  0.00     0.031 A 
ATOM     37  C   UNL A   1      40.887  27.507  28.699  1.00  0.00     0.074 A 
ATOM     38  C   UNL A   1      42.850  26.506  27.584  1.00  0.00     0.049 A 
ATOM     39  N   UNL A   1      41.330  28.703  28.991  1.00  0.00    -0.248 NA
ATOM     40  C   UNL A   1      39.526  27.231  29.186  1.00  0.00     0.031 C 
ATOM     41  C   UNL A   1      43.627  25.475  26.900  1.00  0.00     0.029 A 
ATOM     42  N   UNL A   1      43.726  27.553  27.723  1.00  0.00    -0.354 N 
ATOM     43  C   UNL A   1      40.297  29.327  29.678  1.00  0.00     0.074 A 
ATOM     44  C   UNL A   1      39.201  28.386  29.748  1.00  0.00     0.031 C 
ATOM     45  C   UNL A   1      44.862  25.950  26.658  1.00  0.00     0.029 A 
ATOM     46  C   UNL A   1      44.945  27.332  27.131  1.00  0.00     0.049 A 
ATOM     47  H   UNL A   1      43.502  28.384  28.202  1.00  0.00     0.167 HD
ATOM     48  C   UNL A   1      40.270  30.574  30.203  1.00  0.00     0.037 A 
ATOM     49  C   UNL A   1      45.990  28.163  26.960  1.00  0.00     0.037 A 
ATOM     50  C   UNL A   1      41.363  31.506  30.133  1.00  0.00     0.049 A 
ATOM     51  C   UNL A   1      45.907  29.574  27.483  1.00  0.00     0.074 A 
ATOM     52  C   UNL A   1      41.436  32.791  30.638  1.00  0.00     0.029 A 
ATOM     53  N   UNL A   1      42.576  31.248  29.511  1.00  0.00    -0.354 N 
ATOM     54  N   UNL A   1      44.931  30.159  28.133  1.00  0.00    -0.248 NA
ATOM     55  C   UNL A   1      47.069  30.444  27.242  1.00  0.00     0.031 C 
ATOM     56  C   UNL A   1      42.678  33.328  30.287  1.00  0.00     0.029 A 
ATOM     57  C   UNL A   1      43.397  32.359  29.605  1.00  0.00     0.049 A 
ATOM     58  H   UNL A   1      42.817  30.401  29.070  1.00  0.00     0.167 HD
ATOM     59  C   UNL A   1      45.371  31.447  28.410  1.00  0.00     0.074 A 
ATOM     60  C   UNL A   1      46.704  31.561  27.855  1.00  0.00     0.031 C 
ATOM     61  C   UNL A   1      44.732  32.444  29.070  1.00  0.00     0.037 A 
BRANCH  48  62
ATOM     62  C   UNL A   1      39.002  31.015  30.872  1.00  0.00     0.064 A 
ATOM     63  C   UNL A   1      37.957  31.611  30.151  1.00  0.00     0.173 A 
ATOM     64  C   UNL A   1      38.820  30.810  32.247  1.00  0.00     0.173 A 
ATOM     65  F   UNL A   1      38.090  31.842  28.835  1.00  0.00    -0.203 F 
ATOM     66  C   UNL A   1      36.783  32.005  30.787  1.00  0.00     0.198 A 
ATOM     67  C   UNL A   1      37.636  31.182  32.876  1.00  0.00     0.198 A 
ATOM     68  F   UNL A   1      39.789  30.242  32.980  1.00  0.00    -0.203 F 
ATOM     69  F   UNL A   1      35.814  32.611  30.088  1.00  0.00    -0.200 F 
ATOM     70  C   UNL A   1      36.621  31.785  32.148  1.00  0.00     0.200 A 
ATOM     71  F   UNL A   1      37.476  30.959  34.188  1.00  0.00    -0.200 F 
ATOM     72  F   UNL A   1      35.489  32.160  32.757  1.00  0.00    -0.200 F 
ENDBRANCH  48  62
BRANCH  49  73
ATOM     73  C   UNL A   1      47.202  27.693  26.240  1.00  0.00     0.064 A 
ATOM     74  C   UNL A   1      47.290  27.775  24.844  1.00  0.00     0.173 A 
ATOM     75  C   UNL A   1      48.290  27.138  26.932  1.00  0.00     0.173 A 
ATOM     76  F   UNL A   1      46.265  28.272  24.137  1.00  0.00    -0.203 F 
ATOM     77  C   UNL A   1      48.415  27.309  24.166  1.00  0.00     0.198 A 
ATOM     78  C   UNL A   1      49.423  26.697  26.255  1.00  0.00     0.198 A 
ATOM     79  F   UNL A   1      48.253  27.034  28.268  1.00  0.00    -0.203 F 
ATOM     80  F   UNL A   1      48.457  27.362  22.828  1.00  0.00    -0.200 F 
ATOM     81  C   UNL A   1      49.483  26.777  24.872  1.00  0.00     0.200 A 
ATOM     82  F   UNL A   1      50.457  26.191  26.942  1.00  0.00    -0.200 F 
ATOM     83  F   UNL A   1      50.566  26.332  24.220  1.00  0.00    -0.200 F 
ENDBRANCH  49  73
BRANCH  61  84
ATOM     84  C   UNL A   1      45.476  33.727  29.285  1.00  0.00     0.064 A 
ATOM     85  C   UNL A   1      46.257  33.944  30.428  1.00  0.00     0.173 A 
ATOM     86  C   UNL A   1      45.470  34.720  28.293  1.00  0.00     0.173 A 
ATOM     87  F   UNL A   1      46.284  33.030  31.410  1.00  0.00    -0.203 F 
ATOM     88  C   UNL A   1      47.001  35.112  30.574  1.00  0.00     0.198 A 
ATOM     89  C   UNL A   1      46.233  35.875  28.430  1.00  0.00     0.198 A 
ATOM     90  F   UNL A   1      44.743  34.555  27.178  1.00  0.00    -0.203 F 
ATOM     91  F   UNL A   1      47.722  35.311  31.686  1.00  0.00    -0.200 F 
ATOM     92  C   UNL A   1      46.996  36.072  29.571  1.00  0.00     0.200 A 
ATOM     93  F   UNL A   1      46.237  36.794  27.455  1.00  0.00    -0.200 F 
ATOM     94  F   UNL A   1      47.727  37.187  29.707  1.00  0.00    -0.200 F 
ENDBRANCH  61  84
ENDBRANCH  35  36
ENDBRANCH  28  30
ENDBRANCH  27  28
ENDBRANCH  26  27
ENDBRANCH  25  26
ENDBRANCH  24  25
ENDBRANCH  23  24
ENDBRANCH   1  23
TORSDOF 21
ENDMDL
MODEL 3
REMARK VINA RESULT:      -9.9      5.216      8.034
REMARK SMILES COC(=O)CCN(C)C(=O)NCc1ccc(C(=O)OCCOCCOC(=O)c2ccc(-c3c4nc(c(-c5c(F)c(F)c(F)c(F)c5F)c5ccc([nH]5)c(-c5c(F)c(F)c(F)c(F)c5F)c5nc(c(-c6c(F)c(F)c(F)c(F)c6F)c6ccc3[nH]6)C=C5)C=C4)cc2)o1
REMARK SMILES IDX 20 1 19 2 17 3 18 4 16 5 13 6 14 7 91 8 15 9 12 10 11 11
REMARK SMILES IDX 9 12 10 13 7 15 8 16 6 17 5 18 3 19 4 20 2 21 1 22 21 23
REMARK SMILES IDX 22 24 23 25 24 26 25 27 26 28 27 29 28 30 29 31 90 32 30 33
REMARK SMILES IDX 89 34 31 35 32 36 33 37 83 38 34 39 88 40 82 41 84 42 35 43
REMARK SMILES IDX 87 44 81 45 80 46 36 48 68 49 48 50 67 51 49 52 52 53 66 54
REMARK SMILES IDX 85 55 50 56 51 57 65 59 86 60 53 61 37 62 38 63 46 64 39 65
REMARK SMILES IDX 40 66 44 67 47 68 41 69 42 70 45 71 43 72 69 73 70 74 78 75
REMARK SMILES IDX 71 76 72 77 76 78 79 79 73 80 74 81 77 82 75 83 54 84 55 85
REMARK SMILES IDX 63 86 56 87 57 88 61 89 64 90 58 91 59 92 62 93 60 94
REMARK H PARENT 11 14 84 47 52 58
REMARK Flexibility Score: inf
ROOT
ATOM      1  C   UNL A   1      34.541  34.742  27.880  1.00  0.00     0.261 C 
ENDROOT
BRANCH   1   2
ATOM      2  O   UNL A   1      35.177  33.511  27.494  1.00  0.00    -0.457 OA
BRANCH   2   3
ATOM      3  C   UNL A   1      35.286  32.570  28.476  1.00  0.00     0.374 C 
ATOM      4  O   UNL A   1      35.592  32.801  29.638  1.00  0.00    -0.242 OA
BRANCH   3   5
ATOM      5  C   UNL A   1      34.874  31.288  27.953  1.00  0.00     0.211 A 
ATOM      6  C   UNL A   1      33.636  30.001  26.660  1.00  0.00     0.124 A 
ATOM      7  C   UNL A   1      34.623  29.191  27.179  1.00  0.00     0.048 A 
ATOM      8  O   UNL A   1      33.761  31.260  27.158  1.00  0.00    -0.452 OA
ATOM      9  C   UNL A   1      35.427  30.019  28.001  1.00  0.00     0.058 A 
BRANCH   6  10
ATOM     10  C   UNL A   1      32.567  29.806  25.649  1.00  0.00     0.193 C 
BRANCH  10  11
ATOM     11  N   UNL A   1      33.212  29.432  24.411  1.00  0.00    -0.331 N 
ATOM     12  C   UNL A   1      32.860  28.847  23.258  1.00  0.00     0.317 C 
ATOM     13  O   UNL A   1      33.747  28.810  22.400  1.00  0.00    -0.249 OA
ATOM     14  H   UNL A   1      34.166  29.672  24.416  1.00  0.00     0.165 HD
BRANCH  12  15
ATOM     15  N   UNL A   1      31.607  28.360  23.016  1.00  0.00    -0.327 N 
ATOM     16  C   UNL A   1      31.086  27.058  23.394  1.00  0.00     0.148 C 
BRANCH  15  17
ATOM     17  C   UNL A   1      30.650  29.269  22.363  1.00  0.00     0.132 C 
BRANCH  17  18
ATOM     18  C   UNL A   1      29.563  29.761  23.310  1.00  0.00     0.144 C 
BRANCH  18  19
ATOM     19  C   UNL A   1      28.195  29.482  22.745  1.00  0.00     0.307 C 
ATOM     20  O   UNL A   1      27.538  28.487  23.019  1.00  0.00    -0.252 OA
BRANCH  19  21
ATOM     21  O   UNL A   1      27.818  30.474  21.894  1.00  0.00    -0.469 OA
ATOM     22  C   UNL A   1      27.927  31.789  22.442  1.00  0.00     0.282 C 
ENDBRANCH  19  21
ENDBRANCH  18  19
ENDBRANCH  17  18
ENDBRANCH  15  17
ENDBRANCH  12  15
ENDBRANCH  10  11
ENDBRANCH   6  10
ENDBRANCH   3   5
ENDBRANCH   2   3
ENDBRANCH   1   2
BRANCH   1  23
ATOM     23  C   UNL A   1      33.070  34.480  28.214  1.00  0.00     0.202 C 
BRANCH  23  24
ATOM     24  O   UNL A   1      32.684  34.921  29.516  1.00  0.00    -0.374 OA
BRANCH  24  25
ATOM     25  C   UNL A   1      32.546  36.333  29.694  1.00  0.00     0.202 C 
BRANCH  25  26
ATOM     26  C   UNL A   1      33.487  36.938  30.742  1.00  0.00     0.261 C 
BRANCH  26  27
ATOM     27  O   UNL A   1      32.843  36.998  32.030  1.00  0.00    -0.460 OA
BRANCH  27  28
ATOM     28  C   UNL A   1      32.557  35.800  32.593  1.00  0.00     0.338 C 
ATOM     29  O   UNL A   1      31.458  35.349  32.864  1.00  0.00    -0.246 OA
BRANCH  28  30
ATOM     30  C   UNL A   1      33.794  34.997  32.678  1.00  0.00     0.060 A 
ATOM     31  C   UNL A   1      33.663  33.627  32.942  1.00  0.00     0.016 A 
ATOM     32  C   UNL A   1      35.057  35.575  32.546  1.00  0.00     0.016 A 
ATOM     33  C   UNL A   1      34.797  32.834  33.115  1.00  0.00     0.010 A 
ATOM     34  C   UNL A   1      36.195  34.783  32.731  1.00  0.00     0.010 A 
ATOM     35  C   UNL A   1      36.068  33.418  33.046  1.00  0.00    -0.014 A 
BRANCH  35  36
ATOM     36  C   UNL A   1      37.267  32.652  33.458  1.00  0.00     0.031 A 
ATOM     37  C   UNL A   1      37.911  32.979  34.776  1.00  0.00     0.074 A 
ATOM     38  C   UNL A   1      37.787  31.696  32.670  1.00  0.00     0.049 A 
ATOM     39  N   UNL A   1      39.037  32.549  35.282  1.00  0.00    -0.248 NA
ATOM     40  C   UNL A   1      37.184  33.927  35.637  1.00  0.00     0.031 C 
ATOM     41  C   UNL A   1      37.222  31.250  31.399  1.00  0.00     0.029 A 
ATOM     42  N   UNL A   1      38.925  30.944  32.817  1.00  0.00    -0.354 N 
ATOM     43  C   UNL A   1      39.163  33.185  36.510  1.00  0.00     0.074 A 
ATOM     44  C   UNL A   1      38.008  34.042  36.668  1.00  0.00     0.031 C 
ATOM     45  C   UNL A   1      38.030  30.315  30.868  1.00  0.00     0.029 A 
ATOM     46  C   UNL A   1      39.188  30.131  31.742  1.00  0.00     0.049 A 
ATOM     47  H   UNL A   1      39.499  30.982  33.616  1.00  0.00     0.167 HD
ATOM     48  C   UNL A   1      40.155  33.063  37.423  1.00  0.00     0.037 A 
ATOM     49  C   UNL A   1      40.260  29.358  31.480  1.00  0.00     0.037 A 
ATOM     50  C   UNL A   1      41.301  32.208  37.263  1.00  0.00     0.049 A 
ATOM     51  C   UNL A   1      41.390  29.298  32.475  1.00  0.00     0.074 A 
ATOM     52  C   UNL A   1      42.358  32.010  38.133  1.00  0.00     0.029 A 
ATOM     53  N   UNL A   1      41.538  31.412  36.153  1.00  0.00    -0.354 N 
ATOM     54  N   UNL A   1      41.504  29.899  33.635  1.00  0.00    -0.248 NA
ATOM     55  C   UNL A   1      42.545  28.458  32.122  1.00  0.00     0.031 C 
ATOM     56  C   UNL A   1      43.257  31.125  37.530  1.00  0.00     0.029 A 
ATOM     57  C   UNL A   1      42.735  30.734  36.308  1.00  0.00     0.049 A 
ATOM     58  H   UNL A   1      40.943  31.339  35.372  1.00  0.00     0.167 HD
ATOM     59  C   UNL A   1      42.719  29.485  34.164  1.00  0.00     0.074 A 
ATOM     60  C   UNL A   1      43.310  28.582  33.199  1.00  0.00     0.031 C 
ATOM     61  C   UNL A   1      43.293  29.818  35.346  1.00  0.00     0.037 A 
BRANCH  48  62
ATOM     62  C   UNL A   1      40.060  33.900  38.663  1.00  0.00     0.064 A 
ATOM     63  C   UNL A   1      40.697  35.146  38.762  1.00  0.00     0.173 A 
ATOM     64  C   UNL A   1      39.297  33.463  39.755  1.00  0.00     0.173 A 
ATOM     65  F   UNL A   1      41.452  35.601  37.750  1.00  0.00    -0.203 F 
ATOM     66  C   UNL A   1      40.590  35.914  39.919  1.00  0.00     0.198 A 
ATOM     67  C   UNL A   1      39.170  34.244  40.900  1.00  0.00     0.198 A 
ATOM     68  F   UNL A   1      38.666  32.279  39.708  1.00  0.00    -0.203 F 
ATOM     69  F   UNL A   1      41.240  37.081  40.010  1.00  0.00    -0.200 F 
ATOM     70  C   UNL A   1      39.821  35.465  40.984  1.00  0.00     0.200 A 
ATOM     71  F   UNL A   1      38.420  33.814  41.924  1.00  0.00    -0.200 F 
ATOM     72  F   UNL A   1      39.715  36.207  42.094  1.00  0.00    -0.200 F 
ENDBRANCH  48  62
BRANCH  49  73
ATOM     73  C   UNL A   1      40.329  28.592  30.209  1.00  0.00     0.064 A 
ATOM     74  C   UNL A   1      41.083  29.058  29.125  1.00  0.00     0.173 A 
ATOM     75  C   UNL A   1      39.630  27.385  30.048  1.00  0.00     0.173 A 
ATOM     76  F   UNL A   1      41.746  30.220  29.221  1.00  0.00    -0.203 F 
ATOM     77  C   UNL A   1      41.127  28.354  27.923  1.00  0.00     0.198 A 
ATOM     78  C   UNL A   1      39.695  26.670  28.856  1.00  0.00     0.198 A 
ATOM     79  F   UNL A   1      38.890  26.898  31.055  1.00  0.00    -0.203 F 
ATOM     80  F   UNL A   1      41.823  28.843  26.887  1.00  0.00    -0.200 F 
ATOM     81  C   UNL A   1      40.438  27.157  27.792  1.00  0.00     0.200 A 
ATOM     82  F   UNL A   1      39.036  25.509  28.736  1.00  0.00    -0.200 F 
ATOM     83  F   UNL A   1      40.483  26.478  26.637  1.00  0.00    -0.200 F 
ENDBRANCH  49  73
BRANCH  61  84
ATOM     84  C   UNL A   1      44.595  29.165  35.699  1.00  0.00     0.064 A 
ATOM     85  C   UNL A   1      45.826  29.749  35.370  1.00  0.00     0.173 A 
ATOM     86  C   UNL A   1      44.608  27.979  36.448  1.00  0.00     0.173 A 
ATOM     87  F   UNL A   1      45.865  30.876  34.643  1.00  0.00    -0.203 F 
ATOM     88  C   UNL A   1      47.024  29.164  35.773  1.00  0.00     0.198 A 
ATOM     89  C   UNL A   1      45.806  27.409  36.870  1.00  0.00     0.198 A 
ATOM     90  F   UNL A   1      43.455  27.385  36.793  1.00  0.00    -0.203 F 
ATOM     91  F   UNL A   1      48.191  29.725  35.427  1.00  0.00    -0.200 F 
ATOM     92  C   UNL A   1      47.013  28.001  36.530  1.00  0.00     0.200 A 
ATOM     93  F   UNL A   1      45.792  26.294  37.612  1.00  0.00    -0.200 F 
ATOM     94  F   UNL A   1      48.167  27.451  36.931  1.00  0.00    -0.200 F 
ENDBRANCH  61  84
ENDBRANCH  35  36
ENDBRANCH  28  30
ENDBRANCH  27  28
ENDBRANCH  26  27
ENDBRANCH  25  26
ENDBRANCH  24  25
ENDBRANCH  23  24
ENDBRANCH   1  23
TORSDOF 21
ENDMDL
