MODEL 1
REMARK VINA RESULT:     -12.5      0.000      0.000
REMARK SMILES O=C(COc1ccc(Br)cc1/C=C1\C(=O)Nc2ccc(Br)cc21)OCCOCCOC(=O)c1ccc(-c2c3nc(c(-c4c(F)c(F)c(F)c(F)c4F)c4ccc([nH]4)c(-c4c(F)c(F)c(F)c(F)c4F)c4nc(c(-c5c(F)c(F)c(F)c(F)c5F)c5ccc2[nH]5)C=C4)C=C3)cc1
REMARK SMILES IDX 26 1 25 2 24 3 2 4 1 5 3 6 4 7 5 8 6 9 11 10 7 11 10 12 8 13
REMARK SMILES IDX 9 14 12 15 13 16 14 17 23 18 15 19 16 20 17 21 22 22 18 24
REMARK SMILES IDX 20 25 19 26 21 27 27 28 28 29 29 30 30 31 31 32 32 33 33 34
REMARK SMILES IDX 34 35 95 36 35 37 94 38 36 39 37 40 38 41 88 42 39 43 93 44
REMARK SMILES IDX 87 45 89 46 40 47 92 48 86 49 85 50 41 52 73 53 53 54 72 55
REMARK SMILES IDX 54 56 57 57 71 58 90 59 55 60 56 61 70 63 91 64 58 65 42 66
REMARK SMILES IDX 43 67 51 68 44 69 45 70 49 71 52 72 46 73 47 74 50 75 48 76
REMARK SMILES IDX 74 77 75 78 83 79 76 80 77 81 81 82 84 83 78 84 79 85 82 86
REMARK SMILES IDX 80 87 59 88 60 89 68 90 61 91 62 92 66 93 69 94 63 95 64 96
REMARK SMILES IDX 67 97 65 98
REMARK H PARENT 16 23 89 51 57 62
REMARK Flexibility Score: inf
ROOT
ATOM      1  C   UNL A   1      42.113  20.083  26.694  1.00  0.00     0.202 C 
ENDROOT
BRANCH   1   2
ATOM      2  C   UNL A   1      41.060  21.055  27.209  1.00  0.00     0.261 C 
BRANCH   2   3
ATOM      3  O   UNL A   1      40.522  21.862  26.151  1.00  0.00    -0.461 OA
BRANCH   3   4
ATOM      4  C   UNL A   1      39.251  22.337  26.188  1.00  0.00     0.344 C 
ATOM      5  O   UNL A   1      39.004  23.386  26.783  1.00  0.00    -0.248 OA
BRANCH   4   6
ATOM      6  C   UNL A   1      38.168  21.569  25.427  1.00  0.00     0.351 C 
BRANCH   6   7
ATOM      7  O   UNL A   1      36.899  22.190  25.202  1.00  0.00    -0.481 OA
BRANCH   7   8
ATOM      8  C   UNL A   1      35.865  21.295  25.063  1.00  0.00     0.127 A 
ATOM      9  C   UNL A   1      36.138  19.914  25.045  1.00  0.00     0.048 A 
ATOM     10  C   UNL A   1      34.542  21.780  24.971  1.00  0.00     0.018 A 
ATOM     11  C   UNL A   1      35.140  18.991  24.769  1.00  0.00     0.019 A 
ATOM     12  C   UNL A   1      33.565  20.813  24.689  1.00  0.00     0.027 A 
ATOM     13  C   UNL A   1      33.858  19.452  24.558  1.00  0.00     0.018 A 
ATOM     14  Br  UNL A   1      32.487  18.236  24.096  1.00  0.00    -0.051 Br
BRANCH  10  15
ATOM     15  C   UNL A   1      34.239  23.243  25.119  1.00  0.00     0.026 C 
ATOM     16  C   UNL A   1      33.445  23.899  25.993  1.00  0.00     0.050 C 
ATOM     17  C   UNL A   1      32.583  23.308  27.078  1.00  0.00     0.256 C 
ATOM     18  C   UNL A   1      32.852  25.225  25.729  1.00  0.00     0.012 A 
ATOM     19  O   UNL A   1      32.889  22.576  27.988  1.00  0.00    -0.269 OA
ATOM     20  N   UNL A   1      31.367  23.948  26.927  1.00  0.00    -0.321 N 
ATOM     21  C   UNL A   1      31.525  25.106  26.177  1.00  0.00     0.049 A 
ATOM     22  C   UNL A   1      33.314  26.452  25.290  1.00  0.00     0.026 A 
ATOM     23  H   UNL A   1      30.512  23.628  27.297  1.00  0.00     0.170 HD
ATOM     24  C   UNL A   1      30.581  26.099  26.042  1.00  0.00     0.028 A 
ATOM     25  C   UNL A   1      32.391  27.509  25.242  1.00  0.00     0.018 A 
ATOM     26  C   UNL A   1      31.029  27.326  25.560  1.00  0.00     0.018 A 
ATOM     27  Br  UNL A   1      32.987  29.259  24.825  1.00  0.00    -0.051 Br
ENDBRANCH  10  15
ENDBRANCH   7   8
ENDBRANCH   6   7
ENDBRANCH   4   6
ENDBRANCH   3   4
ENDBRANCH   2   3
ENDBRANCH   1   2
BRANCH   1  28
ATOM     28  O   UNL A   1      42.618  20.381  25.395  1.00  0.00    -0.374 OA
BRANCH  28  29
ATOM     29  C   UNL A   1      43.939  20.949  25.357  1.00  0.00     0.202 C 
BRANCH  29  30
ATOM     30  C   UNL A   1      44.068  22.265  24.578  1.00  0.00     0.261 C 
BRANCH  30  31
ATOM     31  O   UNL A   1      43.329  23.317  25.233  1.00  0.00    -0.460 OA
BRANCH  31  32
ATOM     32  C   UNL A   1      43.947  24.520  25.309  1.00  0.00     0.338 C 
ATOM     33  O   UNL A   1      44.824  24.945  24.577  1.00  0.00    -0.246 OA
BRANCH  32  34
ATOM     34  C   UNL A   1      43.221  25.371  26.278  1.00  0.00     0.060 A 
ATOM     35  C   UNL A   1      42.252  24.852  27.139  1.00  0.00     0.016 A 
ATOM     36  C   UNL A   1      43.537  26.738  26.310  1.00  0.00     0.016 A 
ATOM     37  C   UNL A   1      41.637  25.695  28.070  1.00  0.00     0.010 A 
ATOM     38  C   UNL A   1      42.919  27.579  27.234  1.00  0.00     0.010 A 
ATOM     39  C   UNL A   1      41.988  27.056  28.141  1.00  0.00    -0.014 A 
BRANCH  39  40
ATOM     40  C   UNL A   1      41.527  27.882  29.281  1.00  0.00     0.031 A 
ATOM     41  C   UNL A   1      40.332  28.776  29.179  1.00  0.00     0.074 A 
ATOM     42  C   UNL A   1      42.238  27.820  30.423  1.00  0.00     0.049 A 
ATOM     43  N   UNL A   1      39.770  29.503  30.112  1.00  0.00    -0.248 NA
ATOM     44  C   UNL A   1      39.686  28.879  27.864  1.00  0.00     0.031 C 
ATOM     45  C   UNL A   1      43.443  27.011  30.614  1.00  0.00     0.029 A 
ATOM     46  N   UNL A   1      42.054  28.435  31.634  1.00  0.00    -0.354 N 
ATOM     47  C   UNL A   1      38.688  30.125  29.510  1.00  0.00     0.074 A 
ATOM     48  C   UNL A   1      38.700  29.732  28.114  1.00  0.00     0.031 C 
ATOM     49  C   UNL A   1      43.876  27.158  31.874  1.00  0.00     0.029 A 
ATOM     50  C   UNL A   1      42.991  28.083  32.573  1.00  0.00     0.049 A 
ATOM     51  H   UNL A   1      41.321  29.068  31.813  1.00  0.00     0.167 HD
ATOM     52  C   UNL A   1      37.762  30.934  30.080  1.00  0.00     0.037 A 
ATOM     53  C   UNL A   1      43.116  28.457  33.861  1.00  0.00     0.037 A 
ATOM     54  C   UNL A   1      37.774  31.334  31.465  1.00  0.00     0.049 A 
ATOM     55  C   UNL A   1      42.095  29.386  34.453  1.00  0.00     0.074 A 
ATOM     56  C   UNL A   1      36.862  32.127  32.141  1.00  0.00     0.029 A 
ATOM     57  N   UNL A   1      38.753  30.982  32.383  1.00  0.00    -0.354 N 
ATOM     58  N   UNL A   1      41.031  29.907  33.894  1.00  0.00    -0.248 NA
ATOM     59  C   UNL A   1      42.286  29.770  35.858  1.00  0.00     0.031 C 
ATOM     60  C   UNL A   1      37.313  32.290  33.455  1.00  0.00     0.029 A 
ATOM     61  C   UNL A   1      38.480  31.561  33.613  1.00  0.00     0.049 A 
ATOM     62  H   UNL A   1      39.528  30.405  32.190  1.00  0.00     0.167 HD
ATOM     63  C   UNL A   1      40.414  30.662  34.881  1.00  0.00     0.074 A 
ATOM     64  C   UNL A   1      41.215  30.519  36.080  1.00  0.00     0.031 C 
ATOM     65  C   UNL A   1      39.286  31.408  34.797  1.00  0.00     0.037 A 
BRANCH  52  66
ATOM     66  C   UNL A   1      36.638  31.433  29.220  1.00  0.00     0.064 A 
ATOM     67  C   UNL A   1      35.555  30.602  28.891  1.00  0.00     0.173 A 
ATOM     68  C   UNL A   1      36.587  32.772  28.807  1.00  0.00     0.173 A 
ATOM     69  F   UNL A   1      35.559  29.313  29.259  1.00  0.00    -0.203 F 
ATOM     70  C   UNL A   1      34.468  31.094  28.173  1.00  0.00     0.198 A 
ATOM     71  C   UNL A   1      35.489  33.266  28.109  1.00  0.00     0.198 A 
ATOM     72  F   UNL A   1      37.593  33.610  29.105  1.00  0.00    -0.203 F 
ATOM     73  F   UNL A   1      33.455  30.277  27.854  1.00  0.00    -0.200 F 
ATOM     74  C   UNL A   1      34.431  32.426  27.791  1.00  0.00     0.200 A 
ATOM     75  F   UNL A   1      35.447  34.557  27.752  1.00  0.00    -0.200 F 
ATOM     76  F   UNL A   1      33.374  32.903  27.118  1.00  0.00    -0.200 F 
ENDBRANCH  52  66
BRANCH  53  77
ATOM     77  C   UNL A   1      44.225  27.907  34.679  1.00  0.00     0.064 A 
ATOM     78  C   UNL A   1      44.085  26.682  35.345  1.00  0.00     0.173 A 
ATOM     79  C   UNL A   1      45.455  28.573  34.786  1.00  0.00     0.173 A 
ATOM     80  F   UNL A   1      42.921  26.018  35.284  1.00  0.00    -0.203 F 
ATOM     81  C   UNL A   1      45.128  26.149  36.096  1.00  0.00     0.198 A 
ATOM     82  C   UNL A   1      46.506  28.026  35.517  1.00  0.00     0.198 A 
ATOM     83  F   UNL A   1      45.640  29.744  34.159  1.00  0.00    -0.203 F 
ATOM     84  F   UNL A   1      44.957  24.991  36.749  1.00  0.00    -0.200 F 
ATOM     85  C   UNL A   1      46.341  26.817  36.176  1.00  0.00     0.200 A 
ATOM     86  F   UNL A   1      47.682  28.667  35.578  1.00  0.00    -0.200 F 
ATOM     87  F   UNL A   1      47.349  26.298  36.890  1.00  0.00    -0.200 F 
ENDBRANCH  53  77
BRANCH  65  88
ATOM     88  C   UNL A   1      38.839  32.120  36.039  1.00  0.00     0.064 A 
ATOM     89  C   UNL A   1      38.101  31.463  37.033  1.00  0.00     0.173 A 
ATOM     90  C   UNL A   1      39.201  33.458  36.263  1.00  0.00     0.173 A 
ATOM     91  F   UNL A   1      37.718  30.190  36.858  1.00  0.00    -0.203 F 
ATOM     92  C   UNL A   1      37.730  32.122  38.202  1.00  0.00     0.198 A 
ATOM     93  C   UNL A   1      38.852  34.105  37.445  1.00  0.00     0.198 A 
ATOM     94  F   UNL A   1      39.912  34.129  35.344  1.00  0.00    -0.203 F 
ATOM     95  F   UNL A   1      36.995  31.485  39.124  1.00  0.00    -0.200 F 
ATOM     96  C   UNL A   1      38.114  33.439  38.410  1.00  0.00     0.200 A 
ATOM     97  F   UNL A   1      39.233  35.374  37.650  1.00  0.00    -0.200 F 
ATOM     98  F   UNL A   1      37.766  34.068  39.542  1.00  0.00    -0.200 F 
ENDBRANCH  65  88
ENDBRANCH  39  40
ENDBRANCH  32  34
ENDBRANCH  31  32
ENDBRANCH  30  31
ENDBRANCH  29  30
ENDBRANCH  28  29
ENDBRANCH   1  28
TORSDOF 17
ENDMDL
MODEL 2
REMARK VINA RESULT:     -12.3      3.347      9.214
REMARK SMILES O=C(COc1ccc(Br)cc1/C=C1\C(=O)Nc2ccc(Br)cc21)OCCOCCOC(=O)c1ccc(-c2c3nc(c(-c4c(F)c(F)c(F)c(F)c4F)c4ccc([nH]4)c(-c4c(F)c(F)c(F)c(F)c4F)c4nc(c(-c5c(F)c(F)c(F)c(F)c5F)c5ccc2[nH]5)C=C4)C=C3)cc1
REMARK SMILES IDX 26 1 25 2 24 3 2 4 1 5 3 6 4 7 5 8 6 9 11 10 7 11 10 12 8 13
REMARK SMILES IDX 9 14 12 15 13 16 14 17 23 18 15 19 16 20 17 21 22 22 18 24
REMARK SMILES IDX 20 25 19 26 21 27 27 28 28 29 29 30 30 31 31 32 32 33 33 34
REMARK SMILES IDX 34 35 95 36 35 37 94 38 36 39 37 40 38 41 88 42 39 43 93 44
REMARK SMILES IDX 87 45 89 46 40 47 92 48 86 49 85 50 41 52 73 53 53 54 72 55
REMARK SMILES IDX 54 56 57 57 71 58 90 59 55 60 56 61 70 63 91 64 58 65 42 66
REMARK SMILES IDX 43 67 51 68 44 69 45 70 49 71 52 72 46 73 47 74 50 75 48 76
REMARK SMILES IDX 74 77 75 78 83 79 76 80 77 81 81 82 84 83 78 84 79 85 82 86
REMARK SMILES IDX 80 87 59 88 60 89 68 90 61 91 62 92 66 93 69 94 63 95 64 96
REMARK SMILES IDX 67 97 65 98
REMARK H PARENT 16 23 89 51 57 62
REMARK Flexibility Score: inf
ROOT
ATOM      1  C   UNL A   1      32.130  29.457  27.250  1.00  0.00     0.202 C 
ENDROOT
BRANCH   1   2
ATOM      2  C   UNL A   1      33.256  28.431  27.253  1.00  0.00     0.261 C 
BRANCH   2   3
ATOM      3  O   UNL A   1      32.907  27.260  26.501  1.00  0.00    -0.461 OA
BRANCH   3   4
ATOM      4  C   UNL A   1      33.672  26.817  25.469  1.00  0.00     0.344 C 
ATOM      5  O   UNL A   1      34.320  25.778  25.588  1.00  0.00    -0.248 OA
BRANCH   4   6
ATOM      6  C   UNL A   1      33.650  27.607  24.160  1.00  0.00     0.351 C 
BRANCH   6   7
ATOM      7  O   UNL A   1      32.950  27.073  23.033  1.00  0.00    -0.481 OA
BRANCH   7   8
ATOM      8  C   UNL A   1      31.642  27.487  22.950  1.00  0.00     0.127 A 
ATOM      9  C   UNL A   1      31.353  28.804  22.542  1.00  0.00     0.048 A 
ATOM     10  C   UNL A   1      30.609  26.571  23.247  1.00  0.00     0.018 A 
ATOM     11  C   UNL A   1      30.058  29.296  22.579  1.00  0.00     0.019 A 
ATOM     12  C   UNL A   1      29.315  27.113  23.276  1.00  0.00     0.027 A 
ATOM     13  C   UNL A   1      29.044  28.453  22.981  1.00  0.00     0.018 A 
ATOM     14  Br  UNL A   1      27.278  29.109  23.127  1.00  0.00    -0.051 Br
BRANCH  10  15
ATOM     15  C   UNL A   1      30.911  25.134  23.556  1.00  0.00     0.026 C 
ATOM     16  C   UNL A   1      30.866  24.451  24.722  1.00  0.00     0.050 C 
ATOM     17  C   UNL A   1      30.520  24.981  26.089  1.00  0.00     0.256 C 
ATOM     18  C   UNL A   1      31.645  23.224  24.986  1.00  0.00     0.012 A 
ATOM     19  O   UNL A   1      29.531  25.569  26.456  1.00  0.00    -0.269 OA
ATOM     20  N   UNL A   1      31.514  24.475  26.907  1.00  0.00    -0.321 N 
ATOM     21  C   UNL A   1      32.147  23.407  26.286  1.00  0.00     0.049 A 
ATOM     22  C   UNL A   1      31.859  22.023  24.335  1.00  0.00     0.026 A 
ATOM     23  H   UNL A   1      31.739  24.823  27.800  1.00  0.00     0.170 HD
ATOM     24  C   UNL A   1      33.005  22.525  26.904  1.00  0.00     0.028 A 
ATOM     25  C   UNL A   1      32.648  21.066  24.994  1.00  0.00     0.018 A 
ATOM     26  C   UNL A   1      33.261  21.330  26.236  1.00  0.00     0.018 A 
ATOM     27  Br  UNL A   1      32.838  19.333  24.251  1.00  0.00    -0.051 Br
ENDBRANCH  10  15
ENDBRANCH   7   8
ENDBRANCH   6   7
ENDBRANCH   4   6
ENDBRANCH   3   4
ENDBRANCH   2   3
ENDBRANCH   1   2
BRANCH   1  28
ATOM     28  O   UNL A   1      32.504  30.753  26.793  1.00  0.00    -0.374 OA
BRANCH  28  29
ATOM     29  C   UNL A   1      31.416  31.647  26.500  1.00  0.00     0.202 C 
BRANCH  29  30
ATOM     30  C   UNL A   1      31.652  33.117  26.875  1.00  0.00     0.261 C 
BRANCH  30  31
ATOM     31  O   UNL A   1      33.028  33.328  27.257  1.00  0.00    -0.460 OA
BRANCH  31  32
ATOM     32  C   UNL A   1      33.238  34.228  28.247  1.00  0.00     0.338 C 
ATOM     33  O   UNL A   1      32.528  35.172  28.548  1.00  0.00    -0.246 OA
BRANCH  32  34
ATOM     34  C   UNL A   1      34.352  33.753  29.097  1.00  0.00     0.060 A 
ATOM     35  C   UNL A   1      34.152  32.851  30.145  1.00  0.00     0.016 A 
ATOM     36  C   UNL A   1      35.638  34.239  28.819  1.00  0.00     0.016 A 
ATOM     37  C   UNL A   1      35.251  32.396  30.880  1.00  0.00     0.010 A 
ATOM     38  C   UNL A   1      36.733  33.790  29.557  1.00  0.00     0.010 A 
ATOM     39  C   UNL A   1      36.549  32.842  30.571  1.00  0.00    -0.014 A 
BRANCH  39  40
ATOM     40  C   UNL A   1      37.725  32.176  31.177  1.00  0.00     0.031 A 
ATOM     41  C   UNL A   1      38.214  32.524  32.548  1.00  0.00     0.074 A 
ATOM     42  C   UNL A   1      38.365  31.249  30.439  1.00  0.00     0.049 A 
ATOM     43  N   UNL A   1      39.186  31.977  33.235  1.00  0.00    -0.248 NA
ATOM     44  C   UNL A   1      37.536  33.629  33.237  1.00  0.00     0.031 C 
ATOM     45  C   UNL A   1      37.995  30.866  29.076  1.00  0.00     0.029 A 
ATOM     46  N   UNL A   1      39.448  30.459  30.725  1.00  0.00    -0.354 N 
ATOM     47  C   UNL A   1      39.218  32.648  34.448  1.00  0.00     0.074 A 
ATOM     48  C   UNL A   1      38.202  33.679  34.385  1.00  0.00     0.031 C 
ATOM     49  C   UNL A   1      38.818  29.896  28.653  1.00  0.00     0.029 A 
ATOM     50  C   UNL A   1      39.784  29.603  29.707  1.00  0.00     0.049 A 
ATOM     51  H   UNL A   1      39.938  30.501  31.578  1.00  0.00     0.167 HD
ATOM     52  C   UNL A   1      40.014  32.406  35.518  1.00  0.00     0.037 A 
ATOM     53  C   UNL A   1      40.757  28.674  29.634  1.00  0.00     0.037 A 
ATOM     54  C   UNL A   1      41.036  31.389  35.559  1.00  0.00     0.049 A 
ATOM     55  C   UNL A   1      41.647  28.457  30.823  1.00  0.00     0.074 A 
ATOM     56  C   UNL A   1      41.872  31.050  36.608  1.00  0.00     0.029 A 
ATOM     57  N   UNL A   1      41.368  30.557  34.499  1.00  0.00    -0.354 N 
ATOM     58  N   UNL A   1      41.619  29.045  31.994  1.00  0.00    -0.248 NA
ATOM     59  C   UNL A   1      42.699  27.440  30.686  1.00  0.00     0.031 C 
ATOM     60  C   UNL A   1      42.739  30.043  36.170  1.00  0.00     0.029 A 
ATOM     61  C   UNL A   1      42.414  29.721  34.864  1.00  0.00     0.049 A 
ATOM     62  H   UNL A   1      40.927  30.559  33.619  1.00  0.00     0.167 HD
ATOM     63  C   UNL A   1      42.630  28.457  32.740  1.00  0.00     0.074 A 
ATOM     64  C   UNL A   1      43.245  27.454  31.894  1.00  0.00     0.031 C 
ATOM     65  C   UNL A   1      43.014  28.728  34.010  1.00  0.00     0.037 A 
BRANCH  52  66
ATOM     66  C   UNL A   1      39.807  33.237  36.750  1.00  0.00     0.064 A 
ATOM     67  C   UNL A   1      40.529  34.423  36.952  1.00  0.00     0.173 A 
ATOM     68  C   UNL A   1      38.813  32.906  37.683  1.00  0.00     0.173 A 
ATOM     69  F   UNL A   1      41.493  34.781  36.091  1.00  0.00    -0.203 F 
ATOM     70  C   UNL A   1      40.269  35.242  38.048  1.00  0.00     0.198 A 
ATOM     71  C   UNL A   1      38.540  33.738  38.765  1.00  0.00     0.198 A 
ATOM     72  F   UNL A   1      38.088  31.787  37.530  1.00  0.00    -0.203 F 
ATOM     73  F   UNL A   1      40.985  36.360  38.231  1.00  0.00    -0.200 F 
ATOM     74  C   UNL A   1      39.269  34.905  38.947  1.00  0.00     0.200 A 
ATOM     75  F   UNL A   1      37.564  33.419  39.626  1.00  0.00    -0.200 F 
ATOM     76  F   UNL A   1      39.005  35.705  39.990  1.00  0.00    -0.200 F 
ENDBRANCH  52  66
BRANCH  53  77
ATOM     77  C   UNL A   1      40.896  27.854  28.406  1.00  0.00     0.064 A 
ATOM     78  C   UNL A   1      41.709  28.282  27.347  1.00  0.00     0.173 A 
ATOM     79  C   UNL A   1      40.252  26.615  28.277  1.00  0.00     0.173 A 
ATOM     80  F   UNL A   1      42.332  29.467  27.420  1.00  0.00    -0.203 F 
ATOM     81  C   UNL A   1      41.862  27.507  26.201  1.00  0.00     0.198 A 
ATOM     82  C   UNL A   1      40.427  25.829  27.140  1.00  0.00     0.198 A 
ATOM     83  F   UNL A   1      39.470  26.158  29.266  1.00  0.00    -0.203 F 
ATOM     84  F   UNL A   1      42.620  27.954  25.189  1.00  0.00    -0.200 F 
ATOM     85  C   UNL A   1      41.228  26.278  26.101  1.00  0.00     0.200 A 
ATOM     86  F   UNL A   1      39.824  24.635  27.054  1.00  0.00    -0.200 F 
ATOM     87  F   UNL A   1      41.385  25.527  25.002  1.00  0.00    -0.200 F 
ENDBRANCH  53  77
BRANCH  65  88
ATOM     88  C   UNL A   1      44.146  27.921  34.574  1.00  0.00     0.064 A 
ATOM     89  C   UNL A   1      45.471  28.374  34.510  1.00  0.00     0.173 A 
ATOM     90  C   UNL A   1      43.895  26.709  35.236  1.00  0.00     0.173 A 
ATOM     91  F   UNL A   1      45.762  29.519  33.873  1.00  0.00    -0.203 F 
ATOM     92  C   UNL A   1      46.507  27.637  35.077  1.00  0.00     0.198 A 
ATOM     93  C   UNL A   1      44.931  25.989  35.825  1.00  0.00     0.198 A 
ATOM     94  F   UNL A   1      42.644  26.235  35.329  1.00  0.00    -0.203 F 
ATOM     95  F   UNL A   1      47.771  28.072  34.973  1.00  0.00    -0.200 F 
ATOM     96  C   UNL A   1      46.235  26.451  35.741  1.00  0.00     0.200 A 
ATOM     97  F   UNL A   1      44.665  24.848  36.477  1.00  0.00    -0.200 F 
ATOM     98  F   UNL A   1      47.233  25.749  36.297  1.00  0.00    -0.200 F 
ENDBRANCH  65  88
ENDBRANCH  39  40
ENDBRANCH  32  34
ENDBRANCH  31  32
ENDBRANCH  30  31
ENDBRANCH  29  30
ENDBRANCH  28  29
ENDBRANCH   1  28
TORSDOF 17
ENDMDL
MODEL 3
REMARK VINA RESULT:     -11.9      3.374      8.546
REMARK SMILES O=C(COc1ccc(Br)cc1/C=C1\C(=O)Nc2ccc(Br)cc21)OCCOCCOC(=O)c1ccc(-c2c3nc(c(-c4c(F)c(F)c(F)c(F)c4F)c4ccc([nH]4)c(-c4c(F)c(F)c(F)c(F)c4F)c4nc(c(-c5c(F)c(F)c(F)c(F)c5F)c5ccc2[nH]5)C=C4)C=C3)cc1
REMARK SMILES IDX 26 1 25 2 24 3 2 4 1 5 3 6 4 7 5 8 6 9 11 10 7 11 10 12 8 13
REMARK SMILES IDX 9 14 12 15 13 16 14 17 23 18 15 19 16 20 17 21 22 22 18 24
REMARK SMILES IDX 20 25 19 26 21 27 27 28 28 29 29 30 30 31 31 32 32 33 33 34
REMARK SMILES IDX 34 35 95 36 35 37 94 38 36 39 37 40 38 41 88 42 39 43 93 44
REMARK SMILES IDX 87 45 89 46 40 47 92 48 86 49 85 50 41 52 73 53 53 54 72 55
REMARK SMILES IDX 54 56 57 57 71 58 90 59 55 60 56 61 70 63 91 64 58 65 42 66
REMARK SMILES IDX 43 67 51 68 44 69 45 70 49 71 52 72 46 73 47 74 50 75 48 76
REMARK SMILES IDX 74 77 75 78 83 79 76 80 77 81 81 82 84 83 78 84 79 85 82 86
REMARK SMILES IDX 80 87 59 88 60 89 68 90 61 91 62 92 66 93 69 94 63 95 64 96
REMARK SMILES IDX 67 97 65 98
REMARK H PARENT 16 23 89 51 57 62
REMARK Flexibility Score: inf
ROOT
ATOM      1  C   UNL A   1      31.912  29.372  26.959  1.00  0.00     0.202 C 
ENDROOT
BRANCH   1   2
ATOM      2  C   UNL A   1      32.971  28.330  27.293  1.00  0.00     0.261 C 
BRANCH   2   3
ATOM      3  O   UNL A   1      32.771  27.117  26.552  1.00  0.00    -0.461 OA
BRANCH   3   4
ATOM      4  C   UNL A   1      33.651  26.705  25.603  1.00  0.00     0.344 C 
ATOM      5  O   UNL A   1      34.348  25.711  25.803  1.00  0.00    -0.248 OA
BRANCH   4   6
ATOM      6  C   UNL A   1      33.697  27.468  24.278  1.00  0.00     0.351 C 
BRANCH   6   7
ATOM      7  O   UNL A   1      33.009  26.936  23.142  1.00  0.00    -0.481 OA
BRANCH   7   8
ATOM      8  C   UNL A   1      31.703  27.355  23.043  1.00  0.00     0.127 A 
ATOM      9  C   UNL A   1      31.424  28.676  22.643  1.00  0.00     0.048 A 
ATOM     10  C   UNL A   1      30.663  26.439  23.317  1.00  0.00     0.018 A 
ATOM     11  C   UNL A   1      30.129  29.171  22.666  1.00  0.00     0.019 A 
ATOM     12  C   UNL A   1      29.371  26.984  23.332  1.00  0.00     0.027 A 
ATOM     13  C   UNL A   1      29.108  28.327  23.045  1.00  0.00     0.018 A 
ATOM     14  Br  UNL A   1      27.341  28.986  23.171  1.00  0.00    -0.051 Br
BRANCH  10  15
ATOM     15  C   UNL A   1      30.958  24.998  23.618  1.00  0.00     0.026 C 
ATOM     16  C   UNL A   1      30.885  24.303  24.774  1.00  0.00     0.050 C 
ATOM     17  C   UNL A   1      30.507  24.818  26.138  1.00  0.00     0.256 C 
ATOM     18  C   UNL A   1      31.657  23.072  25.043  1.00  0.00     0.012 A 
ATOM     19  O   UNL A   1      29.510  25.402  26.489  1.00  0.00    -0.269 OA
ATOM     20  N   UNL A   1      31.481  24.302  26.974  1.00  0.00    -0.321 N 
ATOM     21  C   UNL A   1      32.128  23.240  26.357  1.00  0.00     0.049 A 
ATOM     22  C   UNL A   1      31.885  21.878  24.385  1.00  0.00     0.026 A 
ATOM     23  H   UNL A   1      31.685  24.640  27.876  1.00  0.00     0.170 HD
ATOM     24  C   UNL A   1      32.971  22.351  26.985  1.00  0.00     0.028 A 
ATOM     25  C   UNL A   1      32.659  20.913  25.051  1.00  0.00     0.018 A 
ATOM     26  C   UNL A   1      33.242  21.164  26.311  1.00  0.00     0.018 A 
ATOM     27  Br  UNL A   1      32.865  19.189  24.295  1.00  0.00    -0.051 Br
ENDBRANCH  10  15
ENDBRANCH   7   8
ENDBRANCH   6   7
ENDBRANCH   4   6
ENDBRANCH   3   4
ENDBRANCH   2   3
ENDBRANCH   1   2
BRANCH   1  28
ATOM     28  O   UNL A   1      32.411  30.693  26.768  1.00  0.00    -0.374 OA
BRANCH  28  29
ATOM     29  C   UNL A   1      31.444  31.668  26.342  1.00  0.00     0.202 C 
BRANCH  29  30
ATOM     30  C   UNL A   1      31.623  33.075  26.928  1.00  0.00     0.261 C 
BRANCH  30  31
ATOM     31  O   UNL A   1      33.006  33.309  27.271  1.00  0.00    -0.460 OA
BRANCH  31  32
ATOM     32  C   UNL A   1      33.230  34.220  28.248  1.00  0.00     0.338 C 
ATOM     33  O   UNL A   1      32.546  35.191  28.522  1.00  0.00    -0.246 OA
BRANCH  32  34
ATOM     34  C   UNL A   1      34.318  33.727  29.122  1.00  0.00     0.060 A 
ATOM     35  C   UNL A   1      34.075  32.863  30.192  1.00  0.00     0.016 A 
ATOM     36  C   UNL A   1      35.625  34.156  28.843  1.00  0.00     0.016 A 
ATOM     37  C   UNL A   1      35.149  32.388  30.950  1.00  0.00     0.010 A 
ATOM     38  C   UNL A   1      36.695  33.687  29.604  1.00  0.00     0.010 A 
ATOM     39  C   UNL A   1      36.466  32.775  30.642  1.00  0.00    -0.014 A 
BRANCH  39  40
ATOM     40  C   UNL A   1      37.611  32.083  31.278  1.00  0.00     0.031 A 
ATOM     41  C   UNL A   1      38.368  30.998  30.579  1.00  0.00     0.074 A 
ATOM     42  C   UNL A   1      37.942  32.449  32.531  1.00  0.00     0.049 A 
ATOM     43  N   UNL A   1      39.434  30.352  30.983  1.00  0.00    -0.248 NA
ATOM     44  C   UNL A   1      37.868  30.576  29.265  1.00  0.00     0.031 C 
ATOM     45  C   UNL A   1      37.241  33.466  33.317  1.00  0.00     0.029 A 
ATOM     46  N   UNL A   1      38.945  32.019  33.361  1.00  0.00    -0.354 N 
ATOM     47  C   UNL A   1      39.751  29.468  29.962  1.00  0.00     0.074 A 
ATOM     48  C   UNL A   1      38.735  29.624  28.940  1.00  0.00     0.031 C 
ATOM     49  C   UNL A   1      37.851  33.602  34.503  1.00  0.00     0.029 A 
ATOM     50  C   UNL A   1      38.972  32.670  34.568  1.00  0.00     0.049 A 
ATOM     51  H   UNL A   1      39.584  31.312  33.114  1.00  0.00     0.167 HD
ATOM     52  C   UNL A   1      40.807  28.623  29.885  1.00  0.00     0.037 A 
ATOM     53  C   UNL A   1      39.815  32.539  35.610  1.00  0.00     0.037 A 
ATOM     54  C   UNL A   1      41.800  28.463  30.919  1.00  0.00     0.049 A 
ATOM     55  C   UNL A   1      40.953  31.564  35.509  1.00  0.00     0.074 A 
ATOM     56  C   UNL A   1      42.922  27.653  30.919  1.00  0.00     0.029 A 
ATOM     57  N   UNL A   1      41.782  29.119  32.142  1.00  0.00    -0.354 N 
ATOM     58  N   UNL A   1      41.290  30.789  34.507  1.00  0.00    -0.248 NA
ATOM     59  C   UNL A   1      41.836  31.454  36.678  1.00  0.00     0.031 C 
ATOM     60  C   UNL A   1      43.558  27.785  32.158  1.00  0.00     0.029 A 
ATOM     61  C   UNL A   1      42.861  28.713  32.913  1.00  0.00     0.049 A 
ATOM     62  H   UNL A   1      41.104  29.776  32.421  1.00  0.00     0.167 HD
ATOM     63  C   UNL A   1      42.431  30.115  34.914  1.00  0.00     0.074 A 
ATOM     64  C   UNL A   1      42.741  30.584  36.249  1.00  0.00     0.031 C 
ATOM     65  C   UNL A   1      43.155  29.189  34.240  1.00  0.00     0.037 A 
BRANCH  52  66
ATOM     66  C   UNL A   1      40.967  27.810  28.634  1.00  0.00     0.064 A 
ATOM     67  C   UNL A   1      40.278  26.600  28.463  1.00  0.00     0.173 A 
ATOM     68  C   UNL A   1      41.729  28.289  27.557  1.00  0.00     0.173 A 
ATOM     69  F   UNL A   1      39.540  26.098  29.464  1.00  0.00    -0.203 F 
ATOM     70  C   UNL A   1      40.353  25.895  27.265  1.00  0.00     0.198 A 
ATOM     71  C   UNL A   1      41.784  27.594  26.352  1.00  0.00     0.198 A 
ATOM     72  F   UNL A   1      42.398  29.447  27.665  1.00  0.00    -0.203 F 
ATOM     73  F   UNL A   1      39.702  24.731  27.133  1.00  0.00    -0.200 F 
ATOM     74  C   UNL A   1      41.097  26.397  26.207  1.00  0.00     0.200 A 
ATOM     75  F   UNL A   1      42.491  28.087  25.326  1.00  0.00    -0.200 F 
ATOM     76  F   UNL A   1      41.151  25.728  25.047  1.00  0.00    -0.200 F 
ENDBRANCH  52  66
BRANCH  53  77
ATOM     77  C   UNL A   1      39.635  33.392  36.811  1.00  0.00     0.064 A 
ATOM     78  C   UNL A   1      38.784  32.994  37.850  1.00  0.00     0.173 A 
ATOM     79  C   UNL A   1      40.331  34.600  36.961  1.00  0.00     0.173 A 
ATOM     80  F   UNL A   1      38.087  31.853  37.743  1.00  0.00    -0.203 F 
ATOM     81  C   UNL A   1      38.626  33.777  38.990  1.00  0.00     0.198 A 
ATOM     82  C   UNL A   1      40.191  35.371  38.113  1.00  0.00     0.198 A 
ATOM     83  F   UNL A   1      41.163  35.020  35.997  1.00  0.00    -0.203 F 
ATOM     84  F   UNL A   1      37.782  33.390  39.956  1.00  0.00    -0.200 F 
ATOM     85  C   UNL A   1      39.335  34.961  39.124  1.00  0.00     0.200 A 
ATOM     86  F   UNL A   1      40.890  36.506  38.246  1.00  0.00    -0.200 F 
ATOM     87  F   UNL A   1      39.192  35.710  40.226  1.00  0.00    -0.200 F 
ENDBRANCH  53  77
BRANCH  65  88
ATOM     88  C   UNL A   1      44.364  28.627  34.928  1.00  0.00     0.064 A 
ATOM     89  C   UNL A   1      44.293  27.449  35.685  1.00  0.00     0.173 A 
ATOM     90  C   UNL A   1      45.617  29.241  34.779  1.00  0.00     0.173 A 
ATOM     91  F   UNL A   1      43.114  26.836  35.869  1.00  0.00    -0.203 F 
ATOM     92  C   UNL A   1      45.431  26.913  36.281  1.00  0.00     0.198 A 
ATOM     93  C   UNL A   1      46.757  28.686  35.354  1.00  0.00     0.198 A 
ATOM     94  F   UNL A   1      45.739  30.366  34.060  1.00  0.00    -0.203 F 
ATOM     95  F   UNL A   1      45.334  25.806  37.030  1.00  0.00    -0.200 F 
ATOM     96  C   UNL A   1      46.663  27.526  36.108  1.00  0.00     0.200 A 
ATOM     97  F   UNL A   1      47.949  29.273  35.176  1.00  0.00    -0.200 F 
ATOM     98  F   UNL A   1      47.759  27.001  36.672  1.00  0.00    -0.200 F 
ENDBRANCH  65  88
ENDBRANCH  39  40
ENDBRANCH  32  34
ENDBRANCH  31  32
ENDBRANCH  30  31
ENDBRANCH  29  30
ENDBRANCH  28  29
ENDBRANCH   1  28
TORSDOF 17
ENDMDL
