MODEL 1
REMARK VINA RESULT:      -9.4      0.000      0.000
REMARK SMILES O=C(CCCN1C(=O)/C(=C/c2ccccc2Cl)SC1=S)Nc1cccc(C(=O)OCCOCCOC(=O)c2ccc(-c3c4nc(c(-c5c(F)c(F)c(F)c(F)c5F)c5ccc([nH]5)c(-c5c(F)c(F)c(F)c(F)c5F)c5nc(c(-c6c(F)c(F)c(F)c(F)c6F)c6ccc3[nH]6)C=C5)C=C4)cc2)c1
REMARK SMILES IDX 30 1 29 2 27 3 28 4 26 5 22 6 23 7 101 8 24 9 25 10 21 11
REMARK SMILES IDX 1 12 2 13 3 15 4 16 5 17 6 18 7 19 19 20 8 21 9 22 18 23
REMARK SMILES IDX 20 24 10 25 11 26 12 27 16 28 13 29 15 30 17 31 14 32 31 33
REMARK SMILES IDX 32 34 33 35 34 36 35 37 36 38 37 39 38 40 39 41 100 42 40 43
REMARK SMILES IDX 99 44 41 45 42 46 43 47 93 48 44 49 98 50 92 51 94 52 45 53
REMARK SMILES IDX 97 54 91 55 90 56 46 58 78 59 58 60 77 61 59 62 62 63 76 64
REMARK SMILES IDX 95 65 60 66 61 67 75 69 96 70 63 71 47 72 48 73 56 74 49 75
REMARK SMILES IDX 50 76 54 77 57 78 51 79 52 80 55 81 53 82 79 83 80 84 88 85
REMARK SMILES IDX 81 86 82 87 86 88 89 89 83 90 84 91 87 92 85 93 64 94 65 95
REMARK SMILES IDX 73 96 66 97 67 98 71 99 74 100 68 101 69 102 72 103 70 104
REMARK H PARENT 21 14 94 57 62 68
REMARK Flexibility Score: inf
ROOT
ATOM      1  C   UNL A   1      44.779  22.206  25.874  1.00  0.00     0.261 C 
ENDROOT
BRANCH   1   2
ATOM      2  O   UNL A   1      45.130  23.207  24.907  1.00  0.00    -0.460 OA
BRANCH   2   3
ATOM      3  C   UNL A   1      44.421  24.360  24.977  1.00  0.00     0.338 C 
ATOM      4  O   UNL A   1      43.208  24.480  24.919  1.00  0.00    -0.246 OA
BRANCH   3   5
ATOM      5  C   UNL A   1      45.327  25.469  25.354  1.00  0.00     0.062 A 
ATOM      6  C   UNL A   1      45.742  27.704  26.180  1.00  0.00     0.042 A 
ATOM      7  C   UNL A   1      47.092  27.554  25.833  1.00  0.00     0.026 A 
ATOM      8  C   UNL A   1      44.855  26.654  25.936  1.00  0.00     0.041 A 
ATOM      9  C   UNL A   1      47.564  26.372  25.264  1.00  0.00     0.003 A 
ATOM     10  C   UNL A   1      46.681  25.327  25.027  1.00  0.00     0.016 A 
BRANCH   6  11
ATOM     11  N   UNL A   1      45.353  28.947  26.718  1.00  0.00    -0.326 N 
ATOM     12  O   UNL A   1      43.126  29.055  26.080  1.00  0.00    -0.275 OA
ATOM     13  C   UNL A   1      44.121  29.554  26.601  1.00  0.00     0.224 C 
ATOM     14  H   UNL A   1      46.036  29.435  27.233  1.00  0.00     0.169 HD
BRANCH  13  15
ATOM     15  C   UNL A   1      44.067  30.966  27.162  1.00  0.00     0.102 C 
BRANCH  15  16
ATOM     16  C   UNL A   1      45.304  31.827  26.892  1.00  0.00     0.032 C 
BRANCH  16  17
ATOM     17  C   UNL A   1      45.754  32.766  28.026  1.00  0.00     0.128 C 
BRANCH  17  18
ATOM     18  N   UNL A   1      45.351  34.165  27.851  1.00  0.00    -0.293 N 
ATOM     19  C   UNL A   1      44.164  34.595  28.425  1.00  0.00     0.266 C 
ATOM     20  C   UNL A   1      46.106  35.139  27.226  1.00  0.00     0.148 C 
ATOM     21  O   UNL A   1      43.421  33.927  29.129  1.00  0.00    -0.268 OA
ATOM     22  C   UNL A   1      43.908  36.015  28.075  1.00  0.00     0.081 C 
ATOM     23  S   UNL A   1      45.230  36.654  27.187  1.00  0.00    -0.054 SA
ATOM     24  S   UNL A   1      47.629  35.007  26.568  1.00  0.00    -0.052 S 
ATOM     25  C   UNL A   1      42.780  36.655  28.414  1.00  0.00     0.031 C 
BRANCH  25  26
ATOM     26  C   UNL A   1      42.502  38.045  28.028  1.00  0.00    -0.006 A 
ATOM     27  C   UNL A   1      41.809  38.273  26.831  1.00  0.00     0.010 A 
ATOM     28  C   UNL A   1      42.829  39.141  28.847  1.00  0.00     0.048 A 
ATOM     29  C   UNL A   1      41.431  39.567  26.469  1.00  0.00     0.001 A 
ATOM     30  C   UNL A   1      42.447  40.434  28.481  1.00  0.00     0.021 A 
ATOM     31  Cl  UNL A   1      43.691  38.942  30.336  1.00  0.00    -0.084 Cl
ATOM     32  C   UNL A   1      41.744  40.645  27.295  1.00  0.00     0.002 A 
ENDBRANCH  25  26
ENDBRANCH  17  18
ENDBRANCH  16  17
ENDBRANCH  15  16
ENDBRANCH  13  15
ENDBRANCH   6  11
ENDBRANCH   3   5
ENDBRANCH   2   3
ENDBRANCH   1   2
BRANCH   1  33
ATOM     33  C   UNL A   1      44.062  21.032  25.202  1.00  0.00     0.202 C 
BRANCH  33  34
ATOM     34  O   UNL A   1      42.668  20.909  25.483  1.00  0.00    -0.374 OA
BRANCH  34  35
ATOM     35  C   UNL A   1      42.296  20.858  26.862  1.00  0.00     0.202 C 
BRANCH  35  36
ATOM     36  C   UNL A   1      41.091  21.716  27.264  1.00  0.00     0.261 C 
BRANCH  36  37
ATOM     37  O   UNL A   1      40.637  22.544  26.177  1.00  0.00    -0.460 OA
BRANCH  37  38
ATOM     38  C   UNL A   1      39.443  23.154  26.372  1.00  0.00     0.338 C 
ATOM     39  O   UNL A   1      38.331  22.689  26.196  1.00  0.00    -0.246 OA
BRANCH  38  40
ATOM     40  C   UNL A   1      39.667  24.458  27.022  1.00  0.00     0.060 A 
ATOM     41  C   UNL A   1      40.329  25.452  26.288  1.00  0.00     0.016 A 
ATOM     42  C   UNL A   1      39.272  24.694  28.339  1.00  0.00     0.016 A 
ATOM     43  C   UNL A   1      40.612  26.683  26.877  1.00  0.00     0.010 A 
ATOM     44  C   UNL A   1      39.570  25.924  28.933  1.00  0.00     0.010 A 
ATOM     45  C   UNL A   1      40.256  26.918  28.211  1.00  0.00    -0.014 A 
BRANCH  45  46
ATOM     46  C   UNL A   1      40.670  28.170  28.891  1.00  0.00     0.031 A 
ATOM     47  C   UNL A   1      42.066  28.282  29.435  1.00  0.00     0.074 A 
ATOM     48  C   UNL A   1      39.804  29.189  29.032  1.00  0.00     0.049 A 
ATOM     49  N   UNL A   1      42.594  29.219  30.180  1.00  0.00    -0.248 NA
ATOM     50  C   UNL A   1      42.991  27.190  29.092  1.00  0.00     0.031 C 
ATOM     51  C   UNL A   1      38.443  29.221  28.500  1.00  0.00     0.029 A 
ATOM     52  N   UNL A   1      39.938  30.389  29.686  1.00  0.00    -0.354 N 
ATOM     53  C   UNL A   1      43.911  28.831  30.395  1.00  0.00     0.074 A 
ATOM     54  C   UNL A   1      44.095  27.560  29.728  1.00  0.00     0.031 C 
ATOM     55  C   UNL A   1      37.856  30.372  28.870  1.00  0.00     0.029 A 
ATOM     56  C   UNL A   1      38.784  31.135  29.702  1.00  0.00     0.049 A 
ATOM     57  H   UNL A   1      40.779  30.687  30.102  1.00  0.00     0.167 HD
ATOM     58  C   UNL A   1      44.878  29.485  31.081  1.00  0.00     0.037 A 
ATOM     59  C   UNL A   1      38.500  32.279  30.355  1.00  0.00     0.037 A 
ATOM     60  C   UNL A   1      44.689  30.745  31.751  1.00  0.00     0.049 A 
ATOM     61  C   UNL A   1      39.563  32.922  31.210  1.00  0.00     0.074 A 
ATOM     62  C   UNL A   1      45.606  31.483  32.479  1.00  0.00     0.029 A 
ATOM     63  N   UNL A   1      43.496  31.452  31.776  1.00  0.00    -0.354 N 
ATOM     64  N   UNL A   1      40.807  32.558  31.404  1.00  0.00    -0.248 NA
ATOM     65  C   UNL A   1      39.176  34.136  31.946  1.00  0.00     0.031 C 
ATOM     66  C   UNL A   1      44.956  32.612  32.985  1.00  0.00     0.029 A 
ATOM     67  C   UNL A   1      43.647  32.605  32.530  1.00  0.00     0.049 A 
ATOM     68  H   UNL A   1      42.665  31.176  31.327  1.00  0.00     0.167 HD
ATOM     69  C   UNL A   1      41.357  33.508  32.255  1.00  0.00     0.074 A 
ATOM     70  C   UNL A   1      40.318  34.479  32.524  1.00  0.00     0.031 C 
ATOM     71  C   UNL A   1      42.608  33.571  32.773  1.00  0.00     0.037 A 
BRANCH  58  72
ATOM     72  C   UNL A   1      46.236  28.849  31.155  1.00  0.00     0.064 A 
ATOM     73  C   UNL A   1      47.246  29.172  30.236  1.00  0.00     0.173 A 
ATOM     74  C   UNL A   1      46.554  27.967  32.198  1.00  0.00     0.173 A 
ATOM     75  F   UNL A   1      46.988  30.001  29.214  1.00  0.00    -0.203 F 
ATOM     76  C   UNL A   1      48.521  28.627  30.355  1.00  0.00     0.198 A 
ATOM     77  C   UNL A   1      47.838  27.445  32.329  1.00  0.00     0.198 A 
ATOM     78  F   UNL A   1      45.625  27.630  33.107  1.00  0.00    -0.203 F 
ATOM     79  F   UNL A   1      49.463  28.928  29.449  1.00  0.00    -0.200 F 
ATOM     80  C   UNL A   1      48.820  27.773  31.406  1.00  0.00     0.200 A 
ATOM     81  F   UNL A   1      48.129  26.632  33.354  1.00  0.00    -0.200 F 
ATOM     82  F   UNL A   1      50.054  27.265  31.529  1.00  0.00    -0.200 F 
ENDBRANCH  58  72
BRANCH  59  83
ATOM     83  C   UNL A   1      37.139  32.878  30.274  1.00  0.00     0.064 A 
ATOM     84  C   UNL A   1      36.162  32.585  31.236  1.00  0.00     0.173 A 
ATOM     85  C   UNL A   1      36.767  33.698  29.198  1.00  0.00     0.173 A 
ATOM     86  F   UNL A   1      36.460  31.781  32.268  1.00  0.00    -0.203 F 
ATOM     87  C   UNL A   1      34.858  33.057  31.105  1.00  0.00     0.198 A 
ATOM     88  C   UNL A   1      35.472  34.199  29.087  1.00  0.00     0.198 A 
ATOM     89  F   UNL A   1      37.658  34.002  28.244  1.00  0.00    -0.203 F 
ATOM     90  F   UNL A   1      33.926  32.699  31.999  1.00  0.00    -0.200 F 
ATOM     91  C   UNL A   1      34.514  33.867  30.033  1.00  0.00     0.200 A 
ATOM     92  F   UNL A   1      35.145  34.984  28.052  1.00  0.00    -0.200 F 
ATOM     93  F   UNL A   1      33.256  34.308  29.901  1.00  0.00    -0.200 F 
ENDBRANCH  59  83
BRANCH  71  94
ATOM     94  C   UNL A   1      42.936  34.745  33.651  1.00  0.00     0.064 A 
ATOM     95  C   UNL A   1      43.348  35.972  33.113  1.00  0.00     0.173 A 
ATOM     96  C   UNL A   1      42.793  34.652  35.044  1.00  0.00     0.173 A 
ATOM     97  F   UNL A   1      43.515  36.107  31.789  1.00  0.00    -0.203 F 
ATOM     98  C   UNL A   1      43.628  37.057  33.940  1.00  0.00     0.198 A 
ATOM     99  C   UNL A   1      43.042  35.748  35.864  1.00  0.00     0.198 A 
ATOM    100  F   UNL A   1      42.394  33.503  35.609  1.00  0.00    -0.203 F 
ATOM    101  F   UNL A   1      44.065  38.207  33.406  1.00  0.00    -0.200 F 
ATOM    102  C   UNL A   1      43.466  36.947  35.312  1.00  0.00     0.200 A 
ATOM    103  F   UNL A   1      42.871  35.646  37.189  1.00  0.00    -0.200 F 
ATOM    104  F   UNL A   1      43.726  37.997  36.105  1.00  0.00    -0.200 F 
ENDBRANCH  71  94
ENDBRANCH  45  46
ENDBRANCH  38  40
ENDBRANCH  37  38
ENDBRANCH  36  37
ENDBRANCH  35  36
ENDBRANCH  34  35
ENDBRANCH  33  34
ENDBRANCH   1  33
TORSDOF 20
ENDMDL
MODEL 2
REMARK VINA RESULT:      -9.2      5.159      8.569
REMARK SMILES O=C(CCCN1C(=O)/C(=C/c2ccccc2Cl)SC1=S)Nc1cccc(C(=O)OCCOCCOC(=O)c2ccc(-c3c4nc(c(-c5c(F)c(F)c(F)c(F)c5F)c5ccc([nH]5)c(-c5c(F)c(F)c(F)c(F)c5F)c5nc(c(-c6c(F)c(F)c(F)c(F)c6F)c6ccc3[nH]6)C=C5)C=C4)cc2)c1
REMARK SMILES IDX 30 1 29 2 27 3 28 4 26 5 22 6 23 7 101 8 24 9 25 10 21 11
REMARK SMILES IDX 1 12 2 13 3 15 4 16 5 17 6 18 7 19 19 20 8 21 9 22 18 23
REMARK SMILES IDX 20 24 10 25 11 26 12 27 16 28 13 29 15 30 17 31 14 32 31 33
REMARK SMILES IDX 32 34 33 35 34 36 35 37 36 38 37 39 38 40 39 41 100 42 40 43
REMARK SMILES IDX 99 44 41 45 42 46 43 47 93 48 44 49 98 50 92 51 94 52 45 53
REMARK SMILES IDX 97 54 91 55 90 56 46 58 78 59 58 60 77 61 59 62 62 63 76 64
REMARK SMILES IDX 95 65 60 66 61 67 75 69 96 70 63 71 47 72 48 73 56 74 49 75
REMARK SMILES IDX 50 76 54 77 57 78 51 79 52 80 55 81 53 82 79 83 80 84 88 85
REMARK SMILES IDX 81 86 82 87 86 88 89 89 83 90 84 91 87 92 85 93 64 94 65 95
REMARK SMILES IDX 73 96 66 97 67 98 71 99 74 100 68 101 69 102 72 103 70 104
REMARK H PARENT 21 14 94 57 62 68
REMARK Flexibility Score: inf
ROOT
ATOM      1  C   UNL A   1      33.026  20.260  25.768  1.00  0.00     0.261 C 
ENDROOT
BRANCH   1   2
ATOM      2  O   UNL A   1      33.667  20.811  26.928  1.00  0.00    -0.460 OA
BRANCH   2   3
ATOM      3  C   UNL A   1      33.255  22.050  27.289  1.00  0.00     0.338 C 
ATOM      4  O   UNL A   1      32.625  22.352  28.289  1.00  0.00    -0.246 OA
BRANCH   3   5
ATOM      5  C   UNL A   1      33.867  23.051  26.385  1.00  0.00     0.062 A 
ATOM      6  C   UNL A   1      33.760  24.622  24.549  1.00  0.00     0.042 A 
ATOM      7  C   UNL A   1      35.154  24.753  24.613  1.00  0.00     0.026 A 
ATOM      8  C   UNL A   1      33.114  23.764  25.440  1.00  0.00     0.041 A 
ATOM      9  C   UNL A   1      35.902  24.054  25.559  1.00  0.00     0.003 A 
ATOM     10  C   UNL A   1      35.257  23.204  26.449  1.00  0.00     0.016 A 
BRANCH   6  11
ATOM     11  N   UNL A   1      33.095  25.343  23.537  1.00  0.00    -0.326 N 
ATOM     12  O   UNL A   1      31.254  23.991  23.133  1.00  0.00    -0.275 OA
ATOM     13  C   UNL A   1      31.942  24.975  22.875  1.00  0.00     0.224 C 
ATOM     14  H   UNL A   1      33.496  26.203  23.274  1.00  0.00     0.169 HD
BRANCH  13  15
ATOM     15  C   UNL A   1      31.565  25.895  21.725  1.00  0.00     0.102 C 
BRANCH  15  16
ATOM     16  C   UNL A   1      30.699  27.099  22.105  1.00  0.00     0.032 C 
BRANCH  16  17
ATOM     17  C   UNL A   1      29.999  27.042  23.475  1.00  0.00     0.128 C 
BRANCH  17  18
ATOM     18  N   UNL A   1      30.822  27.502  24.598  1.00  0.00    -0.293 N 
ATOM     19  C   UNL A   1      31.495  28.710  24.482  1.00  0.00     0.266 C 
ATOM     20  C   UNL A   1      30.925  26.870  25.822  1.00  0.00     0.148 C 
ATOM     21  O   UNL A   1      31.429  29.483  23.538  1.00  0.00    -0.268 OA
ATOM     22  C   UNL A   1      32.319  28.957  25.692  1.00  0.00     0.081 C 
ATOM     23  S   UNL A   1      32.055  27.722  26.852  1.00  0.00    -0.054 SA
ATOM     24  S   UNL A   1      30.141  25.499  26.350  1.00  0.00    -0.052 S 
ATOM     25  C   UNL A   1      33.150  30.004  25.802  1.00  0.00     0.031 C 
BRANCH  25  26
ATOM     26  C   UNL A   1      34.004  30.226  26.977  1.00  0.00    -0.006 A 
ATOM     27  C   UNL A   1      34.993  29.275  27.264  1.00  0.00     0.010 A 
ATOM     28  C   UNL A   1      33.922  31.386  27.768  1.00  0.00     0.048 A 
ATOM     29  C   UNL A   1      35.896  29.488  28.308  1.00  0.00     0.001 A 
ATOM     30  C   UNL A   1      34.829  31.595  28.810  1.00  0.00     0.021 A 
ATOM     31  Cl  UNL A   1      32.723  32.602  27.482  1.00  0.00    -0.084 Cl
ATOM     32  C   UNL A   1      35.819  30.648  29.075  1.00  0.00     0.002 A 
ENDBRANCH  25  26
ENDBRANCH  17  18
ENDBRANCH  16  17
ENDBRANCH  15  16
ENDBRANCH  13  15
ENDBRANCH   6  11
ENDBRANCH   3   5
ENDBRANCH   2   3
ENDBRANCH   1   2
BRANCH   1  33
ATOM     33  C   UNL A   1      34.063  19.683  24.800  1.00  0.00     0.202 C 
BRANCH  33  34
ATOM     34  O   UNL A   1      35.249  20.457  24.623  1.00  0.00    -0.374 OA
BRANCH  34  35
ATOM     35  C   UNL A   1      36.483  19.819  24.955  1.00  0.00     0.202 C 
BRANCH  35  36
ATOM     36  C   UNL A   1      37.753  20.645  24.713  1.00  0.00     0.261 C 
BRANCH  36  37
ATOM     37  O   UNL A   1      38.120  21.415  25.873  1.00  0.00    -0.460 OA
BRANCH  37  38
ATOM     38  C   UNL A   1      39.384  21.221  26.321  1.00  0.00     0.338 C 
ATOM     39  O   UNL A   1      40.061  20.213  26.226  1.00  0.00    -0.246 OA
BRANCH  38  40
ATOM     40  C   UNL A   1      39.926  22.503  26.808  1.00  0.00     0.060 A 
ATOM     41  C   UNL A   1      39.402  23.684  26.267  1.00  0.00     0.016 A 
ATOM     42  C   UNL A   1      40.956  22.549  27.748  1.00  0.00     0.016 A 
ATOM     43  C   UNL A   1      39.919  24.920  26.654  1.00  0.00     0.010 A 
ATOM     44  C   UNL A   1      41.483  23.788  28.124  1.00  0.00     0.010 A 
ATOM     45  C   UNL A   1      40.979  24.978  27.568  1.00  0.00    -0.014 A 
BRANCH  45  46
ATOM     46  C   UNL A   1      41.628  26.273  27.887  1.00  0.00     0.031 A 
ATOM     47  C   UNL A   1      43.033  26.524  27.418  1.00  0.00     0.074 A 
ATOM     48  C   UNL A   1      40.973  27.209  28.597  1.00  0.00     0.049 A 
ATOM     49  N   UNL A   1      43.837  27.518  27.698  1.00  0.00    -0.248 NA
ATOM     50  C   UNL A   1      43.610  25.519  26.511  1.00  0.00     0.031 C 
ATOM     51  C   UNL A   1      39.590  27.103  29.059  1.00  0.00     0.029 A 
ATOM     52  N   UNL A   1      41.396  28.426  29.071  1.00  0.00    -0.354 N 
ATOM     53  C   UNL A   1      45.012  27.259  27.004  1.00  0.00     0.074 A 
ATOM     54  C   UNL A   1      44.829  26.002  26.312  1.00  0.00     0.031 C 
ATOM     55  C   UNL A   1      39.285  28.200  29.774  1.00  0.00     0.029 A 
ATOM     56  C   UNL A   1      40.464  29.060  29.858  1.00  0.00     0.049 A 
ATOM     57  H   UNL A   1      42.280  28.808  28.868  1.00  0.00     0.167 HD
ATOM     58  C   UNL A   1      46.136  28.012  26.943  1.00  0.00     0.037 A 
ATOM     59  C   UNL A   1      40.570  30.182  30.595  1.00  0.00     0.037 A 
ATOM     60  C   UNL A   1      46.317  29.259  27.640  1.00  0.00     0.049 A 
ATOM     61  C   UNL A   1      41.877  30.936  30.604  1.00  0.00     0.074 A 
ATOM     62  C   UNL A   1      47.423  30.091  27.649  1.00  0.00     0.029 A 
ATOM     63  N   UNL A   1      45.364  29.851  28.456  1.00  0.00    -0.354 N 
ATOM     64  N   UNL A   1      42.982  30.693  29.941  1.00  0.00    -0.248 NA
ATOM     65  C   UNL A   1      41.954  32.119  31.476  1.00  0.00     0.031 C 
ATOM     66  C   UNL A   1      47.157  31.162  28.508  1.00  0.00     0.029 A 
ATOM     67  C   UNL A   1      45.867  31.025  28.993  1.00  0.00     0.049 A 
ATOM     68  H   UNL A   1      44.464  29.491  28.628  1.00  0.00     0.167 HD
ATOM     69  C   UNL A   1      43.868  31.704  30.289  1.00  0.00     0.074 A 
ATOM     70  C   UNL A   1      43.168  32.577  31.206  1.00  0.00     0.031 C 
ATOM     71  C   UNL A   1      45.150  31.892  29.891  1.00  0.00     0.037 A 
BRANCH  58  72
ATOM     72  C   UNL A   1      47.273  27.508  26.102  1.00  0.00     0.064 A 
ATOM     73  C   UNL A   1      47.345  27.786  24.729  1.00  0.00     0.173 A 
ATOM     74  C   UNL A   1      48.336  26.807  26.688  1.00  0.00     0.173 A 
ATOM     75  F   UNL A   1      46.347  28.444  24.120  1.00  0.00    -0.203 F 
ATOM     76  C   UNL A   1      48.438  27.371  23.973  1.00  0.00     0.198 A 
ATOM     77  C   UNL A   1      49.439  26.417  25.934  1.00  0.00     0.198 A 
ATOM     78  F   UNL A   1      48.318  26.520  27.999  1.00  0.00    -0.203 F 
ATOM     79  F   UNL A   1      48.473  27.623  22.657  1.00  0.00    -0.200 F 
ATOM     80  C   UNL A   1      49.488  26.697  24.576  1.00  0.00     0.200 A 
ATOM     81  F   UNL A   1      50.460  25.778  26.522  1.00  0.00    -0.200 F 
ATOM     82  F   UNL A   1      50.548  26.315  23.850  1.00  0.00    -0.200 F 
ENDBRANCH  58  72
BRANCH  59  83
ATOM     83  C   UNL A   1      39.430  30.649  31.432  1.00  0.00     0.064 A 
ATOM     84  C   UNL A   1      38.571  31.662  30.981  1.00  0.00     0.173 A 
ATOM     85  C   UNL A   1      39.220  30.145  32.724  1.00  0.00     0.173 A 
ATOM     86  F   UNL A   1      38.749  32.198  29.765  1.00  0.00    -0.203 F 
ATOM     87  C   UNL A   1      37.570  32.175  31.804  1.00  0.00     0.198 A 
ATOM     88  C   UNL A   1      38.197  30.634  33.532  1.00  0.00     0.198 A 
ATOM     89  F   UNL A   1      40.019  29.183  33.209  1.00  0.00    -0.203 F 
ATOM     90  F   UNL A   1      36.812  33.193  31.375  1.00  0.00    -0.200 F 
ATOM     91  C   UNL A   1      37.381  31.659  33.077  1.00  0.00     0.200 A 
ATOM     92  F   UNL A   1      38.015  30.130  34.759  1.00  0.00    -0.200 F 
ATOM     93  F   UNL A   1      36.428  32.163  33.871  1.00  0.00    -0.200 F 
ENDBRANCH  59  83
BRANCH  71  94
ATOM     94  C   UNL A   1      45.867  33.105  30.412  1.00  0.00     0.064 A 
ATOM     95  C   UNL A   1      46.649  33.054  31.575  1.00  0.00     0.173 A 
ATOM     96  C   UNL A   1      45.805  34.321  29.715  1.00  0.00     0.173 A 
ATOM     97  F   UNL A   1      46.728  31.918  32.285  1.00  0.00    -0.203 F 
ATOM     98  C   UNL A   1      47.326  34.181  32.032  1.00  0.00     0.198 A 
ATOM     99  C   UNL A   1      46.508  35.438  30.158  1.00  0.00     0.198 A 
ATOM    100  F   UNL A   1      45.077  34.422  28.593  1.00  0.00    -0.203 F 
ATOM    101  F   UNL A   1      48.030  34.121  33.171  1.00  0.00    -0.200 F 
ATOM    102  C   UNL A   1      47.262  35.369  31.319  1.00  0.00     0.200 A 
ATOM    103  F   UNL A   1      46.459  36.580  29.459  1.00  0.00    -0.200 F 
ATOM    104  F   UNL A   1      47.923  36.450  31.756  1.00  0.00    -0.200 F 
ENDBRANCH  71  94
ENDBRANCH  45  46
ENDBRANCH  38  40
ENDBRANCH  37  38
ENDBRANCH  36  37
ENDBRANCH  35  36
ENDBRANCH  34  35
ENDBRANCH  33  34
ENDBRANCH   1  33
TORSDOF 20
ENDMDL
MODEL 3
REMARK VINA RESULT:      -9.0      5.906     11.991
REMARK SMILES O=C(CCCN1C(=O)/C(=C/c2ccccc2Cl)SC1=S)Nc1cccc(C(=O)OCCOCCOC(=O)c2ccc(-c3c4nc(c(-c5c(F)c(F)c(F)c(F)c5F)c5ccc([nH]5)c(-c5c(F)c(F)c(F)c(F)c5F)c5nc(c(-c6c(F)c(F)c(F)c(F)c6F)c6ccc3[nH]6)C=C5)C=C4)cc2)c1
REMARK SMILES IDX 30 1 29 2 27 3 28 4 26 5 22 6 23 7 101 8 24 9 25 10 21 11
REMARK SMILES IDX 1 12 2 13 3 15 4 16 5 17 6 18 7 19 19 20 8 21 9 22 18 23
REMARK SMILES IDX 20 24 10 25 11 26 12 27 16 28 13 29 15 30 17 31 14 32 31 33
REMARK SMILES IDX 32 34 33 35 34 36 35 37 36 38 37 39 38 40 39 41 100 42 40 43
REMARK SMILES IDX 99 44 41 45 42 46 43 47 93 48 44 49 98 50 92 51 94 52 45 53
REMARK SMILES IDX 97 54 91 55 90 56 46 58 78 59 58 60 77 61 59 62 62 63 76 64
REMARK SMILES IDX 95 65 60 66 61 67 75 69 96 70 63 71 47 72 48 73 56 74 49 75
REMARK SMILES IDX 50 76 54 77 57 78 51 79 52 80 55 81 53 82 79 83 80 84 88 85
REMARK SMILES IDX 81 86 82 87 86 88 89 89 83 90 84 91 87 92 85 93 64 94 65 95
REMARK SMILES IDX 73 96 66 97 67 98 71 99 74 100 68 101 69 102 72 103 70 104
REMARK H PARENT 21 14 94 57 62 68
REMARK Flexibility Score: inf
ROOT
ATOM      1  C   UNL A   1      38.654  30.667  34.192  1.00  0.00     0.261 C 
ENDROOT
BRANCH   1   2
ATOM      2  O   UNL A   1      37.687  30.587  33.135  1.00  0.00    -0.460 OA
BRANCH   2   3
ATOM      3  C   UNL A   1      37.575  29.376  32.537  1.00  0.00     0.338 C 
ATOM      4  O   UNL A   1      37.407  28.300  33.086  1.00  0.00    -0.246 OA
BRANCH   3   5
ATOM      5  C   UNL A   1      37.471  29.563  31.072  1.00  0.00     0.062 A 
ATOM      6  C   UNL A   1      36.195  29.763  29.026  1.00  0.00     0.042 A 
ATOM      7  C   UNL A   1      37.394  29.707  28.302  1.00  0.00     0.026 A 
ATOM      8  C   UNL A   1      36.236  29.689  30.420  1.00  0.00     0.041 A 
ATOM      9  C   UNL A   1      38.624  29.592  28.950  1.00  0.00     0.003 A 
ATOM     10  C   UNL A   1      38.662  29.523  30.337  1.00  0.00     0.016 A 
BRANCH   6  11
ATOM     11  N   UNL A   1      35.001  29.845  28.282  1.00  0.00    -0.326 N 
ATOM     12  O   UNL A   1      34.953  32.095  27.723  1.00  0.00    -0.275 OA
ATOM     13  C   UNL A   1      34.442  30.979  27.731  1.00  0.00     0.224 C 
ATOM     14  H   UNL A   1      34.514  29.001  28.140  1.00  0.00     0.169 HD
BRANCH  13  15
ATOM     15  C   UNL A   1      33.067  30.759  27.122  1.00  0.00     0.102 C 
BRANCH  15  16
ATOM     16  C   UNL A   1      32.525  29.331  27.220  1.00  0.00     0.032 C 
BRANCH  16  17
ATOM     17  C   UNL A   1      31.766  28.794  25.993  1.00  0.00     0.128 C 
BRANCH  17  18
ATOM     18  N   UNL A   1      32.175  27.451  25.566  1.00  0.00    -0.293 N 
ATOM     19  C   UNL A   1      31.532  26.351  26.114  1.00  0.00     0.266 C 
ATOM     20  C   UNL A   1      33.103  27.177  24.581  1.00  0.00     0.148 C 
ATOM     21  O   UNL A   1      30.595  26.383  26.899  1.00  0.00    -0.268 OA
ATOM     22  C   UNL A   1      32.135  25.095  25.604  1.00  0.00     0.081 C 
ATOM     23  S   UNL A   1      33.333  25.448  24.427  1.00  0.00    -0.054 SA
ATOM     24  S   UNL A   1      33.943  28.247  23.621  1.00  0.00    -0.052 S 
ATOM     25  C   UNL A   1      31.773  23.882  26.047  1.00  0.00     0.031 C 
BRANCH  25  26
ATOM     26  C   UNL A   1      32.402  22.640  25.580  1.00  0.00    -0.006 A 
ATOM     27  C   UNL A   1      31.950  22.082  24.377  1.00  0.00     0.010 A 
ATOM     28  C   UNL A   1      33.486  22.039  26.247  1.00  0.00     0.048 A 
ATOM     29  C   UNL A   1      32.580  20.959  23.838  1.00  0.00     0.001 A 
ATOM     30  C   UNL A   1      34.114  20.917  25.702  1.00  0.00     0.021 A 
ATOM     31  Cl  UNL A   1      34.097  22.664  27.742  1.00  0.00    -0.084 Cl
ATOM     32  C   UNL A   1      33.665  20.381  24.495  1.00  0.00     0.002 A 
ENDBRANCH  25  26
ENDBRANCH  17  18
ENDBRANCH  16  17
ENDBRANCH  15  16
ENDBRANCH  13  15
ENDBRANCH   6  11
ENDBRANCH   3   5
ENDBRANCH   2   3
ENDBRANCH   1   2
BRANCH   1  33
ATOM     33  C   UNL A   1      38.184  31.633  35.283  1.00  0.00     0.202 C 
BRANCH  33  34
ATOM     34  O   UNL A   1      36.951  32.307  35.031  1.00  0.00    -0.374 OA
BRANCH  34  35
ATOM     35  C   UNL A   1      37.033  33.705  34.747  1.00  0.00     0.202 C 
BRANCH  35  36
ATOM     36  C   UNL A   1      36.628  34.126  33.329  1.00  0.00     0.261 C 
BRANCH  36  37
ATOM     37  O   UNL A   1      37.763  34.562  32.556  1.00  0.00    -0.460 OA
BRANCH  37  38
ATOM     38  C   UNL A   1      38.029  33.825  31.451  1.00  0.00     0.338 C 
ATOM     39  O   UNL A   1      37.293  33.037  30.886  1.00  0.00    -0.246 OA
BRANCH  38  40
ATOM     40  C   UNL A   1      39.325  34.248  30.889  1.00  0.00     0.060 A 
ATOM     41  C   UNL A   1      39.366  34.609  29.535  1.00  0.00     0.016 A 
ATOM     42  C   UNL A   1      40.487  34.253  31.661  1.00  0.00     0.016 A 
ATOM     43  C   UNL A   1      40.578  34.964  28.944  1.00  0.00     0.010 A 
ATOM     44  C   UNL A   1      41.704  34.596  31.062  1.00  0.00     0.010 A 
ATOM     45  C   UNL A   1      41.758  34.936  29.698  1.00  0.00    -0.014 A 
BRANCH  45  46
ATOM     46  C   UNL A   1      43.071  35.179  29.051  1.00  0.00     0.031 A 
ATOM     47  C   UNL A   1      43.978  34.015  28.771  1.00  0.00     0.074 A 
ATOM     48  C   UNL A   1      43.452  36.427  28.727  1.00  0.00     0.049 A 
ATOM     49  N   UNL A   1      45.215  34.008  28.345  1.00  0.00    -0.248 NA
ATOM     50  C   UNL A   1      43.414  32.675  29.005  1.00  0.00     0.031 C 
ATOM     51  C   UNL A   1      42.638  37.630  28.898  1.00  0.00     0.029 A 
ATOM     52  N   UNL A   1      44.634  36.892  28.206  1.00  0.00    -0.354 N 
ATOM     53  C   UNL A   1      45.577  32.670  28.259  1.00  0.00     0.074 A 
ATOM     54  C   UNL A   1      44.441  31.892  28.704  1.00  0.00     0.031 C 
ATOM     55  C   UNL A   1      43.354  38.700  28.512  1.00  0.00     0.029 A 
ATOM     56  C   UNL A   1      44.691  38.262  28.113  1.00  0.00     0.049 A 
ATOM     57  H   UNL A   1      45.370  36.301  27.925  1.00  0.00     0.167 HD
ATOM     58  C   UNL A   1      46.750  32.142  27.835  1.00  0.00     0.037 A 
ATOM     59  C   UNL A   1      45.720  39.068  27.785  1.00  0.00     0.037 A 
ATOM     60  C   UNL A   1      47.880  32.920  27.401  1.00  0.00     0.049 A 
ATOM     61  C   UNL A   1      47.052  38.454  27.435  1.00  0.00     0.074 A 
ATOM     62  C   UNL A   1      49.116  32.478  26.961  1.00  0.00     0.029 A 
ATOM     63  N   UNL A   1      47.913  34.306  27.355  1.00  0.00    -0.354 N 
ATOM     64  N   UNL A   1      47.388  37.190  27.347  1.00  0.00    -0.248 NA
ATOM     65  C   UNL A   1      48.155  39.384  27.146  1.00  0.00     0.031 C 
ATOM     66  C   UNL A   1      49.912  33.596  26.695  1.00  0.00     0.029 A 
ATOM     67  C   UNL A   1      49.156  34.735  26.919  1.00  0.00     0.049 A 
ATOM     68  H   UNL A   1      47.164  34.898  27.597  1.00  0.00     0.167 HD
ATOM     69  C   UNL A   1      48.724  37.173  26.964  1.00  0.00     0.074 A 
ATOM     70  C   UNL A   1      49.133  38.554  26.817  1.00  0.00     0.031 C 
ATOM     71  C   UNL A   1      49.542  36.113  26.760  1.00  0.00     0.037 A 
BRANCH  58  72
ATOM     72  C   UNL A   1      46.883  30.647  27.827  1.00  0.00     0.064 A 
ATOM     73  C   UNL A   1      47.283  29.943  28.973  1.00  0.00     0.173 A 
ATOM     74  C   UNL A   1      46.535  29.907  26.688  1.00  0.00     0.173 A 
ATOM     75  F   UNL A   1      47.638  30.606  30.083  1.00  0.00    -0.203 F 
ATOM     76  C   UNL A   1      47.338  28.552  28.973  1.00  0.00     0.198 A 
ATOM     77  C   UNL A   1      46.566  28.515  26.701  1.00  0.00     0.198 A 
ATOM     78  F   UNL A   1      46.141  30.532  25.568  1.00  0.00    -0.203 F 
ATOM     79  F   UNL A   1      47.750  27.901  30.070  1.00  0.00    -0.200 F 
ATOM     80  C   UNL A   1      46.970  27.839  27.843  1.00  0.00     0.200 A 
ATOM     81  F   UNL A   1      46.195  27.827  25.612  1.00  0.00    -0.200 F 
ATOM     82  F   UNL A   1      47.005  26.499  27.852  1.00  0.00    -0.200 F 
ENDBRANCH  58  72
BRANCH  59  83
ATOM     83  C   UNL A   1      45.561  40.548  27.817  1.00  0.00     0.064 A 
ATOM     84  C   UNL A   1      45.905  41.287  28.958  1.00  0.00     0.173 A 
ATOM     85  C   UNL A   1      44.999  41.243  26.736  1.00  0.00     0.173 A 
ATOM     86  F   UNL A   1      46.418  40.664  30.029  1.00  0.00    -0.203 F 
ATOM     87  C   UNL A   1      45.658  42.657  29.029  1.00  0.00     0.198 A 
ATOM     88  C   UNL A   1      44.785  42.618  26.795  1.00  0.00     0.198 A 
ATOM     89  F   UNL A   1      44.642  40.584  25.624  1.00  0.00    -0.203 F 
ATOM     90  F   UNL A   1      45.926  43.324  30.159  1.00  0.00    -0.200 F 
ATOM     91  C   UNL A   1      45.102  43.322  27.947  1.00  0.00     0.200 A 
ATOM     92  F   UNL A   1      44.252  43.258  25.746  1.00  0.00    -0.200 F 
ATOM     93  F   UNL A   1      44.851  44.636  28.023  1.00  0.00    -0.200 F 
ENDBRANCH  59  83
BRANCH  71  94
ATOM     94  C   UNL A   1      50.949  36.398  26.317  1.00  0.00     0.064 A 
ATOM     95  C   UNL A   1      51.272  36.571  24.963  1.00  0.00     0.173 A 
ATOM     96  C   UNL A   1      51.975  36.543  27.262  1.00  0.00     0.173 A 
ATOM     97  F   UNL A   1      50.329  36.428  24.020  1.00  0.00    -0.203 F 
ATOM     98  C   UNL A   1      52.577  36.857  24.571  1.00  0.00     0.198 A 
ATOM     99  C   UNL A   1      53.272  36.860  26.868  1.00  0.00     0.198 A 
ATOM    100  F   UNL A   1      51.718  36.395  28.570  1.00  0.00    -0.203 F 
ATOM    101  F   UNL A   1      52.872  36.973  23.269  1.00  0.00    -0.200 F 
ATOM    102  C   UNL A   1      53.573  37.010  25.523  1.00  0.00     0.200 A 
ATOM    103  F   UNL A   1      54.231  37.024  27.790  1.00  0.00    -0.200 F 
ATOM    104  F   UNL A   1      54.827  37.296  25.143  1.00  0.00    -0.200 F 
ENDBRANCH  71  94
ENDBRANCH  45  46
ENDBRANCH  38  40
ENDBRANCH  37  38
ENDBRANCH  36  37
ENDBRANCH  35  36
ENDBRANCH  34  35
ENDBRANCH  33  34
ENDBRANCH   1  33
TORSDOF 20
ENDMDL
