MODEL 1
REMARK VINA RESULT:     -12.1      0.000      0.000
REMARK SMILES Cc1cc([C@H](C)NC(=O)N2CC[C@H](C(=O)OCCOCCOC(=O)c3ccc(-c4c5nc(c(-c6c(F)c(F)c(F)c(F)c6F)c6ccc([nH]6)c(-c6c(F)c(F)c(F)c(F)c6F)c6nc(c(-c7c(F)c(F)c(F)c(F)c7F)c7ccc4[nH]7)C=C6)C=C5)cc3)[C@@H]2C)c(C)s1
REMARK SMILES IDX 18 1 17 2 16 3 14 4 15 5 13 6 10 7 11 8 88 9 12 10 89 11
REMARK SMILES IDX 8 12 7 13 9 15 5 16 6 17 4 18 1 19 2 20 3 21 92 22 90 23
REMARK SMILES IDX 91 24 19 25 20 26 21 27 22 28 23 29 24 30 25 31 26 32 87 33
REMARK SMILES IDX 27 34 86 35 28 36 29 37 30 38 80 39 31 40 85 41 79 42 81 43
REMARK SMILES IDX 32 44 84 45 78 46 77 47 33 49 65 50 45 51 64 52 46 53 49 54
REMARK SMILES IDX 63 55 82 56 47 57 48 58 62 60 83 61 50 62 34 63 35 64 43 65
REMARK SMILES IDX 36 66 37 67 41 68 44 69 38 70 39 71 42 72 40 73 66 74 67 75
REMARK SMILES IDX 75 76 68 77 69 78 73 79 76 80 70 81 71 82 74 83 72 84 51 85
REMARK SMILES IDX 52 86 60 87 53 88 54 89 58 90 61 91 55 92 56 93 59 94 57 95
REMARK H PARENT 7 14 81 48 49 59
REMARK Flexibility Score: inf
ROOT
ATOM      1  C   UNL A   1      36.865  21.933  24.385  1.00  0.00     0.202 C 
ENDROOT
BRANCH   1   2
ATOM      2  C   UNL A   1      35.560  21.347  24.951  1.00  0.00     0.261 C 
BRANCH   2   3
ATOM      3  O   UNL A   1      34.683  22.362  25.461  1.00  0.00    -0.463 OA
BRANCH   3   4
ATOM      4  C   UNL A   1      33.344  22.146  25.287  1.00  0.00     0.311 C 
ATOM      5  O   UNL A   1      32.801  21.053  25.308  1.00  0.00    -0.252 OA
BRANCH   4   6
ATOM      6  C   UNL A   1      32.633  23.474  25.080  1.00  0.00     0.123 C 
ATOM      7  N   UNL A   1      32.896  25.084  23.328  1.00  0.00    -0.321 N 
ATOM      8  C   UNL A   1      33.998  25.263  24.255  1.00  0.00     0.122 C 
ATOM      9  C   UNL A   1      32.226  23.816  23.621  1.00  0.00     0.098 C 
ATOM     10  C   UNL A   1      33.485  24.655  25.546  1.00  0.00     0.039 C 
ATOM     11  C   UNL A   1      32.560  22.773  22.550  1.00  0.00     0.032 C 
BRANCH   7  12
ATOM     12  C   UNL A   1      32.851  25.790  22.156  1.00  0.00     0.318 C 
ATOM     13  N   UNL A   1      31.952  26.802  22.001  1.00  0.00    -0.331 N 
ATOM     14  H   UNL A   1      31.400  26.784  21.187  1.00  0.00     0.165 HD
ATOM     15  O   UNL A   1      33.597  25.529  21.212  1.00  0.00    -0.249 OA
BRANCH  13  16
ATOM     16  C   UNL A   1      31.728  27.911  22.924  1.00  0.00     0.112 C 
ATOM     17  C   UNL A   1      32.872  28.927  22.822  1.00  0.00     0.036 C 
BRANCH  16  18
ATOM     18  C   UNL A   1      30.348  28.522  22.656  1.00  0.00    -0.012 A 
ATOM     19  C   UNL A   1      28.080  31.353  21.449  1.00  0.00     0.056 C 
ATOM     20  C   UNL A   1      28.746  30.123  21.960  1.00  0.00     0.002 A 
ATOM     21  C   UNL A   1      30.079  29.757  21.950  1.00  0.00     0.021 A 
ATOM     22  S   UNL A   1      27.782  28.941  22.700  1.00  0.00    -0.146 S 
ATOM     23  C   UNL A   1      29.143  27.999  23.107  1.00  0.00     0.007 A 
ATOM     24  C   UNL A   1      28.874  26.788  23.904  1.00  0.00     0.057 C 
ENDBRANCH  16  18
ENDBRANCH  13  16
ENDBRANCH   7  12
ENDBRANCH   4   6
ENDBRANCH   3   4
ENDBRANCH   2   3
ENDBRANCH   1   2
BRANCH   1  25
ATOM     25  O   UNL A   1      38.074  21.463  24.981  1.00  0.00    -0.374 OA
BRANCH  25  26
ATOM     26  C   UNL A   1      38.207  20.042  24.988  1.00  0.00     0.202 C 
BRANCH  26  27
ATOM     27  C   UNL A   1      39.467  19.617  25.728  1.00  0.00     0.261 C 
BRANCH  27  28
ATOM     28  O   UNL A   1      40.266  20.754  26.013  1.00  0.00    -0.460 OA
BRANCH  28  29
ATOM     29  C   UNL A   1      40.777  20.720  27.259  1.00  0.00     0.338 C 
ATOM     30  O   UNL A   1      41.174  19.746  27.876  1.00  0.00    -0.246 OA
BRANCH  29  31
ATOM     31  C   UNL A   1      41.022  22.119  27.634  1.00  0.00     0.060 A 
ATOM     32  C   UNL A   1      40.175  23.088  27.090  1.00  0.00     0.016 A 
ATOM     33  C   UNL A   1      42.020  22.458  28.559  1.00  0.00     0.016 A 
ATOM     34  C   UNL A   1      40.388  24.421  27.397  1.00  0.00     0.010 A 
ATOM     35  C   UNL A   1      42.215  23.787  28.888  1.00  0.00     0.010 A 
ATOM     36  C   UNL A   1      41.440  24.768  28.255  1.00  0.00    -0.014 A 
BRANCH  36  37
ATOM     37  C   UNL A   1      41.881  26.166  28.326  1.00  0.00     0.031 A 
ATOM     38  C   UNL A   1      43.213  26.503  27.724  1.00  0.00     0.074 A 
ATOM     39  C   UNL A   1      41.100  27.081  28.914  1.00  0.00     0.049 A 
ATOM     40  N   UNL A   1      43.849  27.642  27.710  1.00  0.00    -0.248 NA
ATOM     41  C   UNL A   1      43.933  25.402  27.059  1.00  0.00     0.031 C 
ATOM     42  C   UNL A   1      39.788  26.816  29.504  1.00  0.00     0.029 A 
ATOM     43  N   UNL A   1      41.305  28.415  29.119  1.00  0.00    -0.354 N 
ATOM     44  C   UNL A   1      45.043  27.391  27.047  1.00  0.00     0.074 A 
ATOM     45  C   UNL A   1      45.069  25.987  26.712  1.00  0.00     0.031 C 
ATOM     46  C   UNL A   1      39.305  27.960  30.014  1.00  0.00     0.029 A 
ATOM     47  C   UNL A   1      40.290  29.019  29.815  1.00  0.00     0.049 A 
ATOM     48  H   UNL A   1      42.101  28.896  28.798  1.00  0.00     0.167 HD
ATOM     49  C   UNL A   1      46.021  28.270  26.737  1.00  0.00     0.037 A 
ATOM     50  C   UNL A   1      40.197  30.286  30.256  1.00  0.00     0.037 A 
ATOM     51  C   UNL A   1      45.961  29.664  27.083  1.00  0.00     0.049 A 
ATOM     52  C   UNL A   1      41.323  31.234  29.938  1.00  0.00     0.074 A 
ATOM     53  C   UNL A   1      46.873  30.664  26.808  1.00  0.00     0.029 A 
ATOM     54  N   UNL A   1      44.918  30.248  27.794  1.00  0.00    -0.354 N 
ATOM     55  N   UNL A   1      42.435  31.006  29.278  1.00  0.00    -0.248 NA
ATOM     56  C   UNL A   1      41.179  32.613  30.415  1.00  0.00     0.031 C 
ATOM     57  C   UNL A   1      46.411  31.842  27.404  1.00  0.00     0.029 A 
ATOM     58  C   UNL A   1      45.179  31.593  27.990  1.00  0.00     0.049 A 
ATOM     59  H   UNL A   1      44.116  29.775  28.111  1.00  0.00     0.167 HD
ATOM     60  C   UNL A   1      43.108  32.218  29.231  1.00  0.00     0.074 A 
ATOM     61  C   UNL A   1      42.270  33.180  29.920  1.00  0.00     0.031 C 
ATOM     62  C   UNL A   1      44.308  32.517  28.673  1.00  0.00     0.037 A 
BRANCH  49  63
ATOM     63  C   UNL A   1      47.232  27.748  26.018  1.00  0.00     0.064 A 
ATOM     64  C   UNL A   1      48.360  27.281  26.708  1.00  0.00     0.173 A 
ATOM     65  C   UNL A   1      47.254  27.695  24.617  1.00  0.00     0.173 A 
ATOM     66  F   UNL A   1      48.402  27.330  28.048  1.00  0.00    -0.203 F 
ATOM     67  C   UNL A   1      49.473  26.799  26.022  1.00  0.00     0.198 A 
ATOM     68  C   UNL A   1      48.355  27.182  23.935  1.00  0.00     0.198 A 
ATOM     69  F   UNL A   1      46.205  28.135  23.906  1.00  0.00    -0.203 F 
ATOM     70  F   UNL A   1      50.559  26.404  26.703  1.00  0.00    -0.200 F 
ATOM     71  C   UNL A   1      49.466  26.742  24.637  1.00  0.00     0.200 A 
ATOM     72  F   UNL A   1      48.341  27.119  22.596  1.00  0.00    -0.200 F 
ATOM     73  F   UNL A   1      50.532  26.268  23.978  1.00  0.00    -0.200 F 
ENDBRANCH  49  63
BRANCH  50  74
ATOM     74  C   UNL A   1      39.007  30.718  31.033  1.00  0.00     0.064 A 
ATOM     75  C   UNL A   1      38.974  30.603  32.429  1.00  0.00     0.173 A 
ATOM     76  C   UNL A   1      37.879  31.257  30.397  1.00  0.00     0.173 A 
ATOM     77  F   UNL A   1      40.024  30.083  33.083  1.00  0.00    -0.203 F 
ATOM     78  C   UNL A   1      37.848  30.984  33.157  1.00  0.00     0.198 A 
ATOM     79  C   UNL A   1      36.766  31.669  31.128  1.00  0.00     0.198 A 
ATOM     80  F   UNL A   1      37.862  31.401  29.064  1.00  0.00    -0.203 F 
ATOM     81  F   UNL A   1      37.826  30.818  34.486  1.00  0.00    -0.200 F 
ATOM     82  C   UNL A   1      36.748  31.522  32.506  1.00  0.00     0.200 A 
ATOM     83  F   UNL A   1      35.715  32.209  30.497  1.00  0.00    -0.200 F 
ATOM     84  F   UNL A   1      35.669  31.894  33.208  1.00  0.00    -0.200 F 
ENDBRANCH  50  74
BRANCH  62  85
ATOM     85  C   UNL A   1      44.755  33.948  28.744  1.00  0.00     0.064 A 
ATOM     86  C   UNL A   1      45.590  34.410  29.772  1.00  0.00     0.173 A 
ATOM     87  C   UNL A   1      44.382  34.853  27.739  1.00  0.00     0.173 A 
ATOM     88  F   UNL A   1      45.962  33.584  30.762  1.00  0.00    -0.203 F 
ATOM     89  C   UNL A   1      46.008  35.736  29.807  1.00  0.00     0.198 A 
ATOM     90  C   UNL A   1      44.835  36.168  27.757  1.00  0.00     0.198 A 
ATOM     91  F   UNL A   1      43.595  34.455  26.728  1.00  0.00    -0.203 F 
ATOM     92  F   UNL A   1      46.760  36.172  30.827  1.00  0.00    -0.200 F 
ATOM     93  C   UNL A   1      45.639  36.610  28.796  1.00  0.00     0.200 A 
ATOM     94  F   UNL A   1      44.493  37.005  26.769  1.00  0.00    -0.200 F 
ATOM     95  F   UNL A   1      46.054  37.884  28.825  1.00  0.00    -0.200 F 
ENDBRANCH  62  85
ENDBRANCH  36  37
ENDBRANCH  29  31
ENDBRANCH  28  29
ENDBRANCH  27  28
ENDBRANCH  26  27
ENDBRANCH  25  26
ENDBRANCH   1  25
TORSDOF 17
ENDMDL
MODEL 2
REMARK VINA RESULT:     -12.0      4.646     10.364
REMARK SMILES Cc1cc([C@H](C)NC(=O)N2CC[C@H](C(=O)OCCOCCOC(=O)c3ccc(-c4c5nc(c(-c6c(F)c(F)c(F)c(F)c6F)c6ccc([nH]6)c(-c6c(F)c(F)c(F)c(F)c6F)c6nc(c(-c7c(F)c(F)c(F)c(F)c7F)c7ccc4[nH]7)C=C6)C=C5)cc3)[C@@H]2C)c(C)s1
REMARK SMILES IDX 18 1 17 2 16 3 14 4 15 5 13 6 10 7 11 8 88 9 12 10 89 11
REMARK SMILES IDX 8 12 7 13 9 15 5 16 6 17 4 18 1 19 2 20 3 21 92 22 90 23
REMARK SMILES IDX 91 24 19 25 20 26 21 27 22 28 23 29 24 30 25 31 26 32 87 33
REMARK SMILES IDX 27 34 86 35 28 36 29 37 30 38 80 39 31 40 85 41 79 42 81 43
REMARK SMILES IDX 32 44 84 45 78 46 77 47 33 49 65 50 45 51 64 52 46 53 49 54
REMARK SMILES IDX 63 55 82 56 47 57 48 58 62 60 83 61 50 62 34 63 35 64 43 65
REMARK SMILES IDX 36 66 37 67 41 68 44 69 38 70 39 71 42 72 40 73 66 74 67 75
REMARK SMILES IDX 75 76 68 77 69 78 73 79 76 80 70 81 71 82 74 83 72 84 51 85
REMARK SMILES IDX 52 86 60 87 53 88 54 89 58 90 61 91 55 92 56 93 59 94 57 95
REMARK H PARENT 7 14 81 48 49 59
REMARK Flexibility Score: inf
ROOT
ATOM      1  C   UNL A   1      31.811  29.668  24.520  1.00  0.00     0.202 C 
ENDROOT
BRANCH   1   2
ATOM      2  C   UNL A   1      32.342  28.770  23.389  1.00  0.00     0.261 C 
BRANCH   2   3
ATOM      3  O   UNL A   1      33.202  27.731  23.878  1.00  0.00    -0.463 OA
BRANCH   3   4
ATOM      4  C   UNL A   1      32.851  26.451  23.546  1.00  0.00     0.311 C 
ATOM      5  O   UNL A   1      33.491  25.715  22.813  1.00  0.00    -0.252 OA
BRANCH   4   6
ATOM      6  C   UNL A   1      31.551  26.080  24.243  1.00  0.00     0.123 C 
ATOM      7  N   UNL A   1      30.960  24.059  25.382  1.00  0.00    -0.321 N 
ATOM      8  C   UNL A   1      30.834  23.811  23.958  1.00  0.00     0.122 C 
ATOM      9  C   UNL A   1      31.687  25.313  25.588  1.00  0.00     0.098 C 
ATOM     10  C   UNL A   1      30.666  25.196  23.365  1.00  0.00     0.039 C 
ATOM     11  C   UNL A   1      33.111  25.034  26.080  1.00  0.00     0.032 C 
BRANCH   7  12
ATOM     12  C   UNL A   1      30.802  23.040  26.283  1.00  0.00     0.318 C 
ATOM     13  N   UNL A   1      31.266  21.792  25.992  1.00  0.00    -0.331 N 
ATOM     14  H   UNL A   1      30.635  21.046  26.111  1.00  0.00     0.165 HD
ATOM     15  O   UNL A   1      30.232  23.209  27.362  1.00  0.00    -0.249 OA
BRANCH  13  16
ATOM     16  C   UNL A   1      32.605  21.453  25.522  1.00  0.00     0.112 C 
ATOM     17  C   UNL A   1      33.605  21.504  26.684  1.00  0.00     0.036 C 
BRANCH  16  18
ATOM     18  C   UNL A   1      32.565  20.093  24.816  1.00  0.00    -0.012 A 
ATOM     19  C   UNL A   1      33.138  16.315  24.720  1.00  0.00     0.056 C 
ATOM     20  C   UNL A   1      32.822  17.756  24.521  1.00  0.00     0.002 A 
ATOM     21  C   UNL A   1      32.812  18.802  25.424  1.00  0.00     0.021 A 
ATOM     22  S   UNL A   1      32.417  18.278  22.959  1.00  0.00    -0.146 S 
ATOM     23  C   UNL A   1      32.339  19.906  23.459  1.00  0.00     0.007 A 
ATOM     24  C   UNL A   1      32.079  20.895  22.395  1.00  0.00     0.057 C 
ENDBRANCH  16  18
ENDBRANCH  13  16
ENDBRANCH   7  12
ENDBRANCH   4   6
ENDBRANCH   3   4
ENDBRANCH   2   3
ENDBRANCH   1   2
BRANCH   1  25
ATOM     25  O   UNL A   1      32.642  29.777  25.676  1.00  0.00    -0.374 OA
BRANCH  25  26
ATOM     26  C   UNL A   1      31.995  30.360  26.808  1.00  0.00     0.202 C 
BRANCH  26  27
ATOM     27  C   UNL A   1      32.268  31.854  26.881  1.00  0.00     0.261 C 
BRANCH  27  28
ATOM     28  O   UNL A   1      33.041  32.149  28.033  1.00  0.00    -0.460 OA
BRANCH  28  29
ATOM     29  C   UNL A   1      34.052  32.998  27.768  1.00  0.00     0.338 C 
ATOM     30  O   UNL A   1      33.975  34.174  27.454  1.00  0.00    -0.246 OA
BRANCH  29  31
ATOM     31  C   UNL A   1      35.278  32.313  28.197  1.00  0.00     0.060 A 
ATOM     32  C   UNL A   1      35.214  30.929  28.373  1.00  0.00     0.016 A 
ATOM     33  C   UNL A   1      36.484  33.013  28.351  1.00  0.00     0.016 A 
ATOM     34  C   UNL A   1      36.340  30.248  28.803  1.00  0.00     0.010 A 
ATOM     35  C   UNL A   1      37.617  32.329  28.753  1.00  0.00     0.010 A 
ATOM     36  C   UNL A   1      37.523  30.961  29.039  1.00  0.00    -0.014 A 
BRANCH  36  37
ATOM     37  C   UNL A   1      38.608  30.326  29.798  1.00  0.00     0.031 A 
ATOM     38  C   UNL A   1      38.783  30.734  31.230  1.00  0.00     0.074 A 
ATOM     39  C   UNL A   1      39.394  29.421  29.202  1.00  0.00     0.049 A 
ATOM     40  N   UNL A   1      39.695  30.368  32.088  1.00  0.00    -0.248 NA
ATOM     41  C   UNL A   1      37.804  31.699  31.764  1.00  0.00     0.031 C 
ATOM     42  C   UNL A   1      39.263  28.971  27.816  1.00  0.00     0.029 A 
ATOM     43  N   UNL A   1      40.464  28.725  29.688  1.00  0.00    -0.354 N 
ATOM     44  C   UNL A   1      39.405  31.064  33.255  1.00  0.00     0.074 A 
ATOM     45  C   UNL A   1      38.264  31.906  32.989  1.00  0.00     0.031 C 
ATOM     46  C   UNL A   1      40.229  28.074  27.559  1.00  0.00     0.029 A 
ATOM     47  C   UNL A   1      41.058  27.919  28.751  1.00  0.00     0.049 A 
ATOM     48  H   UNL A   1      40.778  28.795  30.618  1.00  0.00     0.167 HD
ATOM     49  C   UNL A   1      40.037  30.985  34.447  1.00  0.00     0.037 A 
ATOM     50  C   UNL A   1      42.166  27.164  28.858  1.00  0.00     0.037 A 
ATOM     51  C   UNL A   1      41.170  30.131  34.678  1.00  0.00     0.049 A 
ATOM     52  C   UNL A   1      42.878  27.131  30.183  1.00  0.00     0.074 A 
ATOM     53  C   UNL A   1      41.887  29.941  35.844  1.00  0.00     0.029 A 
ATOM     54  N   UNL A   1      41.753  29.326  33.707  1.00  0.00    -0.354 N 
ATOM     55  N   UNL A   1      42.583  27.759  31.298  1.00  0.00    -0.248 NA
ATOM     56  C   UNL A   1      44.070  26.281  30.271  1.00  0.00     0.031 C 
ATOM     57  C   UNL A   1      42.941  29.066  35.562  1.00  0.00     0.029 A 
ATOM     58  C   UNL A   1      42.839  28.656  34.241  1.00  0.00     0.049 A 
ATOM     59  H   UNL A   1      41.440  29.245  32.777  1.00  0.00     0.167 HD
ATOM     60  C   UNL A   1      43.530  27.356  32.228  1.00  0.00     0.074 A 
ATOM     61  C   UNL A   1      44.401  26.418  31.546  1.00  0.00     0.031 C 
ATOM     62  C   UNL A   1      43.673  27.721  33.527  1.00  0.00     0.037 A 
BRANCH  49  63
ATOM     63  C   UNL A   1      39.537  31.853  35.565  1.00  0.00     0.064 A 
ATOM     64  C   UNL A   1      38.580  31.400  36.485  1.00  0.00     0.173 A 
ATOM     65  C   UNL A   1      40.039  33.152  35.730  1.00  0.00     0.173 A 
ATOM     66  F   UNL A   1      38.049  30.175  36.361  1.00  0.00    -0.203 F 
ATOM     67  C   UNL A   1      38.130  32.222  37.517  1.00  0.00     0.198 A 
ATOM     68  C   UNL A   1      39.611  33.960  36.782  1.00  0.00     0.198 A 
ATOM     69  F   UNL A   1      40.951  33.640  34.875  1.00  0.00    -0.203 F 
ATOM     70  F   UNL A   1      37.178  31.784  38.354  1.00  0.00    -0.200 F 
ATOM     71  C   UNL A   1      38.652  33.497  37.669  1.00  0.00     0.200 A 
ATOM     72  F   UNL A   1      40.126  35.188  36.932  1.00  0.00    -0.200 F 
ATOM     73  F   UNL A   1      38.228  34.283  38.668  1.00  0.00    -0.200 F 
ENDBRANCH  49  63
BRANCH  50  74
ATOM     74  C   UNL A   1      42.654  26.391  27.687  1.00  0.00     0.064 A 
ATOM     75  C   UNL A   1      42.166  25.106  27.414  1.00  0.00     0.173 A 
ATOM     76  C   UNL A   1      43.616  26.921  26.814  1.00  0.00     0.173 A 
ATOM     77  F   UNL A   1      41.252  24.551  28.225  1.00  0.00    -0.203 F 
ATOM     78  C   UNL A   1      42.640  24.370  26.330  1.00  0.00     0.198 A 
ATOM     79  C   UNL A   1      44.066  26.197  25.712  1.00  0.00     0.198 A 
ATOM     80  F   UNL A   1      44.108  28.151  27.022  1.00  0.00    -0.203 F 
ATOM     81  F   UNL A   1      42.191  23.126  26.121  1.00  0.00    -0.200 F 
ATOM     82  C   UNL A   1      43.586  24.919  25.477  1.00  0.00     0.200 A 
ATOM     83  F   UNL A   1      44.963  26.741  24.878  1.00  0.00    -0.200 F 
ATOM     84  F   UNL A   1      44.038  24.212  24.432  1.00  0.00    -0.200 F 
ENDBRANCH  50  74
BRANCH  62  85
ATOM     85  C   UNL A   1      44.781  27.068  34.300  1.00  0.00     0.064 A 
ATOM     86  C   UNL A   1      44.602  25.839  34.951  1.00  0.00     0.173 A 
ATOM     87  C   UNL A   1      46.053  27.660  34.344  1.00  0.00     0.173 A 
ATOM     88  F   UNL A   1      43.401  25.241  34.948  1.00  0.00    -0.203 F 
ATOM     89  C   UNL A   1      45.650  25.242  35.646  1.00  0.00     0.198 A 
ATOM     90  C   UNL A   1      47.107  27.041  35.006  1.00  0.00     0.198 A 
ATOM     91  F   UNL A   1      46.276  28.830  33.726  1.00  0.00    -0.203 F 
ATOM     92  F   UNL A   1      45.444  24.096  36.307  1.00  0.00    -0.200 F 
ATOM     93  C   UNL A   1      46.902  25.838  35.664  1.00  0.00     0.200 A 
ATOM     94  F   UNL A   1      48.320  27.609  35.006  1.00  0.00    -0.200 F 
ATOM     95  F   UNL A   1      47.912  25.254  36.323  1.00  0.00    -0.200 F 
ENDBRANCH  62  85
ENDBRANCH  36  37
ENDBRANCH  29  31
ENDBRANCH  28  29
ENDBRANCH  27  28
ENDBRANCH  26  27
ENDBRANCH  25  26
ENDBRANCH   1  25
TORSDOF 17
ENDMDL
MODEL 3
REMARK VINA RESULT:     -11.9      2.099      8.317
REMARK SMILES Cc1cc([C@H](C)NC(=O)N2CC[C@H](C(=O)OCCOCCOC(=O)c3ccc(-c4c5nc(c(-c6c(F)c(F)c(F)c(F)c6F)c6ccc([nH]6)c(-c6c(F)c(F)c(F)c(F)c6F)c6nc(c(-c7c(F)c(F)c(F)c(F)c7F)c7ccc4[nH]7)C=C6)C=C5)cc3)[C@@H]2C)c(C)s1
REMARK SMILES IDX 18 1 17 2 16 3 14 4 15 5 13 6 10 7 11 8 88 9 12 10 89 11
REMARK SMILES IDX 8 12 7 13 9 15 5 16 6 17 4 18 1 19 2 20 3 21 92 22 90 23
REMARK SMILES IDX 91 24 19 25 20 26 21 27 22 28 23 29 24 30 25 31 26 32 87 33
REMARK SMILES IDX 27 34 86 35 28 36 29 37 30 38 80 39 31 40 85 41 79 42 81 43
REMARK SMILES IDX 32 44 84 45 78 46 77 47 33 49 65 50 45 51 64 52 46 53 49 54
REMARK SMILES IDX 63 55 82 56 47 57 48 58 62 60 83 61 50 62 34 63 35 64 43 65
REMARK SMILES IDX 36 66 37 67 41 68 44 69 38 70 39 71 42 72 40 73 66 74 67 75
REMARK SMILES IDX 75 76 68 77 69 78 73 79 76 80 70 81 71 82 74 83 72 84 51 85
REMARK SMILES IDX 52 86 60 87 53 88 54 89 58 90 61 91 55 92 56 93 59 94 57 95
REMARK H PARENT 7 14 81 48 49 59
REMARK Flexibility Score: inf
ROOT
ATOM      1  C   UNL A   1      34.824  23.100  23.561  1.00  0.00     0.202 C 
ENDROOT
BRANCH   1   2
ATOM      2  C   UNL A   1      34.912  24.635  23.499  1.00  0.00     0.261 C 
BRANCH   2   3
ATOM      3  O   UNL A   1      33.717  25.227  22.970  1.00  0.00    -0.463 OA
BRANCH   3   4
ATOM      4  C   UNL A   1      33.222  26.303  23.655  1.00  0.00     0.311 C 
ATOM      5  O   UNL A   1      33.806  27.363  23.814  1.00  0.00    -0.252 OA
BRANCH   4   6
ATOM      6  C   UNL A   1      31.828  25.983  24.173  1.00  0.00     0.123 C 
ATOM      7  N   UNL A   1      31.048  24.046  25.343  1.00  0.00    -0.321 N 
ATOM      8  C   UNL A   1      31.133  23.702  23.936  1.00  0.00     0.122 C 
ATOM      9  C   UNL A   1      31.753  25.309  25.571  1.00  0.00     0.098 C 
ATOM     10  C   UNL A   1      31.072  25.045  23.233  1.00  0.00     0.039 C 
ATOM     11  C   UNL A   1      33.083  25.060  26.288  1.00  0.00     0.032 C 
BRANCH   7  12
ATOM     12  C   UNL A   1      30.744  23.091  26.277  1.00  0.00     0.318 C 
ATOM     13  N   UNL A   1      31.211  21.819  26.130  1.00  0.00    -0.331 N 
ATOM     14  H   UNL A   1      30.551  21.093  26.208  1.00  0.00     0.165 HD
ATOM     15  O   UNL A   1      30.039  23.340  27.255  1.00  0.00    -0.249 OA
BRANCH  13  16
ATOM     16  C   UNL A   1      32.593  21.428  25.868  1.00  0.00     0.112 C 
ATOM     17  C   UNL A   1      33.423  21.515  27.155  1.00  0.00     0.036 C 
BRANCH  16  18
ATOM     18  C   UNL A   1      32.612  20.036  25.227  1.00  0.00    -0.012 A 
ATOM     19  C   UNL A   1      33.308  16.278  25.324  1.00  0.00     0.056 C 
ATOM     20  C   UNL A   1      32.951  17.697  25.050  1.00  0.00     0.002 A 
ATOM     21  C   UNL A   1      32.887  18.784  25.902  1.00  0.00     0.021 A 
ATOM     22  S   UNL A   1      32.563  18.131  23.457  1.00  0.00    -0.146 S 
ATOM     23  C   UNL A   1      32.421  19.777  23.876  1.00  0.00     0.007 A 
ATOM     24  C   UNL A   1      32.153  20.705  22.762  1.00  0.00     0.057 C 
ENDBRANCH  16  18
ENDBRANCH  13  16
ENDBRANCH   7  12
ENDBRANCH   4   6
ENDBRANCH   3   4
ENDBRANCH   2   3
ENDBRANCH   1   2
BRANCH   1  25
ATOM     25  O   UNL A   1      36.057  22.410  23.764  1.00  0.00    -0.374 OA
BRANCH  25  26
ATOM     26  C   UNL A   1      35.955  21.272  24.620  1.00  0.00     0.202 C 
BRANCH  26  27
ATOM     27  C   UNL A   1      37.332  20.731  24.973  1.00  0.00     0.261 C 
BRANCH  27  28
ATOM     28  O   UNL A   1      38.214  21.804  25.259  1.00  0.00    -0.460 OA
BRANCH  28  29
ATOM     29  C   UNL A   1      39.189  21.450  26.119  1.00  0.00     0.338 C 
ATOM     30  O   UNL A   1      39.695  20.350  26.260  1.00  0.00    -0.246 OA
BRANCH  29  31
ATOM     31  C   UNL A   1      39.720  22.705  26.668  1.00  0.00     0.060 A 
ATOM     32  C   UNL A   1      39.119  23.895  26.252  1.00  0.00     0.016 A 
ATOM     33  C   UNL A   1      40.743  22.701  27.628  1.00  0.00     0.016 A 
ATOM     34  C   UNL A   1      39.607  25.101  26.724  1.00  0.00     0.010 A 
ATOM     35  C   UNL A   1      41.212  23.905  28.122  1.00  0.00     0.010 A 
ATOM     36  C   UNL A   1      40.685  25.101  27.618  1.00  0.00    -0.014 A 
BRANCH  36  37
ATOM     37  C   UNL A   1      41.417  26.349  27.865  1.00  0.00     0.031 A 
ATOM     38  C   UNL A   1      40.690  27.449  28.579  1.00  0.00     0.074 A 
ATOM     39  C   UNL A   1      42.685  26.469  27.453  1.00  0.00     0.049 A 
ATOM     40  N   UNL A   1      41.091  28.658  28.862  1.00  0.00    -0.248 NA
ATOM     41  C   UNL A   1      39.316  27.150  29.023  1.00  0.00     0.031 C 
ATOM     42  C   UNL A   1      43.451  25.428  26.766  1.00  0.00     0.029 A 
ATOM     43  N   UNL A   1      43.548  27.524  27.546  1.00  0.00    -0.354 N 
ATOM     44  C   UNL A   1      40.019  29.263  29.505  1.00  0.00     0.074 A 
ATOM     45  C   UNL A   1      38.934  28.311  29.534  1.00  0.00     0.031 C 
ATOM     46  C   UNL A   1      44.677  25.904  26.492  1.00  0.00     0.029 A 
ATOM     47  C   UNL A   1      44.761  27.287  26.953  1.00  0.00     0.049 A 
ATOM     48  H   UNL A   1      43.321  28.370  27.995  1.00  0.00     0.167 HD
ATOM     49  C   UNL A   1      39.962  30.504  30.036  1.00  0.00     0.037 A 
ATOM     50  C   UNL A   1      45.805  28.119  26.788  1.00  0.00     0.037 A 
ATOM     51  C   UNL A   1      41.064  31.426  29.992  1.00  0.00     0.049 A 
ATOM     52  C   UNL A   1      45.698  29.512  27.347  1.00  0.00     0.074 A 
ATOM     53  C   UNL A   1      41.145  32.703  30.512  1.00  0.00     0.029 A 
ATOM     54  N   UNL A   1      42.283  31.158  29.380  1.00  0.00    -0.354 N 
ATOM     55  N   UNL A   1      44.698  30.073  27.989  1.00  0.00    -0.248 NA
ATOM     56  C   UNL A   1      46.862  30.386  27.169  1.00  0.00     0.031 C 
ATOM     57  C   UNL A   1      42.392  33.232  30.161  1.00  0.00     0.029 A 
ATOM     58  C   UNL A   1      43.114  32.259  29.485  1.00  0.00     0.049 A 
ATOM     59  H   UNL A   1      42.519  30.312  28.936  1.00  0.00     0.167 HD
ATOM     60  C   UNL A   1      45.123  31.351  28.321  1.00  0.00     0.074 A 
ATOM     61  C   UNL A   1      46.478  31.475  27.819  1.00  0.00     0.031 C 
ATOM     62  C   UNL A   1      44.462  32.335  28.980  1.00  0.00     0.037 A 
BRANCH  49  63
ATOM     63  C   UNL A   1      38.675  30.935  30.677  1.00  0.00     0.064 A 
ATOM     64  C   UNL A   1      37.594  31.416  29.921  1.00  0.00     0.173 A 
ATOM     65  C   UNL A   1      38.511  30.845  32.066  1.00  0.00     0.173 A 
ATOM     66  F   UNL A   1      37.704  31.544  28.590  1.00  0.00    -0.203 F 
ATOM     67  C   UNL A   1      36.407  31.809  30.535  1.00  0.00     0.198 A 
ATOM     68  C   UNL A   1      37.312  31.209  32.674  1.00  0.00     0.198 A 
ATOM     69  F   UNL A   1      39.514  30.399  32.839  1.00  0.00    -0.203 F 
ATOM     70  F   UNL A   1      35.407  32.312  29.797  1.00  0.00    -0.200 F 
ATOM     71  C   UNL A   1      36.264  31.697  31.909  1.00  0.00     0.200 A 
ATOM     72  F   UNL A   1      37.173  31.089  34.002  1.00  0.00    -0.200 F 
ATOM     73  F   UNL A   1      35.118  32.065  32.499  1.00  0.00    -0.200 F 
ENDBRANCH  49  63
BRANCH  50  74
ATOM     74  C   UNL A   1      47.020  27.654  26.072  1.00  0.00     0.064 A 
ATOM     75  C   UNL A   1      47.107  27.721  24.676  1.00  0.00     0.173 A 
ATOM     76  C   UNL A   1      48.122  27.135  26.769  1.00  0.00     0.173 A 
ATOM     77  F   UNL A   1      46.076  28.200  23.963  1.00  0.00    -0.203 F 
ATOM     78  C   UNL A   1      48.237  27.263  24.001  1.00  0.00     0.198 A 
ATOM     79  C   UNL A   1      49.265  26.707  26.096  1.00  0.00     0.198 A 
ATOM     80  F   UNL A   1      48.097  27.059  28.108  1.00  0.00    -0.203 F 
ATOM     81  F   UNL A   1      48.273  27.295  22.662  1.00  0.00    -0.200 F 
ATOM     82  C   UNL A   1      49.317  26.762  24.712  1.00  0.00     0.200 A 
ATOM     83  F   UNL A   1      50.313  26.245  26.789  1.00  0.00    -0.200 F 
ATOM     84  F   UNL A   1      50.405  26.327  24.063  1.00  0.00    -0.200 F 
ENDBRANCH  50  74
BRANCH  62  85
ATOM     85  C   UNL A   1      45.214  33.609  29.233  1.00  0.00     0.064 A 
ATOM     86  C   UNL A   1      46.014  33.780  30.372  1.00  0.00     0.173 A 
ATOM     87  C   UNL A   1      45.171  34.651  28.294  1.00  0.00     0.173 A 
ATOM     88  F   UNL A   1      46.076  32.817  31.305  1.00  0.00    -0.203 F 
ATOM     89  C   UNL A   1      46.718  34.963  30.577  1.00  0.00     0.198 A 
ATOM     90  C   UNL A   1      45.908  35.815  28.483  1.00  0.00     0.198 A 
ATOM     91  F   UNL A   1      44.430  34.529  27.182  1.00  0.00    -0.203 F 
ATOM     92  F   UNL A   1      47.432  35.128  31.698  1.00  0.00    -0.200 F 
ATOM     93  C   UNL A   1      46.672  35.973  29.628  1.00  0.00     0.200 A 
ATOM     94  F   UNL A   1      45.878  36.782  27.556  1.00  0.00    -0.200 F 
ATOM     95  F   UNL A   1      47.362  37.106  29.822  1.00  0.00    -0.200 F 
ENDBRANCH  62  85
ENDBRANCH  36  37
ENDBRANCH  29  31
ENDBRANCH  28  29
ENDBRANCH  27  28
ENDBRANCH  26  27
ENDBRANCH  25  26
ENDBRANCH   1  25
TORSDOF 17
ENDMDL
