MODEL 1
REMARK VINA RESULT:     -11.3      0.000      0.000
REMARK SMILES NC(=O)c1ccsc1NS(=O)(=O)c1ccc(C(=O)OCCOCCOC(=O)c2ccc(-c3c4nc(c(-c5c(F)c(F)c(F)c(F)c5F)c5ccc([nH]5)c(-c5c(F)c(F)c(F)c(F)c5F)c5nc(c(-c6c(F)c(F)c(F)c(F)c6F)c6ccc3[nH]6)C=C5)C=C4)cc2)cc1
REMARK SMILES IDX 21 1 20 2 19 3 17 4 18 5 16 6 13 7 14 8 92 9 15 10 91 11
REMARK SMILES IDX 10 12 11 13 12 14 9 15 8 17 4 18 5 19 6 20 7 21 2 22 1 23
REMARK SMILES IDX 3 26 22 27 23 28 24 29 25 30 26 31 27 32 28 33 29 34 90 35
REMARK SMILES IDX 30 36 89 37 31 38 32 39 33 40 83 41 34 42 88 43 82 44 84 45
REMARK SMILES IDX 35 46 87 47 81 48 80 49 36 51 68 52 48 53 67 54 49 55 52 56
REMARK SMILES IDX 66 57 85 58 50 59 51 60 65 62 86 63 53 64 37 65 38 66 46 67
REMARK SMILES IDX 39 68 40 69 44 70 47 71 41 72 42 73 45 74 43 75 69 76 70 77
REMARK SMILES IDX 78 78 71 79 72 80 76 81 79 82 73 83 74 84 77 85 75 86 54 87
REMARK SMILES IDX 55 88 63 89 56 90 57 91 61 92 64 93 58 94 59 95 62 96 60 97
REMARK H PARENT 9 16 1 24 1 25 84 50 52 61
REMARK Flexibility Score: inf
ROOT
ATOM      1  C   UNL A   1      40.283  20.312  25.988  1.00  0.00     0.202 C 
ENDROOT
BRANCH   1   2
ATOM      2  C   UNL A   1      39.387  21.466  26.448  1.00  0.00     0.261 C 
BRANCH   2   3
ATOM      3  O   UNL A   1      38.617  22.005  25.366  1.00  0.00    -0.460 OA
BRANCH   3   4
ATOM      4  C   UNL A   1      37.559  21.236  25.017  1.00  0.00     0.338 C 
ATOM      5  O   UNL A   1      37.564  20.034  24.811  1.00  0.00    -0.246 OA
BRANCH   4   6
ATOM      6  C   UNL A   1      36.309  22.024  25.051  1.00  0.00     0.060 A 
ATOM      7  C   UNL A   1      34.323  23.937  25.162  1.00  0.00     0.087 A 
ATOM      8  C   UNL A   1      35.034  23.765  23.969  1.00  0.00     0.023 A 
ATOM      9  C   UNL A   1      34.459  23.036  26.228  1.00  0.00     0.023 A 
ATOM     10  C   UNL A   1      36.044  22.816  23.924  1.00  0.00     0.017 A 
ATOM     11  C   UNL A   1      35.469  22.071  26.172  1.00  0.00     0.017 A 
BRANCH   7  12
ATOM     12  S   UNL A   1      33.364  25.411  25.354  1.00  0.00     0.262 S 
ATOM     13  O   UNL A   1      34.304  26.485  25.596  1.00  0.00    -0.201 OA
ATOM     14  O   UNL A   1      32.324  25.127  26.324  1.00  0.00    -0.201 OA
BRANCH  12  15
ATOM     15  N   UNL A   1      32.603  25.761  23.908  1.00  0.00    -0.270 N 
ATOM     16  H   UNL A   1      32.845  25.165  23.163  1.00  0.00     0.181 HD
BRANCH  15  17
ATOM     17  C   UNL A   1      31.658  26.784  23.571  1.00  0.00     0.115 A 
ATOM     18  C   UNL A   1      32.069  27.943  22.917  1.00  0.00     0.074 A 
ATOM     19  C   UNL A   1      30.947  28.759  22.523  1.00  0.00     0.028 A 
ATOM     20  C   UNL A   1      29.751  28.253  22.964  1.00  0.00     0.068 A 
ATOM     21  S   UNL A   1      29.996  26.869  23.909  1.00  0.00    -0.125 S 
BRANCH  18  22
ATOM     22  C   UNL A   1      33.466  28.264  22.668  1.00  0.00     0.251 C 
ATOM     23  N   UNL A   1      34.058  29.027  23.629  1.00  0.00    -0.366 N 
ATOM     24  H   UNL A   1      35.003  29.289  23.538  1.00  0.00     0.159 HD
ATOM     25  H   UNL A   1      33.543  29.316  24.417  1.00  0.00     0.159 HD
ATOM     26  O   UNL A   1      34.095  27.834  21.705  1.00  0.00    -0.269 OA
ENDBRANCH  18  22
ENDBRANCH  15  17
ENDBRANCH  12  15
ENDBRANCH   7  12
ENDBRANCH   4   6
ENDBRANCH   3   4
ENDBRANCH   2   3
ENDBRANCH   1   2
BRANCH   1  27
ATOM     27  O   UNL A   1      41.448  20.010  26.749  1.00  0.00    -0.374 OA
BRANCH  27  28
ATOM     28  C   UNL A   1      42.462  21.004  26.876  1.00  0.00     0.202 C 
BRANCH  28  29
ATOM     29  C   UNL A   1      43.215  21.465  25.621  1.00  0.00     0.261 C 
BRANCH  29  30
ATOM     30  O   UNL A   1      42.645  22.626  24.999  1.00  0.00    -0.460 OA
BRANCH  30  31
ATOM     31  C   UNL A   1      43.437  23.728  25.037  1.00  0.00     0.338 C 
ATOM     32  O   UNL A   1      44.379  23.993  24.310  1.00  0.00    -0.246 OA
BRANCH  31  33
ATOM     33  C   UNL A   1      42.884  24.701  25.995  1.00  0.00     0.060 A 
ATOM     34  C   UNL A   1      43.534  25.936  26.120  1.00  0.00     0.016 A 
ATOM     35  C   UNL A   1      41.795  24.383  26.806  1.00  0.00     0.016 A 
ATOM     36  C   UNL A   1      43.107  26.854  27.077  1.00  0.00     0.010 A 
ATOM     37  C   UNL A   1      41.376  25.300  27.774  1.00  0.00     0.010 A 
ATOM     38  C   UNL A   1      42.044  26.529  27.928  1.00  0.00    -0.014 A 
BRANCH  38  39
ATOM     39  C   UNL A   1      41.685  27.439  29.042  1.00  0.00     0.031 A 
ATOM     40  C   UNL A   1      42.483  27.402  30.313  1.00  0.00     0.074 A 
ATOM     41  C   UNL A   1      40.654  28.292  28.914  1.00  0.00     0.049 A 
ATOM     42  N   UNL A   1      42.298  28.059  31.430  1.00  0.00    -0.248 NA
ATOM     43  C   UNL A   1      43.645  26.501  30.328  1.00  0.00     0.031 C 
ATOM     44  C   UNL A   1      39.833  28.446  27.715  1.00  0.00     0.029 A 
ATOM     45  N   UNL A   1      40.116  29.181  29.810  1.00  0.00    -0.354 N 
ATOM     46  C   UNL A   1      43.312  27.645  32.283  1.00  0.00     0.074 A 
ATOM     47  C   UNL A   1      44.090  26.655  31.567  1.00  0.00     0.031 C 
ATOM     48  C   UNL A   1      38.886  29.369  27.952  1.00  0.00     0.029 A 
ATOM     49  C   UNL A   1      39.009  29.836  29.331  1.00  0.00     0.049 A 
ATOM     50  H   UNL A   1      40.488  29.335  30.709  1.00  0.00     0.167 HD
ATOM     51  C   UNL A   1      43.573  28.057  33.548  1.00  0.00     0.037 A 
ATOM     52  C   UNL A   1      38.171  30.691  29.949  1.00  0.00     0.037 A 
ATOM     53  C   UNL A   1      42.789  29.038  34.256  1.00  0.00     0.049 A 
ATOM     54  C   UNL A   1      38.427  31.065  31.385  1.00  0.00     0.074 A 
ATOM     55  C   UNL A   1      42.987  29.549  35.526  1.00  0.00     0.029 A 
ATOM     56  N   UNL A   1      41.645  29.645  33.757  1.00  0.00    -0.354 N 
ATOM     57  N   UNL A   1      39.406  30.697  32.177  1.00  0.00    -0.248 NA
ATOM     58  C   UNL A   1      37.456  31.970  32.016  1.00  0.00     0.031 C 
ATOM     59  C   UNL A   1      41.926  30.410  35.823  1.00  0.00     0.029 A 
ATOM     60  C   UNL A   1      41.101  30.490  34.712  1.00  0.00     0.049 A 
ATOM     61  H   UNL A   1      41.273  29.497  32.857  1.00  0.00     0.167 HD
ATOM     62  C   UNL A   1      39.183  31.340  33.387  1.00  0.00     0.074 A 
ATOM     63  C   UNL A   1      37.987  32.139  33.220  1.00  0.00     0.031 C 
ATOM     64  C   UNL A   1      39.903  31.273  34.536  1.00  0.00     0.037 A 
BRANCH  51  65
ATOM     65  C   UNL A   1      44.732  27.420  34.260  1.00  0.00     0.064 A 
ATOM     66  C   UNL A   1      46.023  27.966  34.215  1.00  0.00     0.173 A 
ATOM     67  C   UNL A   1      44.542  26.254  35.019  1.00  0.00     0.173 A 
ATOM     68  F   UNL A   1      46.264  29.074  33.498  1.00  0.00    -0.203 F 
ATOM     69  C   UNL A   1      47.088  27.350  34.872  1.00  0.00     0.198 A 
ATOM     70  C   UNL A   1      45.601  25.660  35.702  1.00  0.00     0.198 A 
ATOM     71  F   UNL A   1      43.327  25.691  35.104  1.00  0.00    -0.203 F 
ATOM     72  F   UNL A   1      48.322  27.859  34.765  1.00  0.00    -0.200 F 
ATOM     73  C   UNL A   1      46.874  26.202  35.619  1.00  0.00     0.200 A 
ATOM     74  F   UNL A   1      45.388  24.560  36.438  1.00  0.00    -0.200 F 
ATOM     75  F   UNL A   1      47.897  25.613  36.253  1.00  0.00    -0.200 F 
ENDBRANCH  51  65
BRANCH  52  76
ATOM     76  C   UNL A   1      37.002  31.240  29.213  1.00  0.00     0.064 A 
ATOM     77  C   UNL A   1      35.886  30.442  28.933  1.00  0.00     0.173 A 
ATOM     78  C   UNL A   1      36.977  32.573  28.776  1.00  0.00     0.173 A 
ATOM     79  F   UNL A   1      35.872  29.154  29.308  1.00  0.00    -0.203 F 
ATOM     80  C   UNL A   1      34.794  30.951  28.233  1.00  0.00     0.198 A 
ATOM     81  C   UNL A   1      35.872  33.090  28.105  1.00  0.00     0.198 A 
ATOM     82  F   UNL A   1      38.021  33.380  29.018  1.00  0.00    -0.203 F 
ATOM     83  F   UNL A   1      33.757  30.155  27.943  1.00  0.00    -0.200 F 
ATOM     84  C   UNL A   1      34.784  32.277  27.828  1.00  0.00     0.200 A 
ATOM     85  F   UNL A   1      35.861  34.376  27.729  1.00  0.00    -0.200 F 
ATOM     86  F   UNL A   1      33.729  32.770  27.165  1.00  0.00    -0.200 F 
ENDBRANCH  52  76
BRANCH  64  87
ATOM     87  C   UNL A   1      39.424  32.097  35.699  1.00  0.00     0.064 A 
ATOM     88  C   UNL A   1      39.871  33.411  35.904  1.00  0.00     0.173 A 
ATOM     89  C   UNL A   1      38.478  31.580  36.598  1.00  0.00     0.173 A 
ATOM     90  F   UNL A   1      40.787  33.949  35.084  1.00  0.00    -0.203 F 
ATOM     91  C   UNL A   1      39.410  34.165  36.981  1.00  0.00     0.198 A 
ATOM     92  C   UNL A   1      37.994  32.349  37.653  1.00  0.00     0.198 A 
ATOM     93  F   UNL A   1      38.012  30.331  36.446  1.00  0.00    -0.203 F 
ATOM     94  F   UNL A   1      39.892  35.399  37.187  1.00  0.00    -0.200 F 
ATOM     95  C   UNL A   1      38.466  33.638  37.848  1.00  0.00     0.200 A 
ATOM     96  F   UNL A   1      37.069  31.843  38.480  1.00  0.00    -0.200 F 
ATOM     97  F   UNL A   1      38.018  34.368  38.879  1.00  0.00    -0.200 F 
ENDBRANCH  64  87
ENDBRANCH  38  39
ENDBRANCH  31  33
ENDBRANCH  30  31
ENDBRANCH  29  30
ENDBRANCH  28  29
ENDBRANCH  27  28
ENDBRANCH   1  27
TORSDOF 18
ENDMDL
MODEL 2
REMARK VINA RESULT:     -11.3      0.974      2.280
REMARK SMILES NC(=O)c1ccsc1NS(=O)(=O)c1ccc(C(=O)OCCOCCOC(=O)c2ccc(-c3c4nc(c(-c5c(F)c(F)c(F)c(F)c5F)c5ccc([nH]5)c(-c5c(F)c(F)c(F)c(F)c5F)c5nc(c(-c6c(F)c(F)c(F)c(F)c6F)c6ccc3[nH]6)C=C5)C=C4)cc2)cc1
REMARK SMILES IDX 21 1 20 2 19 3 17 4 18 5 16 6 13 7 14 8 92 9 15 10 91 11
REMARK SMILES IDX 10 12 11 13 12 14 9 15 8 17 4 18 5 19 6 20 7 21 2 22 1 23
REMARK SMILES IDX 3 26 22 27 23 28 24 29 25 30 26 31 27 32 28 33 29 34 90 35
REMARK SMILES IDX 30 36 89 37 31 38 32 39 33 40 83 41 34 42 88 43 82 44 84 45
REMARK SMILES IDX 35 46 87 47 81 48 80 49 36 51 68 52 48 53 67 54 49 55 52 56
REMARK SMILES IDX 66 57 85 58 50 59 51 60 65 62 86 63 53 64 37 65 38 66 46 67
REMARK SMILES IDX 39 68 40 69 44 70 47 71 41 72 42 73 45 74 43 75 69 76 70 77
REMARK SMILES IDX 78 78 71 79 72 80 76 81 79 82 73 83 74 84 77 85 75 86 54 87
REMARK SMILES IDX 55 88 63 89 56 90 57 91 61 92 64 93 58 94 59 95 62 96 60 97
REMARK H PARENT 9 16 1 24 1 25 84 50 52 61
REMARK Flexibility Score: inf
ROOT
ATOM      1  C   UNL A   1      40.835  19.788  26.180  1.00  0.00     0.202 C 
ENDROOT
BRANCH   1   2
ATOM      2  C   UNL A   1      39.903  20.944  26.559  1.00  0.00     0.261 C 
BRANCH   2   3
ATOM      3  O   UNL A   1      39.212  21.466  25.417  1.00  0.00    -0.460 OA
BRANCH   3   4
ATOM      4  C   UNL A   1      38.093  20.774  25.098  1.00  0.00     0.338 C 
ATOM      5  O   UNL A   1      37.969  19.561  25.057  1.00  0.00    -0.246 OA
BRANCH   4   6
ATOM      6  C   UNL A   1      36.945  21.689  24.932  1.00  0.00     0.060 A 
ATOM      7  C   UNL A   1      34.810  23.418  25.185  1.00  0.00     0.087 A 
ATOM      8  C   UNL A   1      36.107  23.914  25.352  1.00  0.00     0.023 A 
ATOM      9  C   UNL A   1      34.581  22.123  24.702  1.00  0.00     0.023 A 
ATOM     10  C   UNL A   1      37.177  23.037  25.242  1.00  0.00     0.017 A 
ATOM     11  C   UNL A   1      35.663  21.247  24.578  1.00  0.00     0.017 A 
BRANCH   7  12
ATOM     12  S   UNL A   1      33.460  24.414  25.748  1.00  0.00     0.262 S 
ATOM     13  O   UNL A   1      33.980  25.755  25.915  1.00  0.00    -0.201 OA
ATOM     14  O   UNL A   1      32.856  23.727  26.873  1.00  0.00    -0.201 OA
BRANCH  12  15
ATOM     15  N   UNL A   1      32.303  24.499  24.546  1.00  0.00    -0.270 N 
ATOM     16  H   UNL A   1      32.014  23.627  24.193  1.00  0.00     0.181 HD
BRANCH  15  17
ATOM     17  C   UNL A   1      31.660  25.629  23.943  1.00  0.00     0.115 A 
ATOM     18  C   UNL A   1      30.890  26.500  24.709  1.00  0.00     0.074 A 
ATOM     19  C   UNL A   1      30.475  27.654  23.948  1.00  0.00     0.028 A 
ATOM     20  C   UNL A   1      30.855  27.577  22.633  1.00  0.00     0.068 A 
ATOM     21  S   UNL A   1      31.617  26.100  22.312  1.00  0.00    -0.125 S 
BRANCH  18  22
ATOM     22  C   UNL A   1      30.563  26.257  26.105  1.00  0.00     0.251 C 
ATOM     23  N   UNL A   1      31.126  27.132  26.986  1.00  0.00    -0.366 N 
ATOM     24  H   UNL A   1      30.955  27.038  27.951  1.00  0.00     0.159 HD
ATOM     25  H   UNL A   1      31.704  27.858  26.658  1.00  0.00     0.159 HD
ATOM     26  O   UNL A   1      29.787  25.379  26.474  1.00  0.00    -0.269 OA
ENDBRANCH  18  22
ENDBRANCH  15  17
ENDBRANCH  12  15
ENDBRANCH   7  12
ENDBRANCH   4   6
ENDBRANCH   3   4
ENDBRANCH   2   3
ENDBRANCH   1   2
BRANCH   1  27
ATOM     27  O   UNL A   1      42.168  19.796  26.679  1.00  0.00    -0.374 OA
BRANCH  27  28
ATOM     28  C   UNL A   1      42.890  21.025  26.687  1.00  0.00     0.202 C 
BRANCH  28  29
ATOM     29  C   UNL A   1      43.421  21.587  25.362  1.00  0.00     0.261 C 
BRANCH  29  30
ATOM     30  O   UNL A   1      42.779  22.804  24.951  1.00  0.00    -0.460 OA
BRANCH  30  31
ATOM     31  C   UNL A   1      43.562  23.909  25.046  1.00  0.00     0.338 C 
ATOM     32  O   UNL A   1      44.527  24.198  24.360  1.00  0.00    -0.246 OA
BRANCH  31  33
ATOM     33  C   UNL A   1      42.969  24.853  26.008  1.00  0.00     0.060 A 
ATOM     34  C   UNL A   1      43.524  26.137  26.091  1.00  0.00     0.016 A 
ATOM     35  C   UNL A   1      41.937  24.467  26.863  1.00  0.00     0.016 A 
ATOM     36  C   UNL A   1      43.062  27.036  27.049  1.00  0.00     0.010 A 
ATOM     37  C   UNL A   1      41.482  25.367  27.831  1.00  0.00     0.010 A 
ATOM     38  C   UNL A   1      42.057  26.646  27.943  1.00  0.00    -0.014 A 
BRANCH  38  39
ATOM     39  C   UNL A   1      41.667  27.545  29.055  1.00  0.00     0.031 A 
ATOM     40  C   UNL A   1      42.455  27.525  30.333  1.00  0.00     0.074 A 
ATOM     41  C   UNL A   1      40.618  28.374  28.919  1.00  0.00     0.049 A 
ATOM     42  N   UNL A   1      42.246  28.175  31.450  1.00  0.00    -0.248 NA
ATOM     43  C   UNL A   1      43.637  26.651  30.356  1.00  0.00     0.031 C 
ATOM     44  C   UNL A   1      39.804  28.512  27.714  1.00  0.00     0.029 A 
ATOM     45  N   UNL A   1      40.052  29.249  29.812  1.00  0.00    -0.354 N 
ATOM     46  C   UNL A   1      43.261  27.783  32.311  1.00  0.00     0.074 A 
ATOM     47  C   UNL A   1      44.068  26.813  31.599  1.00  0.00     0.031 C 
ATOM     48  C   UNL A   1      38.834  29.411  27.944  1.00  0.00     0.029 A 
ATOM     49  C   UNL A   1      38.934  29.879  29.325  1.00  0.00     0.049 A 
ATOM     50  H   UNL A   1      40.412  29.410  30.714  1.00  0.00     0.167 HD
ATOM     51  C   UNL A   1      43.501  28.199  33.578  1.00  0.00     0.037 A 
ATOM     52  C   UNL A   1      38.071  30.713  29.937  1.00  0.00     0.037 A 
ATOM     53  C   UNL A   1      42.689  29.160  34.281  1.00  0.00     0.049 A 
ATOM     54  C   UNL A   1      38.305  31.090  31.376  1.00  0.00     0.074 A 
ATOM     55  C   UNL A   1      42.864  29.673  35.553  1.00  0.00     0.029 A 
ATOM     56  N   UNL A   1      41.535  29.741  33.773  1.00  0.00    -0.354 N 
ATOM     57  N   UNL A   1      39.286  30.744  32.175  1.00  0.00    -0.248 NA
ATOM     58  C   UNL A   1      37.308  31.972  31.999  1.00  0.00     0.031 C 
ATOM     59  C   UNL A   1      41.781  30.509  35.842  1.00  0.00     0.029 A 
ATOM     60  C   UNL A   1      40.964  30.572  34.725  1.00  0.00     0.049 A 
ATOM     61  H   UNL A   1      41.175  29.586  32.870  1.00  0.00     0.167 HD
ATOM     62  C   UNL A   1      39.038  31.380  33.385  1.00  0.00     0.074 A 
ATOM     63  C   UNL A   1      37.825  32.150  33.208  1.00  0.00     0.031 C 
ATOM     64  C   UNL A   1      39.749  31.327  34.539  1.00  0.00     0.037 A 
BRANCH  51  65
ATOM     65  C   UNL A   1      44.669  27.587  34.300  1.00  0.00     0.064 A 
ATOM     66  C   UNL A   1      44.544  26.409  35.050  1.00  0.00     0.173 A 
ATOM     67  C   UNL A   1      45.940  28.180  34.219  1.00  0.00     0.173 A 
ATOM     68  F   UNL A   1      43.352  25.807  35.169  1.00  0.00    -0.203 F 
ATOM     69  C   UNL A   1      45.637  25.867  35.724  1.00  0.00     0.198 A 
ATOM     70  C   UNL A   1      47.037  27.616  34.866  1.00  0.00     0.198 A 
ATOM     71  F   UNL A   1      46.119  29.304  33.510  1.00  0.00    -0.203 F 
ATOM     72  F   UNL A   1      45.479  24.775  36.483  1.00  0.00    -0.200 F 
ATOM     73  C   UNL A   1      46.883  26.468  35.626  1.00  0.00     0.200 A 
ATOM     74  F   UNL A   1      48.244  28.189  34.755  1.00  0.00    -0.200 F 
ATOM     75  F   UNL A   1      47.934  25.943  36.271  1.00  0.00    -0.200 F 
ENDBRANCH  51  65
BRANCH  52  76
ATOM     76  C   UNL A   1      36.896  31.236  29.192  1.00  0.00     0.064 A 
ATOM     77  C   UNL A   1      36.854  32.566  28.753  1.00  0.00     0.173 A 
ATOM     78  C   UNL A   1      35.794  30.419  28.902  1.00  0.00     0.173 A 
ATOM     79  F   UNL A   1      37.873  33.394  29.027  1.00  0.00    -0.203 F 
ATOM     80  C   UNL A   1      35.749  33.062  28.065  1.00  0.00     0.198 A 
ATOM     81  C   UNL A   1      34.704  30.907  28.186  1.00  0.00     0.198 A 
ATOM     82  F   UNL A   1      35.782  29.138  29.300  1.00  0.00    -0.203 F 
ATOM     83  F   UNL A   1      35.717  34.349  27.693  1.00  0.00    -0.200 F 
ATOM     84  C   UNL A   1      34.679  32.230  27.774  1.00  0.00     0.200 A 
ATOM     85  F   UNL A   1      33.679  30.094  27.894  1.00  0.00    -0.200 F 
ATOM     86  F   UNL A   1      33.621  32.704  27.102  1.00  0.00    -0.200 F 
ENDBRANCH  52  76
BRANCH  64  87
ATOM     87  C   UNL A   1      39.241  32.138  35.700  1.00  0.00     0.064 A 
ATOM     88  C   UNL A   1      38.408  31.578  36.679  1.00  0.00     0.173 A 
ATOM     89  C   UNL A   1      39.623  33.480  35.854  1.00  0.00     0.173 A 
ATOM     90  F   UNL A   1      37.999  30.305  36.572  1.00  0.00    -0.203 F 
ATOM     91  C   UNL A   1      37.953  32.340  37.754  1.00  0.00     0.198 A 
ATOM     92  C   UNL A   1      39.195  34.227  36.948  1.00  0.00     0.198 A 
ATOM     93  F   UNL A   1      40.424  34.064  34.950  1.00  0.00    -0.203 F 
ATOM     94  F   UNL A   1      37.114  31.799  38.648  1.00  0.00    -0.200 F 
ATOM     95  C   UNL A   1      38.355  33.659  37.892  1.00  0.00     0.200 A 
ATOM     96  F   UNL A   1      39.598  35.498  37.088  1.00  0.00    -0.200 F 
ATOM     97  F   UNL A   1      37.923  34.387  38.932  1.00  0.00    -0.200 F 
ENDBRANCH  64  87
ENDBRANCH  38  39
ENDBRANCH  31  33
ENDBRANCH  30  31
ENDBRANCH  29  30
ENDBRANCH  28  29
ENDBRANCH  27  28
ENDBRANCH   1  27
TORSDOF 18
ENDMDL
MODEL 3
REMARK VINA RESULT:     -11.2      3.403      9.045
REMARK SMILES NC(=O)c1ccsc1NS(=O)(=O)c1ccc(C(=O)OCCOCCOC(=O)c2ccc(-c3c4nc(c(-c5c(F)c(F)c(F)c(F)c5F)c5ccc([nH]5)c(-c5c(F)c(F)c(F)c(F)c5F)c5nc(c(-c6c(F)c(F)c(F)c(F)c6F)c6ccc3[nH]6)C=C5)C=C4)cc2)cc1
REMARK SMILES IDX 21 1 20 2 19 3 17 4 18 5 16 6 13 7 14 8 92 9 15 10 91 11
REMARK SMILES IDX 10 12 11 13 12 14 9 15 8 17 4 18 5 19 6 20 7 21 2 22 1 23
REMARK SMILES IDX 3 26 22 27 23 28 24 29 25 30 26 31 27 32 28 33 29 34 90 35
REMARK SMILES IDX 30 36 89 37 31 38 32 39 33 40 83 41 34 42 88 43 82 44 84 45
REMARK SMILES IDX 35 46 87 47 81 48 80 49 36 51 68 52 48 53 67 54 49 55 52 56
REMARK SMILES IDX 66 57 85 58 50 59 51 60 65 62 86 63 53 64 37 65 38 66 46 67
REMARK SMILES IDX 39 68 40 69 44 70 47 71 41 72 42 73 45 74 43 75 69 76 70 77
REMARK SMILES IDX 78 78 71 79 72 80 76 81 79 82 73 83 74 84 77 85 75 86 54 87
REMARK SMILES IDX 55 88 63 89 56 90 57 91 61 92 64 93 58 94 59 95 62 96 60 97
REMARK H PARENT 9 16 1 24 1 25 84 50 52 61
REMARK Flexibility Score: inf
ROOT
ATOM      1  C   UNL A   1      32.156  29.393  27.113  1.00  0.00     0.202 C 
ENDROOT
BRANCH   1   2
ATOM      2  C   UNL A   1      33.441  28.560  27.120  1.00  0.00     0.261 C 
BRANCH   2   3
ATOM      3  O   UNL A   1      34.040  28.494  25.820  1.00  0.00    -0.460 OA
BRANCH   3   4
ATOM      4  C   UNL A   1      33.260  27.887  24.895  1.00  0.00     0.338 C 
ATOM      5  O   UNL A   1      32.732  28.407  23.926  1.00  0.00    -0.246 OA
BRANCH   4   6
ATOM      6  C   UNL A   1      33.232  26.426  25.116  1.00  0.00     0.060 A 
ATOM      7  C   UNL A   1      33.141  23.840  26.075  1.00  0.00     0.087 A 
ATOM      8  C   UNL A   1      31.956  24.581  26.010  1.00  0.00     0.023 A 
ATOM      9  C   UNL A   1      34.325  24.304  25.486  1.00  0.00     0.023 A 
ATOM     10  C   UNL A   1      32.010  25.887  25.545  1.00  0.00     0.017 A 
ATOM     11  C   UNL A   1      34.370  25.616  25.005  1.00  0.00     0.017 A 
BRANCH   7  12
ATOM     12  S   UNL A   1      33.148  22.369  27.057  1.00  0.00     0.262 S 
ATOM     13  O   UNL A   1      32.277  22.623  28.186  1.00  0.00    -0.201 OA
ATOM     14  O   UNL A   1      34.533  22.004  27.279  1.00  0.00    -0.201 OA
BRANCH  12  15
ATOM     15  N   UNL A   1      32.447  21.126  26.187  1.00  0.00    -0.270 N 
ATOM     16  H   UNL A   1      32.003  20.441  26.737  1.00  0.00     0.181 HD
BRANCH  15  17
ATOM     17  C   UNL A   1      32.385  20.890  24.775  1.00  0.00     0.115 A 
ATOM     18  C   UNL A   1      32.589  19.613  24.259  1.00  0.00     0.074 A 
ATOM     19  C   UNL A   1      32.319  19.561  22.843  1.00  0.00     0.028 A 
ATOM     20  C   UNL A   1      32.015  20.794  22.322  1.00  0.00     0.068 A 
ATOM     21  S   UNL A   1      32.146  21.995  23.508  1.00  0.00    -0.125 S 
BRANCH  18  22
ATOM     22  C   UNL A   1      33.018  18.485  25.070  1.00  0.00     0.251 C 
ATOM     23  N   UNL A   1      34.286  18.050  24.824  1.00  0.00    -0.366 N 
ATOM     24  H   UNL A   1      34.653  17.290  25.330  1.00  0.00     0.159 HD
ATOM     25  H   UNL A   1      34.835  18.496  24.139  1.00  0.00     0.159 HD
ATOM     26  O   UNL A   1      32.328  17.993  25.960  1.00  0.00    -0.269 OA
ENDBRANCH  18  22
ENDBRANCH  15  17
ENDBRANCH  12  15
ENDBRANCH   7  12
ENDBRANCH   4   6
ENDBRANCH   3   4
ENDBRANCH   2   3
ENDBRANCH   1   2
BRANCH   1  27
ATOM     27  O   UNL A   1      32.204  30.716  26.588  1.00  0.00    -0.374 OA
BRANCH  27  28
ATOM     28  C   UNL A   1      32.937  31.711  27.300  1.00  0.00     0.202 C 
BRANCH  28  29
ATOM     29  C   UNL A   1      32.245  33.033  27.657  1.00  0.00     0.261 C 
BRANCH  29  30
ATOM     30  O   UNL A   1      33.076  34.189  27.470  1.00  0.00    -0.460 OA
BRANCH  30  31
ATOM     31  C   UNL A   1      33.191  34.979  28.568  1.00  0.00     0.338 C 
ATOM     32  O   UNL A   1      32.420  35.844  28.946  1.00  0.00    -0.246 OA
BRANCH  31  33
ATOM     33  C   UNL A   1      34.325  34.521  29.389  1.00  0.00     0.060 A 
ATOM     34  C   UNL A   1      35.604  34.564  28.818  1.00  0.00     0.016 A 
ATOM     35  C   UNL A   1      34.132  33.993  30.665  1.00  0.00     0.016 A 
ATOM     36  C   UNL A   1      36.696  34.056  29.517  1.00  0.00     0.010 A 
ATOM     37  C   UNL A   1      35.227  33.473  31.360  1.00  0.00     0.010 A 
ATOM     38  C   UNL A   1      36.510  33.482  30.781  1.00  0.00    -0.014 A 
BRANCH  38  39
ATOM     39  C   UNL A   1      37.641  32.809  31.462  1.00  0.00     0.031 A 
ATOM     40  C   UNL A   1      38.299  31.627  30.809  1.00  0.00     0.074 A 
ATOM     41  C   UNL A   1      38.076  33.255  32.652  1.00  0.00     0.049 A 
ATOM     42  N   UNL A   1      39.253  30.853  31.260  1.00  0.00    -0.248 NA
ATOM     43  C   UNL A   1      37.812  31.267  29.469  1.00  0.00     0.031 C 
ATOM     44  C   UNL A   1      37.544  34.416  33.362  1.00  0.00     0.029 A 
ATOM     45  N   UNL A   1      39.060  32.774  33.479  1.00  0.00    -0.354 N 
ATOM     46  C   UNL A   1      39.475  29.910  30.266  1.00  0.00     0.074 A 
ATOM     47  C   UNL A   1      38.533  30.188  29.202  1.00  0.00     0.031 C 
ATOM     48  C   UNL A   1      38.201  34.552  34.526  1.00  0.00     0.029 A 
ATOM     49  C   UNL A   1      39.167  33.465  34.660  1.00  0.00     0.049 A 
ATOM     50  H   UNL A   1      39.634  32.007  33.247  1.00  0.00     0.167 HD
ATOM     51  C   UNL A   1      40.387  28.907  30.243  1.00  0.00     0.037 A 
ATOM     52  C   UNL A   1      39.937  33.225  35.739  1.00  0.00     0.037 A 
ATOM     53  C   UNL A   1      41.316  28.634  31.310  1.00  0.00     0.049 A 
ATOM     54  C   UNL A   1      40.877  32.049  35.728  1.00  0.00     0.074 A 
ATOM     55  C   UNL A   1      42.300  27.664  31.371  1.00  0.00     0.029 A 
ATOM     56  N   UNL A   1      41.363  29.325  32.513  1.00  0.00    -0.354 N 
ATOM     57  N   UNL A   1      41.109  31.181  34.773  1.00  0.00    -0.248 NA
ATOM     58  C   UNL A   1      41.661  31.817  36.949  1.00  0.00     0.031 C 
ATOM     59  C   UNL A   1      42.895  27.721  32.636  1.00  0.00     0.029 A 
ATOM     60  C   UNL A   1      42.329  28.772  33.340  1.00  0.00     0.049 A 
ATOM     61  H   UNL A   1      40.795  30.094  32.745  1.00  0.00     0.167 HD
ATOM     62  C   UNL A   1      42.076  30.316  35.266  1.00  0.00     0.074 A 
ATOM     63  C   UNL A   1      42.404  30.776  36.599  1.00  0.00     0.031 C 
ATOM     64  C   UNL A   1      42.640  29.235  34.670  1.00  0.00     0.037 A 
BRANCH  51  65
ATOM     65  C   UNL A   1      40.397  28.007  29.039  1.00  0.00     0.064 A 
ATOM     66  C   UNL A   1      41.153  28.304  27.896  1.00  0.00     0.173 A 
ATOM     67  C   UNL A   1      39.653  26.816  29.040  1.00  0.00     0.173 A 
ATOM     68  F   UNL A   1      41.874  29.434  27.836  1.00  0.00    -0.203 F 
ATOM     69  C   UNL A   1      41.136  27.463  26.784  1.00  0.00     0.198 A 
ATOM     70  C   UNL A   1      39.666  25.960  27.941  1.00  0.00     0.198 A 
ATOM     71  F   UNL A   1      38.918  26.478  30.109  1.00  0.00    -0.203 F 
ATOM     72  F   UNL A   1      41.819  27.798  25.682  1.00  0.00    -0.200 F 
ATOM     73  C   UNL A   1      40.398  26.289  26.811  1.00  0.00     0.200 A 
ATOM     74  F   UNL A   1      38.965  24.818  27.976  1.00  0.00    -0.200 F 
ATOM     75  F   UNL A   1      40.386  25.479  25.744  1.00  0.00    -0.200 F 
ENDBRANCH  51  65
BRANCH  52  76
ATOM     76  C   UNL A   1      39.837  34.113  36.928  1.00  0.00     0.064 A 
ATOM     77  C   UNL A   1      39.003  33.785  38.004  1.00  0.00     0.173 A 
ATOM     78  C   UNL A   1      40.574  35.303  37.012  1.00  0.00     0.173 A 
ATOM     79  F   UNL A   1      38.259  32.670  37.961  1.00  0.00    -0.203 F 
ATOM     80  C   UNL A   1      38.899  34.621  39.114  1.00  0.00     0.198 A 
ATOM     81  C   UNL A   1      40.494  36.122  38.136  1.00  0.00     0.198 A 
ATOM     82  F   UNL A   1      41.387  35.664  36.008  1.00  0.00    -0.203 F 
ATOM     83  F   UNL A   1      38.063  34.305  40.112  1.00  0.00    -0.200 F 
ATOM     84  C   UNL A   1      39.652  35.783  39.183  1.00  0.00     0.200 A 
ATOM     85  F   UNL A   1      41.235  37.236  38.204  1.00  0.00    -0.200 F 
ATOM     86  F   UNL A   1      39.561  36.582  40.256  1.00  0.00    -0.200 F 
ENDBRANCH  52  76
BRANCH  64  87
ATOM     87  C   UNL A   1      43.682  28.482  35.451  1.00  0.00     0.064 A 
ATOM     88  C   UNL A   1      43.335  27.455  36.341  1.00  0.00     0.173 A 
ATOM     89  C   UNL A   1      45.046  28.766  35.278  1.00  0.00     0.173 A 
ATOM     90  F   UNL A   1      42.046  27.153  36.556  1.00  0.00    -0.203 F 
ATOM     91  C   UNL A   1      44.314  26.760  37.049  1.00  0.00     0.198 A 
ATOM     92  C   UNL A   1      46.022  28.046  35.961  1.00  0.00     0.198 A 
ATOM     93  F   UNL A   1      45.434  29.735  34.434  1.00  0.00    -0.203 F 
ATOM     94  F   UNL A   1      43.956  25.820  37.934  1.00  0.00    -0.200 F 
ATOM     95  C   UNL A   1      45.655  27.050  36.852  1.00  0.00     0.200 A 
ATOM     96  F   UNL A   1      47.318  28.317  35.757  1.00  0.00    -0.200 F 
ATOM     97  F   UNL A   1      46.594  26.374  37.528  1.00  0.00    -0.200 F 
ENDBRANCH  64  87
ENDBRANCH  38  39
ENDBRANCH  31  33
ENDBRANCH  30  31
ENDBRANCH  29  30
ENDBRANCH  28  29
ENDBRANCH  27  28
ENDBRANCH   1  27
TORSDOF 18
ENDMDL
