MODEL 1
REMARK VINA RESULT:     -11.3      0.000      0.000
REMARK SMILES C[C@H]1CC=C(C2=NN=C(C(=O)OCCOCCOC(=O)c3ccc(-c4c5nc(c(-c6c(F)c(F)c(F)c(F)c6F)c6ccc([nH]6)c(-c6c(F)c(F)c(F)c(F)c6F)c6nc(c(-c7c(F)c(F)c(F)c(F)c7F)c7ccc4[nH]7)C=C6)C=C5)cc3)C2)O1
REMARK SMILES IDX 16 1 15 2 14 3 13 4 12 5 10 6 11 7 9 8 6 9 7 10 84 11 8 12
REMARK SMILES IDX 5 13 1 14 2 15 3 16 85 17 4 18 17 19 18 20 19 21 20 22 21 23
REMARK SMILES IDX 22 24 83 25 23 26 82 27 24 28 25 29 26 30 76 31 27 32 81 33
REMARK SMILES IDX 75 34 77 35 28 36 80 37 74 38 73 39 29 41 61 42 41 43 60 44
REMARK SMILES IDX 42 45 45 46 59 47 78 48 43 49 44 50 58 52 79 53 46 54 30 55
REMARK SMILES IDX 31 56 39 57 32 58 33 59 37 60 40 61 34 62 35 63 38 64 36 65
REMARK SMILES IDX 62 66 63 67 71 68 64 69 65 70 69 71 72 72 66 73 67 74 70 75
REMARK SMILES IDX 68 76 47 77 48 78 56 79 49 80 50 81 54 82 57 83 51 84 52 85
REMARK SMILES IDX 55 86 53 87
REMARK H PARENT 77 40 45 51
REMARK Flexibility Score: inf
ROOT
ATOM      1  C   UNL A   1      42.522  19.224  26.966  1.00  0.00     0.202 C 
ENDROOT
BRANCH   1   2
ATOM      2  O   UNL A   1      42.073  20.573  26.967  1.00  0.00    -0.374 OA
BRANCH   2   3
ATOM      3  C   UNL A   1      40.679  20.859  27.068  1.00  0.00     0.202 C 
BRANCH   3   4
ATOM      4  C   UNL A   1      40.052  21.736  25.983  1.00  0.00     0.261 C 
BRANCH   4   5
ATOM      5  O   UNL A   1      38.646  21.937  26.191  1.00  0.00    -0.459 OA
BRANCH   5   6
ATOM      6  C   UNL A   1      37.853  21.238  25.363  1.00  0.00     0.355 C 
ATOM      7  O   UNL A   1      38.073  20.159  24.832  1.00  0.00    -0.245 OA
BRANCH   6   8
ATOM      8  C   UNL A   1      36.489  21.838  25.268  1.00  0.00     0.154 C 
ATOM      9  C   UNL A   1      34.865  23.225  24.663  1.00  0.00     0.111 C 
ATOM     10  N   UNL A   1      34.499  22.628  25.758  1.00  0.00    -0.151 NA
ATOM     11  C   UNL A   1      36.150  22.708  24.115  1.00  0.00     0.128 C 
ATOM     12  N   UNL A   1      35.542  21.720  26.146  1.00  0.00    -0.147 NA
BRANCH   9  13
ATOM     13  C   UNL A   1      34.214  24.375  24.024  1.00  0.00     0.139 C 
ATOM     14  C   UNL A   1      32.615  26.068  21.441  1.00  0.00     0.053 C 
ATOM     15  C   UNL A   1      33.754  25.848  22.425  1.00  0.00     0.174 C 
ATOM     16  C   UNL A   1      33.487  26.520  23.777  1.00  0.00     0.076 C 
ATOM     17  O   UNL A   1      33.969  24.433  22.658  1.00  0.00    -0.489 OA
ATOM     18  C   UNL A   1      33.995  25.493  24.708  1.00  0.00     0.025 C 
ENDBRANCH   9  13
ENDBRANCH   6   8
ENDBRANCH   5   6
ENDBRANCH   4   5
ENDBRANCH   3   4
ENDBRANCH   2   3
ENDBRANCH   1   2
BRANCH   1  19
ATOM     19  C   UNL A   1      43.278  18.709  25.752  1.00  0.00     0.261 C 
BRANCH  19  20
ATOM     20  O   UNL A   1      43.329  19.656  24.697  1.00  0.00    -0.460 OA
BRANCH  20  21
ATOM     21  C   UNL A   1      44.577  20.058  24.391  1.00  0.00     0.338 C 
ATOM     22  O   UNL A   1      45.516  19.352  24.019  1.00  0.00    -0.246 OA
BRANCH  21  23
ATOM     23  C   UNL A   1      44.726  21.458  24.768  1.00  0.00     0.060 A 
ATOM     24  C   UNL A   1      45.658  21.744  25.768  1.00  0.00     0.016 A 
ATOM     25  C   UNL A   1      43.759  22.391  24.358  1.00  0.00     0.016 A 
ATOM     26  C   UNL A   1      45.497  22.898  26.497  1.00  0.00     0.010 A 
ATOM     27  C   UNL A   1      43.584  23.529  25.102  1.00  0.00     0.010 A 
ATOM     28  C   UNL A   1      44.411  23.731  26.204  1.00  0.00    -0.014 A 
BRANCH  28  29
ATOM     29  C   UNL A   1      44.268  24.948  26.971  1.00  0.00     0.031 A 
ATOM     30  C   UNL A   1      45.380  25.876  26.689  1.00  0.00     0.074 A 
ATOM     31  C   UNL A   1      43.183  25.206  27.726  1.00  0.00     0.049 A 
ATOM     32  N   UNL A   1      46.344  26.200  27.483  1.00  0.00    -0.248 NA
ATOM     33  C   UNL A   1      45.576  26.328  25.299  1.00  0.00     0.031 C 
ATOM     34  C   UNL A   1      41.945  24.420  27.770  1.00  0.00     0.029 A 
ATOM     35  N   UNL A   1      42.898  26.278  28.525  1.00  0.00    -0.354 N 
ATOM     36  C   UNL A   1      47.085  27.140  26.775  1.00  0.00     0.074 A 
ATOM     37  C   UNL A   1      46.742  26.970  25.393  1.00  0.00     0.031 C 
ATOM     38  C   UNL A   1      40.971  25.153  28.354  1.00  0.00     0.029 A 
ATOM     39  C   UNL A   1      41.548  26.392  28.845  1.00  0.00     0.049 A 
ATOM     40  H   UNL A   1      43.584  26.909  28.843  1.00  0.00     0.167 HD
ATOM     41  C   UNL A   1      47.535  28.241  27.436  1.00  0.00     0.037 A 
ATOM     42  C   UNL A   1      40.944  27.461  29.423  1.00  0.00     0.037 A 
ATOM     43  C   UNL A   1      47.543  27.997  28.859  1.00  0.00     0.049 A 
ATOM     44  C   UNL A   1      41.990  28.264  30.096  1.00  0.00     0.074 A 
ATOM     45  C   UNL A   1      48.317  27.309  29.766  1.00  0.00     0.029 A 
ATOM     46  N   UNL A   1      46.330  28.222  29.451  1.00  0.00    -0.354 N 
ATOM     47  N   UNL A   1      42.632  27.858  31.156  1.00  0.00    -0.248 NA
ATOM     48  C   UNL A   1      42.599  29.386  29.386  1.00  0.00     0.031 C 
ATOM     49  C   UNL A   1      47.501  27.100  30.921  1.00  0.00     0.029 A 
ATOM     50  C   UNL A   1      46.262  27.698  30.709  1.00  0.00     0.049 A 
ATOM     51  H   UNL A   1      45.591  28.708  29.019  1.00  0.00     0.167 HD
ATOM     52  C   UNL A   1      43.903  28.365  30.992  1.00  0.00     0.074 A 
ATOM     53  C   UNL A   1      43.781  29.429  30.005  1.00  0.00     0.031 C 
ATOM     54  C   UNL A   1      44.991  27.643  31.386  1.00  0.00     0.037 A 
BRANCH  41  55
ATOM     55  C   UNL A   1      47.370  29.664  26.919  1.00  0.00     0.064 A 
ATOM     56  C   UNL A   1      48.451  30.556  27.092  1.00  0.00     0.173 A 
ATOM     57  C   UNL A   1      46.136  30.277  26.599  1.00  0.00     0.173 A 
ATOM     58  F   UNL A   1      49.673  30.094  27.396  1.00  0.00    -0.203 F 
ATOM     59  C   UNL A   1      48.282  31.943  27.056  1.00  0.00     0.198 A 
ATOM     60  C   UNL A   1      45.982  31.661  26.525  1.00  0.00     0.198 A 
ATOM     61  F   UNL A   1      44.999  29.593  26.447  1.00  0.00    -0.203 F 
ATOM     62  F   UNL A   1      49.312  32.745  27.355  1.00  0.00    -0.200 F 
ATOM     63  C   UNL A   1      47.044  32.494  26.787  1.00  0.00     0.200 A 
ATOM     64  F   UNL A   1      44.766  32.173  26.281  1.00  0.00    -0.200 F 
ATOM     65  F   UNL A   1      46.863  33.821  26.822  1.00  0.00    -0.200 F 
ENDBRANCH  41  55
BRANCH  42  66
ATOM     66  C   UNL A   1      39.563  27.965  29.248  1.00  0.00     0.064 A 
ATOM     67  C   UNL A   1      38.690  28.095  30.340  1.00  0.00     0.173 A 
ATOM     68  C   UNL A   1      39.169  28.596  28.052  1.00  0.00     0.173 A 
ATOM     69  F   UNL A   1      39.010  27.560  31.527  1.00  0.00    -0.203 F 
ATOM     70  C   UNL A   1      37.507  28.837  30.250  1.00  0.00     0.198 A 
ATOM     71  C   UNL A   1      37.987  29.332  27.962  1.00  0.00     0.198 A 
ATOM     72  F   UNL A   1      39.972  28.590  26.978  1.00  0.00    -0.203 F 
ATOM     73  F   UNL A   1      36.730  28.991  31.332  1.00  0.00    -0.200 F 
ATOM     74  C   UNL A   1      37.164  29.466  29.064  1.00  0.00     0.200 A 
ATOM     75  F   UNL A   1      37.684  29.965  26.820  1.00  0.00    -0.200 F 
ATOM     76  F   UNL A   1      36.065  30.230  28.997  1.00  0.00    -0.200 F 
ENDBRANCH  42  66
BRANCH  54  77
ATOM     77  C   UNL A   1      44.802  26.651  32.483  1.00  0.00     0.064 A 
ATOM     78  C   UNL A   1      44.775  26.966  33.850  1.00  0.00     0.173 A 
ATOM     79  C   UNL A   1      44.579  25.318  32.114  1.00  0.00     0.173 A 
ATOM     80  F   UNL A   1      44.912  28.233  34.268  1.00  0.00    -0.203 F 
ATOM     81  C   UNL A   1      44.566  25.973  34.806  1.00  0.00     0.198 A 
ATOM     82  C   UNL A   1      44.336  24.337  33.066  1.00  0.00     0.198 A 
ATOM     83  F   UNL A   1      44.564  24.975  30.816  1.00  0.00    -0.203 F 
ATOM     84  F   UNL A   1      44.561  26.285  36.110  1.00  0.00    -0.200 F 
ATOM     85  C   UNL A   1      44.340  24.662  34.412  1.00  0.00     0.200 A 
ATOM     86  F   UNL A   1      44.080  23.081  32.676  1.00  0.00    -0.200 F 
ATOM     87  F   UNL A   1      44.108  23.713  35.329  1.00  0.00    -0.200 F 
ENDBRANCH  54  77
ENDBRANCH  28  29
ENDBRANCH  21  23
ENDBRANCH  20  21
ENDBRANCH  19  20
ENDBRANCH   1  19
TORSDOF 15
ENDMDL
MODEL 2
REMARK VINA RESULT:     -11.3      3.223      6.209
REMARK SMILES C[C@H]1CC=C(C2=NN=C(C(=O)OCCOCCOC(=O)c3ccc(-c4c5nc(c(-c6c(F)c(F)c(F)c(F)c6F)c6ccc([nH]6)c(-c6c(F)c(F)c(F)c(F)c6F)c6nc(c(-c7c(F)c(F)c(F)c(F)c7F)c7ccc4[nH]7)C=C6)C=C5)cc3)C2)O1
REMARK SMILES IDX 16 1 15 2 14 3 13 4 12 5 10 6 11 7 9 8 6 9 7 10 84 11 8 12
REMARK SMILES IDX 5 13 1 14 2 15 3 16 85 17 4 18 17 19 18 20 19 21 20 22 21 23
REMARK SMILES IDX 22 24 83 25 23 26 82 27 24 28 25 29 26 30 76 31 27 32 81 33
REMARK SMILES IDX 75 34 77 35 28 36 80 37 74 38 73 39 29 41 61 42 41 43 60 44
REMARK SMILES IDX 42 45 45 46 59 47 78 48 43 49 44 50 58 52 79 53 46 54 30 55
REMARK SMILES IDX 31 56 39 57 32 58 33 59 37 60 40 61 34 62 35 63 38 64 36 65
REMARK SMILES IDX 62 66 63 67 71 68 64 69 65 70 69 71 72 72 66 73 67 74 70 75
REMARK SMILES IDX 68 76 47 77 48 78 56 79 49 80 50 81 54 82 57 83 51 84 52 85
REMARK SMILES IDX 55 86 53 87
REMARK H PARENT 77 40 45 51
REMARK Flexibility Score: inf
ROOT
ATOM      1  C   UNL A   1      42.657  18.894  25.945  1.00  0.00     0.202 C 
ENDROOT
BRANCH   1   2
ATOM      2  O   UNL A   1      43.234  19.228  24.689  1.00  0.00    -0.374 OA
BRANCH   2   3
ATOM      3  C   UNL A   1      44.652  19.200  24.528  1.00  0.00     0.202 C 
BRANCH   3   4
ATOM      4  C   UNL A   1      45.431  20.472  24.862  1.00  0.00     0.261 C 
BRANCH   4   5
ATOM      5  O   UNL A   1      45.067  21.572  24.014  1.00  0.00    -0.459 OA
BRANCH   5   6
ATOM      6  C   UNL A   1      44.305  22.506  24.606  1.00  0.00     0.355 C 
ATOM      7  O   UNL A   1      43.113  22.724  24.447  1.00  0.00    -0.245 OA
BRANCH   6   8
ATOM      8  C   UNL A   1      45.041  23.206  25.700  1.00  0.00     0.154 C 
ATOM      9  C   UNL A   1      46.627  24.372  26.724  1.00  0.00     0.111 C 
ATOM     10  N   UNL A   1      45.971  23.705  27.625  1.00  0.00    -0.151 NA
ATOM     11  C   UNL A   1      46.041  24.248  25.360  1.00  0.00     0.128 C 
ATOM     12  N   UNL A   1      44.935  22.958  26.968  1.00  0.00    -0.147 NA
BRANCH   9  13
ATOM     13  C   UNL A   1      47.889  25.100  26.907  1.00  0.00     0.139 C 
ATOM     14  C   UNL A   1      51.333  25.413  27.274  1.00  0.00     0.053 C 
ATOM     15  C   UNL A   1      49.895  25.555  27.748  1.00  0.00     0.174 C 
ATOM     16  C   UNL A   1      49.265  26.876  27.290  1.00  0.00     0.076 C 
ATOM     17  O   UNL A   1      49.077  24.467  27.251  1.00  0.00    -0.489 OA
ATOM     18  C   UNL A   1      47.905  26.429  26.928  1.00  0.00     0.025 C 
ENDBRANCH   9  13
ENDBRANCH   6   8
ENDBRANCH   5   6
ENDBRANCH   4   5
ENDBRANCH   3   4
ENDBRANCH   2   3
ENDBRANCH   1   2
BRANCH   1  19
ATOM     19  C   UNL A   1      41.339  19.541  26.335  1.00  0.00     0.261 C 
BRANCH  19  20
ATOM     20  O   UNL A   1      41.464  20.933  26.579  1.00  0.00    -0.460 OA
BRANCH  20  21
ATOM     21  C   UNL A   1      40.294  21.599  26.522  1.00  0.00     0.338 C 
ATOM     22  O   UNL A   1      39.359  21.396  25.747  1.00  0.00    -0.246 OA
BRANCH  21  23
ATOM     23  C   UNL A   1      40.372  22.761  27.398  1.00  0.00     0.060 A 
ATOM     24  C   UNL A   1      39.423  23.765  27.196  1.00  0.00     0.016 A 
ATOM     25  C   UNL A   1      41.527  22.969  28.170  1.00  0.00     0.016 A 
ATOM     26  C   UNL A   1      39.727  25.041  27.607  1.00  0.00     0.010 A 
ATOM     27  C   UNL A   1      41.841  24.246  28.557  1.00  0.00     0.010 A 
ATOM     28  C   UNL A   1      40.970  25.274  28.207  1.00  0.00    -0.014 A 
BRANCH  28  29
ATOM     29  C   UNL A   1      41.264  26.619  28.647  1.00  0.00     0.031 A 
ATOM     30  C   UNL A   1      42.543  27.087  28.077  1.00  0.00     0.074 A 
ATOM     31  C   UNL A   1      40.396  27.352  29.371  1.00  0.00     0.049 A 
ATOM     32  N   UNL A   1      43.651  27.282  28.707  1.00  0.00    -0.248 NA
ATOM     33  C   UNL A   1      42.676  27.133  26.609  1.00  0.00     0.031 C 
ATOM     34  C   UNL A   1      39.007  27.001  29.683  1.00  0.00     0.029 A 
ATOM     35  N   UNL A   1      40.521  28.612  29.886  1.00  0.00    -0.354 N 
ATOM     36  C   UNL A   1      44.525  27.774  27.743  1.00  0.00     0.074 A 
ATOM     37  C   UNL A   1      43.976  27.403  26.471  1.00  0.00     0.031 C 
ATOM     38  C   UNL A   1      38.354  28.102  30.115  1.00  0.00     0.029 A 
ATOM     39  C   UNL A   1      39.305  29.191  30.242  1.00  0.00     0.049 A 
ATOM     40  H   UNL A   1      41.388  29.067  29.995  1.00  0.00     0.167 HD
ATOM     41  C   UNL A   1      45.339  28.811  28.077  1.00  0.00     0.037 A 
ATOM     42  C   UNL A   1      39.096  30.493  30.563  1.00  0.00     0.037 A 
ATOM     43  C   UNL A   1      45.461  28.905  29.511  1.00  0.00     0.049 A 
ATOM     44  C   UNL A   1      40.399  31.081  30.950  1.00  0.00     0.074 A 
ATOM     45  C   UNL A   1      46.127  28.243  30.519  1.00  0.00     0.029 A 
ATOM     46  N   UNL A   1      44.442  29.608  30.094  1.00  0.00    -0.354 N 
ATOM     47  N   UNL A   1      41.034  30.754  32.041  1.00  0.00    -0.248 NA
ATOM     48  C   UNL A   1      41.196  31.779  29.945  1.00  0.00     0.031 C 
ATOM     49  C   UNL A   1      45.438  28.553  31.733  1.00  0.00     0.029 A 
ATOM     50  C   UNL A   1      44.394  29.427  31.446  1.00  0.00     0.049 A 
ATOM     51  H   UNL A   1      43.816  30.179  29.595  1.00  0.00     0.167 HD
ATOM     52  C   UNL A   1      42.364  30.810  31.683  1.00  0.00     0.074 A 
ATOM     53  C   UNL A   1      42.413  31.609  30.466  1.00  0.00     0.031 C 
ATOM     54  C   UNL A   1      43.254  29.907  32.185  1.00  0.00     0.037 A 
BRANCH  41  55
ATOM     55  C   UNL A   1      45.506  30.063  27.225  1.00  0.00     0.064 A 
ATOM     56  C   UNL A   1      46.809  30.581  27.066  1.00  0.00     0.173 A 
ATOM     57  C   UNL A   1      44.463  30.949  26.866  1.00  0.00     0.173 A 
ATOM     58  F   UNL A   1      47.881  29.834  27.371  1.00  0.00    -0.203 F 
ATOM     59  C   UNL A   1      47.040  31.906  26.687  1.00  0.00     0.198 A 
ATOM     60  C   UNL A   1      44.701  32.258  26.451  1.00  0.00     0.198 A 
ATOM     61  F   UNL A   1      43.170  30.645  26.997  1.00  0.00    -0.203 F 
ATOM     62  F   UNL A   1      48.291  32.386  26.677  1.00  0.00    -0.200 F 
ATOM     63  C   UNL A   1      45.985  32.749  26.393  1.00  0.00     0.200 A 
ATOM     64  F   UNL A   1      43.659  33.062  26.189  1.00  0.00    -0.200 F 
ATOM     65  F   UNL A   1      46.198  34.037  26.099  1.00  0.00    -0.200 F 
ENDBRANCH  41  55
BRANCH  42  66
ATOM     66  C   UNL A   1      37.895  31.331  30.343  1.00  0.00     0.064 A 
ATOM     67  C   UNL A   1      37.319  31.460  29.069  1.00  0.00     0.173 A 
ATOM     68  C   UNL A   1      37.125  31.791  31.429  1.00  0.00     0.173 A 
ATOM     69  F   UNL A   1      37.968  31.009  27.987  1.00  0.00    -0.203 F 
ATOM     70  C   UNL A   1      36.036  31.991  28.894  1.00  0.00     0.198 A 
ATOM     71  C   UNL A   1      35.848  32.324  31.253  1.00  0.00     0.198 A 
ATOM     72  F   UNL A   1      37.561  31.642  32.689  1.00  0.00    -0.203 F 
ATOM     73  F   UNL A   1      35.493  32.039  27.669  1.00  0.00    -0.200 F 
ATOM     74  C   UNL A   1      35.297  32.410  29.989  1.00  0.00     0.200 A 
ATOM     75  F   UNL A   1      35.129  32.693  32.323  1.00  0.00    -0.200 F 
ATOM     76  F   UNL A   1      34.044  32.856  29.828  1.00  0.00    -0.200 F 
ENDBRANCH  42  66
BRANCH  54  77
ATOM     77  C   UNL A   1      42.942  29.291  33.507  1.00  0.00     0.064 A 
ATOM     78  C   UNL A   1      43.209  29.887  34.749  1.00  0.00     0.173 A 
ATOM     79  C   UNL A   1      42.283  28.054  33.502  1.00  0.00     0.173 A 
ATOM     80  F   UNL A   1      43.774  31.101  34.824  1.00  0.00    -0.203 F 
ATOM     81  C   UNL A   1      42.858  29.246  35.936  1.00  0.00     0.198 A 
ATOM     82  C   UNL A   1      41.902  27.436  34.684  1.00  0.00     0.198 A 
ATOM     83  F   UNL A   1      41.978  27.462  32.336  1.00  0.00    -0.203 F 
ATOM     84  F   UNL A   1      43.135  29.818  37.117  1.00  0.00    -0.200 F 
ATOM     85  C   UNL A   1      42.198  28.026  35.902  1.00  0.00     0.200 A 
ATOM     86  F   UNL A   1      41.232  26.276  34.642  1.00  0.00    -0.200 F 
ATOM     87  F   UNL A   1      41.832  27.425  37.043  1.00  0.00    -0.200 F 
ENDBRANCH  54  77
ENDBRANCH  28  29
ENDBRANCH  21  23
ENDBRANCH  20  21
ENDBRANCH  19  20
ENDBRANCH   1  19
TORSDOF 15
ENDMDL
MODEL 3
REMARK VINA RESULT:     -11.2      5.278     10.696
REMARK SMILES C[C@H]1CC=C(C2=NN=C(C(=O)OCCOCCOC(=O)c3ccc(-c4c5nc(c(-c6c(F)c(F)c(F)c(F)c6F)c6ccc([nH]6)c(-c6c(F)c(F)c(F)c(F)c6F)c6nc(c(-c7c(F)c(F)c(F)c(F)c7F)c7ccc4[nH]7)C=C6)C=C5)cc3)C2)O1
REMARK SMILES IDX 16 1 15 2 14 3 13 4 12 5 10 6 11 7 9 8 6 9 7 10 84 11 8 12
REMARK SMILES IDX 5 13 1 14 2 15 3 16 85 17 4 18 17 19 18 20 19 21 20 22 21 23
REMARK SMILES IDX 22 24 83 25 23 26 82 27 24 28 25 29 26 30 76 31 27 32 81 33
REMARK SMILES IDX 75 34 77 35 28 36 80 37 74 38 73 39 29 41 61 42 41 43 60 44
REMARK SMILES IDX 42 45 45 46 59 47 78 48 43 49 44 50 58 52 79 53 46 54 30 55
REMARK SMILES IDX 31 56 39 57 32 58 33 59 37 60 40 61 34 62 35 63 38 64 36 65
REMARK SMILES IDX 62 66 63 67 71 68 64 69 65 70 69 71 72 72 66 73 67 74 70 75
REMARK SMILES IDX 68 76 47 77 48 78 56 79 49 80 50 81 54 82 57 83 51 84 52 85
REMARK SMILES IDX 55 86 53 87
REMARK H PARENT 77 40 45 51
REMARK Flexibility Score: inf
ROOT
ATOM      1  C   UNL A   1      33.686  35.599  28.761  1.00  0.00     0.202 C 
ENDROOT
BRANCH   1   2
ATOM      2  O   UNL A   1      34.278  34.306  28.753  1.00  0.00    -0.374 OA
BRANCH   2   3
ATOM      3  C   UNL A   1      33.601  33.218  28.125  1.00  0.00     0.202 C 
BRANCH   3   4
ATOM      4  C   UNL A   1      34.348  31.889  28.004  1.00  0.00     0.261 C 
BRANCH   4   5
ATOM      5  O   UNL A   1      33.490  30.820  27.578  1.00  0.00    -0.459 OA
BRANCH   5   6
ATOM      6  C   UNL A   1      34.135  29.735  27.118  1.00  0.00     0.355 C 
ATOM      7  O   UNL A   1      35.023  29.093  27.660  1.00  0.00    -0.245 OA
BRANCH   6   8
ATOM      8  C   UNL A   1      33.515  29.216  25.863  1.00  0.00     0.154 C 
ATOM      9  C   UNL A   1      31.974  28.809  24.319  1.00  0.00     0.111 C 
ATOM     10  N   UNL A   1      32.917  27.925  24.191  1.00  0.00    -0.151 NA
ATOM     11  C   UNL A   1      32.284  29.853  25.337  1.00  0.00     0.128 C 
ATOM     12  N   UNL A   1      33.923  28.191  25.180  1.00  0.00    -0.147 NA
BRANCH   9  13
ATOM     13  C   UNL A   1      30.659  28.800  23.667  1.00  0.00     0.139 C 
ATOM     14  C   UNL A   1      28.079  30.112  21.739  1.00  0.00     0.053 C 
ATOM     15  C   UNL A   1      28.676  29.575  23.031  1.00  0.00     0.174 C 
ATOM     16  C   UNL A   1      28.579  28.048  23.120  1.00  0.00     0.076 C 
ATOM     17  O   UNL A   1      30.072  29.948  23.149  1.00  0.00    -0.489 OA
ATOM     18  C   UNL A   1      29.892  27.715  23.706  1.00  0.00     0.025 C 
ENDBRANCH   9  13
ENDBRANCH   6   8
ENDBRANCH   5   6
ENDBRANCH   4   5
ENDBRANCH   3   4
ENDBRANCH   2   3
ENDBRANCH   1   2
BRANCH   1  19
ATOM     19  C   UNL A   1      32.926  36.042  30.001  1.00  0.00     0.261 C 
BRANCH  19  20
ATOM     20  O   UNL A   1      32.782  35.004  30.955  1.00  0.00    -0.460 OA
BRANCH  20  21
ATOM     21  C   UNL A   1      33.202  35.341  32.190  1.00  0.00     0.338 C 
ATOM     22  O   UNL A   1      32.811  36.286  32.876  1.00  0.00    -0.246 OA
BRANCH  21  23
ATOM     23  C   UNL A   1      34.365  34.531  32.529  1.00  0.00     0.060 A 
ATOM     24  C   UNL A   1      35.548  35.216  32.814  1.00  0.00     0.016 A 
ATOM     25  C   UNL A   1      34.345  33.151  32.268  1.00  0.00     0.016 A 
ATOM     26  C   UNL A   1      36.740  34.555  32.646  1.00  0.00     0.010 A 
ATOM     27  C   UNL A   1      35.536  32.498  32.076  1.00  0.00     0.010 A 
ATOM     28  C   UNL A   1      36.715  33.228  32.199  1.00  0.00    -0.014 A 
BRANCH  28  29
ATOM     29  C   UNL A   1      37.979  32.545  32.043  1.00  0.00     0.031 A 
ATOM     30  C   UNL A   1      38.672  32.425  33.341  1.00  0.00     0.074 A 
ATOM     31  C   UNL A   1      38.368  31.995  30.876  1.00  0.00     0.049 A 
ATOM     32  N   UNL A   1      39.738  33.046  33.714  1.00  0.00    -0.248 NA
ATOM     33  C   UNL A   1      37.987  31.707  34.432  1.00  0.00     0.031 C 
ATOM     34  C   UNL A   1      37.552  31.851  29.666  1.00  0.00     0.029 A 
ATOM     35  N   UNL A   1      39.525  31.344  30.549  1.00  0.00    -0.354 N 
ATOM     36  C   UNL A   1      40.014  32.545  34.982  1.00  0.00     0.074 A 
ATOM     37  C   UNL A   1      38.795  31.964  35.463  1.00  0.00     0.031 C 
ATOM     38  C   UNL A   1      38.138  30.962  28.834  1.00  0.00     0.029 A 
ATOM     39  C   UNL A   1      39.427  30.585  29.386  1.00  0.00     0.049 A 
ATOM     40  H   UNL A   1      40.348  31.407  31.086  1.00  0.00     0.167 HD
ATOM     41  C   UNL A   1      41.306  32.255  35.296  1.00  0.00     0.037 A 
ATOM     42  C   UNL A   1      40.326  29.669  28.944  1.00  0.00     0.037 A 
ATOM     43  C   UNL A   1      42.202  32.954  34.406  1.00  0.00     0.049 A 
ATOM     44  C   UNL A   1      41.621  29.948  29.604  1.00  0.00     0.074 A 
ATOM     45  C   UNL A   1      42.677  34.236  34.246  1.00  0.00     0.029 A 
ATOM     46  N   UNL A   1      42.413  32.295  33.226  1.00  0.00    -0.354 N 
ATOM     47  N   UNL A   1      42.341  31.005  29.347  1.00  0.00    -0.248 NA
ATOM     48  C   UNL A   1      41.968  29.237  30.832  1.00  0.00     0.031 C 
ATOM     49  C   UNL A   1      43.153  34.328  32.901  1.00  0.00     0.029 A 
ATOM     50  C   UNL A   1      42.994  33.092  32.284  1.00  0.00     0.049 A 
ATOM     51  H   UNL A   1      42.174  31.352  33.075  1.00  0.00     0.167 HD
ATOM     52  C   UNL A   1      42.909  31.326  30.561  1.00  0.00     0.074 A 
ATOM     53  C   UNL A   1      42.800  30.127  31.380  1.00  0.00     0.031 C 
ATOM     54  C   UNL A   1      43.080  32.630  30.920  1.00  0.00     0.037 A 
BRANCH  41  55
ATOM     55  C   UNL A   1      41.748  30.942  35.928  1.00  0.00     0.064 A 
ATOM     56  C   UNL A   1      42.788  30.988  36.882  1.00  0.00     0.173 A 
ATOM     57  C   UNL A   1      41.469  29.654  35.413  1.00  0.00     0.173 A 
ATOM     58  F   UNL A   1      43.144  32.153  37.445  1.00  0.00    -0.203 F 
ATOM     59  C   UNL A   1      43.550  29.863  37.205  1.00  0.00     0.198 A 
ATOM     60  C   UNL A   1      42.207  28.527  35.768  1.00  0.00     0.198 A 
ATOM     61  F   UNL A   1      40.551  29.430  34.469  1.00  0.00    -0.203 F 
ATOM     62  F   UNL A   1      44.608  29.987  38.017  1.00  0.00    -0.200 F 
ATOM     63  C   UNL A   1      43.268  28.635  36.637  1.00  0.00     0.200 A 
ATOM     64  F   UNL A   1      41.926  27.350  35.189  1.00  0.00    -0.200 F 
ATOM     65  F   UNL A   1      44.039  27.570  36.889  1.00  0.00    -0.200 F 
ENDBRANCH  41  55
BRANCH  42  66
ATOM     66  C   UNL A   1      40.095  28.429  28.169  1.00  0.00     0.064 A 
ATOM     67  C   UNL A   1      40.737  28.207  26.939  1.00  0.00     0.173 A 
ATOM     68  C   UNL A   1      39.461  27.316  28.754  1.00  0.00     0.173 A 
ATOM     69  F   UNL A   1      41.400  29.203  26.336  1.00  0.00    -0.203 F 
ATOM     70  C   UNL A   1      40.769  26.940  26.346  1.00  0.00     0.198 A 
ATOM     71  C   UNL A   1      39.489  26.054  28.159  1.00  0.00     0.198 A 
ATOM     72  F   UNL A   1      38.885  27.413  29.961  1.00  0.00    -0.203 F 
ATOM     73  F   UNL A   1      41.447  26.754  25.205  1.00  0.00    -0.200 F 
ATOM     74  C   UNL A   1      40.157  25.862  26.964  1.00  0.00     0.200 A 
ATOM     75  F   UNL A   1      38.923  25.012  28.784  1.00  0.00    -0.200 F 
ATOM     76  F   UNL A   1      40.243  24.637  26.429  1.00  0.00    -0.200 F 
ENDBRANCH  42  66
BRANCH  54  77
ATOM     77  C   UNL A   1      43.221  33.636  29.828  1.00  0.00     0.064 A 
ATOM     78  C   UNL A   1      44.395  33.858  29.093  1.00  0.00     0.173 A 
ATOM     79  C   UNL A   1      42.079  34.369  29.476  1.00  0.00     0.173 A 
ATOM     80  F   UNL A   1      45.503  33.141  29.332  1.00  0.00    -0.203 F 
ATOM     81  C   UNL A   1      44.426  34.804  28.070  1.00  0.00     0.198 A 
ATOM     82  C   UNL A   1      42.104  35.284  28.433  1.00  0.00     0.198 A 
ATOM     83  F   UNL A   1      40.925  34.167  30.131  1.00  0.00    -0.203 F 
ATOM     84  F   UNL A   1      45.561  35.020  27.387  1.00  0.00    -0.200 F 
ATOM     85  C   UNL A   1      43.280  35.510  27.736  1.00  0.00     0.200 A 
ATOM     86  F   UNL A   1      40.982  35.934  28.092  1.00  0.00    -0.200 F 
ATOM     87  F   UNL A   1      43.301  36.396  26.732  1.00  0.00    -0.200 F 
ENDBRANCH  54  77
ENDBRANCH  28  29
ENDBRANCH  21  23
ENDBRANCH  20  21
ENDBRANCH  19  20
ENDBRANCH   1  19
TORSDOF 15
ENDMDL
