MODEL 1
REMARK VINA RESULT:     -13.1      0.000      0.000
REMARK SMILES Cc1cccc(S(=O)(=O)Nc2cc(C(=O)OCCOCCOC(=O)c3ccc(-c4c5nc(c(-c6c(F)c(F)c(F)c(F)c6F)c6ccc([nH]6)c(-c6c(F)c(F)c(F)c(F)c6F)c6nc(c(-c7c(F)c(F)c(F)c(F)c7F)c7ccc4[nH]7)C=C6)C=C5)cc3)cnc2N2CCC[C@H](C)C2)c1
REMARK SMILES IDX 18 1 17 2 16 3 14 4 15 5 13 6 11 7 12 8 90 9 89 10 88 11
REMARK SMILES IDX 10 12 7 14 8 15 9 16 6 17 1 18 2 19 3 20 98 21 4 22 5 23
REMARK SMILES IDX 91 24 92 25 97 26 93 27 95 28 94 29 96 30 19 31 20 32 21 33
REMARK SMILES IDX 22 34 23 35 24 36 25 37 26 38 87 39 27 40 86 41 28 42 29 43
REMARK SMILES IDX 30 44 80 45 31 46 85 47 79 48 81 49 32 50 84 51 78 52 77 53
REMARK SMILES IDX 33 55 65 56 45 57 64 58 46 59 49 60 63 61 82 62 47 63 48 64
REMARK SMILES IDX 62 66 83 67 50 68 34 69 35 70 43 71 36 72 37 73 41 74 44 75
REMARK SMILES IDX 38 76 39 77 42 78 40 79 66 80 67 81 75 82 68 83 69 84 73 85
REMARK SMILES IDX 76 86 70 87 71 88 74 89 72 90 51 91 52 92 60 93 53 94 54 95
REMARK SMILES IDX 58 96 61 97 55 98 56 99 59 100 57 101
REMARK H PARENT 10 13 81 54 49 65
REMARK Flexibility Score: inf
ROOT
ATOM      1  C   UNL A   1      40.481  20.865  26.576  1.00  0.00     0.202 C 
ENDROOT
BRANCH   1   2
ATOM      2  C   UNL A   1      39.773  21.917  25.961  1.00  0.00     0.261 C 
BRANCH   2   3
ATOM      3  O   UNL A   1      38.602  21.326  25.557  1.00  0.00    -0.460 OA
BRANCH   3   4
ATOM      4  C   UNL A   1      37.558  21.989  25.044  1.00  0.00     0.339 C 
ATOM      5  O   UNL A   1      37.386  23.079  24.550  1.00  0.00    -0.246 OA
BRANCH   4   6
ATOM      6  C   UNL A   1      36.563  20.985  25.223  1.00  0.00     0.080 A 
ATOM      7  C   UNL A   1      34.323  20.548  24.775  1.00  0.00     0.092 A 
ATOM      8  C   UNL A   1      35.232  21.403  25.250  1.00  0.00     0.048 A 
ATOM      9  C   UNL A   1      34.732  19.223  24.618  1.00  0.00     0.153 A 
ATOM     10  N   UNL A   1      36.006  18.779  24.782  1.00  0.00    -0.236 NA
ATOM     11  C   UNL A   1      36.939  19.689  25.013  1.00  0.00     0.129 A 
BRANCH   7  12
ATOM     12  N   UNL A   1      33.074  21.145  24.483  1.00  0.00    -0.276 N 
ATOM     13  H   UNL A   1      32.570  20.872  23.682  1.00  0.00     0.180 HD
BRANCH  12  14
ATOM     14  S   UNL A   1      32.452  22.327  25.512  1.00  0.00     0.262 S 
ATOM     15  O   UNL A   1      33.176  22.142  26.757  1.00  0.00    -0.201 OA
ATOM     16  O   UNL A   1      31.014  22.149  25.503  1.00  0.00    -0.201 OA
BRANCH  14  17
ATOM     17  C   UNL A   1      32.790  24.024  24.978  1.00  0.00     0.088 A 
ATOM     18  C   UNL A   1      34.071  28.267  26.511  1.00  0.00     0.044 C 
ATOM     19  C   UNL A   1      33.788  27.453  25.354  1.00  0.00    -0.050 A 
ATOM     20  C   UNL A   1      33.521  27.499  23.315  1.00  0.00     0.003 A 
ATOM     21  C   UNL A   1      33.305  25.606  26.099  1.00  0.00     0.025 A 
ATOM     22  C   UNL A   1      33.255  25.686  22.066  1.00  0.00     0.002 A 
ATOM     23  C   UNL A   1      32.797  24.021  22.972  1.00  0.00     0.022 A 
ENDBRANCH  14  17
ENDBRANCH  12  14
ENDBRANCH   7  12
BRANCH   9  24
ATOM     24  N   UNL A   1      33.829  18.239  24.442  1.00  0.00    -0.355 N 
ATOM     25  C   UNL A   1      32.539  18.267  25.061  1.00  0.00     0.118 C 
ATOM     26  C   UNL A   1      34.231  17.188  23.544  1.00  0.00     0.121 C 
ATOM     27  C   UNL A   1      32.399  16.985  25.867  1.00  0.00     0.022 C 
ATOM     28  C   UNL A   1      34.223  15.892  24.351  1.00  0.00     0.005 C 
ATOM     29  C   UNL A   1      32.860  15.755  25.067  1.00  0.00     0.007 C 
ATOM     30  C   UNL A   1      35.430  15.804  25.299  1.00  0.00     0.009 C 
ENDBRANCH   9  24
ENDBRANCH   4   6
ENDBRANCH   3   4
ENDBRANCH   2   3
ENDBRANCH   1   2
BRANCH   1  31
ATOM     31  O   UNL A   1      41.547  20.340  25.810  1.00  0.00    -0.374 OA
BRANCH  31  32
ATOM     32  C   UNL A   1      42.452  19.500  26.459  1.00  0.00     0.202 C 
BRANCH  32  33
ATOM     33  C   UNL A   1      43.545  19.320  25.444  1.00  0.00     0.261 C 
BRANCH  33  34
ATOM     34  O   UNL A   1      43.970  20.753  24.887  1.00  0.00    -0.460 OA
BRANCH  34  35
ATOM     35  C   UNL A   1      44.386  21.988  25.464  1.00  0.00     0.338 C 
ATOM     36  O   UNL A   1      45.502  22.093  25.975  1.00  0.00    -0.246 OA
BRANCH  35  37
ATOM     37  C   UNL A   1      43.351  23.255  25.655  1.00  0.00     0.060 A 
ATOM     38  C   UNL A   1      43.476  24.428  24.842  1.00  0.00     0.016 A 
ATOM     39  C   UNL A   1      42.917  23.572  26.925  1.00  0.00     0.016 A 
ATOM     40  C   UNL A   1      43.624  25.770  25.436  1.00  0.00     0.010 A 
ATOM     41  C   UNL A   1      43.350  24.838  27.492  1.00  0.00     0.010 A 
ATOM     42  C   UNL A   1      43.970  25.915  26.791  1.00  0.00    -0.014 A 
BRANCH  42  43
ATOM     43  C   UNL A   1      44.760  27.197  27.689  1.00  0.00     0.031 A 
ATOM     44  C   UNL A   1      43.213  28.141  27.749  1.00  0.00     0.074 A 
ATOM     45  C   UNL A   1      46.291  27.282  28.384  1.00  0.00     0.049 A 
ATOM     46  N   UNL A   1      42.949  29.328  28.206  1.00  0.00    -0.248 NA
ATOM     47  C   UNL A   1      41.827  27.614  27.330  1.00  0.00     0.031 C 
ATOM     48  C   UNL A   1      47.500  28.691  29.328  1.00  0.00     0.029 A 
ATOM     49  N   UNL A   1      47.354  26.513  28.382  1.00  0.00    -0.354 N 
ATOM     50  C   UNL A   1      41.573  29.414  28.629  1.00  0.00     0.074 A 
ATOM     51  C   UNL A   1      40.906  28.364  27.950  1.00  0.00     0.031 C 
ATOM     52  C   UNL A   1      48.639  28.990  29.592  1.00  0.00     0.029 A 
ATOM     53  C   UNL A   1      48.140  27.594  28.314  1.00  0.00     0.049 A 
ATOM     54  H   UNL A   1      47.509  25.543  28.418  1.00  0.00     0.167 HD
ATOM     55  C   UNL A   1      41.181  30.302  29.610  1.00  0.00     0.037 A 
ATOM     56  C   UNL A   1      47.754  28.318  27.228  1.00  0.00     0.037 A 
ATOM     57  C   UNL A   1      42.379  31.033  30.036  1.00  0.00     0.049 A 
ATOM     58  C   UNL A   1      47.926  30.463  28.118  1.00  0.00     0.074 A 
ATOM     59  C   UNL A   1      43.140  31.001  31.192  1.00  0.00     0.029 A 
ATOM     60  N   UNL A   1      43.182  31.617  29.070  1.00  0.00    -0.354 N 
ATOM     61  N   UNL A   1      47.169  31.119  29.122  1.00  0.00    -0.248 NA
ATOM     62  C   UNL A   1      48.744  31.644  27.574  1.00  0.00     0.031 C 
ATOM     63  C   UNL A   1      44.438  31.541  30.866  1.00  0.00     0.029 A 
ATOM     64  C   UNL A   1      44.446  31.955  29.537  1.00  0.00     0.049 A 
ATOM     65  H   UNL A   1      42.886  31.777  28.144  1.00  0.00     0.167 HD
ATOM     66  C   UNL A   1      46.679  32.216  28.488  1.00  0.00     0.074 A 
ATOM     67  C   UNL A   1      47.779  32.552  27.608  1.00  0.00     0.031 C 
ATOM     68  C   UNL A   1      45.368  32.615  28.587  1.00  0.00     0.037 A 
BRANCH  55  69
ATOM     69  C   UNL A   1      39.843  30.529  30.404  1.00  0.00     0.064 A 
ATOM     70  C   UNL A   1      39.378  29.454  31.222  1.00  0.00     0.173 A 
ATOM     71  C   UNL A   1      38.975  31.649  30.448  1.00  0.00     0.173 A 
ATOM     72  F   UNL A   1      40.086  28.331  31.376  1.00  0.00    -0.203 F 
ATOM     73  C   UNL A   1      38.184  29.456  31.953  1.00  0.00     0.198 A 
ATOM     74  C   UNL A   1      37.778  31.665  31.228  1.00  0.00     0.198 A 
ATOM     75  F   UNL A   1      39.239  32.768  29.760  1.00  0.00    -0.203 F 
ATOM     76  F   UNL A   1      37.837  28.361  32.648  1.00  0.00    -0.200 F 
ATOM     77  C   UNL A   1      37.383  30.565  31.969  1.00  0.00     0.200 A 
ATOM     78  F   UNL A   1      37.001  32.761  31.260  1.00  0.00    -0.200 F 
ATOM     79  F   UNL A   1      36.259  30.574  32.701  1.00  0.00    -0.200 F 
ENDBRANCH  55  69
BRANCH  56  80
ATOM     80  C   UNL A   1      48.335  27.318  26.086  1.00  0.00     0.064 A 
ATOM     81  C   UNL A   1      47.693  27.046  24.786  1.00  0.00     0.173 A 
ATOM     82  C   UNL A   1      49.699  27.471  26.068  1.00  0.00     0.173 A 
ATOM     83  F   UNL A   1      46.360  26.965  24.625  1.00  0.00    -0.203 F 
ATOM     84  C   UNL A   1      48.377  27.227  23.589  1.00  0.00     0.198 A 
ATOM     85  C   UNL A   1      50.383  27.527  24.860  1.00  0.00     0.198 A 
ATOM     86  F   UNL A   1      50.319  27.840  27.197  1.00  0.00    -0.203 F 
ATOM     87  F   UNL A   1      47.689  27.444  22.451  1.00  0.00    -0.200 F 
ATOM     88  C   UNL A   1      49.724  27.500  23.636  1.00  0.00     0.200 A 
ATOM     89  F   UNL A   1      51.692  27.788  24.883  1.00  0.00    -0.200 F 
ATOM     90  F   UNL A   1      50.347  27.937  22.532  1.00  0.00    -0.200 F 
ENDBRANCH  56  80
BRANCH  68  91
ATOM     91  C   UNL A   1      44.845  33.813  27.821  1.00  0.00     0.064 A 
ATOM     92  C   UNL A   1      44.701  35.093  28.362  1.00  0.00     0.173 A 
ATOM     93  C   UNL A   1      44.302  33.680  26.525  1.00  0.00     0.173 A 
ATOM     94  F   UNL A   1      45.578  35.599  29.232  1.00  0.00    -0.203 F 
ATOM     95  C   UNL A   1      43.767  35.993  27.882  1.00  0.00     0.198 A 
ATOM     96  C   UNL A   1      43.518  34.660  25.944  1.00  0.00     0.198 A 
ATOM     97  F   UNL A   1      44.489  32.609  25.747  1.00  0.00    -0.203 F 
ATOM     98  F   UNL A   1      43.495  37.093  28.594  1.00  0.00    -0.200 F 
ATOM     99  C   UNL A   1      43.169  35.774  26.666  1.00  0.00     0.200 A 
ATOM    100  F   UNL A   1      43.075  34.483  24.694  1.00  0.00    -0.200 F 
ATOM    101  F   UNL A   1      42.318  36.669  26.159  1.00  0.00    -0.200 F 
ENDBRANCH  68  91
ENDBRANCH  42  43
ENDBRANCH  35  37
ENDBRANCH  34  35
ENDBRANCH  33  34
ENDBRANCH  32  33
ENDBRANCH  31  32
ENDBRANCH   1  31
TORSDOF 18
ENDMDL
MODEL 2
REMARK VINA RESULT:     -12.7      1.667      2.284
REMARK SMILES Cc1cccc(S(=O)(=O)Nc2cc(C(=O)OCCOCCOC(=O)c3ccc(-c4c5nc(c(-c6c(F)c(F)c(F)c(F)c6F)c6ccc([nH]6)c(-c6c(F)c(F)c(F)c(F)c6F)c6nc(c(-c7c(F)c(F)c(F)c(F)c7F)c7ccc4[nH]7)C=C6)C=C5)cc3)cnc2N2CCC[C@H](C)C2)c1
REMARK SMILES IDX 18 1 17 2 16 3 14 4 15 5 13 6 11 7 12 8 90 9 89 10 88 11
REMARK SMILES IDX 10 12 7 14 8 15 9 16 6 17 1 18 2 19 3 20 98 21 4 22 5 23
REMARK SMILES IDX 91 24 92 25 97 26 93 27 95 28 94 29 96 30 19 31 20 32 21 33
REMARK SMILES IDX 22 34 23 35 24 36 25 37 26 38 87 39 27 40 86 41 28 42 29 43
REMARK SMILES IDX 30 44 80 45 31 46 85 47 79 48 81 49 32 50 84 51 78 52 77 53
REMARK SMILES IDX 33 55 65 56 45 57 64 58 46 59 49 60 63 61 82 62 47 63 48 64
REMARK SMILES IDX 62 66 83 67 50 68 34 69 35 70 43 71 36 72 37 73 41 74 44 75
REMARK SMILES IDX 38 76 39 77 42 78 40 79 66 80 67 81 75 82 68 83 69 84 73 85
REMARK SMILES IDX 76 86 70 87 71 88 74 89 72 90 51 91 52 92 60 93 53 94 54 95
REMARK SMILES IDX 58 96 61 97 55 98 56 99 59 100 57 101
REMARK H PARENT 10 13 81 54 49 65
REMARK Flexibility Score: inf
ROOT
ATOM      1  C   UNL A   1      40.133  21.592  26.877  1.00  0.00     0.202 C 
ENDROOT
BRANCH   1   2
ATOM      2  C   UNL A   1      39.348  22.652  26.379  1.00  0.00     0.261 C 
BRANCH   2   3
ATOM      3  O   UNL A   1      38.205  22.030  25.943  1.00  0.00    -0.460 OA
BRANCH   3   4
ATOM      4  C   UNL A   1      37.262  22.617  25.195  1.00  0.00     0.339 C 
ATOM      5  O   UNL A   1      37.205  23.601  24.495  1.00  0.00    -0.246 OA
BRANCH   4   6
ATOM      6  C   UNL A   1      36.202  21.695  25.433  1.00  0.00     0.080 A 
ATOM      7  C   UNL A   1      33.903  21.464  25.164  1.00  0.00     0.092 A 
ATOM      8  C   UNL A   1      34.919  22.224  25.582  1.00  0.00     0.048 A 
ATOM      9  C   UNL A   1      34.181  20.115  24.940  1.00  0.00     0.153 A 
ATOM     10  N   UNL A   1      35.421  19.560  24.986  1.00  0.00    -0.236 NA
ATOM     11  C   UNL A   1      36.445  20.380  25.160  1.00  0.00     0.129 A 
BRANCH   7  12
ATOM     12  N   UNL A   1      32.691  22.174  24.993  1.00  0.00    -0.276 N 
ATOM     13  H   UNL A   1      31.965  22.077  25.650  1.00  0.00     0.180 HD
BRANCH  12  14
ATOM     14  S   UNL A   1      32.495  23.183  23.657  1.00  0.00     0.262 S 
ATOM     15  O   UNL A   1      31.153  22.896  23.180  1.00  0.00    -0.201 OA
ATOM     16  O   UNL A   1      33.621  22.918  22.786  1.00  0.00    -0.201 OA
BRANCH  14  17
ATOM     17  C   UNL A   1      32.523  24.949  24.055  1.00  0.00     0.088 A 
ATOM     18  C   UNL A   1      31.753  28.045  27.492  1.00  0.00     0.044 C 
ATOM     19  C   UNL A   1      32.234  27.854  26.147  1.00  0.00    -0.050 A 
ATOM     20  C   UNL A   1      32.856  28.836  24.449  1.00  0.00     0.003 A 
ATOM     21  C   UNL A   1      32.035  25.848  25.781  1.00  0.00     0.025 A 
ATOM     22  C   UNL A   1      33.679  27.810  22.664  1.00  0.00     0.002 A 
ATOM     23  C   UNL A   1      33.380  25.889  22.505  1.00  0.00     0.022 A 
ENDBRANCH  14  17
ENDBRANCH  12  14
ENDBRANCH   7  12
BRANCH   9  24
ATOM     24  N   UNL A   1      33.185  19.217  24.817  1.00  0.00    -0.355 N 
ATOM     25  C   UNL A   1      32.564  18.604  25.951  1.00  0.00     0.118 C 
ATOM     26  C   UNL A   1      32.752  18.960  23.467  1.00  0.00     0.121 C 
ATOM     27  C   UNL A   1      32.691  17.099  25.775  1.00  0.00     0.022 C 
ATOM     28  C   UNL A   1      32.980  17.473  23.207  1.00  0.00     0.005 C 
ATOM     29  C   UNL A   1      32.328  16.658  24.348  1.00  0.00     0.007 C 
ATOM     30  C   UNL A   1      34.468  17.154  22.992  1.00  0.00     0.009 C 
ENDBRANCH   9  24
ENDBRANCH   4   6
ENDBRANCH   3   4
ENDBRANCH   2   3
ENDBRANCH   1   2
BRANCH   1  31
ATOM     31  O   UNL A   1      41.185  21.184  26.025  1.00  0.00    -0.374 OA
BRANCH  31  32
ATOM     32  C   UNL A   1      42.324  20.646  26.624  1.00  0.00     0.202 C 
BRANCH  32  33
ATOM     33  C   UNL A   1      43.331  20.640  25.508  1.00  0.00     0.261 C 
BRANCH  33  34
ATOM     34  O   UNL A   1      43.305  22.061  24.784  1.00  0.00    -0.460 OA
BRANCH  34  35
ATOM     35  C   UNL A   1      43.921  23.327  25.003  1.00  0.00     0.338 C 
ATOM     36  O   UNL A   1      43.341  24.366  24.683  1.00  0.00    -0.246 OA
BRANCH  35  37
ATOM     37  C   UNL A   1      45.486  23.464  25.499  1.00  0.00     0.060 A 
ATOM     38  C   UNL A   1      45.853  23.154  26.849  1.00  0.00     0.016 A 
ATOM     39  C   UNL A   1      46.254  24.492  24.997  1.00  0.00     0.016 A 
ATOM     40  C   UNL A   1      46.559  24.129  27.703  1.00  0.00     0.010 A 
ATOM     41  C   UNL A   1      46.680  25.533  25.918  1.00  0.00     0.010 A 
ATOM     42  C   UNL A   1      46.609  25.486  27.342  1.00  0.00    -0.014 A 
BRANCH  42  43
ATOM     43  C   UNL A   1      46.811  26.959  28.271  1.00  0.00     0.031 A 
ATOM     44  C   UNL A   1      45.113  27.465  27.883  1.00  0.00     0.074 A 
ATOM     45  C   UNL A   1      48.052  27.468  29.288  1.00  0.00     0.049 A 
ATOM     46  N   UNL A   1      44.460  28.555  28.150  1.00  0.00    -0.248 NA
ATOM     47  C   UNL A   1      44.048  26.578  27.209  1.00  0.00     0.031 C 
ATOM     48  C   UNL A   1      48.604  29.175  30.345  1.00  0.00     0.029 A 
ATOM     49  N   UNL A   1      49.238  27.005  29.605  1.00  0.00    -0.354 N 
ATOM     50  C   UNL A   1      43.045  28.291  28.235  1.00  0.00     0.074 A 
ATOM     51  C   UNL A   1      42.846  27.080  27.525  1.00  0.00     0.031 C 
ATOM     52  C   UNL A   1      49.532  29.771  30.834  1.00  0.00     0.029 A 
ATOM     53  C   UNL A   1      49.725  28.252  29.615  1.00  0.00     0.049 A 
ATOM     54  H   UNL A   1      49.615  26.111  29.768  1.00  0.00     0.167 HD
ATOM     55  C   UNL A   1      42.216  29.076  29.010  1.00  0.00     0.037 A 
ATOM     56  C   UNL A   1      49.453  28.812  28.405  1.00  0.00     0.037 A 
ATOM     57  C   UNL A   1      43.052  30.110  29.628  1.00  0.00     0.049 A 
ATOM     58  C   UNL A   1      48.865  30.955  29.101  1.00  0.00     0.074 A 
ATOM     59  C   UNL A   1      43.488  30.318  30.925  1.00  0.00     0.029 A 
ATOM     60  N   UNL A   1      43.899  30.853  28.821  1.00  0.00    -0.354 N 
ATOM     61  N   UNL A   1      47.745  31.423  29.837  1.00  0.00    -0.248 NA
ATOM     62  C   UNL A   1      49.474  32.291  28.649  1.00  0.00     0.031 C 
ATOM     63  C   UNL A   1      44.651  31.169  30.856  1.00  0.00     0.029 A 
ATOM     64  C   UNL A   1      44.885  31.526  29.532  1.00  0.00     0.049 A 
ATOM     65  H   UNL A   1      43.811  30.899  27.841  1.00  0.00     0.167 HD
ATOM     66  C   UNL A   1      47.172  32.331  29.004  1.00  0.00     0.074 A 
ATOM     67  C   UNL A   1      48.337  32.914  28.372  1.00  0.00     0.031 C 
ATOM     68  C   UNL A   1      45.821  32.374  28.761  1.00  0.00     0.037 A 
BRANCH  55  69
ATOM     69  C   UNL A   1      40.710  28.970  29.449  1.00  0.00     0.064 A 
ATOM     70  C   UNL A   1      39.718  29.197  28.445  1.00  0.00     0.173 A 
ATOM     71  C   UNL A   1      40.135  28.686  30.714  1.00  0.00     0.173 A 
ATOM     72  F   UNL A   1      40.049  29.411  27.168  1.00  0.00    -0.203 F 
ATOM     73  C   UNL A   1      38.336  29.198  28.663  1.00  0.00     0.198 A 
ATOM     74  C   UNL A   1      38.722  28.646  30.926  1.00  0.00     0.198 A 
ATOM     75  F   UNL A   1      40.894  28.430  31.787  1.00  0.00    -0.203 F 
ATOM     76  F   UNL A   1      37.510  29.472  27.642  1.00  0.00    -0.200 F 
ATOM     77  C   UNL A   1      37.830  28.912  29.903  1.00  0.00     0.200 A 
ATOM     78  F   UNL A   1      38.224  28.346  32.137  1.00  0.00    -0.200 F 
ATOM     79  F   UNL A   1      36.503  28.877  30.096  1.00  0.00    -0.200 F 
ENDBRANCH  55  69
BRANCH  56  80
ATOM     80  C   UNL A   1      50.527  27.963  27.529  1.00  0.00     0.064 A 
ATOM     81  C   UNL A   1      50.251  27.331  26.226  1.00  0.00     0.173 A 
ATOM     82  C   UNL A   1      51.740  28.593  27.653  1.00  0.00     0.173 A 
ATOM     83  F   UNL A   1      49.072  26.758  25.918  1.00  0.00    -0.203 F 
ATOM     84  C   UNL A   1      51.031  27.606  25.108  1.00  0.00     0.198 A 
ATOM     85  C   UNL A   1      52.564  28.750  26.546  1.00  0.00     0.198 A 
ATOM     86  F   UNL A   1      51.992  29.286  28.770  1.00  0.00    -0.203 F 
ATOM     87  F   UNL A   1      50.519  27.428  23.874  1.00  0.00    -0.200 F 
ATOM     88  C   UNL A   1      52.177  28.347  25.272  1.00  0.00     0.200 A 
ATOM     89  F   UNL A   1      53.683  29.464  26.685  1.00  0.00    -0.200 F 
ATOM     90  F   UNL A   1      52.798  28.849  24.195  1.00  0.00    -0.200 F 
ENDBRANCH  56  80
BRANCH  68  91
ATOM     91  C   UNL A   1      45.223  33.366  27.783  1.00  0.00     0.064 A 
ATOM     92  C   UNL A   1      44.760  34.636  28.133  1.00  0.00     0.173 A 
ATOM     93  C   UNL A   1      44.939  33.006  26.448  1.00  0.00     0.173 A 
ATOM     94  F   UNL A   1      45.372  35.387  29.053  1.00  0.00    -0.203 F 
ATOM     95  C   UNL A   1      43.771  35.282  27.414  1.00  0.00     0.198 A 
ATOM     96  C   UNL A   1      44.097  33.751  25.642  1.00  0.00     0.198 A 
ATOM     97  F   UNL A   1      45.445  31.926  25.845  1.00  0.00    -0.203 F 
ATOM     98  F   UNL A   1      43.189  36.369  27.936  1.00  0.00    -0.200 F 
ATOM     99  C   UNL A   1      43.436  34.836  26.160  1.00  0.00     0.200 A 
ATOM    100  F   UNL A   1      43.910  33.372  24.373  1.00  0.00    -0.200 F 
ATOM    101  F   UNL A   1      42.533  35.491  25.427  1.00  0.00    -0.200 F 
ENDBRANCH  68  91
ENDBRANCH  42  43
ENDBRANCH  35  37
ENDBRANCH  34  35
ENDBRANCH  33  34
ENDBRANCH  32  33
ENDBRANCH  31  32
ENDBRANCH   1  31
TORSDOF 18
ENDMDL
MODEL 3
REMARK VINA RESULT:     -12.0      4.738      9.492
REMARK SMILES Cc1cccc(S(=O)(=O)Nc2cc(C(=O)OCCOCCOC(=O)c3ccc(-c4c5nc(c(-c6c(F)c(F)c(F)c(F)c6F)c6ccc([nH]6)c(-c6c(F)c(F)c(F)c(F)c6F)c6nc(c(-c7c(F)c(F)c(F)c(F)c7F)c7ccc4[nH]7)C=C6)C=C5)cc3)cnc2N2CCC[C@H](C)C2)c1
REMARK SMILES IDX 18 1 17 2 16 3 14 4 15 5 13 6 11 7 12 8 90 9 89 10 88 11
REMARK SMILES IDX 10 12 7 14 8 15 9 16 6 17 1 18 2 19 3 20 98 21 4 22 5 23
REMARK SMILES IDX 91 24 92 25 97 26 93 27 95 28 94 29 96 30 19 31 20 32 21 33
REMARK SMILES IDX 22 34 23 35 24 36 25 37 26 38 87 39 27 40 86 41 28 42 29 43
REMARK SMILES IDX 30 44 80 45 31 46 85 47 79 48 81 49 32 50 84 51 78 52 77 53
REMARK SMILES IDX 33 55 65 56 45 57 64 58 46 59 49 60 63 61 82 62 47 63 48 64
REMARK SMILES IDX 62 66 83 67 50 68 34 69 35 70 43 71 36 72 37 73 41 74 44 75
REMARK SMILES IDX 38 76 39 77 42 78 40 79 66 80 67 81 75 82 68 83 69 84 73 85
REMARK SMILES IDX 76 86 70 87 71 88 74 89 72 90 51 91 52 92 60 93 53 94 54 95
REMARK SMILES IDX 58 96 61 97 55 98 56 99 59 100 57 101
REMARK H PARENT 10 13 81 54 49 65
REMARK Flexibility Score: inf
ROOT
ATOM      1  C   UNL A   1      40.254  21.356  26.885  1.00  0.00     0.202 C 
ENDROOT
BRANCH   1   2
ATOM      2  C   UNL A   1      39.547  22.449  26.344  1.00  0.00     0.261 C 
BRANCH   2   3
ATOM      3  O   UNL A   1      38.475  21.863  25.718  1.00  0.00    -0.460 OA
BRANCH   3   4
ATOM      4  C   UNL A   1      37.476  22.539  25.137  1.00  0.00     0.339 C 
ATOM      5  O   UNL A   1      37.375  23.583  24.536  1.00  0.00    -0.246 OA
BRANCH   4   6
ATOM      6  C   UNL A   1      36.417  21.626  25.413  1.00  0.00     0.080 A 
ATOM      7  C   UNL A   1      34.097  21.474  25.382  1.00  0.00     0.092 A 
ATOM      8  C   UNL A   1      35.176  22.171  25.747  1.00  0.00     0.048 A 
ATOM      9  C   UNL A   1      34.303  20.143  25.019  1.00  0.00     0.153 A 
ATOM     10  N   UNL A   1      35.522  19.556  24.881  1.00  0.00    -0.236 NA
ATOM     11  C   UNL A   1      36.585  20.333  25.008  1.00  0.00     0.129 A 
BRANCH   7  12
ATOM     12  N   UNL A   1      32.897  22.225  25.405  1.00  0.00    -0.276 N 
ATOM     13  H   UNL A   1      32.310  22.195  26.195  1.00  0.00     0.180 HD
BRANCH  12  14
ATOM     14  S   UNL A   1      32.478  23.171  24.075  1.00  0.00     0.262 S 
ATOM     15  O   UNL A   1      31.091  22.831  23.810  1.00  0.00    -0.201 OA
ATOM     16  O   UNL A   1      33.473  22.899  23.060  1.00  0.00    -0.201 OA
BRANCH  14  17
ATOM     17  C   UNL A   1      32.508  24.953  24.397  1.00  0.00     0.088 A 
ATOM     18  C   UNL A   1      31.605  28.206  27.652  1.00  0.00     0.044 C 
ATOM     19  C   UNL A   1      32.150  27.951  26.342  1.00  0.00    -0.050 A 
ATOM     20  C   UNL A   1      32.867  28.850  24.637  1.00  0.00     0.003 A 
ATOM     21  C   UNL A   1      31.945  25.932  26.055  1.00  0.00     0.025 A 
ATOM     22  C   UNL A   1      33.766  27.738  22.942  1.00  0.00     0.002 A 
ATOM     23  C   UNL A   1      33.452  25.815  22.852  1.00  0.00     0.022 A 
ENDBRANCH  14  17
ENDBRANCH  12  14
ENDBRANCH   7  12
BRANCH   9  24
ATOM     24  N   UNL A   1      33.270  19.284  24.933  1.00  0.00    -0.355 N 
ATOM     25  C   UNL A   1      32.701  18.655  26.086  1.00  0.00     0.118 C 
ATOM     26  C   UNL A   1      32.743  19.085  23.607  1.00  0.00     0.121 C 
ATOM     27  C   UNL A   1      32.763  17.153  25.857  1.00  0.00     0.022 C 
ATOM     28  C   UNL A   1      32.901  17.601  23.288  1.00  0.00     0.005 C 
ATOM     29  C   UNL A   1      32.295  16.772  24.443  1.00  0.00     0.007 C 
ATOM     30  C   UNL A   1      34.361  17.239  22.968  1.00  0.00     0.009 C 
ENDBRANCH   9  24
ENDBRANCH   4   6
ENDBRANCH   3   4
ENDBRANCH   2   3
ENDBRANCH   1   2
BRANCH   1  31
ATOM     31  O   UNL A   1      41.310  20.876  26.077  1.00  0.00    -0.374 OA
BRANCH  31  32
ATOM     32  C   UNL A   1      42.272  20.073  26.690  1.00  0.00     0.202 C 
BRANCH  32  33
ATOM     33  C   UNL A   1      43.291  19.866  25.604  1.00  0.00     0.261 C 
BRANCH  33  34
ATOM     34  O   UNL A   1      44.014  21.256  25.305  1.00  0.00    -0.460 OA
BRANCH  34  35
ATOM     35  C   UNL A   1      44.690  22.240  26.082  1.00  0.00     0.338 C 
ATOM     36  O   UNL A   1      45.917  22.211  26.193  1.00  0.00    -0.246 OA
BRANCH  35  37
ATOM     37  C   UNL A   1      43.877  23.326  27.017  1.00  0.00     0.060 A 
ATOM     38  C   UNL A   1      43.872  24.719  26.679  1.00  0.00     0.016 A 
ATOM     39  C   UNL A   1      43.860  23.145  28.383  1.00  0.00     0.016 A 
ATOM     40  C   UNL A   1      44.310  25.751  27.638  1.00  0.00     0.010 A 
ATOM     41  C   UNL A   1      44.554  24.121  29.205  1.00  0.00     0.010 A 
ATOM     42  C   UNL A   1      45.043  25.393  28.782  1.00  0.00    -0.014 A 
BRANCH  42  43
ATOM     43  C   UNL A   1      46.175  26.269  29.795  1.00  0.00     0.031 A 
ATOM     44  C   UNL A   1      47.575  25.542  28.900  1.00  0.00     0.074 A 
ATOM     45  C   UNL A   1      45.932  27.477  30.942  1.00  0.00     0.049 A 
ATOM     46  N   UNL A   1      48.856  25.627  29.096  1.00  0.00    -0.248 NA
ATOM     47  C   UNL A   1      47.476  24.723  27.599  1.00  0.00     0.031 C 
ATOM     48  C   UNL A   1      47.039  28.534  32.355  1.00  0.00     0.029 A 
ATOM     49  N   UNL A   1      44.879  28.035  31.491  1.00  0.00    -0.354 N 
ATOM     50  C   UNL A   1      49.572  25.455  27.856  1.00  0.00     0.074 A 
ATOM     51  C   UNL A   1      48.671  24.780  26.994  1.00  0.00     0.031 C 
ATOM     52  C   UNL A   1      46.976  29.160  33.384  1.00  0.00     0.029 A 
ATOM     53  C   UNL A   1      45.511  28.076  32.670  1.00  0.00     0.049 A 
ATOM     54  H   UNL A   1      43.991  28.311  31.168  1.00  0.00     0.167 HD
ATOM     55  C   UNL A   1      50.817  26.019  27.664  1.00  0.00     0.037 A 
ATOM     56  C   UNL A   1      45.912  26.810  32.968  1.00  0.00     0.037 A 
ATOM     57  C   UNL A   1      51.163  26.732  28.898  1.00  0.00     0.049 A 
ATOM     58  C   UNL A   1      48.014  27.276  33.854  1.00  0.00     0.074 A 
ATOM     59  C   UNL A   1      51.251  28.077  29.215  1.00  0.00     0.029 A 
ATOM     60  N   UNL A   1      51.054  26.065  30.107  1.00  0.00    -0.354 N 
ATOM     61  N   UNL A   1      49.198  27.762  33.242  1.00  0.00    -0.248 NA
ATOM     62  C   UNL A   1      48.561  26.882  35.235  1.00  0.00     0.031 C 
ATOM     63  C   UNL A   1      51.141  28.188  30.649  1.00  0.00     0.029 A 
ATOM     64  C   UNL A   1      51.048  26.915  31.205  1.00  0.00     0.049 A 
ATOM     65  H   UNL A   1      50.987  25.085  30.180  1.00  0.00     0.167 HD
ATOM     66  C   UNL A   1      50.114  26.791  33.500  1.00  0.00     0.074 A 
ATOM     67  C   UNL A   1      49.710  26.364  34.824  1.00  0.00     0.031 C 
ATOM     68  C   UNL A   1      50.967  26.295  32.546  1.00  0.00     0.037 A 
BRANCH  55  69
ATOM     69  C   UNL A   1      51.766  26.169  26.420  1.00  0.00     0.064 A 
ATOM     70  C   UNL A   1      53.172  26.071  26.654  1.00  0.00     0.173 A 
ATOM     71  C   UNL A   1      51.466  26.403  25.054  1.00  0.00     0.173 A 
ATOM     72  F   UNL A   1      53.664  25.783  27.863  1.00  0.00    -0.203 F 
ATOM     73  C   UNL A   1      54.165  26.233  25.681  1.00  0.00     0.198 A 
ATOM     74  C   UNL A   1      52.479  26.526  24.054  1.00  0.00     0.198 A 
ATOM     75  F   UNL A   1      50.203  26.513  24.622  1.00  0.00    -0.203 F 
ATOM     76  F   UNL A   1      55.455  26.162  26.041  1.00  0.00    -0.200 F 
ATOM     77  C   UNL A   1      53.824  26.451  24.373  1.00  0.00     0.200 A 
ATOM     78  F   UNL A   1      52.146  26.720  22.767  1.00  0.00    -0.200 F 
ATOM     79  F   UNL A   1      54.779  26.567  23.439  1.00  0.00    -0.200 F 
ENDBRANCH  55  69
BRANCH  56  80
ATOM     80  C   UNL A   1      44.446  26.197  33.312  1.00  0.00     0.064 A 
ATOM     81  C   UNL A   1      44.028  24.805  33.063  1.00  0.00     0.173 A 
ATOM     82  C   UNL A   1      44.046  26.747  34.504  1.00  0.00     0.173 A 
ATOM     83  F   UNL A   1      44.419  24.098  31.987  1.00  0.00    -0.203 F 
ATOM     84  C   UNL A   1      43.520  24.008  34.084  1.00  0.00     0.198 A 
ATOM     85  C   UNL A   1      43.427  25.959  35.467  1.00  0.00     0.198 A 
ATOM     86  F   UNL A   1      44.500  27.962  34.835  1.00  0.00    -0.203 F 
ATOM     87  F   UNL A   1      43.593  22.666  33.984  1.00  0.00    -0.200 F 
ATOM     88  C   UNL A   1      43.250  24.590  35.300  1.00  0.00     0.200 A 
ATOM     89  F   UNL A   1      43.154  26.505  36.654  1.00  0.00    -0.200 F 
ATOM     90  F   UNL A   1      43.018  23.811  36.366  1.00  0.00    -0.200 F 
ENDBRANCH  56  80
BRANCH  68  91
ATOM     91  C   UNL A   1      51.939  25.174  32.859  1.00  0.00     0.064 A 
ATOM     92  C   UNL A   1      53.317  25.343  33.003  1.00  0.00     0.173 A 
ATOM     93  C   UNL A   1      51.528  23.824  32.866  1.00  0.00     0.173 A 
ATOM     94  F   UNL A   1      53.843  26.425  33.584  1.00  0.00    -0.203 F 
ATOM     95  C   UNL A   1      54.214  24.322  32.746  1.00  0.00     0.198 A 
ATOM     96  C   UNL A   1      52.428  22.774  32.805  1.00  0.00     0.198 A 
ATOM     97  F   UNL A   1      50.251  23.434  32.929  1.00  0.00    -0.203 F 
ATOM     98  F   UNL A   1      55.518  24.608  32.649  1.00  0.00    -0.200 F 
ATOM     99  C   UNL A   1      53.767  23.029  32.645  1.00  0.00     0.200 A 
ATOM    100  F   UNL A   1      51.968  21.519  32.861  1.00  0.00    -0.200 F 
ATOM    101  F   UNL A   1      54.629  22.026  32.466  1.00  0.00    -0.200 F 
ENDBRANCH  68  91
ENDBRANCH  42  43
ENDBRANCH  35  37
ENDBRANCH  34  35
ENDBRANCH  33  34
ENDBRANCH  32  33
ENDBRANCH  31  32
ENDBRANCH   1  31
TORSDOF 18
ENDMDL
