MODEL 1
REMARK VINA RESULT:     -11.5      0.000      0.000
REMARK SMILES CC[C@H]1SC[C@H](C(=O)OCCOCCOC(=O)c2ccc(-c3c4nc(c(-c5c(F)c(F)c(F)c(F)c5F)c5ccc([nH]5)c(-c5c(F)c(F)c(F)c(F)c5F)c5nc(c(-c6c(F)c(F)c(F)c(F)c6F)c6ccc3[nH]6)C=C5)C=C4)cc2)N1C(=O)N1C[C@@H](C)[C@@H](C)C1
REMARK SMILES IDX 12 1 11 2 10 3 9 4 7 5 8 6 6 7 3 8 4 9 81 10 5 11 2 12 1 13
REMARK SMILES IDX 82 14 83 15 84 16 85 17 90 18 86 19 88 20 87 21 89 22 13 23
REMARK SMILES IDX 14 24 15 25 16 26 17 27 18 28 19 29 80 30 20 31 79 32 21 33
REMARK SMILES IDX 22 34 23 35 73 36 24 37 78 38 72 39 74 40 25 41 77 42 71 43
REMARK SMILES IDX 70 44 26 46 58 47 38 48 57 49 39 50 42 51 56 52 75 53 40 54
REMARK SMILES IDX 41 55 55 57 76 58 43 59 27 60 28 61 36 62 29 63 30 64 34 65
REMARK SMILES IDX 37 66 31 67 32 68 35 69 33 70 59 71 60 72 68 73 61 74 62 75
REMARK SMILES IDX 66 76 69 77 63 78 64 79 67 80 65 81 44 82 45 83 53 84 46 85
REMARK SMILES IDX 47 86 51 87 54 88 48 89 49 90 52 91 50 92
REMARK H PARENT 74 45 42 56
REMARK Flexibility Score: inf
ROOT
ATOM      1  O   UNL A   1      41.322  21.270  25.641  1.00  0.00    -0.374 OA
ENDROOT
BRANCH   1   2
ATOM      2  C   UNL A   1      40.183  21.325  26.495  1.00  0.00     0.202 C 
BRANCH   2   3
ATOM      3  C   UNL A   1      39.128  22.399  26.206  1.00  0.00     0.261 C 
BRANCH   3   4
ATOM      4  O   UNL A   1      37.994  21.943  25.449  1.00  0.00    -0.462 OA
BRANCH   4   5
ATOM      5  C   UNL A   1      36.947  22.819  25.378  1.00  0.00     0.329 C 
ATOM      6  O   UNL A   1      36.923  23.910  25.935  1.00  0.00    -0.250 OA
BRANCH   5   7
ATOM      7  C   UNL A   1      35.822  22.268  24.493  1.00  0.00     0.208 C 
ATOM      8  C   UNL A   1      33.456  22.357  25.213  1.00  0.00     0.145 C 
ATOM      9  S   UNL A   1      34.200  20.962  26.115  1.00  0.00    -0.134 SA
ATOM     10  N   UNL A   1      34.570  23.060  24.578  1.00  0.00    -0.298 N 
ATOM     11  C   UNL A   1      35.562  20.830  24.942  1.00  0.00     0.109 C 
BRANCH   8  12
ATOM     12  C   UNL A   1      32.463  21.831  24.156  1.00  0.00     0.033 C 
ATOM     13  C   UNL A   1      32.334  20.314  24.108  1.00  0.00     0.007 C 
ENDBRANCH   8  12
BRANCH  10  14
ATOM     14  C   UNL A   1      34.444  24.173  23.772  1.00  0.00     0.321 C 
ATOM     15  O   UNL A   1      34.823  24.136  22.600  1.00  0.00    -0.248 OA
BRANCH  14  16
ATOM     16  N   UNL A   1      33.850  25.306  24.284  1.00  0.00    -0.324 N 
ATOM     17  C   UNL A   1      33.391  26.359  23.389  1.00  0.00     0.125 C 
ATOM     18  C   UNL A   1      34.075  25.840  25.624  1.00  0.00     0.125 C 
ATOM     19  C   UNL A   1      33.811  27.667  24.054  1.00  0.00     0.010 C 
ATOM     20  C   UNL A   1      33.745  27.344  25.557  1.00  0.00     0.010 C 
ATOM     21  C   UNL A   1      32.983  28.855  23.582  1.00  0.00     0.010 C 
ATOM     22  C   UNL A   1      32.404  27.649  26.226  1.00  0.00     0.010 C 
ENDBRANCH  14  16
ENDBRANCH  10  14
ENDBRANCH   5   7
ENDBRANCH   4   5
ENDBRANCH   3   4
ENDBRANCH   2   3
ENDBRANCH   1   2
BRANCH   1  23
ATOM     23  C   UNL A   1      42.603  21.510  26.222  1.00  0.00     0.202 C 
BRANCH  23  24
ATOM     24  C   UNL A   1      43.655  22.158  25.323  1.00  0.00     0.261 C 
BRANCH  24  25
ATOM     25  O   UNL A   1      43.153  23.340  24.679  1.00  0.00    -0.460 OA
BRANCH  25  26
ATOM     26  C   UNL A   1      43.864  24.457  24.937  1.00  0.00     0.338 C 
ATOM     27  O   UNL A   1      44.961  24.763  24.488  1.00  0.00    -0.246 OA
BRANCH  26  28
ATOM     28  C   UNL A   1      43.073  25.396  25.744  1.00  0.00     0.060 A 
ATOM     29  C   UNL A   1      43.707  26.575  26.154  1.00  0.00     0.016 A 
ATOM     30  C   UNL A   1      41.803  25.063  26.218  1.00  0.00     0.016 A 
ATOM     31  C   UNL A   1      43.104  27.388  27.109  1.00  0.00     0.010 A 
ATOM     32  C   UNL A   1      41.201  25.879  27.184  1.00  0.00     0.010 A 
ATOM     33  C   UNL A   1      41.875  27.014  27.670  1.00  0.00    -0.014 A 
BRANCH  33  34
ATOM     34  C   UNL A   1      41.404  27.729  28.882  1.00  0.00     0.031 A 
ATOM     35  C   UNL A   1      42.173  27.572  30.166  1.00  0.00     0.074 A 
ATOM     36  C   UNL A   1      40.351  28.561  28.822  1.00  0.00     0.049 A 
ATOM     37  N   UNL A   1      41.991  28.161  31.320  1.00  0.00    -0.248 NA
ATOM     38  C   UNL A   1      43.303  26.628  30.144  1.00  0.00     0.031 C 
ATOM     39  C   UNL A   1      39.541  28.809  27.633  1.00  0.00     0.029 A 
ATOM     40  N   UNL A   1      39.789  29.356  29.788  1.00  0.00    -0.354 N 
ATOM     41  C   UNL A   1      42.982  27.665  32.158  1.00  0.00     0.074 A 
ATOM     42  C   UNL A   1      43.743  26.702  31.392  1.00  0.00     0.031 C 
ATOM     43  C   UNL A   1      38.578  29.697  27.940  1.00  0.00     0.029 A 
ATOM     44  C   UNL A   1      38.700  30.067  29.350  1.00  0.00     0.049 A 
ATOM     45  H   UNL A   1      40.134  29.412  30.709  1.00  0.00     0.167 HD
ATOM     46  C   UNL A   1      43.240  27.992  33.447  1.00  0.00     0.037 A 
ATOM     47  C   UNL A   1      37.893  30.915  30.015  1.00  0.00     0.037 A 
ATOM     48  C   UNL A   1      42.489  28.954  34.206  1.00  0.00     0.049 A 
ATOM     49  C   UNL A   1      38.179  31.232  31.459  1.00  0.00     0.074 A 
ATOM     50  C   UNL A   1      42.700  29.384  35.506  1.00  0.00     0.029 A 
ATOM     51  N   UNL A   1      41.375  29.633  33.736  1.00  0.00    -0.354 N 
ATOM     52  N   UNL A   1      39.150  30.800  32.225  1.00  0.00    -0.248 NA
ATOM     53  C   UNL A   1      37.259  32.165  32.128  1.00  0.00     0.031 C 
ATOM     54  C   UNL A   1      41.685  30.290  35.835  1.00  0.00     0.029 A 
ATOM     55  C   UNL A   1      40.869  30.456  34.729  1.00  0.00     0.049 A 
ATOM     56  H   UNL A   1      40.999  29.542  32.831  1.00  0.00     0.167 HD
ATOM     57  C   UNL A   1      38.974  31.421  33.454  1.00  0.00     0.074 A 
ATOM     58  C   UNL A   1      37.809  32.272  33.329  1.00  0.00     0.031 C 
ATOM     59  C   UNL A   1      39.710  31.297  34.586  1.00  0.00     0.037 A 
BRANCH  46  60
ATOM     60  C   UNL A   1      44.377  27.289  34.125  1.00  0.00     0.064 A 
ATOM     61  C   UNL A   1      45.666  27.840  34.160  1.00  0.00     0.173 A 
ATOM     62  C   UNL A   1      44.164  26.071  34.788  1.00  0.00     0.173 A 
ATOM     63  F   UNL A   1      45.923  28.997  33.530  1.00  0.00    -0.203 F 
ATOM     64  C   UNL A   1      46.706  27.186  34.817  1.00  0.00     0.198 A 
ATOM     65  C   UNL A   1      45.199  25.432  35.463  1.00  0.00     0.198 A 
ATOM     66  F   UNL A   1      42.947  25.505  34.787  1.00  0.00    -0.203 F 
ATOM     67  F   UNL A   1      47.938  27.713  34.809  1.00  0.00    -0.200 F 
ATOM     68  C   UNL A   1      46.470  25.987  35.473  1.00  0.00     0.200 A 
ATOM     69  F   UNL A   1      44.968  24.278  36.104  1.00  0.00    -0.200 F 
ATOM     70  F   UNL A   1      47.469  25.363  36.112  1.00  0.00    -0.200 F 
ENDBRANCH  46  60
BRANCH  47  71
ATOM     71  C   UNL A   1      36.732  31.527  29.319  1.00  0.00     0.064 A 
ATOM     72  C   UNL A   1      35.624  30.758  28.939  1.00  0.00     0.173 A 
ATOM     73  C   UNL A   1      36.714  32.895  29.012  1.00  0.00     0.173 A 
ATOM     74  F   UNL A   1      35.606  29.440  29.191  1.00  0.00    -0.203 F 
ATOM     75  C   UNL A   1      34.549  31.330  28.263  1.00  0.00     0.198 A 
ATOM     76  C   UNL A   1      35.628  33.472  28.358  1.00  0.00     0.198 A 
ATOM     77  F   UNL A   1      37.752  33.673  29.353  1.00  0.00    -0.203 F 
ATOM     78  F   UNL A   1      33.520  30.566  27.874  1.00  0.00    -0.200 F 
ATOM     79  C   UNL A   1      34.550  32.688  27.978  1.00  0.00     0.200 A 
ATOM     80  F   UNL A   1      35.629  34.786  28.093  1.00  0.00    -0.200 F 
ATOM     81  F   UNL A   1      33.514  33.239  27.330  1.00  0.00    -0.200 F 
ENDBRANCH  47  71
BRANCH  59  82
ATOM     82  C   UNL A   1      39.291  32.113  35.773  1.00  0.00     0.064 A 
ATOM     83  C   UNL A   1      39.754  33.424  35.958  1.00  0.00     0.173 A 
ATOM     84  C   UNL A   1      38.383  31.596  36.709  1.00  0.00     0.173 A 
ATOM     85  F   UNL A   1      40.634  33.957  35.098  1.00  0.00    -0.203 F 
ATOM     86  C   UNL A   1      39.338  34.180  37.051  1.00  0.00     0.198 A 
ATOM     87  C   UNL A   1      37.950  32.364  37.785  1.00  0.00     0.198 A 
ATOM     88  F   UNL A   1      37.906  30.350  36.571  1.00  0.00    -0.203 F 
ATOM     89  F   UNL A   1      39.822  35.417  37.230  1.00  0.00    -0.200 F 
ATOM     90  C   UNL A   1      38.431  33.653  37.959  1.00  0.00     0.200 A 
ATOM     91  F   UNL A   1      37.065  31.858  38.656  1.00  0.00    -0.200 F 
ATOM     92  F   UNL A   1      38.028  34.385  39.006  1.00  0.00    -0.200 F 
ENDBRANCH  59  82
ENDBRANCH  33  34
ENDBRANCH  26  28
ENDBRANCH  25  26
ENDBRANCH  24  25
ENDBRANCH  23  24
ENDBRANCH   1  23
TORSDOF 17
ENDMDL
MODEL 2
REMARK VINA RESULT:     -11.2      2.912      8.505
REMARK SMILES CC[C@H]1SC[C@H](C(=O)OCCOCCOC(=O)c2ccc(-c3c4nc(c(-c5c(F)c(F)c(F)c(F)c5F)c5ccc([nH]5)c(-c5c(F)c(F)c(F)c(F)c5F)c5nc(c(-c6c(F)c(F)c(F)c(F)c6F)c6ccc3[nH]6)C=C5)C=C4)cc2)N1C(=O)N1C[C@@H](C)[C@@H](C)C1
REMARK SMILES IDX 12 1 11 2 10 3 9 4 7 5 8 6 6 7 3 8 4 9 81 10 5 11 2 12 1 13
REMARK SMILES IDX 82 14 83 15 84 16 85 17 90 18 86 19 88 20 87 21 89 22 13 23
REMARK SMILES IDX 14 24 15 25 16 26 17 27 18 28 19 29 80 30 20 31 79 32 21 33
REMARK SMILES IDX 22 34 23 35 73 36 24 37 78 38 72 39 74 40 25 41 77 42 71 43
REMARK SMILES IDX 70 44 26 46 58 47 38 48 57 49 39 50 42 51 56 52 75 53 40 54
REMARK SMILES IDX 41 55 55 57 76 58 43 59 27 60 28 61 36 62 29 63 30 64 34 65
REMARK SMILES IDX 37 66 31 67 32 68 35 69 33 70 59 71 60 72 68 73 61 74 62 75
REMARK SMILES IDX 66 76 69 77 63 78 64 79 67 80 65 81 44 82 45 83 53 84 46 85
REMARK SMILES IDX 47 86 51 87 54 88 48 89 49 90 52 91 50 92
REMARK H PARENT 74 45 42 56
REMARK Flexibility Score: inf
ROOT
ATOM      1  O   UNL A   1      31.982  30.241  25.287  1.00  0.00    -0.374 OA
ENDROOT
BRANCH   1   2
ATOM      2  C   UNL A   1      31.488  28.982  24.839  1.00  0.00     0.202 C 
BRANCH   2   3
ATOM      3  C   UNL A   1      32.164  27.718  25.383  1.00  0.00     0.261 C 
BRANCH   3   4
ATOM      4  O   UNL A   1      32.591  26.781  24.380  1.00  0.00    -0.462 OA
BRANCH   4   5
ATOM      5  C   UNL A   1      31.947  25.576  24.392  1.00  0.00     0.329 C 
ATOM      6  O   UNL A   1      30.879  25.361  23.832  1.00  0.00    -0.250 OA
BRANCH   5   7
ATOM      7  C   UNL A   1      32.748  24.526  25.172  1.00  0.00     0.208 C 
ATOM      8  C   UNL A   1      32.542  22.112  24.666  1.00  0.00     0.145 C 
ATOM      9  S   UNL A   1      31.070  22.544  25.645  1.00  0.00    -0.134 SA
ATOM     10  N   UNL A   1      33.186  23.383  24.333  1.00  0.00    -0.298 N 
ATOM     11  C   UNL A   1      31.850  24.029  26.305  1.00  0.00     0.109 C 
BRANCH   8  12
ATOM     12  C   UNL A   1      33.485  21.219  25.499  1.00  0.00     0.033 C 
ATOM     13  C   UNL A   1      33.874  19.909  24.825  1.00  0.00     0.007 C 
ENDBRANCH   8  12
BRANCH  10  14
ATOM     14  C   UNL A   1      34.357  23.510  23.615  1.00  0.00     0.321 C 
ATOM     15  O   UNL A   1      34.322  23.669  22.394  1.00  0.00    -0.248 OA
BRANCH  14  16
ATOM     16  N   UNL A   1      35.559  23.499  24.290  1.00  0.00    -0.324 N 
ATOM     17  C   UNL A   1      36.520  22.431  24.054  1.00  0.00     0.125 C 
ATOM     18  C   UNL A   1      35.798  24.120  25.590  1.00  0.00     0.125 C 
ATOM     19  C   UNL A   1      37.051  22.052  25.433  1.00  0.00     0.010 C 
ATOM     20  C   UNL A   1      36.991  23.374  26.219  1.00  0.00     0.010 C 
ATOM     21  C   UNL A   1      38.410  21.366  25.368  1.00  0.00     0.010 C 
ATOM     22  C   UNL A   1      38.266  24.217  26.164  1.00  0.00     0.010 C 
ENDBRANCH  14  16
ENDBRANCH  10  14
ENDBRANCH   5   7
ENDBRANCH   4   5
ENDBRANCH   3   4
ENDBRANCH   2   3
ENDBRANCH   1   2
BRANCH   1  23
ATOM     23  C   UNL A   1      31.037  31.193  25.771  1.00  0.00     0.202 C 
BRANCH  23  24
ATOM     24  C   UNL A   1      31.567  32.267  26.720  1.00  0.00     0.261 C 
BRANCH  24  25
ATOM     25  O   UNL A   1      32.722  31.816  27.446  1.00  0.00    -0.460 OA
BRANCH  25  26
ATOM     26  C   UNL A   1      33.591  32.796  27.770  1.00  0.00     0.338 C 
ATOM     27  O   UNL A   1      33.338  33.973  27.993  1.00  0.00    -0.246 OA
BRANCH  26  28
ATOM     28  C   UNL A   1      34.934  32.242  27.988  1.00  0.00     0.060 A 
ATOM     29  C   UNL A   1      35.030  30.858  28.174  1.00  0.00     0.016 A 
ATOM     30  C   UNL A   1      36.047  33.067  28.162  1.00  0.00     0.016 A 
ATOM     31  C   UNL A   1      36.226  30.301  28.618  1.00  0.00     0.010 A 
ATOM     32  C   UNL A   1      37.247  32.505  28.616  1.00  0.00     0.010 A 
ATOM     33  C   UNL A   1      37.322  31.129  28.896  1.00  0.00    -0.014 A 
BRANCH  33  34
ATOM     34  C   UNL A   1      38.469  30.556  29.641  1.00  0.00     0.031 A 
ATOM     35  C   UNL A   1      38.683  30.961  31.074  1.00  0.00     0.074 A 
ATOM     36  C   UNL A   1      39.266  29.635  29.073  1.00  0.00     0.049 A 
ATOM     37  N   UNL A   1      39.568  30.529  31.937  1.00  0.00    -0.248 NA
ATOM     38  C   UNL A   1      37.774  31.987  31.610  1.00  0.00     0.031 C 
ATOM     39  C   UNL A   1      39.146  29.150  27.701  1.00  0.00     0.029 A 
ATOM     40  N   UNL A   1      40.331  28.940  29.587  1.00  0.00    -0.354 N 
ATOM     41  C   UNL A   1      39.321  31.224  33.113  1.00  0.00     0.074 A 
ATOM     42  C   UNL A   1      38.225  32.131  32.848  1.00  0.00     0.031 C 
ATOM     43  C   UNL A   1      40.106  28.234  27.478  1.00  0.00     0.029 A 
ATOM     44  C   UNL A   1      40.912  28.082  28.689  1.00  0.00     0.049 A 
ATOM     45  H   UNL A   1      40.648  29.047  30.514  1.00  0.00     0.167 HD
ATOM     46  C   UNL A   1      39.944  31.109  34.310  1.00  0.00     0.037 A 
ATOM     47  C   UNL A   1      41.977  27.269  28.829  1.00  0.00     0.037 A 
ATOM     48  C   UNL A   1      41.028  30.202  34.576  1.00  0.00     0.049 A 
ATOM     49  C   UNL A   1      42.677  27.188  30.160  1.00  0.00     0.074 A 
ATOM     50  C   UNL A   1      41.697  29.982  35.768  1.00  0.00     0.029 A 
ATOM     51  N   UNL A   1      41.609  29.369  33.632  1.00  0.00    -0.354 N 
ATOM     52  N   UNL A   1      42.400  27.808  31.280  1.00  0.00    -0.248 NA
ATOM     53  C   UNL A   1      43.834  26.284  30.246  1.00  0.00     0.031 C 
ATOM     54  C   UNL A   1      42.712  29.048  35.533  1.00  0.00     0.029 A 
ATOM     55  C   UNL A   1      42.648  28.655  34.207  1.00  0.00     0.049 A 
ATOM     56  H   UNL A   1      41.325  29.296  32.692  1.00  0.00     0.167 HD
ATOM     57  C   UNL A   1      43.329  27.356  32.208  1.00  0.00     0.074 A 
ATOM     58  C   UNL A   1      44.171  26.397  31.523  1.00  0.00     0.031 C 
ATOM     59  C   UNL A   1      43.474  27.704  33.510  1.00  0.00     0.037 A 
BRANCH  46  60
ATOM     60  C   UNL A   1      39.478  31.998  35.423  1.00  0.00     0.064 A 
ATOM     61  C   UNL A   1      38.516  31.571  36.350  1.00  0.00     0.173 A 
ATOM     62  C   UNL A   1      40.032  33.276  35.590  1.00  0.00     0.173 A 
ATOM     63  F   UNL A   1      37.948  30.362  36.226  1.00  0.00    -0.203 F 
ATOM     64  C   UNL A   1      38.112  32.401  37.395  1.00  0.00     0.198 A 
ATOM     65  C   UNL A   1      39.643  34.092  36.647  1.00  0.00     0.198 A 
ATOM     66  F   UNL A   1      40.958  33.727  34.731  1.00  0.00    -0.203 F 
ATOM     67  F   UNL A   1      37.168  31.986  38.250  1.00  0.00    -0.200 F 
ATOM     68  C   UNL A   1      38.681  33.657  37.545  1.00  0.00     0.200 A 
ATOM     69  F   UNL A   1      40.200  35.302  36.797  1.00  0.00    -0.200 F 
ATOM     70  F   UNL A   1      38.298  34.450  38.555  1.00  0.00    -0.200 F 
ENDBRANCH  46  60
BRANCH  47  71
ATOM     71  C   UNL A   1      42.449  26.466  27.672  1.00  0.00     0.064 A 
ATOM     72  C   UNL A   1      43.460  26.937  26.823  1.00  0.00     0.173 A 
ATOM     73  C   UNL A   1      41.889  25.212  27.389  1.00  0.00     0.173 A 
ATOM     74  F   UNL A   1      44.009  28.141  27.041  1.00  0.00    -0.203 F 
ATOM     75  C   UNL A   1      43.881  26.191  25.725  1.00  0.00     0.198 A 
ATOM     76  C   UNL A   1      42.328  24.455  26.304  1.00  0.00     0.198 A 
ATOM     77  F   UNL A   1      40.917  24.718  28.171  1.00  0.00    -0.203 F 
ATOM     78  F   UNL A   1      44.819  26.682  24.904  1.00  0.00    -0.200 F 
ATOM     79  C   UNL A   1      43.318  24.949  25.469  1.00  0.00     0.200 A 
ATOM     80  F   UNL A   1      41.788  23.252  26.067  1.00  0.00    -0.200 F 
ATOM     81  F   UNL A   1      43.725  24.231  24.413  1.00  0.00    -0.200 F 
ENDBRANCH  47  71
BRANCH  59  82
ATOM     82  C   UNL A   1      44.568  27.033  34.285  1.00  0.00     0.064 A 
ATOM     83  C   UNL A   1      45.845  27.605  34.391  1.00  0.00     0.173 A 
ATOM     84  C   UNL A   1      44.325  25.831  34.966  1.00  0.00     0.173 A 
ATOM     85  F   UNL A   1      46.129  28.746  33.747  1.00  0.00    -0.203 F 
ATOM     86  C   UNL A   1      46.845  26.984  35.135  1.00  0.00     0.198 A 
ATOM     87  C   UNL A   1      45.320  25.227  35.729  1.00  0.00     0.198 A 
ATOM     88  F   UNL A   1      43.119  25.249  34.901  1.00  0.00    -0.203 F 
ATOM     89  F   UNL A   1      48.069  27.527  35.191  1.00  0.00    -0.200 F 
ATOM     90  C   UNL A   1      46.581  25.801  35.809  1.00  0.00     0.200 A 
ATOM     91  F   UNL A   1      45.060  24.089  36.389  1.00  0.00    -0.200 F 
ATOM     92  F   UNL A   1      47.543  25.209  36.529  1.00  0.00    -0.200 F 
ENDBRANCH  59  82
ENDBRANCH  33  34
ENDBRANCH  26  28
ENDBRANCH  25  26
ENDBRANCH  24  25
ENDBRANCH  23  24
ENDBRANCH   1  23
TORSDOF 17
ENDMDL
MODEL 3
REMARK VINA RESULT:     -11.1      4.359      6.850
REMARK SMILES CC[C@H]1SC[C@H](C(=O)OCCOCCOC(=O)c2ccc(-c3c4nc(c(-c5c(F)c(F)c(F)c(F)c5F)c5ccc([nH]5)c(-c5c(F)c(F)c(F)c(F)c5F)c5nc(c(-c6c(F)c(F)c(F)c(F)c6F)c6ccc3[nH]6)C=C5)C=C4)cc2)N1C(=O)N1C[C@@H](C)[C@@H](C)C1
REMARK SMILES IDX 12 1 11 2 10 3 9 4 7 5 8 6 6 7 3 8 4 9 81 10 5 11 2 12 1 13
REMARK SMILES IDX 82 14 83 15 84 16 85 17 90 18 86 19 88 20 87 21 89 22 13 23
REMARK SMILES IDX 14 24 15 25 16 26 17 27 18 28 19 29 80 30 20 31 79 32 21 33
REMARK SMILES IDX 22 34 23 35 73 36 24 37 78 38 72 39 74 40 25 41 77 42 71 43
REMARK SMILES IDX 70 44 26 46 58 47 38 48 57 49 39 50 42 51 56 52 75 53 40 54
REMARK SMILES IDX 41 55 55 57 76 58 43 59 27 60 28 61 36 62 29 63 30 64 34 65
REMARK SMILES IDX 37 66 31 67 32 68 35 69 33 70 59 71 60 72 68 73 61 74 62 75
REMARK SMILES IDX 66 76 69 77 63 78 64 79 67 80 65 81 44 82 45 83 53 84 46 85
REMARK SMILES IDX 47 86 51 87 54 88 48 89 49 90 52 91 50 92
REMARK H PARENT 74 45 42 56
REMARK Flexibility Score: inf
ROOT
ATOM      1  O   UNL A   1      34.804  21.066  26.178  1.00  0.00    -0.374 OA
ENDROOT
BRANCH   1   2
ATOM      2  C   UNL A   1      33.801  21.891  26.764  1.00  0.00     0.202 C 
BRANCH   2   3
ATOM      3  C   UNL A   1      33.845  23.392  26.454  1.00  0.00     0.261 C 
BRANCH   3   4
ATOM      4  O   UNL A   1      32.596  23.956  26.021  1.00  0.00    -0.462 OA
BRANCH   4   5
ATOM      5  C   UNL A   1      32.516  24.248  24.688  1.00  0.00     0.329 C 
ATOM      6  O   UNL A   1      32.248  23.428  23.819  1.00  0.00    -0.250 OA
BRANCH   5   7
ATOM      7  C   UNL A   1      32.780  25.737  24.429  1.00  0.00     0.208 C 
ATOM      8  C   UNL A   1      30.968  27.259  23.705  1.00  0.00     0.145 C 
ATOM      9  S   UNL A   1      31.463  26.330  22.220  1.00  0.00    -0.134 SA
ATOM     10  N   UNL A   1      31.647  26.609  24.826  1.00  0.00    -0.298 N 
ATOM     11  C   UNL A   1      33.058  25.889  22.934  1.00  0.00     0.109 C 
BRANCH   8  12
ATOM     12  C   UNL A   1      31.407  28.732  23.575  1.00  0.00     0.033 C 
ATOM     13  C   UNL A   1      30.324  29.748  23.915  1.00  0.00     0.007 C 
ENDBRANCH   8  12
BRANCH  10  14
ATOM     14  C   UNL A   1      31.565  27.016  26.142  1.00  0.00     0.321 C 
ATOM     15  O   UNL A   1      30.669  26.586  26.870  1.00  0.00    -0.248 OA
BRANCH  14  16
ATOM     16  N   UNL A   1      32.524  27.873  26.637  1.00  0.00    -0.324 N 
ATOM     17  C   UNL A   1      32.132  29.142  27.235  1.00  0.00     0.125 C 
ATOM     18  C   UNL A   1      33.912  27.932  26.186  1.00  0.00     0.125 C 
ATOM     19  C   UNL A   1      33.130  30.166  26.704  1.00  0.00     0.010 C 
ATOM     20  C   UNL A   1      34.421  29.349  26.517  1.00  0.00     0.010 C 
ATOM     21  C   UNL A   1      33.234  31.397  27.595  1.00  0.00     0.010 C 
ATOM     22  C   UNL A   1      35.359  29.335  27.725  1.00  0.00     0.010 C 
ENDBRANCH  14  16
ENDBRANCH  10  14
ENDBRANCH   5   7
ENDBRANCH   4   5
ENDBRANCH   3   4
ENDBRANCH   2   3
ENDBRANCH   1   2
BRANCH   1  23
ATOM     23  C   UNL A   1      36.014  21.688  25.752  1.00  0.00     0.202 C 
BRANCH  23  24
ATOM     24  C   UNL A   1      37.155  20.761  25.335  1.00  0.00     0.261 C 
BRANCH  24  25
ATOM     25  O   UNL A   1      38.377  21.482  25.111  1.00  0.00    -0.460 OA
BRANCH  25  26
ATOM     26  C   UNL A   1      39.348  21.220  26.010  1.00  0.00     0.338 C 
ATOM     27  O   UNL A   1      39.994  20.187  26.130  1.00  0.00    -0.246 OA
BRANCH  26  28
ATOM     28  C   UNL A   1      39.676  22.427  26.780  1.00  0.00     0.060 A 
ATOM     29  C   UNL A   1      39.025  23.612  26.417  1.00  0.00     0.016 A 
ATOM     30  C   UNL A   1      40.703  22.436  27.726  1.00  0.00     0.016 A 
ATOM     31  C   UNL A   1      39.458  24.827  26.938  1.00  0.00     0.010 A 
ATOM     32  C   UNL A   1      41.142  23.661  28.243  1.00  0.00     0.010 A 
ATOM     33  C   UNL A   1      40.555  24.863  27.810  1.00  0.00    -0.014 A 
BRANCH  33  34
ATOM     34  C   UNL A   1      41.175  26.176  28.112  1.00  0.00     0.031 A 
ATOM     35  C   UNL A   1      42.577  26.446  27.637  1.00  0.00     0.074 A 
ATOM     36  C   UNL A   1      40.476  27.138  28.735  1.00  0.00     0.049 A 
ATOM     37  N   UNL A   1      43.285  27.544  27.718  1.00  0.00    -0.248 NA
ATOM     38  C   UNL A   1      43.274  25.330  26.977  1.00  0.00     0.031 C 
ATOM     39  C   UNL A   1      39.106  27.002  29.224  1.00  0.00     0.029 A 
ATOM     40  N   UNL A   1      40.824  28.425  29.058  1.00  0.00    -0.354 N 
ATOM     41  C   UNL A   1      44.503  27.254  27.118  1.00  0.00     0.074 A 
ATOM     42  C   UNL A   1      44.455  25.868  26.706  1.00  0.00     0.031 C 
ATOM     43  C   UNL A   1      38.729  28.162  29.790  1.00  0.00     0.029 A 
ATOM     44  C   UNL A   1      39.836  29.114  29.713  1.00  0.00     0.049 A 
ATOM     45  H   UNL A   1      41.701  28.818  28.839  1.00  0.00     0.167 HD
ATOM     46  C   UNL A   1      45.563  28.073  26.918  1.00  0.00     0.037 A 
ATOM     47  C   UNL A   1      39.829  30.371  30.200  1.00  0.00     0.037 A 
ATOM     48  C   UNL A   1      45.609  29.453  27.320  1.00  0.00     0.049 A 
ATOM     49  C   UNL A   1      41.036  31.250  29.998  1.00  0.00     0.074 A 
ATOM     50  C   UNL A   1      46.623  30.376  27.125  1.00  0.00     0.029 A 
ATOM     51  N   UNL A   1      44.599  30.108  28.008  1.00  0.00    -0.354 N 
ATOM     52  N   UNL A   1      42.160  30.983  29.382  1.00  0.00    -0.248 NA
ATOM     53  C   UNL A   1      40.966  32.609  30.554  1.00  0.00     0.031 C 
ATOM     54  C   UNL A   1      46.242  31.577  27.735  1.00  0.00     0.029 A 
ATOM     55  C   UNL A   1      44.976  31.414  28.272  1.00  0.00     0.049 A 
ATOM     56  H   UNL A   1      43.740  29.703  28.271  1.00  0.00     0.167 HD
ATOM     57  C   UNL A   1      42.922  32.142  29.455  1.00  0.00     0.074 A 
ATOM     58  C   UNL A   1      42.125  33.121  30.165  1.00  0.00     0.031 C 
ATOM     59  C   UNL A   1      44.169  32.375  28.978  1.00  0.00     0.037 A 
BRANCH  46  60
ATOM     60  C   UNL A   1      46.771  27.493  26.247  1.00  0.00     0.064 A 
ATOM     61  C   UNL A   1      46.954  27.582  24.859  1.00  0.00     0.173 A 
ATOM     62  C   UNL A   1      47.779  26.880  27.006  1.00  0.00     0.173 A 
ATOM     63  F   UNL A   1      46.012  28.149  24.089  1.00  0.00    -0.203 F 
ATOM     64  C   UNL A   1      48.095  27.060  24.253  1.00  0.00     0.198 A 
ATOM     65  C   UNL A   1      48.928  26.380  26.400  1.00  0.00     0.198 A 
ATOM     66  F   UNL A   1      47.652  26.774  28.337  1.00  0.00    -0.203 F 
ATOM     67  F   UNL A   1      48.234  27.126  22.922  1.00  0.00    -0.200 F 
ATOM     68  C   UNL A   1      49.083  26.466  25.025  1.00  0.00     0.200 A 
ATOM     69  F   UNL A   1      49.886  25.815  27.147  1.00  0.00    -0.200 F 
ATOM     70  F   UNL A   1      50.183  25.972  24.441  1.00  0.00    -0.200 F 
ENDBRANCH  46  60
BRANCH  47  71
ATOM     71  C   UNL A   1      38.637  30.874  30.927  1.00  0.00     0.064 A 
ATOM     72  C   UNL A   1      37.550  31.434  30.243  1.00  0.00     0.173 A 
ATOM     73  C   UNL A   1      38.567  30.813  32.327  1.00  0.00     0.173 A 
ATOM     74  F   UNL A   1      37.582  31.535  28.905  1.00  0.00    -0.203 F 
ATOM     75  C   UNL A   1      36.444  31.928  30.931  1.00  0.00     0.198 A 
ATOM     76  C   UNL A   1      37.451  31.285  33.014  1.00  0.00     0.198 A 
ATOM     77  F   UNL A   1      39.583  30.288  33.027  1.00  0.00    -0.203 F 
ATOM     78  F   UNL A   1      35.436  32.497  30.257  1.00  0.00    -0.200 F 
ATOM     79  C   UNL A   1      36.393  31.849  32.315  1.00  0.00     0.200 A 
ATOM     80  F   UNL A   1      37.402  31.197  34.350  1.00  0.00    -0.200 F 
ATOM     81  F   UNL A   1      35.329  32.323  32.978  1.00  0.00    -0.200 F 
ENDBRANCH  47  71
BRANCH  59  82
ATOM     82  C   UNL A   1      44.743  33.744  29.190  1.00  0.00     0.064 A 
ATOM     83  C   UNL A   1      45.527  34.042  30.315  1.00  0.00     0.173 A 
ATOM     84  C   UNL A   1      44.546  34.755  28.238  1.00  0.00     0.173 A 
ATOM     85  F   UNL A   1      45.732  33.112  31.259  1.00  0.00    -0.203 F 
ATOM     86  C   UNL A   1      46.075  35.311  30.488  1.00  0.00     0.198 A 
ATOM     87  C   UNL A   1      45.116  36.014  28.402  1.00  0.00     0.198 A 
ATOM     88  F   UNL A   1      43.809  34.518  27.143  1.00  0.00    -0.203 F 
ATOM     89  F   UNL A   1      46.789  35.584  31.589  1.00  0.00    -0.200 F 
ATOM     90  C   UNL A   1      45.876  36.292  29.529  1.00  0.00     0.200 A 
ATOM     91  F   UNL A   1      44.932  36.959  27.469  1.00  0.00    -0.200 F 
ATOM     92  F   UNL A   1      46.409  37.510  29.695  1.00  0.00    -0.200 F 
ENDBRANCH  59  82
ENDBRANCH  33  34
ENDBRANCH  26  28
ENDBRANCH  25  26
ENDBRANCH  24  25
ENDBRANCH  23  24
ENDBRANCH   1  23
TORSDOF 17
ENDMDL
