MODEL 1
REMARK VINA RESULT:     -12.7      0.000      0.000
REMARK SMILES Cc1ccc(-c2c(C)sc(NC(=O)[C@H]3CC=CC[C@H]3C(=O)OCCOCCOC(=O)c3ccc(-c4c5nc(c(-c6c(F)c(F)c(F)c(F)c6F)c6ccc([nH]6)c(-c6c(F)c(F)c(F)c(F)c6F)c6nc(c(-c7c(F)c(F)c(F)c(F)c7F)c7ccc4[nH]7)C=C6)C=C5)cc3)c2C(N)=O)cc1
REMARK SMILES IDX 24 1 23 2 22 3 20 4 21 5 19 6 14 7 15 8 16 9 18 10 17 11
REMARK SMILES IDX 12 12 11 13 13 15 10 16 6 17 7 18 94 19 8 20 9 21 5 22 1 23
REMARK SMILES IDX 2 24 3 25 99 26 4 27 98 28 95 29 96 30 97 31 25 34 26 35
REMARK SMILES IDX 27 36 28 37 29 38 30 39 31 40 32 41 93 42 33 43 92 44 34 45
REMARK SMILES IDX 35 46 36 47 86 48 37 49 91 50 85 51 87 52 38 53 90 54 84 55
REMARK SMILES IDX 83 56 39 58 71 59 51 60 70 61 52 62 55 63 69 64 88 65 53 66
REMARK SMILES IDX 54 67 68 69 89 70 56 71 40 72 41 73 49 74 42 75 43 76 47 77
REMARK SMILES IDX 50 78 44 79 45 80 48 81 46 82 72 83 73 84 81 85 74 86 75 87
REMARK SMILES IDX 79 88 82 89 76 90 77 91 80 92 78 93 57 94 58 95 66 96 59 97
REMARK SMILES IDX 60 98 64 99 67 100 61 101 62 102 65 103 63 104
REMARK H PARENT 11 14 96 32 96 33 87 57 55 68
REMARK Flexibility Score: inf
ROOT
ATOM      1  C   UNL A   1      36.519  23.006  23.437  1.00  0.00     0.202 C 
ENDROOT
BRANCH   1   2
ATOM      2  C   UNL A   1      35.345  23.256  24.342  1.00  0.00     0.261 C 
BRANCH   2   3
ATOM      3  O   UNL A   1      34.879  24.612  24.294  1.00  0.00    -0.463 OA
BRANCH   3   4
ATOM      4  C   UNL A   1      34.277  25.100  25.408  1.00  0.00     0.310 C 
ATOM      5  O   UNL A   1      34.249  24.562  26.499  1.00  0.00    -0.252 OA
BRANCH   4   6
ATOM      6  C   UNL A   1      33.649  26.429  25.138  1.00  0.00     0.116 C 
ATOM      7  C   UNL A   1      32.210  26.367  24.588  1.00  0.00     0.097 C 
ATOM      8  C   UNL A   1      31.800  27.757  24.087  1.00  0.00     0.041 C 
ATOM      9  C   UNL A   1      32.438  28.909  24.835  1.00  0.00    -0.030 C 
ATOM     10  C   UNL A   1      33.840  27.419  26.273  1.00  0.00     0.043 C 
ATOM     11  C   UNL A   1      33.326  28.761  25.834  1.00  0.00    -0.030 C 
BRANCH   7  12
ATOM     12  C   UNL A   1      31.138  25.466  25.298  1.00  0.00     0.229 C 
ATOM     13  N   UNL A   1      30.670  24.262  24.843  1.00  0.00    -0.317 N 
ATOM     14  H   UNL A   1      29.691  24.184  24.776  1.00  0.00     0.170 HD
ATOM     15  O   UNL A   1      30.519  25.942  26.263  1.00  0.00    -0.274 OA
BRANCH  13  16
ATOM     16  C   UNL A   1      31.384  23.148  24.468  1.00  0.00     0.109 A 
ATOM     17  C   UNL A   1      32.294  21.035  24.252  1.00  0.00     0.010 A 
ATOM     18  C   UNL A   1      31.968  21.389  22.949  1.00  0.00     0.012 A 
ATOM     19  C   UNL A   1      31.982  22.116  25.190  1.00  0.00     0.082 A 
ATOM     20  C   UNL A   1      31.811  20.594  21.699  1.00  0.00     0.057 C 
ATOM     21  S   UNL A   1      31.953  23.081  22.875  1.00  0.00    -0.122 S 
BRANCH  17  22
ATOM     22  C   UNL A   1      32.971  19.766  24.471  1.00  0.00    -0.016 A 
ATOM     23  C   UNL A   1      34.732  15.928  25.283  1.00  0.00     0.044 C 
ATOM     24  C   UNL A   1      34.125  17.272  25.026  1.00  0.00    -0.051 A 
ATOM     25  C   UNL A   1      34.922  18.356  24.621  1.00  0.00     0.004 A 
ATOM     26  C   UNL A   1      32.747  17.442  25.145  1.00  0.00     0.004 A 
ATOM     27  C   UNL A   1      34.350  19.606  24.358  1.00  0.00     0.009 A 
ATOM     28  C   UNL A   1      32.176  18.671  24.847  1.00  0.00     0.009 A 
ENDBRANCH  17  22
BRANCH  19  29
ATOM     29  C   UNL A   1      32.215  22.074  26.635  1.00  0.00     0.252 C 
ATOM     30  N   UNL A   1      33.328  21.397  27.059  1.00  0.00    -0.365 N 
ATOM     31  O   UNL A   1      31.465  22.550  27.473  1.00  0.00    -0.269 OA
ATOM     32  H   UNL A   1      33.947  21.005  26.400  1.00  0.00     0.159 HD
ATOM     33  H   UNL A   1      33.510  21.301  28.022  1.00  0.00     0.159 HD
ENDBRANCH  19  29
ENDBRANCH  13  16
ENDBRANCH   7  12
ENDBRANCH   4   6
ENDBRANCH   3   4
ENDBRANCH   2   3
ENDBRANCH   1   2
BRANCH   1  34
ATOM     34  O   UNL A   1      37.146  21.816  23.892  1.00  0.00    -0.374 OA
BRANCH  34  35
ATOM     35  C   UNL A   1      37.225  21.676  25.301  1.00  0.00     0.202 C 
BRANCH  35  36
ATOM     36  C   UNL A   1      38.653  21.437  25.817  1.00  0.00     0.261 C 
BRANCH  36  37
ATOM     37  O   UNL A   1      39.415  22.663  25.733  1.00  0.00    -0.460 OA
BRANCH  37  38
ATOM     38  C   UNL A   1      40.040  23.068  26.872  1.00  0.00     0.338 C 
ATOM     39  O   UNL A   1      40.536  22.322  27.707  1.00  0.00    -0.246 OA
BRANCH  38  40
ATOM     40  C   UNL A   1      39.784  24.520  27.104  1.00  0.00     0.060 A 
ATOM     41  C   UNL A   1      40.406  25.495  26.298  1.00  0.00     0.016 A 
ATOM     42  C   UNL A   1      39.202  24.896  28.312  1.00  0.00     0.016 A 
ATOM     43  C   UNL A   1      40.579  26.805  26.776  1.00  0.00     0.010 A 
ATOM     44  C   UNL A   1      39.496  26.139  28.828  1.00  0.00     0.010 A 
ATOM     45  C   UNL A   1      40.210  27.096  28.085  1.00  0.00    -0.014 A 
BRANCH  45  46
ATOM     46  C   UNL A   1      40.534  28.313  28.842  1.00  0.00     0.031 A 
ATOM     47  C   UNL A   1      39.503  29.376  28.870  1.00  0.00     0.074 A 
ATOM     48  C   UNL A   1      41.564  28.361  29.726  1.00  0.00     0.049 A 
ATOM     49  N   UNL A   1      39.651  30.514  29.445  1.00  0.00    -0.248 NA
ATOM     50  C   UNL A   1      38.213  29.257  28.196  1.00  0.00     0.031 C 
ATOM     51  C   UNL A   1      41.688  29.194  30.930  1.00  0.00     0.029 A 
ATOM     52  N   UNL A   1      42.763  27.633  29.748  1.00  0.00    -0.354 N 
ATOM     53  C   UNL A   1      38.423  31.130  29.504  1.00  0.00     0.074 A 
ATOM     54  C   UNL A   1      37.593  30.362  28.616  1.00  0.00     0.031 C 
ATOM     55  C   UNL A   1      42.959  29.168  31.371  1.00  0.00     0.029 A 
ATOM     56  C   UNL A   1      43.727  28.436  30.383  1.00  0.00     0.049 A 
ATOM     57  H   UNL A   1      42.903  26.728  29.386  1.00  0.00     0.167 HD
ATOM     58  C   UNL A   1      38.272  32.146  30.400  1.00  0.00     0.037 A 
ATOM     59  C   UNL A   1      44.831  28.853  29.708  1.00  0.00     0.037 A 
ATOM     60  C   UNL A   1      39.581  32.494  30.981  1.00  0.00     0.049 A 
ATOM     61  C   UNL A   1      44.817  30.349  29.646  1.00  0.00     0.074 A 
ATOM     62  C   UNL A   1      40.180  32.253  32.207  1.00  0.00     0.029 A 
ATOM     63  N   UNL A   1      40.609  32.892  30.123  1.00  0.00    -0.354 N 
ATOM     64  N   UNL A   1      43.713  31.040  29.732  1.00  0.00    -0.248 NA
ATOM     65  C   UNL A   1      46.007  31.186  29.597  1.00  0.00     0.031 C 
ATOM     66  C   UNL A   1      41.584  32.458  32.058  1.00  0.00     0.029 A 
ATOM     67  C   UNL A   1      41.838  32.853  30.752  1.00  0.00     0.049 A 
ATOM     68  H   UNL A   1      40.474  33.167  29.188  1.00  0.00     0.167 HD
ATOM     69  C   UNL A   1      44.014  32.360  29.853  1.00  0.00     0.074 A 
ATOM     70  C   UNL A   1      45.461  32.409  29.723  1.00  0.00     0.031 C 
ATOM     71  C   UNL A   1      43.047  33.300  30.062  1.00  0.00     0.037 A 
BRANCH  58  72
ATOM     72  C   UNL A   1      36.953  32.719  30.903  1.00  0.00     0.064 A 
ATOM     73  C   UNL A   1      36.185  33.565  30.069  1.00  0.00     0.173 A 
ATOM     74  C   UNL A   1      36.404  32.544  32.192  1.00  0.00     0.173 A 
ATOM     75  F   UNL A   1      36.550  33.820  28.806  1.00  0.00    -0.203 F 
ATOM     76  C   UNL A   1      35.008  34.194  30.499  1.00  0.00     0.198 A 
ATOM     77  C   UNL A   1      35.228  33.169  32.621  1.00  0.00     0.198 A 
ATOM     78  F   UNL A   1      36.960  31.759  33.112  1.00  0.00    -0.203 F 
ATOM     79  F   UNL A   1      34.341  35.001  29.662  1.00  0.00    -0.200 F 
ATOM     80  C   UNL A   1      34.531  33.999  31.777  1.00  0.00     0.200 A 
ATOM     81  F   UNL A   1      34.784  32.953  33.869  1.00  0.00    -0.200 F 
ATOM     82  F   UNL A   1      33.409  34.601  32.193  1.00  0.00    -0.200 F 
ENDBRANCH  58  72
BRANCH  59  83
ATOM     83  C   UNL A   1      45.240  27.862  28.668  1.00  0.00     0.064 A 
ATOM     84  C   UNL A   1      45.727  26.624  29.144  1.00  0.00     0.173 A 
ATOM     85  C   UNL A   1      44.692  27.874  27.379  1.00  0.00     0.173 A 
ATOM     86  F   UNL A   1      46.217  26.538  30.389  1.00  0.00    -0.203 F 
ATOM     87  C   UNL A   1      45.531  25.437  28.442  1.00  0.00     0.198 A 
ATOM     88  C   UNL A   1      44.503  26.679  26.672  1.00  0.00     0.198 A 
ATOM     89  F   UNL A   1      44.199  29.008  26.864  1.00  0.00    -0.203 F 
ATOM     90  F   UNL A   1      45.839  24.264  29.018  1.00  0.00    -0.200 F 
ATOM     91  C   UNL A   1      44.875  25.460  27.225  1.00  0.00     0.200 A 
ATOM     92  F   UNL A   1      43.851  26.691  25.500  1.00  0.00    -0.200 F 
ATOM     93  F   UNL A   1      44.530  24.311  26.627  1.00  0.00    -0.200 F 
ENDBRANCH  59  83
BRANCH  71  94
ATOM     94  C   UNL A   1      43.182  34.748  29.673  1.00  0.00     0.064 A 
ATOM     95  C   UNL A   1      43.444  35.776  30.595  1.00  0.00     0.173 A 
ATOM     96  C   UNL A   1      43.259  35.120  28.310  1.00  0.00     0.173 A 
ATOM     97  F   UNL A   1      43.537  35.541  31.911  1.00  0.00    -0.203 F 
ATOM     98  C   UNL A   1      43.698  37.085  30.190  1.00  0.00     0.198 A 
ATOM     99  C   UNL A   1      43.597  36.409  27.909  1.00  0.00     0.198 A 
ATOM    100  F   UNL A   1      43.056  34.238  27.321  1.00  0.00    -0.203 F 
ATOM    101  F   UNL A   1      43.890  38.036  31.114  1.00  0.00    -0.200 F 
ATOM    102  C   UNL A   1      43.795  37.397  28.849  1.00  0.00     0.200 A 
ATOM    103  F   UNL A   1      43.759  36.676  26.606  1.00  0.00    -0.200 F 
ATOM    104  F   UNL A   1      44.104  38.641  28.465  1.00  0.00    -0.200 F 
ENDBRANCH  71  94
ENDBRANCH  45  46
ENDBRANCH  38  40
ENDBRANCH  37  38
ENDBRANCH  36  37
ENDBRANCH  35  36
ENDBRANCH  34  35
ENDBRANCH   1  34
TORSDOF 18
ENDMDL
MODEL 2
REMARK VINA RESULT:     -12.6      1.623      4.390
REMARK SMILES Cc1ccc(-c2c(C)sc(NC(=O)[C@H]3CC=CC[C@H]3C(=O)OCCOCCOC(=O)c3ccc(-c4c5nc(c(-c6c(F)c(F)c(F)c(F)c6F)c6ccc([nH]6)c(-c6c(F)c(F)c(F)c(F)c6F)c6nc(c(-c7c(F)c(F)c(F)c(F)c7F)c7ccc4[nH]7)C=C6)C=C5)cc3)c2C(N)=O)cc1
REMARK SMILES IDX 24 1 23 2 22 3 20 4 21 5 19 6 14 7 15 8 16 9 18 10 17 11
REMARK SMILES IDX 12 12 11 13 13 15 10 16 6 17 7 18 94 19 8 20 9 21 5 22 1 23
REMARK SMILES IDX 2 24 3 25 99 26 4 27 98 28 95 29 96 30 97 31 25 34 26 35
REMARK SMILES IDX 27 36 28 37 29 38 30 39 31 40 32 41 93 42 33 43 92 44 34 45
REMARK SMILES IDX 35 46 36 47 86 48 37 49 91 50 85 51 87 52 38 53 90 54 84 55
REMARK SMILES IDX 83 56 39 58 71 59 51 60 70 61 52 62 55 63 69 64 88 65 53 66
REMARK SMILES IDX 54 67 68 69 89 70 56 71 40 72 41 73 49 74 42 75 43 76 47 77
REMARK SMILES IDX 50 78 44 79 45 80 48 81 46 82 72 83 73 84 81 85 74 86 75 87
REMARK SMILES IDX 79 88 82 89 76 90 77 91 80 92 78 93 57 94 58 95 66 96 59 97
REMARK SMILES IDX 60 98 64 99 67 100 61 101 62 102 65 103 63 104
REMARK H PARENT 11 14 96 32 96 33 87 57 55 68
REMARK Flexibility Score: inf
ROOT
ATOM      1  C   UNL A   1      35.588  19.983  25.129  1.00  0.00     0.202 C 
ENDROOT
BRANCH   1   2
ATOM      2  C   UNL A   1      34.211  20.581  25.065  1.00  0.00     0.261 C 
BRANCH   2   3
ATOM      3  O   UNL A   1      33.644  20.826  26.360  1.00  0.00    -0.463 OA
BRANCH   3   4
ATOM      4  C   UNL A   1      33.526  22.121  26.749  1.00  0.00     0.310 C 
ATOM      5  O   UNL A   1      33.370  22.513  27.891  1.00  0.00    -0.252 OA
BRANCH   4   6
ATOM      6  C   UNL A   1      33.637  23.044  25.579  1.00  0.00     0.116 C 
ATOM      7  C   UNL A   1      32.290  23.512  24.993  1.00  0.00     0.097 C 
ATOM      8  C   UNL A   1      32.537  24.201  23.645  1.00  0.00     0.041 C 
ATOM      9  C   UNL A   1      33.871  24.911  23.537  1.00  0.00    -0.030 C 
ATOM     10  C   UNL A   1      34.644  24.160  25.793  1.00  0.00     0.043 C 
ATOM     11  C   UNL A   1      34.801  24.920  24.507  1.00  0.00    -0.030 C 
BRANCH   7  12
ATOM     12  C   UNL A   1      31.174  24.075  25.944  1.00  0.00     0.229 C 
ATOM     13  N   UNL A   1      31.071  25.367  26.386  1.00  0.00    -0.317 N 
ATOM     14  H   UNL A   1      30.996  25.477  27.361  1.00  0.00     0.170 HD
ATOM     15  O   UNL A   1      30.410  23.265  26.493  1.00  0.00    -0.274 OA
BRANCH  13  16
ATOM     16  C   UNL A   1      31.056  26.529  25.652  1.00  0.00     0.109 A 
ATOM     17  C   UNL A   1      30.476  28.424  24.463  1.00  0.00     0.010 A 
ATOM     18  C   UNL A   1      31.458  28.870  25.338  1.00  0.00     0.012 A 
ATOM     19  C   UNL A   1      30.247  26.985  24.612  1.00  0.00     0.082 A 
ATOM     20  C   UNL A   1      31.857  30.231  25.794  1.00  0.00     0.057 C 
ATOM     21  S   UNL A   1      32.415  27.534  25.747  1.00  0.00    -0.122 S 
BRANCH  17  22
ATOM     22  C   UNL A   1      29.936  29.368  23.497  1.00  0.00    -0.016 A 
ATOM     23  C   UNL A   1      28.094  32.183  20.820  1.00  0.00     0.044 C 
ATOM     24  C   UNL A   1      28.718  31.183  21.742  1.00  0.00    -0.051 A 
ATOM     25  C   UNL A   1      29.743  30.334  21.295  1.00  0.00     0.004 A 
ATOM     26  C   UNL A   1      28.311  31.124  23.074  1.00  0.00     0.004 A 
ATOM     27  C   UNL A   1      30.342  29.416  22.165  1.00  0.00     0.009 A 
ATOM     28  C   UNL A   1      28.932  30.241  23.945  1.00  0.00     0.009 A 
ENDBRANCH  17  22
BRANCH  19  29
ATOM     29  C   UNL A   1      29.291  26.197  23.831  1.00  0.00     0.252 C 
ATOM     30  N   UNL A   1      27.962  26.442  24.057  1.00  0.00    -0.365 N 
ATOM     31  O   UNL A   1      29.598  25.313  23.046  1.00  0.00    -0.269 OA
ATOM     32  H   UNL A   1      27.692  27.151  24.686  1.00  0.00     0.159 HD
ATOM     33  H   UNL A   1      27.276  25.911  23.591  1.00  0.00     0.159 HD
ENDBRANCH  19  29
ENDBRANCH  13  16
ENDBRANCH   7  12
ENDBRANCH   4   6
ENDBRANCH   3   4
ENDBRANCH   2   3
ENDBRANCH   1   2
BRANCH   1  34
ATOM     34  O   UNL A   1      36.485  21.041  25.435  1.00  0.00    -0.374 OA
BRANCH  34  35
ATOM     35  C   UNL A   1      37.756  20.953  24.812  1.00  0.00     0.202 C 
BRANCH  35  36
ATOM     36  C   UNL A   1      38.928  21.244  25.762  1.00  0.00     0.261 C 
BRANCH  36  37
ATOM     37  O   UNL A   1      38.805  22.583  26.294  1.00  0.00    -0.460 OA
BRANCH  37  38
ATOM     38  C   UNL A   1      39.950  23.162  26.750  1.00  0.00     0.338 C 
ATOM     39  O   UNL A   1      40.941  22.556  27.135  1.00  0.00    -0.246 OA
BRANCH  38  40
ATOM     40  C   UNL A   1      39.723  24.617  26.987  1.00  0.00     0.060 A 
ATOM     41  C   UNL A   1      40.392  25.583  26.208  1.00  0.00     0.016 A 
ATOM     42  C   UNL A   1      39.115  24.998  28.180  1.00  0.00     0.016 A 
ATOM     43  C   UNL A   1      40.583  26.884  26.702  1.00  0.00     0.010 A 
ATOM     44  C   UNL A   1      39.424  26.230  28.716  1.00  0.00     0.010 A 
ATOM     45  C   UNL A   1      40.183  27.175  28.002  1.00  0.00    -0.014 A 
BRANCH  45  46
ATOM     46  C   UNL A   1      40.515  28.377  28.779  1.00  0.00     0.031 A 
ATOM     47  C   UNL A   1      39.488  29.443  28.830  1.00  0.00     0.074 A 
ATOM     48  C   UNL A   1      41.548  28.406  29.659  1.00  0.00     0.049 A 
ATOM     49  N   UNL A   1      39.642  30.570  29.424  1.00  0.00    -0.248 NA
ATOM     50  C   UNL A   1      38.194  29.340  28.160  1.00  0.00     0.031 C 
ATOM     51  C   UNL A   1      41.680  29.218  30.877  1.00  0.00     0.029 A 
ATOM     52  N   UNL A   1      42.745  27.673  29.663  1.00  0.00    -0.354 N 
ATOM     53  C   UNL A   1      38.416  31.189  29.499  1.00  0.00     0.074 A 
ATOM     54  C   UNL A   1      37.580  30.440  28.601  1.00  0.00     0.031 C 
ATOM     55  C   UNL A   1      42.953  29.179  31.311  1.00  0.00     0.029 A 
ATOM     56  C   UNL A   1      43.714  28.462  30.307  1.00  0.00     0.049 A 
ATOM     57  H   UNL A   1      42.880  26.774  29.284  1.00  0.00     0.167 HD
ATOM     58  C   UNL A   1      38.273  32.190  30.414  1.00  0.00     0.037 A 
ATOM     59  C   UNL A   1      44.817  28.887  29.635  1.00  0.00     0.037 A 
ATOM     60  C   UNL A   1      39.585  32.523  30.994  1.00  0.00     0.049 A 
ATOM     61  C   UNL A   1      44.808  30.384  29.599  1.00  0.00     0.074 A 
ATOM     62  C   UNL A   1      40.188  32.259  32.214  1.00  0.00     0.029 A 
ATOM     63  N   UNL A   1      40.611  32.932  30.139  1.00  0.00    -0.354 N 
ATOM     64  N   UNL A   1      43.706  31.077  29.702  1.00  0.00    -0.248 NA
ATOM     65  C   UNL A   1      46.001  31.217  29.561  1.00  0.00     0.031 C 
ATOM     66  C   UNL A   1      41.592  32.461  32.062  1.00  0.00     0.029 A 
ATOM     67  C   UNL A   1      41.842  32.878  30.762  1.00  0.00     0.049 A 
ATOM     68  H   UNL A   1      40.473  33.224  29.209  1.00  0.00     0.167 HD
ATOM     69  C   UNL A   1      44.013  32.393  29.845  1.00  0.00     0.074 A 
ATOM     70  C   UNL A   1      45.459  32.440  29.709  1.00  0.00     0.031 C 
ATOM     71  C   UNL A   1      43.051  33.333  30.075  1.00  0.00     0.037 A 
BRANCH  58  72
ATOM     72  C   UNL A   1      36.958  32.758  30.932  1.00  0.00     0.064 A 
ATOM     73  C   UNL A   1      36.176  33.601  30.107  1.00  0.00     0.173 A 
ATOM     74  C   UNL A   1      36.426  32.583  32.228  1.00  0.00     0.173 A 
ATOM     75  F   UNL A   1      36.525  33.856  28.839  1.00  0.00    -0.203 F 
ATOM     76  C   UNL A   1      35.002  34.226  30.551  1.00  0.00     0.198 A 
ATOM     77  C   UNL A   1      35.252  33.204  32.671  1.00  0.00     0.198 A 
ATOM     78  F   UNL A   1      36.996  31.801  33.142  1.00  0.00    -0.203 F 
ATOM     79  F   UNL A   1      34.322  35.029  29.721  1.00  0.00    -0.200 F 
ATOM     80  C   UNL A   1      34.542  34.031  31.834  1.00  0.00     0.200 A 
ATOM     81  F   UNL A   1      34.825  32.988  33.924  1.00  0.00    -0.200 F 
ATOM     82  F   UNL A   1      33.422  34.628  32.264  1.00  0.00    -0.200 F 
ENDBRANCH  58  72
BRANCH  59  83
ATOM     83  C   UNL A   1      45.218  27.913  28.577  1.00  0.00     0.064 A 
ATOM     84  C   UNL A   1      45.849  26.731  29.024  1.00  0.00     0.173 A 
ATOM     85  C   UNL A   1      44.562  27.852  27.340  1.00  0.00     0.173 A 
ATOM     86  F   UNL A   1      46.450  26.711  30.223  1.00  0.00    -0.203 F 
ATOM     87  C   UNL A   1      45.695  25.516  28.357  1.00  0.00     0.198 A 
ATOM     88  C   UNL A   1      44.416  26.631  26.668  1.00  0.00     0.198 A 
ATOM     89  F   UNL A   1      43.930  28.930  26.856  1.00  0.00    -0.203 F 
ATOM     90  F   UNL A   1      46.152  24.386  28.919  1.00  0.00    -0.200 F 
ATOM     91  C   UNL A   1      44.937  25.460  27.203  1.00  0.00     0.200 A 
ATOM     92  F   UNL A   1      43.666  26.564  25.558  1.00  0.00    -0.200 F 
ATOM     93  F   UNL A   1      44.642  24.273  26.652  1.00  0.00    -0.200 F 
ENDBRANCH  59  83
BRANCH  71  94
ATOM     94  C   UNL A   1      43.189  34.787  29.711  1.00  0.00     0.064 A 
ATOM     95  C   UNL A   1      43.412  35.803  30.655  1.00  0.00     0.173 A 
ATOM     96  C   UNL A   1      43.310  35.179  28.356  1.00  0.00     0.173 A 
ATOM     97  F   UNL A   1      43.462  35.551  31.970  1.00  0.00    -0.203 F 
ATOM     98  C   UNL A   1      43.671  37.120  30.277  1.00  0.00     0.198 A 
ATOM     99  C   UNL A   1      43.652  36.475  27.984  1.00  0.00     0.198 A 
ATOM    100  F   UNL A   1      43.146  34.310  27.349  1.00  0.00    -0.203 F 
ATOM    101  F   UNL A   1      43.825  38.059  31.220  1.00  0.00    -0.200 F 
ATOM    102  C   UNL A   1      43.811  37.451  28.944  1.00  0.00     0.200 A 
ATOM    103  F   UNL A   1      43.857  36.761  26.692  1.00  0.00    -0.200 F 
ATOM    104  F   UNL A   1      44.125  38.702  28.588  1.00  0.00    -0.200 F 
ENDBRANCH  71  94
ENDBRANCH  45  46
ENDBRANCH  38  40
ENDBRANCH  37  38
ENDBRANCH  36  37
ENDBRANCH  35  36
ENDBRANCH  34  35
ENDBRANCH   1  34
TORSDOF 18
ENDMDL
MODEL 3
REMARK VINA RESULT:     -12.4      3.374      9.114
REMARK SMILES Cc1ccc(-c2c(C)sc(NC(=O)[C@H]3CC=CC[C@H]3C(=O)OCCOCCOC(=O)c3ccc(-c4c5nc(c(-c6c(F)c(F)c(F)c(F)c6F)c6ccc([nH]6)c(-c6c(F)c(F)c(F)c(F)c6F)c6nc(c(-c7c(F)c(F)c(F)c(F)c7F)c7ccc4[nH]7)C=C6)C=C5)cc3)c2C(N)=O)cc1
REMARK SMILES IDX 24 1 23 2 22 3 20 4 21 5 19 6 14 7 15 8 16 9 18 10 17 11
REMARK SMILES IDX 12 12 11 13 13 15 10 16 6 17 7 18 94 19 8 20 9 21 5 22 1 23
REMARK SMILES IDX 2 24 3 25 99 26 4 27 98 28 95 29 96 30 97 31 25 34 26 35
REMARK SMILES IDX 27 36 28 37 29 38 30 39 31 40 32 41 93 42 33 43 92 44 34 45
REMARK SMILES IDX 35 46 36 47 86 48 37 49 91 50 85 51 87 52 38 53 90 54 84 55
REMARK SMILES IDX 83 56 39 58 71 59 51 60 70 61 52 62 55 63 69 64 88 65 53 66
REMARK SMILES IDX 54 67 68 69 89 70 56 71 40 72 41 73 49 74 42 75 43 76 47 77
REMARK SMILES IDX 50 78 44 79 45 80 48 81 46 82 72 83 73 84 81 85 74 86 75 87
REMARK SMILES IDX 79 88 82 89 76 90 77 91 80 92 78 93 57 94 58 95 66 96 59 97
REMARK SMILES IDX 60 98 64 99 67 100 61 101 62 102 65 103 63 104
REMARK H PARENT 11 14 96 32 96 33 87 57 55 68
REMARK Flexibility Score: inf
ROOT
ATOM      1  C   UNL A   1      31.510  30.538  26.518  1.00  0.00     0.202 C 
ENDROOT
BRANCH   1   2
ATOM      2  C   UNL A   1      31.033  30.511  25.093  1.00  0.00     0.261 C 
BRANCH   2   3
ATOM      3  O   UNL A   1      31.685  29.509  24.301  1.00  0.00    -0.463 OA
BRANCH   3   4
ATOM      4  C   UNL A   1      30.962  28.408  23.977  1.00  0.00     0.310 C 
ATOM      5  O   UNL A   1      29.796  28.208  24.264  1.00  0.00    -0.252 OA
BRANCH   4   6
ATOM      6  C   UNL A   1      31.782  27.445  23.181  1.00  0.00     0.116 C 
ATOM      7  C   UNL A   1      33.234  27.271  23.668  1.00  0.00     0.097 C 
ATOM      8  C   UNL A   1      34.034  26.499  22.611  1.00  0.00     0.041 C 
ATOM      9  C   UNL A   1      33.220  25.506  21.808  1.00  0.00    -0.030 C 
ATOM     10  C   UNL A   1      31.060  26.140  22.897  1.00  0.00     0.043 C 
ATOM     11  C   UNL A   1      31.897  25.321  21.956  1.00  0.00    -0.030 C 
BRANCH   7  12
ATOM     12  C   UNL A   1      33.524  27.004  25.188  1.00  0.00     0.229 C 
ATOM     13  N   UNL A   1      33.280  25.836  25.861  1.00  0.00    -0.317 N 
ATOM     14  H   UNL A   1      32.747  25.923  26.684  1.00  0.00     0.170 HD
ATOM     15  O   UNL A   1      33.838  27.969  25.902  1.00  0.00    -0.274 OA
BRANCH  13  16
ATOM     16  C   UNL A   1      33.680  24.560  25.542  1.00  0.00     0.109 A 
ATOM     17  C   UNL A   1      33.854  22.395  24.754  1.00  0.00     0.010 A 
ATOM     18  C   UNL A   1      35.070  22.971  24.410  1.00  0.00     0.012 A 
ATOM     19  C   UNL A   1      33.007  23.340  25.485  1.00  0.00     0.082 A 
ATOM     20  C   UNL A   1      36.137  22.573  23.449  1.00  0.00     0.057 C 
ATOM     21  S   UNL A   1      35.344  24.253  25.483  1.00  0.00    -0.122 S 
BRANCH  17  22
ATOM     22  C   UNL A   1      33.657  20.983  24.465  1.00  0.00    -0.016 A 
ATOM     23  C   UNL A   1      33.371  16.771  23.649  1.00  0.00     0.044 C 
ATOM     24  C   UNL A   1      33.481  18.241  23.907  1.00  0.00    -0.051 A 
ATOM     25  C   UNL A   1      32.479  19.125  23.475  1.00  0.00     0.004 A 
ATOM     26  C   UNL A   1      34.568  18.737  24.626  1.00  0.00     0.004 A 
ATOM     27  C   UNL A   1      32.572  20.497  23.738  1.00  0.00     0.009 A 
ATOM     28  C   UNL A   1      34.639  20.090  24.920  1.00  0.00     0.009 A 
ENDBRANCH  17  22
BRANCH  19  29
ATOM     29  C   UNL A   1      31.670  23.048  26.006  1.00  0.00     0.252 C 
ATOM     30  N   UNL A   1      30.613  23.331  25.181  1.00  0.00    -0.365 N 
ATOM     31  O   UNL A   1      31.440  22.628  27.129  1.00  0.00    -0.269 OA
ATOM     32  H   UNL A   1      30.776  23.671  24.271  1.00  0.00     0.159 HD
ATOM     33  H   UNL A   1      29.691  23.194  25.497  1.00  0.00     0.159 HD
ENDBRANCH  19  29
ENDBRANCH  13  16
ENDBRANCH   7  12
ENDBRANCH   4   6
ENDBRANCH   3   4
ENDBRANCH   2   3
ENDBRANCH   1   2
BRANCH   1  34
ATOM     34  O   UNL A   1      31.864  31.882  26.811  1.00  0.00    -0.374 OA
BRANCH  34  35
ATOM     35  C   UNL A   1      33.160  32.058  27.359  1.00  0.00     0.202 C 
BRANCH  35  36
ATOM     36  C   UNL A   1      33.902  30.739  27.624  1.00  0.00     0.261 C 
BRANCH  36  37
ATOM     37  O   UNL A   1      35.314  30.913  27.369  1.00  0.00    -0.460 OA
BRANCH  37  38
ATOM     38  C   UNL A   1      36.114  31.063  28.460  1.00  0.00     0.338 C 
ATOM     39  O   UNL A   1      36.248  32.100  29.098  1.00  0.00    -0.246 OA
BRANCH  38  40
ATOM     40  C   UNL A   1      37.017  29.883  28.596  1.00  0.00     0.060 A 
ATOM     41  C   UNL A   1      37.087  29.169  29.809  1.00  0.00     0.016 A 
ATOM     42  C   UNL A   1      38.012  29.709  27.638  1.00  0.00     0.016 A 
ATOM     43  C   UNL A   1      38.227  28.410  30.121  1.00  0.00     0.010 A 
ATOM     44  C   UNL A   1      39.180  29.077  28.006  1.00  0.00     0.010 A 
ATOM     45  C   UNL A   1      39.316  28.448  29.256  1.00  0.00    -0.014 A 
BRANCH  45  46
ATOM     46  C   UNL A   1      40.669  27.938  29.519  1.00  0.00     0.031 A 
ATOM     47  C   UNL A   1      41.004  26.612  28.951  1.00  0.00     0.074 A 
ATOM     48  C   UNL A   1      41.667  28.738  29.976  1.00  0.00     0.049 A 
ATOM     49  N   UNL A   1      42.122  26.009  29.130  1.00  0.00    -0.248 NA
ATOM     50  C   UNL A   1      40.067  25.821  28.158  1.00  0.00     0.031 C 
ATOM     51  C   UNL A   1      43.112  28.602  29.751  1.00  0.00     0.029 A 
ATOM     52  N   UNL A   1      41.598  29.902  30.757  1.00  0.00    -0.354 N 
ATOM     53  C   UNL A   1      42.186  24.950  28.255  1.00  0.00     0.074 A 
ATOM     54  C   UNL A   1      40.843  24.811  27.760  1.00  0.00     0.031 C 
ATOM     55  C   UNL A   1      43.780  29.409  30.596  1.00  0.00     0.029 A 
ATOM     56  C   UNL A   1      42.794  29.980  31.492  1.00  0.00     0.049 A 
ATOM     57  H   UNL A   1      40.851  30.543  30.785  1.00  0.00     0.167 HD
ATOM     58  C   UNL A   1      43.416  24.420  27.998  1.00  0.00     0.037 A 
ATOM     59  C   UNL A   1      42.773  29.932  32.851  1.00  0.00     0.037 A 
ATOM     60  C   UNL A   1      44.409  25.004  28.916  1.00  0.00     0.049 A 
ATOM     61  C   UNL A   1      43.539  28.725  33.298  1.00  0.00     0.074 A 
ATOM     62  C   UNL A   1      45.409  25.953  28.769  1.00  0.00     0.029 A 
ATOM     63  N   UNL A   1      44.212  24.863  30.292  1.00  0.00    -0.354 N 
ATOM     64  N   UNL A   1      43.697  27.678  32.534  1.00  0.00    -0.248 NA
ATOM     65  C   UNL A   1      44.269  28.627  34.554  1.00  0.00     0.031 C 
ATOM     66  C   UNL A   1      45.768  26.416  30.070  1.00  0.00     0.029 A 
ATOM     67  C   UNL A   1      45.012  25.731  31.010  1.00  0.00     0.049 A 
ATOM     68  H   UNL A   1      43.584  24.224  30.699  1.00  0.00     0.167 HD
ATOM     69  C   UNL A   1      44.595  26.833  33.107  1.00  0.00     0.074 A 
ATOM     70  C   UNL A   1      44.895  27.448  34.389  1.00  0.00     0.031 C 
ATOM     71  C   UNL A   1      45.023  25.704  32.472  1.00  0.00     0.037 A 
BRANCH  58  72
ATOM     72  C   UNL A   1      43.785  23.521  26.825  1.00  0.00     0.064 A 
ATOM     73  C   UNL A   1      43.275  22.203  26.755  1.00  0.00     0.173 A 
ATOM     74  C   UNL A   1      44.671  23.842  25.773  1.00  0.00     0.173 A 
ATOM     75  F   UNL A   1      42.403  21.742  27.662  1.00  0.00    -0.203 F 
ATOM     76  C   UNL A   1      43.643  21.296  25.751  1.00  0.00     0.198 A 
ATOM     77  C   UNL A   1      45.036  22.938  24.769  1.00  0.00     0.198 A 
ATOM     78  F   UNL A   1      45.231  25.042  25.643  1.00  0.00    -0.203 F 
ATOM     79  F   UNL A   1      43.136  20.055  25.758  1.00  0.00    -0.200 F 
ATOM     80  C   UNL A   1      44.526  21.662  24.760  1.00  0.00     0.200 A 
ATOM     81  F   UNL A   1      45.892  23.327  23.812  1.00  0.00    -0.200 F 
ATOM     82  F   UNL A   1      44.883  20.798  23.800  1.00  0.00    -0.200 F 
ENDBRANCH  58  72
BRANCH  59  83
ATOM     83  C   UNL A   1      41.510  30.513  33.398  1.00  0.00     0.064 A 
ATOM     84  C   UNL A   1      41.407  31.921  33.363  1.00  0.00     0.173 A 
ATOM     85  C   UNL A   1      40.311  29.789  33.418  1.00  0.00     0.173 A 
ATOM     86  F   UNL A   1      42.518  32.668  33.292  1.00  0.00    -0.203 F 
ATOM     87  C   UNL A   1      40.182  32.565  33.193  1.00  0.00     0.198 A 
ATOM     88  C   UNL A   1      39.081  30.440  33.254  1.00  0.00     0.198 A 
ATOM     89  F   UNL A   1      40.330  28.449  33.438  1.00  0.00    -0.203 F 
ATOM     90  F   UNL A   1      40.151  33.889  32.975  1.00  0.00    -0.200 F 
ATOM     91  C   UNL A   1      39.023  31.818  33.091  1.00  0.00     0.200 A 
ATOM     92  F   UNL A   1      37.955  29.721  33.136  1.00  0.00    -0.200 F 
ATOM     93  F   UNL A   1      37.869  32.413  32.757  1.00  0.00    -0.200 F 
ENDBRANCH  59  83
BRANCH  71  94
ATOM     94  C   UNL A   1      45.542  24.482  33.183  1.00  0.00     0.064 A 
ATOM     95  C   UNL A   1      46.830  24.399  33.739  1.00  0.00     0.173 A 
ATOM     96  C   UNL A   1      44.668  23.419  33.512  1.00  0.00     0.173 A 
ATOM     97  F   UNL A   1      47.718  25.395  33.623  1.00  0.00    -0.203 F 
ATOM     98  C   UNL A   1      47.233  23.308  34.508  1.00  0.00     0.198 A 
ATOM     99  C   UNL A   1      45.048  22.375  34.350  1.00  0.00     0.198 A 
ATOM    100  F   UNL A   1      43.402  23.379  33.071  1.00  0.00    -0.203 F 
ATOM    101  F   UNL A   1      48.490  23.256  34.970  1.00  0.00    -0.200 F 
ATOM    102  C   UNL A   1      46.338  22.308  34.830  1.00  0.00     0.200 A 
ATOM    103  F   UNL A   1      44.146  21.454  34.712  1.00  0.00    -0.200 F 
ATOM    104  F   UNL A   1      46.711  21.297  35.623  1.00  0.00    -0.200 F 
ENDBRANCH  71  94
ENDBRANCH  45  46
ENDBRANCH  38  40
ENDBRANCH  37  38
ENDBRANCH  36  37
ENDBRANCH  35  36
ENDBRANCH  34  35
ENDBRANCH   1  34
TORSDOF 18
ENDMDL
