MODEL 1
REMARK VINA RESULT:     -10.7      0.000      0.000
REMARK SMILES Cc1nnc(S[C@@H](C)CCO)c(C(=O)OCCOCCOC(=O)c2ccc(-c3c4nc(c(-c5c(F)c(F)c(F)c(F)c5F)c5ccc([nH]5)c(-c5c(F)c(F)c(F)c(F)c5F)c5nc(c(-c6c(F)c(F)c(F)c(F)c6F)c6ccc3[nH]6)C=C5)C=C4)cc2)c1C
REMARK SMILES IDX 16 1 15 2 13 3 14 4 12 5 1 6 2 7 3 8 87 9 4 10 88 11 5 12
REMARK SMILES IDX 6 13 7 14 8 15 9 16 10 17 11 18 17 20 18 21 19 22 20 23
REMARK SMILES IDX 21 24 22 25 23 26 24 27 25 28 86 29 26 30 85 31 27 32 28 33
REMARK SMILES IDX 29 34 79 35 30 36 84 37 78 38 80 39 31 40 83 41 77 42 76 43
REMARK SMILES IDX 32 45 64 46 44 47 63 48 45 49 48 50 62 51 81 52 46 53 47 54
REMARK SMILES IDX 61 56 82 57 49 58 33 59 34 60 42 61 35 62 36 63 40 64 43 65
REMARK SMILES IDX 37 66 38 67 41 68 39 69 65 70 66 71 74 72 67 73 68 74 72 75
REMARK SMILES IDX 75 76 69 77 70 78 73 79 71 80 50 81 51 82 59 83 52 84 53 85
REMARK SMILES IDX 57 86 60 87 54 88 55 89 58 90 56 91
REMARK H PARENT 11 19 80 44 48 55
REMARK Flexibility Score: inf
ROOT
ATOM      1  C   UNL A   1      35.501  23.290  25.324  1.00  0.00     0.261 C 
ENDROOT
BRANCH   1   2
ATOM      2  O   UNL A   1      34.928  24.497  25.840  1.00  0.00    -0.460 OA
BRANCH   2   3
ATOM      3  C   UNL A   1      34.180  25.235  24.996  1.00  0.00     0.341 C 
ATOM      4  O   UNL A   1      34.339  25.352  23.797  1.00  0.00    -0.246 OA
BRANCH   3   5
ATOM      5  C   UNL A   1      33.089  25.825  25.785  1.00  0.00     0.098 A 
ATOM      6  C   UNL A   1      31.891  29.243  27.033  1.00  0.00     0.069 C 
ATOM      7  C   UNL A   1      32.048  27.775  26.764  1.00  0.00     0.064 A 
ATOM      8  N   UNL A   1      31.020  27.005  27.145  1.00  0.00    -0.155 NA
ATOM      9  C   UNL A   1      33.155  27.214  26.133  1.00  0.00    -0.011 A 
ATOM     10  N   UNL A   1      31.001  25.658  26.850  1.00  0.00    -0.143 NA
ATOM     11  C   UNL A   1      34.373  28.062  25.850  1.00  0.00     0.047 C 
ATOM     12  C   UNL A   1      31.981  25.052  26.140  1.00  0.00     0.134 A 
BRANCH  12  13
ATOM     13  S   UNL A   1      31.434  23.418  25.693  1.00  0.00    -0.100 SA
BRANCH  13  14
ATOM     14  C   UNL A   1      31.296  23.142  23.868  1.00  0.00     0.052 C 
ATOM     15  C   UNL A   1      30.819  24.424  23.175  1.00  0.00     0.020 C 
BRANCH  14  16
ATOM     16  C   UNL A   1      32.449  22.462  23.135  1.00  0.00     0.043 C 
BRANCH  16  17
ATOM     17  C   UNL A   1      32.153  21.053  22.630  1.00  0.00     0.157 C 
BRANCH  17  18
ATOM     18  O   UNL A   1      31.758  21.078  21.263  1.00  0.00    -0.396 OA
ATOM     19  H   UNL A   1      32.351  21.662  20.766  1.00  0.00     0.210 HD
ENDBRANCH  17  18
ENDBRANCH  16  17
ENDBRANCH  14  16
ENDBRANCH  13  14
ENDBRANCH  12  13
ENDBRANCH   3   5
ENDBRANCH   2   3
ENDBRANCH   1   2
BRANCH   1  20
ATOM     20  C   UNL A   1      34.941  22.134  26.152  1.00  0.00     0.202 C 
BRANCH  20  21
ATOM     21  O   UNL A   1      35.398  20.847  25.724  1.00  0.00    -0.374 OA
BRANCH  21  22
ATOM     22  C   UNL A   1      36.351  20.860  24.650  1.00  0.00     0.202 C 
BRANCH  22  23
ATOM     23  C   UNL A   1      37.716  20.343  25.105  1.00  0.00     0.261 C 
BRANCH  23  24
ATOM     24  O   UNL A   1      38.552  21.475  25.378  1.00  0.00    -0.460 OA
BRANCH  24  25
ATOM     25  C   UNL A   1      39.600  21.228  26.196  1.00  0.00     0.338 C 
ATOM     26  O   UNL A   1      40.278  20.219  26.253  1.00  0.00    -0.246 OA
BRANCH  25  27
ATOM     27  C   UNL A   1      39.980  22.514  26.824  1.00  0.00     0.060 A 
ATOM     28  C   UNL A   1      39.228  23.646  26.481  1.00  0.00     0.016 A 
ATOM     29  C   UNL A   1      40.988  22.596  27.792  1.00  0.00     0.016 A 
ATOM     30  C   UNL A   1      39.497  24.868  27.082  1.00  0.00     0.010 A 
ATOM     31  C   UNL A   1      41.279  23.825  28.376  1.00  0.00     0.010 A 
ATOM     32  C   UNL A   1      40.560  24.966  27.988  1.00  0.00    -0.014 A 
BRANCH  32  33
ATOM     33  C   UNL A   1      41.113  26.301  28.272  1.00  0.00     0.031 A 
ATOM     34  C   UNL A   1      42.523  26.555  27.822  1.00  0.00     0.074 A 
ATOM     35  C   UNL A   1      40.378  27.253  28.866  1.00  0.00     0.049 A 
ATOM     36  N   UNL A   1      43.236  27.645  27.896  1.00  0.00    -0.248 NA
ATOM     37  C   UNL A   1      43.225  25.418  27.195  1.00  0.00     0.031 C 
ATOM     38  C   UNL A   1      38.992  27.102  29.304  1.00  0.00     0.029 A 
ATOM     39  N   UNL A   1      40.702  28.542  29.195  1.00  0.00    -0.354 N 
ATOM     40  C   UNL A   1      44.450  27.332  27.301  1.00  0.00     0.074 A 
ATOM     41  C   UNL A   1      44.407  25.941  26.921  1.00  0.00     0.031 C 
ATOM     42  C   UNL A   1      38.582  28.263  29.847  1.00  0.00     0.029 A 
ATOM     43  C   UNL A   1      39.680  29.226  29.807  1.00  0.00     0.049 A 
ATOM     44  H   UNL A   1      41.583  28.940  29.012  1.00  0.00     0.167 HD
ATOM     45  C   UNL A   1      45.502  28.147  27.071  1.00  0.00     0.037 A 
ATOM     46  C   UNL A   1      39.654  30.488  30.275  1.00  0.00     0.037 A 
ATOM     47  C   UNL A   1      45.540  29.520  27.482  1.00  0.00     0.049 A 
ATOM     48  C   UNL A   1      40.884  31.347  30.111  1.00  0.00     0.074 A 
ATOM     49  C   UNL A   1      46.551  30.445  27.313  1.00  0.00     0.029 A 
ATOM     50  N   UNL A   1      44.512  30.159  28.164  1.00  0.00    -0.354 N 
ATOM     51  N   UNL A   1      42.014  31.063  29.509  1.00  0.00    -0.248 NA
ATOM     52  C   UNL A   1      40.837  32.696  30.690  1.00  0.00     0.031 C 
ATOM     53  C   UNL A   1      46.156  31.632  27.936  1.00  0.00     0.029 A 
ATOM     54  C   UNL A   1      44.880  31.460  28.453  1.00  0.00     0.049 A 
ATOM     55  H   UNL A   1      43.651  29.747  28.405  1.00  0.00     0.167 HD
ATOM     56  C   UNL A   1      42.805  32.198  29.618  1.00  0.00     0.074 A 
ATOM     57  C   UNL A   1      42.019  33.183  30.336  1.00  0.00     0.031 C 
ATOM     58  C   UNL A   1      44.066  32.411  29.169  1.00  0.00     0.037 A 
BRANCH  45  59
ATOM     59  C   UNL A   1      46.682  27.565  26.357  1.00  0.00     0.064 A 
ATOM     60  C   UNL A   1      46.799  27.636  24.960  1.00  0.00     0.173 A 
ATOM     61  C   UNL A   1      47.711  26.935  27.071  1.00  0.00     0.173 A 
ATOM     62  F   UNL A   1      45.827  28.205  24.231  1.00  0.00    -0.203 F 
ATOM     63  C   UNL A   1      47.893  27.081  24.303  1.00  0.00     0.198 A 
ATOM     64  C   UNL A   1      48.817  26.404  26.414  1.00  0.00     0.198 A 
ATOM     65  F   UNL A   1      47.643  26.832  28.407  1.00  0.00    -0.203 F 
ATOM     66  F   UNL A   1      47.960  27.120  22.965  1.00  0.00    -0.200 F 
ATOM     67  C   UNL A   1      48.905  26.472  25.030  1.00  0.00     0.200 A 
ATOM     68  F   UNL A   1      49.797  25.820  27.118  1.00  0.00    -0.200 F 
ATOM     69  F   UNL A   1      49.960  25.942  24.398  1.00  0.00    -0.200 F 
ENDBRANCH  45  59
BRANCH  46  70
ATOM     70  C   UNL A   1      38.420  31.015  30.915  1.00  0.00     0.064 A 
ATOM     71  C   UNL A   1      38.281  31.026  32.309  1.00  0.00     0.173 A 
ATOM     72  C   UNL A   1      37.369  31.543  30.151  1.00  0.00     0.173 A 
ATOM     73  F   UNL A   1      39.252  30.514  33.081  1.00  0.00    -0.203 F 
ATOM     74  C   UNL A   1      37.138  31.543  32.915  1.00  0.00     0.198 A 
ATOM     75  C   UNL A   1      36.236  32.080  30.759  1.00  0.00     0.198 A 
ATOM     76  F   UNL A   1      37.452  31.556  28.812  1.00  0.00    -0.203 F 
ATOM     77  F   UNL A   1      37.022  31.522  34.250  1.00  0.00    -0.200 F 
ATOM     78  C   UNL A   1      36.120  32.079  32.140  1.00  0.00     0.200 A 
ATOM     79  F   UNL A   1      35.260  32.608  30.007  1.00  0.00    -0.200 F 
ATOM     80  F   UNL A   1      35.027  32.589  32.724  1.00  0.00    -0.200 F 
ENDBRANCH  46  70
BRANCH  58  81
ATOM     81  C   UNL A   1      44.687  33.749  29.435  1.00  0.00     0.064 A 
ATOM     82  C   UNL A   1      44.482  34.826  28.562  1.00  0.00     0.173 A 
ATOM     83  C   UNL A   1      45.375  33.987  30.634  1.00  0.00     0.173 A 
ATOM     84  F   UNL A   1      43.838  34.641  27.401  1.00  0.00    -0.203 F 
ATOM     85  C   UNL A   1      44.941  36.099  28.885  1.00  0.00     0.198 A 
ATOM     86  C   UNL A   1      45.808  35.267  30.965  1.00  0.00     0.198 A 
ATOM     87  F   UNL A   1      45.581  32.988  31.505  1.00  0.00    -0.203 F 
ATOM     88  F   UNL A   1      44.745  37.115  28.033  1.00  0.00    -0.200 F 
ATOM     89  C   UNL A   1      45.590  36.322  30.092  1.00  0.00     0.200 A 
ATOM     90  F   UNL A   1      46.416  35.485  32.140  1.00  0.00    -0.200 F 
ATOM     91  F   UNL A   1      46.001  37.556  30.414  1.00  0.00    -0.200 F 
ENDBRANCH  58  81
ENDBRANCH  32  33
ENDBRANCH  25  27
ENDBRANCH  24  25
ENDBRANCH  23  24
ENDBRANCH  22  23
ENDBRANCH  21  22
ENDBRANCH  20  21
ENDBRANCH   1  20
TORSDOF 19
ENDMDL
MODEL 2
REMARK VINA RESULT:     -10.5      4.081      6.975
REMARK SMILES Cc1nnc(S[C@@H](C)CCO)c(C(=O)OCCOCCOC(=O)c2ccc(-c3c4nc(c(-c5c(F)c(F)c(F)c(F)c5F)c5ccc([nH]5)c(-c5c(F)c(F)c(F)c(F)c5F)c5nc(c(-c6c(F)c(F)c(F)c(F)c6F)c6ccc3[nH]6)C=C5)C=C4)cc2)c1C
REMARK SMILES IDX 16 1 15 2 13 3 14 4 12 5 1 6 2 7 3 8 87 9 4 10 88 11 5 12
REMARK SMILES IDX 6 13 7 14 8 15 9 16 10 17 11 18 17 20 18 21 19 22 20 23
REMARK SMILES IDX 21 24 22 25 23 26 24 27 25 28 86 29 26 30 85 31 27 32 28 33
REMARK SMILES IDX 29 34 79 35 30 36 84 37 78 38 80 39 31 40 83 41 77 42 76 43
REMARK SMILES IDX 32 45 64 46 44 47 63 48 45 49 48 50 62 51 81 52 46 53 47 54
REMARK SMILES IDX 61 56 82 57 49 58 33 59 34 60 42 61 35 62 36 63 40 64 43 65
REMARK SMILES IDX 37 66 38 67 41 68 39 69 65 70 66 71 74 72 67 73 68 74 72 75
REMARK SMILES IDX 75 76 69 77 70 78 73 79 71 80 50 81 51 82 59 83 52 84 53 85
REMARK SMILES IDX 57 86 60 87 54 88 55 89 58 90 56 91
REMARK H PARENT 11 19 80 44 48 55
REMARK Flexibility Score: inf
ROOT
ATOM      1  C   UNL A   1      32.742  26.030  24.011  1.00  0.00     0.261 C 
ENDROOT
BRANCH   1   2
ATOM      2  O   UNL A   1      32.466  24.626  23.990  1.00  0.00    -0.460 OA
BRANCH   2   3
ATOM      3  C   UNL A   1      33.355  23.832  23.362  1.00  0.00     0.341 C 
ATOM      4  O   UNL A   1      34.018  24.115  22.384  1.00  0.00    -0.246 OA
BRANCH   3   5
ATOM      5  C   UNL A   1      33.425  22.573  24.120  1.00  0.00     0.098 A 
ATOM      6  C   UNL A   1      32.517  18.871  23.743  1.00  0.00     0.069 C 
ATOM      7  C   UNL A   1      32.974  20.202  24.261  1.00  0.00     0.064 A 
ATOM      8  N   UNL A   1      33.633  20.172  25.428  1.00  0.00    -0.155 NA
ATOM      9  C   UNL A   1      32.780  21.407  23.592  1.00  0.00    -0.011 A 
ATOM     10  N   UNL A   1      34.198  21.318  25.949  1.00  0.00    -0.143 NA
ATOM     11  C   UNL A   1      31.904  21.454  22.361  1.00  0.00     0.047 C 
ATOM     12  C   UNL A   1      34.157  22.508  25.307  1.00  0.00     0.134 A 
BRANCH  12  13
ATOM     13  S   UNL A   1      35.266  23.636  26.126  1.00  0.00    -0.100 SA
BRANCH  13  14
ATOM     14  C   UNL A   1      36.963  23.690  25.390  1.00  0.00     0.052 C 
ATOM     15  C   UNL A   1      37.998  24.023  26.472  1.00  0.00     0.020 C 
BRANCH  14  16
ATOM     16  C   UNL A   1      37.406  22.555  24.471  1.00  0.00     0.043 C 
BRANCH  16  17
ATOM     17  C   UNL A   1      37.777  21.255  25.180  1.00  0.00     0.157 C 
BRANCH  17  18
ATOM     18  O   UNL A   1      36.764  20.272  24.997  1.00  0.00    -0.396 OA
ATOM     19  H   UNL A   1      35.991  20.679  24.575  1.00  0.00     0.210 HD
ENDBRANCH  17  18
ENDBRANCH  16  17
ENDBRANCH  14  16
ENDBRANCH  13  14
ENDBRANCH  12  13
ENDBRANCH   3   5
ENDBRANCH   2   3
ENDBRANCH   1   2
BRANCH   1  20
ATOM     20  C   UNL A   1      31.491  26.745  23.499  1.00  0.00     0.202 C 
BRANCH  20  21
ATOM     21  O   UNL A   1      31.150  27.916  24.247  1.00  0.00    -0.374 OA
BRANCH  21  22
ATOM     22  C   UNL A   1      31.941  28.142  25.425  1.00  0.00     0.202 C 
BRANCH  22  23
ATOM     23  C   UNL A   1      31.877  29.603  25.870  1.00  0.00     0.261 C 
BRANCH  23  24
ATOM     24  O   UNL A   1      33.220  30.092  25.986  1.00  0.00    -0.460 OA
BRANCH  24  25
ATOM     25  C   UNL A   1      33.415  31.005  26.965  1.00  0.00     0.338 C 
ATOM     26  O   UNL A   1      32.599  31.773  27.439  1.00  0.00    -0.246 OA
BRANCH  25  27
ATOM     27  C   UNL A   1      34.731  30.717  27.579  1.00  0.00     0.060 A 
ATOM     28  C   UNL A   1      35.095  29.370  27.721  1.00  0.00     0.016 A 
ATOM     29  C   UNL A   1      35.625  31.736  27.925  1.00  0.00     0.016 A 
ATOM     30  C   UNL A   1      36.341  29.038  28.233  1.00  0.00     0.010 A 
ATOM     31  C   UNL A   1      36.865  31.407  28.465  1.00  0.00     0.010 A 
ATOM     32  C   UNL A   1      37.202  30.058  28.657  1.00  0.00    -0.014 A 
BRANCH  32  33
ATOM     33  C   UNL A   1      38.294  29.710  29.582  1.00  0.00     0.031 A 
ATOM     34  C   UNL A   1      39.298  28.707  29.091  1.00  0.00     0.074 A 
ATOM     35  C   UNL A   1      38.407  30.292  30.785  1.00  0.00     0.049 A 
ATOM     36  N   UNL A   1      40.378  28.260  29.669  1.00  0.00    -0.248 NA
ATOM     37  C   UNL A   1      39.049  28.132  27.754  1.00  0.00     0.031 C 
ATOM     38  C   UNL A   1      37.497  31.299  31.326  1.00  0.00     0.029 A 
ATOM     39  N   UNL A   1      39.346  30.119  31.766  1.00  0.00    -0.354 N 
ATOM     40  C   UNL A   1      40.948  27.380  28.759  1.00  0.00     0.074 A 
ATOM     41  C   UNL A   1      40.072  27.308  27.614  1.00  0.00     0.031 C 
ATOM     42  C   UNL A   1      37.927  31.657  32.549  1.00  0.00     0.029 A 
ATOM     43  C   UNL A   1      39.129  30.894  32.878  1.00  0.00     0.049 A 
ATOM     44  H   UNL A   1      40.105  29.498  31.682  1.00  0.00     0.167 HD
ATOM     45  C   UNL A   1      42.115  26.710  28.863  1.00  0.00     0.037 A 
ATOM     46  C   UNL A   1      39.833  30.965  34.023  1.00  0.00     0.037 A 
ATOM     47  C   UNL A   1      42.958  26.771  30.021  1.00  0.00     0.049 A 
ATOM     48  C   UNL A   1      41.074  30.118  34.165  1.00  0.00     0.074 A 
ATOM     49  C   UNL A   1      44.161  26.132  30.248  1.00  0.00     0.029 A 
ATOM     50  N   UNL A   1      42.669  27.513  31.159  1.00  0.00    -0.354 N 
ATOM     51  N   UNL A   1      41.633  29.321  33.285  1.00  0.00    -0.248 NA
ATOM     52  C   UNL A   1      41.778  30.177  35.452  1.00  0.00     0.031 C 
ATOM     53  C   UNL A   1      44.576  26.448  31.544  1.00  0.00     0.029 A 
ATOM     54  C   UNL A   1      43.656  27.320  32.107  1.00  0.00     0.049 A 
ATOM     55  H   UNL A   1      41.878  28.089  31.273  1.00  0.00     0.167 HD
ATOM     56  C   UNL A   1      42.762  28.799  33.902  1.00  0.00     0.074 A 
ATOM     57  C   UNL A   1      42.815  29.380  35.229  1.00  0.00     0.031 C 
ATOM     58  C   UNL A   1      43.673  27.919  33.419  1.00  0.00     0.037 A 
BRANCH  45  59
ATOM     59  C   UNL A   1      42.527  25.859  27.702  1.00  0.00     0.064 A 
ATOM     60  C   UNL A   1      43.444  26.322  26.745  1.00  0.00     0.173 A 
ATOM     61  C   UNL A   1      42.008  24.566  27.544  1.00  0.00     0.173 A 
ATOM     62  F   UNL A   1      43.947  27.562  26.839  1.00  0.00    -0.203 F 
ATOM     63  C   UNL A   1      43.812  25.528  25.663  1.00  0.00     0.198 A 
ATOM     64  C   UNL A   1      42.398  23.765  26.474  1.00  0.00     0.198 A 
ATOM     65  F   UNL A   1      41.121  24.080  28.424  1.00  0.00    -0.203 F 
ATOM     66  F   UNL A   1      44.654  26.009  24.737  1.00  0.00    -0.200 F 
ATOM     67  C   UNL A   1      43.295  24.248  25.532  1.00  0.00     0.200 A 
ATOM     68  F   UNL A   1      41.902  22.526  26.351  1.00  0.00    -0.200 F 
ATOM     69  F   UNL A   1      43.653  23.484  24.492  1.00  0.00    -0.200 F 
ENDBRANCH  45  59
BRANCH  46  70
ATOM     70  C   UNL A   1      39.394  31.884  35.105  1.00  0.00     0.064 A 
ATOM     71  C   UNL A   1      39.781  33.231  35.107  1.00  0.00     0.173 A 
ATOM     72  C   UNL A   1      38.558  31.446  36.143  1.00  0.00     0.173 A 
ATOM     73  F   UNL A   1      40.595  33.693  34.146  1.00  0.00    -0.203 F 
ATOM     74  C   UNL A   1      39.350  34.105  36.104  1.00  0.00     0.198 A 
ATOM     75  C   UNL A   1      38.109  32.324  37.128  1.00  0.00     0.198 A 
ATOM     76  F   UNL A   1      38.159  30.166  36.189  1.00  0.00    -0.203 F 
ATOM     77  F   UNL A   1      39.752  35.382  36.092  1.00  0.00    -0.200 F 
ATOM     78  C   UNL A   1      38.507  33.652  37.109  1.00  0.00     0.200 A 
ATOM     79  F   UNL A   1      37.286  31.887  38.090  1.00  0.00    -0.200 F 
ATOM     80  F   UNL A   1      38.081  34.495  38.059  1.00  0.00    -0.200 F 
ENDBRANCH  46  70
BRANCH  58  81
ATOM     81  C   UNL A   1      44.805  27.520  34.316  1.00  0.00     0.064 A 
ATOM     82  C   UNL A   1      44.730  26.362  35.102  1.00  0.00     0.173 A 
ATOM     83  C   UNL A   1      46.017  28.225  34.286  1.00  0.00     0.173 A 
ATOM     84  F   UNL A   1      43.587  25.664  35.168  1.00  0.00    -0.203 F 
ATOM     85  C   UNL A   1      45.834  25.920  35.824  1.00  0.00     0.198 A 
ATOM     86  C   UNL A   1      47.126  27.765  34.987  1.00  0.00     0.198 A 
ATOM     87  F   UNL A   1      46.138  29.331  33.537  1.00  0.00    -0.203 F 
ATOM     88  F   UNL A   1      45.740  24.817  36.578  1.00  0.00    -0.200 F 
ATOM     89  C   UNL A   1      47.035  26.613  35.754  1.00  0.00     0.200 A 
ATOM     90  F   UNL A   1      48.292  28.422  34.903  1.00  0.00    -0.200 F 
ATOM     91  F   UNL A   1      48.106  26.166  36.424  1.00  0.00    -0.200 F 
ENDBRANCH  58  81
ENDBRANCH  32  33
ENDBRANCH  25  27
ENDBRANCH  24  25
ENDBRANCH  23  24
ENDBRANCH  22  23
ENDBRANCH  21  22
ENDBRANCH  20  21
ENDBRANCH   1  20
TORSDOF 19
ENDMDL
MODEL 3
REMARK VINA RESULT:     -10.5      1.520      7.658
REMARK SMILES Cc1nnc(S[C@@H](C)CCO)c(C(=O)OCCOCCOC(=O)c2ccc(-c3c4nc(c(-c5c(F)c(F)c(F)c(F)c5F)c5ccc([nH]5)c(-c5c(F)c(F)c(F)c(F)c5F)c5nc(c(-c6c(F)c(F)c(F)c(F)c6F)c6ccc3[nH]6)C=C5)C=C4)cc2)c1C
REMARK SMILES IDX 16 1 15 2 13 3 14 4 12 5 1 6 2 7 3 8 87 9 4 10 88 11 5 12
REMARK SMILES IDX 6 13 7 14 8 15 9 16 10 17 11 18 17 20 18 21 19 22 20 23
REMARK SMILES IDX 21 24 22 25 23 26 24 27 25 28 86 29 26 30 85 31 27 32 28 33
REMARK SMILES IDX 29 34 79 35 30 36 84 37 78 38 80 39 31 40 83 41 77 42 76 43
REMARK SMILES IDX 32 45 64 46 44 47 63 48 45 49 48 50 62 51 81 52 46 53 47 54
REMARK SMILES IDX 61 56 82 57 49 58 33 59 34 60 42 61 35 62 36 63 40 64 43 65
REMARK SMILES IDX 37 66 38 67 41 68 39 69 65 70 66 71 74 72 67 73 68 74 72 75
REMARK SMILES IDX 75 76 69 77 70 78 73 79 71 80 50 81 51 82 59 83 52 84 53 85
REMARK SMILES IDX 57 86 60 87 54 88 55 89 58 90 56 91
REMARK H PARENT 11 19 80 44 48 55
REMARK Flexibility Score: inf
ROOT
ATOM      1  C   UNL A   1      36.793  23.656  25.048  1.00  0.00     0.261 C 
ENDROOT
BRANCH   1   2
ATOM      2  O   UNL A   1      35.604  24.231  24.496  1.00  0.00    -0.460 OA
BRANCH   2   3
ATOM      3  C   UNL A   1      34.494  24.207  25.260  1.00  0.00     0.341 C 
ATOM      4  O   UNL A   1      34.401  23.775  26.392  1.00  0.00    -0.246 OA
BRANCH   3   5
ATOM      5  C   UNL A   1      33.425  24.863  24.494  1.00  0.00     0.098 A 
ATOM      6  C   UNL A   1      31.965  28.354  23.897  1.00  0.00     0.069 C 
ATOM      7  C   UNL A   1      32.228  26.877  23.897  1.00  0.00     0.064 A 
ATOM      8  N   UNL A   1      31.527  26.167  23.003  1.00  0.00    -0.155 NA
ATOM      9  C   UNL A   1      33.153  26.252  24.727  1.00  0.00    -0.011 A 
ATOM     10  N   UNL A   1      31.763  24.818  22.833  1.00  0.00    -0.143 NA
ATOM     11  C   UNL A   1      33.822  27.031  25.835  1.00  0.00     0.047 C 
ATOM     12  C   UNL A   1      32.724  24.154  23.516  1.00  0.00     0.134 A 
BRANCH  12  13
ATOM     13  S   UNL A   1      32.934  22.544  22.784  1.00  0.00    -0.100 SA
BRANCH  13  14
ATOM     14  C   UNL A   1      32.097  21.179  23.713  1.00  0.00     0.052 C 
ATOM     15  C   UNL A   1      32.267  19.851  22.967  1.00  0.00     0.020 C 
BRANCH  14  16
ATOM     16  C   UNL A   1      32.335  21.054  25.215  1.00  0.00     0.043 C 
BRANCH  16  17
ATOM     17  C   UNL A   1      33.527  20.188  25.612  1.00  0.00     0.157 C 
BRANCH  17  18
ATOM     18  O   UNL A   1      34.407  20.901  26.473  1.00  0.00    -0.396 OA
ATOM     19  H   UNL A   1      35.227  21.107  25.998  1.00  0.00     0.210 HD
ENDBRANCH  17  18
ENDBRANCH  16  17
ENDBRANCH  14  16
ENDBRANCH  13  14
ENDBRANCH  12  13
ENDBRANCH   3   5
ENDBRANCH   2   3
ENDBRANCH   1   2
BRANCH   1  20
ATOM     20  C   UNL A   1      36.934  22.254  24.457  1.00  0.00     0.202 C 
BRANCH  20  21
ATOM     21  O   UNL A   1      37.219  21.245  25.430  1.00  0.00    -0.374 OA
BRANCH  21  22
ATOM     22  C   UNL A   1      37.671  19.989  24.898  1.00  0.00     0.202 C 
BRANCH  22  23
ATOM     23  C   UNL A   1      38.997  19.558  25.526  1.00  0.00     0.261 C 
BRANCH  23  24
ATOM     24  O   UNL A   1      39.744  20.740  25.843  1.00  0.00    -0.460 OA
BRANCH  24  25
ATOM     25  C   UNL A   1      40.411  20.698  27.019  1.00  0.00     0.338 C 
ATOM     26  O   UNL A   1      40.823  19.714  27.605  1.00  0.00    -0.246 OA
BRANCH  25  27
ATOM     27  C   UNL A   1      40.818  22.083  27.344  1.00  0.00     0.060 A 
ATOM     28  C   UNL A   1      40.225  23.119  26.607  1.00  0.00     0.016 A 
ATOM     29  C   UNL A   1      41.688  22.370  28.402  1.00  0.00     0.016 A 
ATOM     30  C   UNL A   1      40.521  24.441  26.906  1.00  0.00     0.010 A 
ATOM     31  C   UNL A   1      42.009  23.694  28.686  1.00  0.00     0.010 A 
ATOM     32  C   UNL A   1      41.456  24.725  27.909  1.00  0.00    -0.014 A 
BRANCH  32  33
ATOM     33  C   UNL A   1      42.085  26.056  27.921  1.00  0.00     0.031 A 
ATOM     34  C   UNL A   1      41.330  27.151  28.618  1.00  0.00     0.074 A 
ATOM     35  C   UNL A   1      43.290  26.267  27.372  1.00  0.00     0.049 A 
ATOM     36  N   UNL A   1      41.668  28.394  28.823  1.00  0.00    -0.248 NA
ATOM     37  C   UNL A   1      40.009  26.788  29.166  1.00  0.00     0.031 C 
ATOM     38  C   UNL A   1      44.106  25.254  26.706  1.00  0.00     0.029 A 
ATOM     39  N   UNL A   1      44.039  27.411  27.297  1.00  0.00    -0.354 N 
ATOM     40  C   UNL A   1      40.620  28.948  29.545  1.00  0.00     0.074 A 
ATOM     41  C   UNL A   1      39.608  27.930  29.698  1.00  0.00     0.031 C 
ATOM     42  C   UNL A   1      45.250  25.826  26.288  1.00  0.00     0.029 A 
ATOM     43  C   UNL A   1      45.235  27.243  26.645  1.00  0.00     0.049 A 
ATOM     44  H   UNL A   1      43.747  28.272  27.673  1.00  0.00     0.167 HD
ATOM     45  C   UNL A   1      40.524  30.193  30.058  1.00  0.00     0.037 A 
ATOM     46  C   UNL A   1      46.199  28.145  26.376  1.00  0.00     0.037 A 
ATOM     47  C   UNL A   1      41.527  31.201  29.871  1.00  0.00     0.049 A 
ATOM     48  C   UNL A   1      46.018  29.563  26.859  1.00  0.00     0.074 A 
ATOM     49  C   UNL A   1      41.541  32.502  30.335  1.00  0.00     0.029 A 
ATOM     50  N   UNL A   1      42.695  31.015  29.143  1.00  0.00    -0.354 N 
ATOM     51  N   UNL A   1      45.047  30.072  27.579  1.00  0.00    -0.248 NA
ATOM     52  C   UNL A   1      47.060  30.530  26.491  1.00  0.00     0.031 C 
ATOM     53  C   UNL A   1      42.695  33.119  29.845  1.00  0.00     0.029 A 
ATOM     54  C   UNL A   1      43.423  32.189  29.116  1.00  0.00     0.049 A 
ATOM     55  H   UNL A   1      42.964  30.172  28.711  1.00  0.00     0.167 HD
ATOM     56  C   UNL A   1      45.367  31.409  27.768  1.00  0.00     0.074 A 
ATOM     57  C   UNL A   1      46.632  31.631  27.095  1.00  0.00     0.031 C 
ATOM     58  C   UNL A   1      44.681  32.370  28.435  1.00  0.00     0.037 A 
BRANCH  45  59
ATOM     59  C   UNL A   1      39.297  30.521  30.850  1.00  0.00     0.064 A 
ATOM     60  C   UNL A   1      39.242  30.304  32.236  1.00  0.00     0.173 A 
ATOM     61  C   UNL A   1      38.165  31.062  30.224  1.00  0.00     0.173 A 
ATOM     62  F   UNL A   1      40.290  29.763  32.875  1.00  0.00    -0.203 F 
ATOM     63  C   UNL A   1      38.092  30.599  32.962  1.00  0.00     0.198 A 
ATOM     64  C   UNL A   1      37.025  31.380  30.958  1.00  0.00     0.198 A 
ATOM     65  F   UNL A   1      38.162  31.278  28.900  1.00  0.00    -0.203 F 
ATOM     66  F   UNL A   1      38.047  30.341  34.276  1.00  0.00    -0.200 F 
ATOM     67  C   UNL A   1      36.988  31.144  32.325  1.00  0.00     0.200 A 
ATOM     68  F   UNL A   1      35.961  31.912  30.342  1.00  0.00    -0.200 F 
ATOM     69  F   UNL A   1      35.884  31.432  33.026  1.00  0.00    -0.200 F 
ENDBRANCH  45  59
BRANCH  46  70
ATOM     70  C   UNL A   1      47.419  27.726  25.640  1.00  0.00     0.064 A 
ATOM     71  C   UNL A   1      47.452  27.729  24.239  1.00  0.00     0.173 A 
ATOM     72  C   UNL A   1      48.587  27.343  26.317  1.00  0.00     0.173 A 
ATOM     73  F   UNL A   1      46.355  28.071  23.546  1.00  0.00    -0.203 F 
ATOM     74  C   UNL A   1      48.603  27.364  23.543  1.00  0.00     0.198 A 
ATOM     75  C   UNL A   1      49.744  26.998  25.621  1.00  0.00     0.198 A 
ATOM     76  F   UNL A   1      48.609  27.322  27.658  1.00  0.00    -0.203 F 
ATOM     77  F   UNL A   1      48.599  27.356  22.204  1.00  0.00    -0.200 F 
ATOM     78  C   UNL A   1      49.751  27.008  24.235  1.00  0.00     0.200 A 
ATOM     79  F   UNL A   1      50.855  26.666  26.293  1.00  0.00    -0.200 F 
ATOM     80  F   UNL A   1      50.862  26.670  23.566  1.00  0.00    -0.200 F 
ENDBRANCH  46  70
BRANCH  58  81
ATOM     81  C   UNL A   1      45.267  33.748  28.476  1.00  0.00     0.064 A 
ATOM     82  C   UNL A   1      44.879  34.726  27.550  1.00  0.00     0.173 A 
ATOM     83  C   UNL A   1      46.115  34.128  29.526  1.00  0.00     0.173 A 
ATOM     84  F   UNL A   1      44.078  34.404  26.524  1.00  0.00    -0.203 F 
ATOM     85  C   UNL A   1      45.318  36.040  27.677  1.00  0.00     0.198 A 
ATOM     86  C   UNL A   1      46.529  35.448  29.666  1.00  0.00     0.198 A 
ATOM     87  F   UNL A   1      46.500  33.228  30.443  1.00  0.00    -0.203 F 
ATOM     88  F   UNL A   1      44.945  36.959  26.776  1.00  0.00    -0.200 F 
ATOM     89  C   UNL A   1      46.130  36.403  28.743  1.00  0.00     0.200 A 
ATOM     90  F   UNL A   1      47.296  35.803  30.707  1.00  0.00    -0.200 F 
ATOM     91  F   UNL A   1      46.523  37.677  28.882  1.00  0.00    -0.200 F 
ENDBRANCH  58  81
ENDBRANCH  32  33
ENDBRANCH  25  27
ENDBRANCH  24  25
ENDBRANCH  23  24
ENDBRANCH  22  23
ENDBRANCH  21  22
ENDBRANCH  20  21
ENDBRANCH   1  20
TORSDOF 19
ENDMDL
