MODEL 1
REMARK VINA RESULT:     -11.4      0.000      0.000
REMARK SMILES Cc1c(Cl)ccc2c(OCC(=O)OCCOCCOC(=O)c3ccc(-c4c5nc(c(-c6c(F)c(F)c(F)c(F)c6F)c6ccc([nH]6)c(-c6c(F)c(F)c(F)c(F)c6F)c6nc(c(-c7c(F)c(F)c(F)c(F)c7F)c7ccc4[nH]7)C=C6)C=C5)cc3)ccnc12
REMARK SMILES IDX 16 1 15 2 14 3 13 4 11 5 12 6 10 7 9 8 8 9 1 10 2 11 3 12
REMARK SMILES IDX 88 13 4 14 5 15 7 16 87 17 6 18 86 19 85 20 17 21 18 22
REMARK SMILES IDX 19 23 20 24 21 25 22 26 23 27 84 28 24 29 83 30 25 31 26 32
REMARK SMILES IDX 27 33 77 34 28 35 82 36 76 37 78 38 29 39 81 40 75 41 74 42
REMARK SMILES IDX 30 44 62 45 42 46 61 47 43 48 46 49 60 50 79 51 44 52 45 53
REMARK SMILES IDX 59 55 80 56 47 57 31 58 32 59 40 60 33 61 34 62 38 63 41 64
REMARK SMILES IDX 35 65 36 66 39 67 37 68 63 69 64 70 72 71 65 72 66 73 70 74
REMARK SMILES IDX 73 75 67 76 68 77 71 78 69 79 48 80 49 81 57 82 50 83 51 84
REMARK SMILES IDX 55 85 58 86 52 87 53 88 56 89 54 90
REMARK H PARENT 78 43 46 54
REMARK Flexibility Score: inf
ROOT
ATOM      1  O   UNL A   1      33.017  29.470  25.092  1.00  0.00    -0.374 OA
ENDROOT
BRANCH   1   2
ATOM      2  C   UNL A   1      33.262  28.076  25.263  1.00  0.00     0.202 C 
BRANCH   2   3
ATOM      3  C   UNL A   1      32.586  27.387  26.456  1.00  0.00     0.261 C 
BRANCH   3   4
ATOM      4  O   UNL A   1      31.379  26.673  26.113  1.00  0.00    -0.461 OA
BRANCH   4   5
ATOM      5  C   UNL A   1      31.477  25.313  26.112  1.00  0.00     0.344 C 
ATOM      6  O   UNL A   1      31.487  24.613  27.119  1.00  0.00    -0.248 OA
BRANCH   5   7
ATOM      7  C   UNL A   1      31.645  24.714  24.712  1.00  0.00     0.352 C 
BRANCH   7   8
ATOM      8  O   UNL A   1      32.903  24.252  24.260  1.00  0.00    -0.481 OA
BRANCH   8   9
ATOM      9  C   UNL A   1      33.288  22.953  24.478  1.00  0.00     0.131 A 
ATOM     10  C   UNL A   1      37.171  19.935  24.997  1.00  0.00     0.048 C 
ATOM     11  C   UNL A   1      36.521  21.279  25.221  1.00  0.00    -0.006 A 
ATOM     12  C   UNL A   1      37.295  22.373  25.650  1.00  0.00     0.046 A 
ATOM     13  C   UNL A   1      35.160  21.461  24.916  1.00  0.00     0.078 A 
ATOM     14  Cl  UNL A   1      38.962  22.205  26.080  1.00  0.00    -0.084 Cl
ATOM     15  C   UNL A   1      36.742  23.646  25.737  1.00  0.00     0.022 A 
ATOM     16  C   UNL A   1      34.625  22.771  24.910  1.00  0.00     0.043 A 
ATOM     17  N   UNL A   1      34.380  20.402  24.626  1.00  0.00    -0.256 NA
ATOM     18  C   UNL A   1      35.428  23.847  25.334  1.00  0.00     0.016 A 
ATOM     19  C   UNL A   1      33.073  20.598  24.361  1.00  0.00     0.115 A 
ATOM     20  C   UNL A   1      32.486  21.842  24.259  1.00  0.00     0.067 A 
ENDBRANCH   8   9
ENDBRANCH   7   8
ENDBRANCH   5   7
ENDBRANCH   4   5
ENDBRANCH   3   4
ENDBRANCH   2   3
ENDBRANCH   1   2
BRANCH   1  21
ATOM     21  C   UNL A   1      31.767  29.969  25.565  1.00  0.00     0.202 C 
BRANCH  21  22
ATOM     22  C   UNL A   1      31.816  31.189  26.489  1.00  0.00     0.261 C 
BRANCH  22  23
ATOM     23  O   UNL A   1      32.807  31.041  27.516  1.00  0.00    -0.460 OA
BRANCH  23  24
ATOM     24  C   UNL A   1      33.631  32.100  27.649  1.00  0.00     0.338 C 
ATOM     25  O   UNL A   1      33.334  33.287  27.704  1.00  0.00    -0.246 OA
BRANCH  24  26
ATOM     26  C   UNL A   1      34.996  31.630  27.904  1.00  0.00     0.060 A 
ATOM     27  C   UNL A   1      35.195  30.246  27.979  1.00  0.00     0.016 A 
ATOM     28  C   UNL A   1      36.029  32.528  28.181  1.00  0.00     0.016 A 
ATOM     29  C   UNL A   1      36.422  29.750  28.398  1.00  0.00     0.010 A 
ATOM     30  C   UNL A   1      37.257  32.028  28.617  1.00  0.00     0.010 A 
ATOM     31  C   UNL A   1      37.434  30.643  28.773  1.00  0.00    -0.014 A 
BRANCH  31  32
ATOM     32  C   UNL A   1      38.591  30.115  29.526  1.00  0.00     0.031 A 
ATOM     33  C   UNL A   1      38.794  30.581  30.938  1.00  0.00     0.074 A 
ATOM     34  C   UNL A   1      39.402  29.198  28.976  1.00  0.00     0.049 A 
ATOM     35  N   UNL A   1      39.694  30.215  31.811  1.00  0.00    -0.248 NA
ATOM     36  C   UNL A   1      37.849  31.595  31.434  1.00  0.00     0.031 C 
ATOM     37  C   UNL A   1      39.266  28.662  27.625  1.00  0.00     0.029 A 
ATOM     38  N   UNL A   1      40.497  28.557  29.492  1.00  0.00    -0.354 N 
ATOM     39  C   UNL A   1      39.420  30.945  32.959  1.00  0.00     0.074 A 
ATOM     40  C   UNL A   1      38.296  31.804  32.663  1.00  0.00     0.031 C 
ATOM     41  C   UNL A   1      40.249  27.769  27.413  1.00  0.00     0.029 A 
ATOM     42  C   UNL A   1      41.088  27.691  28.608  1.00  0.00     0.049 A 
ATOM     43  H   UNL A   1      40.827  28.705  30.407  1.00  0.00     0.167 HD
ATOM     44  C   UNL A   1      40.047  30.892  34.157  1.00  0.00     0.037 A 
ATOM     45  C   UNL A   1      42.188  26.929  28.753  1.00  0.00     0.037 A 
ATOM     46  C   UNL A   1      41.172  30.040  34.432  1.00  0.00     0.049 A 
ATOM     47  C   UNL A   1      42.914  26.934  30.071  1.00  0.00     0.074 A 
ATOM     48  C   UNL A   1      41.865  29.881  35.618  1.00  0.00     0.029 A 
ATOM     49  N   UNL A   1      41.780  29.214  33.495  1.00  0.00    -0.354 N 
ATOM     50  N   UNL A   1      42.622  27.589  31.169  1.00  0.00    -0.248 NA
ATOM     51  C   UNL A   1      44.113  26.092  30.173  1.00  0.00     0.031 C 
ATOM     52  C   UNL A   1      42.927  29.002  35.384  1.00  0.00     0.029 A 
ATOM     53  C   UNL A   1      42.865  28.572  34.066  1.00  0.00     0.049 A 
ATOM     54  H   UNL A   1      41.483  29.103  32.564  1.00  0.00     0.167 HD
ATOM     55  C   UNL A   1      43.591  27.234  32.098  1.00  0.00     0.074 A 
ATOM     56  C   UNL A   1      44.472  26.291  31.436  1.00  0.00     0.031 C 
ATOM     57  C   UNL A   1      43.736  27.648  33.382  1.00  0.00     0.037 A 
BRANCH  44  58
ATOM     58  C   UNL A   1      39.546  31.800  35.241  1.00  0.00     0.064 A 
ATOM     59  C   UNL A   1      39.981  33.130  35.350  1.00  0.00     0.173 A 
ATOM     60  C   UNL A   1      38.609  31.339  36.177  1.00  0.00     0.173 A 
ATOM     61  F   UNL A   1      40.889  33.617  34.490  1.00  0.00    -0.203 F 
ATOM     62  C   UNL A   1      39.518  33.954  36.372  1.00  0.00     0.198 A 
ATOM     63  C   UNL A   1      38.126  32.175  37.181  1.00  0.00     0.198 A 
ATOM     64  F   UNL A   1      38.160  30.076  36.118  1.00  0.00    -0.203 F 
ATOM     65  F   UNL A   1      39.985  35.205  36.487  1.00  0.00    -0.200 F 
ATOM     66  C   UNL A   1      38.587  33.478  37.283  1.00  0.00     0.200 A 
ATOM     67  F   UNL A   1      37.219  31.716  38.054  1.00  0.00    -0.200 F 
ATOM     68  F   UNL A   1      38.139  34.273  38.264  1.00  0.00    -0.200 F 
ENDBRANCH  44  58
BRANCH  45  69
ATOM     69  C   UNL A   1      42.639  26.095  27.611  1.00  0.00     0.064 A 
ATOM     70  C   UNL A   1      43.630  26.549  26.731  1.00  0.00     0.173 A 
ATOM     71  C   UNL A   1      42.145  24.795  27.426  1.00  0.00     0.173 A 
ATOM     72  F   UNL A   1      44.119  27.790  26.857  1.00  0.00    -0.203 F 
ATOM     73  C   UNL A   1      44.118  25.729  25.715  1.00  0.00     0.198 A 
ATOM     74  C   UNL A   1      42.649  23.969  26.424  1.00  0.00     0.198 A 
ATOM     75  F   UNL A   1      41.199  24.314  28.246  1.00  0.00    -0.203 F 
ATOM     76  F   UNL A   1      45.060  26.188  24.881  1.00  0.00    -0.200 F 
ATOM     77  C   UNL A   1      43.636  24.436  25.570  1.00  0.00     0.200 A 
ATOM     78  F   UNL A   1      42.193  22.715  26.299  1.00  0.00    -0.200 F 
ATOM     79  F   UNL A   1      44.127  23.639  24.611  1.00  0.00    -0.200 F 
ENDBRANCH  45  69
BRANCH  57  80
ATOM     80  C   UNL A   1      44.893  27.096  34.161  1.00  0.00     0.064 A 
ATOM     81  C   UNL A   1      44.802  25.867  34.829  1.00  0.00     0.173 A 
ATOM     82  C   UNL A   1      46.132  27.756  34.162  1.00  0.00     0.173 A 
ATOM     83  F   UNL A   1      43.636  25.204  34.867  1.00  0.00    -0.203 F 
ATOM     84  C   UNL A   1      45.907  25.322  35.478  1.00  0.00     0.198 A 
ATOM     85  C   UNL A   1      47.242  27.195  34.785  1.00  0.00     0.198 A 
ATOM     86  F   UNL A   1      46.273  28.930  33.528  1.00  0.00    -0.203 F 
ATOM     87  F   UNL A   1      45.791  24.159  36.133  1.00  0.00    -0.200 F 
ATOM     88  C   UNL A   1      47.128  25.980  35.445  1.00  0.00     0.200 A 
ATOM     89  F   UNL A   1      48.424  27.823  34.738  1.00  0.00    -0.200 F 
ATOM     90  F   UNL A   1      48.196  25.443  36.050  1.00  0.00    -0.200 F 
ENDBRANCH  57  80
ENDBRANCH  31  32
ENDBRANCH  24  26
ENDBRANCH  23  24
ENDBRANCH  22  23
ENDBRANCH  21  22
ENDBRANCH   1  21
TORSDOF 16
ENDMDL
MODEL 2
REMARK VINA RESULT:     -11.4      3.359      8.654
REMARK SMILES Cc1c(Cl)ccc2c(OCC(=O)OCCOCCOC(=O)c3ccc(-c4c5nc(c(-c6c(F)c(F)c(F)c(F)c6F)c6ccc([nH]6)c(-c6c(F)c(F)c(F)c(F)c6F)c6nc(c(-c7c(F)c(F)c(F)c(F)c7F)c7ccc4[nH]7)C=C6)C=C5)cc3)ccnc12
REMARK SMILES IDX 16 1 15 2 14 3 13 4 11 5 12 6 10 7 9 8 8 9 1 10 2 11 3 12
REMARK SMILES IDX 88 13 4 14 5 15 7 16 87 17 6 18 86 19 85 20 17 21 18 22
REMARK SMILES IDX 19 23 20 24 21 25 22 26 23 27 84 28 24 29 83 30 25 31 26 32
REMARK SMILES IDX 27 33 77 34 28 35 82 36 76 37 78 38 29 39 81 40 75 41 74 42
REMARK SMILES IDX 30 44 62 45 42 46 61 47 43 48 46 49 60 50 79 51 44 52 45 53
REMARK SMILES IDX 59 55 80 56 47 57 31 58 32 59 40 60 33 61 34 62 38 63 41 64
REMARK SMILES IDX 35 65 36 66 39 67 37 68 63 69 64 70 72 71 65 72 66 73 70 74
REMARK SMILES IDX 73 75 67 76 68 77 71 78 69 79 48 80 49 81 57 82 50 83 51 84
REMARK SMILES IDX 55 85 58 86 52 87 53 88 56 89 54 90
REMARK H PARENT 78 43 46 54
REMARK Flexibility Score: inf
ROOT
ATOM      1  O   UNL A   1      41.619  21.147  25.765  1.00  0.00    -0.374 OA
ENDROOT
BRANCH   1   2
ATOM      2  C   UNL A   1      40.658  21.639  26.696  1.00  0.00     0.202 C 
BRANCH   2   3
ATOM      3  C   UNL A   1      39.436  22.368  26.122  1.00  0.00     0.261 C 
BRANCH   3   4
ATOM      4  O   UNL A   1      38.310  21.504  25.857  1.00  0.00    -0.461 OA
BRANCH   4   5
ATOM      5  C   UNL A   1      37.279  22.071  25.169  1.00  0.00     0.344 C 
ATOM      6  O   UNL A   1      37.409  22.822  24.207  1.00  0.00    -0.248 OA
BRANCH   5   7
ATOM      7  C   UNL A   1      35.901  21.737  25.749  1.00  0.00     0.352 C 
BRANCH   7   8
ATOM      8  O   UNL A   1      34.715  22.057  25.048  1.00  0.00    -0.481 OA
BRANCH   8   9
ATOM      9  C   UNL A   1      33.683  22.704  25.682  1.00  0.00     0.131 A 
ATOM     10  C   UNL A   1      31.830  27.132  26.871  1.00  0.00     0.048 C 
ATOM     11  C   UNL A   1      32.559  26.239  25.896  1.00  0.00    -0.006 A 
ATOM     12  C   UNL A   1      33.233  26.800  24.795  1.00  0.00     0.046 A 
ATOM     13  C   UNL A   1      32.642  24.856  26.136  1.00  0.00     0.078 A 
ATOM     14  Cl  UNL A   1      33.136  28.486  24.423  1.00  0.00    -0.084 Cl
ATOM     15  C   UNL A   1      34.016  26.009  23.961  1.00  0.00     0.022 A 
ATOM     16  C   UNL A   1      33.515  24.071  25.348  1.00  0.00     0.043 A 
ATOM     17  N   UNL A   1      31.903  24.290  27.110  1.00  0.00    -0.256 NA
ATOM     18  C   UNL A   1      34.184  24.663  24.259  1.00  0.00     0.016 A 
ATOM     19  C   UNL A   1      31.979  22.958  27.306  1.00  0.00     0.115 A 
ATOM     20  C   UNL A   1      32.857  22.130  26.637  1.00  0.00     0.067 A 
ENDBRANCH   8   9
ENDBRANCH   7   8
ENDBRANCH   5   7
ENDBRANCH   4   5
ENDBRANCH   3   4
ENDBRANCH   2   3
ENDBRANCH   1   2
BRANCH   1  21
ATOM     21  C   UNL A   1      42.985  21.469  26.017  1.00  0.00     0.202 C 
BRANCH  21  22
ATOM     22  C   UNL A   1      43.710  22.291  24.946  1.00  0.00     0.261 C 
BRANCH  22  23
ATOM     23  O   UNL A   1      43.044  23.536  24.690  1.00  0.00    -0.460 OA
BRANCH  23  24
ATOM     24  C   UNL A   1      43.763  24.627  25.023  1.00  0.00     0.338 C 
ATOM     25  O   UNL A   1      44.876  24.949  24.628  1.00  0.00    -0.246 OA
BRANCH  24  26
ATOM     26  C   UNL A   1      42.938  25.527  25.835  1.00  0.00     0.060 A 
ATOM     27  C   UNL A   1      43.441  26.810  26.085  1.00  0.00     0.016 A 
ATOM     28  C   UNL A   1      41.757  25.081  26.433  1.00  0.00     0.016 A 
ATOM     29  C   UNL A   1      42.794  27.636  26.993  1.00  0.00     0.010 A 
ATOM     30  C   UNL A   1      41.117  25.908  27.357  1.00  0.00     0.010 A 
ATOM     31  C   UNL A   1      41.664  27.163  27.673  1.00  0.00    -0.014 A 
BRANCH  31  32
ATOM     32  C   UNL A   1      41.198  27.907  28.861  1.00  0.00     0.031 A 
ATOM     33  C   UNL A   1      41.968  27.761  30.140  1.00  0.00     0.074 A 
ATOM     34  C   UNL A   1      40.147  28.737  28.776  1.00  0.00     0.049 A 
ATOM     35  N   UNL A   1      41.788  28.357  31.289  1.00  0.00    -0.248 NA
ATOM     36  C   UNL A   1      43.097  26.817  30.120  1.00  0.00     0.031 C 
ATOM     37  C   UNL A   1      39.357  28.969  27.570  1.00  0.00     0.029 A 
ATOM     38  N   UNL A   1      39.569  29.538  29.725  1.00  0.00    -0.354 N 
ATOM     39  C   UNL A   1      42.784  27.867  32.124  1.00  0.00     0.074 A 
ATOM     40  C   UNL A   1      43.541  26.897  31.365  1.00  0.00     0.031 C 
ATOM     41  C   UNL A   1      38.388  29.857  27.852  1.00  0.00     0.029 A 
ATOM     42  C   UNL A   1      38.482  30.235  29.261  1.00  0.00     0.049 A 
ATOM     43  H   UNL A   1      39.901  29.607  30.648  1.00  0.00     0.167 HD
ATOM     44  C   UNL A   1      43.047  28.209  33.407  1.00  0.00     0.037 A 
ATOM     45  C   UNL A   1      37.657  31.077  29.911  1.00  0.00     0.037 A 
ATOM     46  C   UNL A   1      42.277  29.168  34.151  1.00  0.00     0.049 A 
ATOM     47  C   UNL A   1      37.925  31.393  31.358  1.00  0.00     0.074 A 
ATOM     48  C   UNL A   1      42.473  29.615  35.444  1.00  0.00     0.029 A 
ATOM     49  N   UNL A   1      41.148  29.815  33.667  1.00  0.00    -0.354 N 
ATOM     50  N   UNL A   1      38.896  30.966  32.128  1.00  0.00    -0.248 NA
ATOM     51  C   UNL A   1      36.989  32.311  32.022  1.00  0.00     0.031 C 
ATOM     52  C   UNL A   1      41.429  30.489  35.763  1.00  0.00     0.029 A 
ATOM     53  C   UNL A   1      40.612  30.629  34.650  1.00  0.00     0.049 A 
ATOM     54  H   UNL A   1      40.783  29.710  32.759  1.00  0.00     0.167 HD
ATOM     55  C   UNL A   1      38.700  31.567  33.364  1.00  0.00     0.074 A 
ATOM     56  C   UNL A   1      37.522  32.404  33.235  1.00  0.00     0.031 C 
ATOM     57  C   UNL A   1      39.429  31.441  34.501  1.00  0.00     0.037 A 
BRANCH  44  58
ATOM     58  C   UNL A   1      44.194  27.519  34.085  1.00  0.00     0.064 A 
ATOM     59  C   UNL A   1      44.027  26.298  34.758  1.00  0.00     0.173 A 
ATOM     60  C   UNL A   1      45.479  28.078  34.052  1.00  0.00     0.173 A 
ATOM     61  F   UNL A   1      42.814  25.728  34.833  1.00  0.00    -0.203 F 
ATOM     62  C   UNL A   1      45.099  25.680  35.396  1.00  0.00     0.198 A 
ATOM     63  C   UNL A   1      46.555  27.442  34.667  1.00  0.00     0.198 A 
ATOM     64  F   UNL A   1      45.694  29.243  33.421  1.00  0.00    -0.203 F 
ATOM     65  F   UNL A   1      44.906  24.541  36.076  1.00  0.00    -0.200 F 
ATOM     66  C   UNL A   1      46.362  26.249  35.345  1.00  0.00     0.200 A 
ATOM     67  F   UNL A   1      47.777  27.989  34.608  1.00  0.00    -0.200 F 
ATOM     68  F   UNL A   1      47.394  25.651  35.957  1.00  0.00    -0.200 F 
ENDBRANCH  44  58
BRANCH  45  69
ATOM     69  C   UNL A   1      36.520  31.680  29.172  1.00  0.00     0.064 A 
ATOM     70  C   UNL A   1      35.413  30.909  28.794  1.00  0.00     0.173 A 
ATOM     71  C   UNL A   1      36.482  33.057  28.902  1.00  0.00     0.173 A 
ATOM     72  F   UNL A   1      35.412  29.587  29.016  1.00  0.00    -0.203 F 
ATOM     73  C   UNL A   1      34.306  31.494  28.182  1.00  0.00     0.198 A 
ATOM     74  C   UNL A   1      35.366  33.643  28.310  1.00  0.00     0.198 A 
ATOM     75  F   UNL A   1      37.515  33.837  29.249  1.00  0.00    -0.203 F 
ATOM     76  F   UNL A   1      33.263  30.734  27.823  1.00  0.00    -0.200 F 
ATOM     77  C   UNL A   1      34.278  32.861  27.952  1.00  0.00     0.200 A 
ATOM     78  F   UNL A   1      35.336  34.967  28.105  1.00  0.00    -0.200 F 
ATOM     79  F   UNL A   1      33.201  33.427  27.391  1.00  0.00    -0.200 F 
ENDBRANCH  45  69
BRANCH  57  80
ATOM     80  C   UNL A   1      38.977  32.215  35.704  1.00  0.00     0.064 A 
ATOM     81  C   UNL A   1      38.244  31.604  36.730  1.00  0.00     0.173 A 
ATOM     82  C   UNL A   1      39.361  33.555  35.875  1.00  0.00     0.173 A 
ATOM     83  F   UNL A   1      37.843  30.330  36.608  1.00  0.00    -0.203 F 
ATOM     84  C   UNL A   1      37.903  32.308  37.882  1.00  0.00     0.198 A 
ATOM     85  C   UNL A   1      39.045  34.246  37.040  1.00  0.00     0.198 A 
ATOM     86  F   UNL A   1      40.073  34.180  34.926  1.00  0.00    -0.203 F 
ATOM     87  F   UNL A   1      37.178  31.713  38.839  1.00  0.00    -0.200 F 
ATOM     88  C   UNL A   1      38.314  33.624  38.041  1.00  0.00     0.200 A 
ATOM     89  F   UNL A   1      39.457  35.511  37.200  1.00  0.00    -0.200 F 
ATOM     90  F   UNL A   1      38.005  34.293  39.161  1.00  0.00    -0.200 F 
ENDBRANCH  57  80
ENDBRANCH  31  32
ENDBRANCH  24  26
ENDBRANCH  23  24
ENDBRANCH  22  23
ENDBRANCH  21  22
ENDBRANCH   1  21
TORSDOF 16
ENDMDL
MODEL 3
REMARK VINA RESULT:     -11.2      1.575      2.474
REMARK SMILES Cc1c(Cl)ccc2c(OCC(=O)OCCOCCOC(=O)c3ccc(-c4c5nc(c(-c6c(F)c(F)c(F)c(F)c6F)c6ccc([nH]6)c(-c6c(F)c(F)c(F)c(F)c6F)c6nc(c(-c7c(F)c(F)c(F)c(F)c7F)c7ccc4[nH]7)C=C6)C=C5)cc3)ccnc12
REMARK SMILES IDX 16 1 15 2 14 3 13 4 11 5 12 6 10 7 9 8 8 9 1 10 2 11 3 12
REMARK SMILES IDX 88 13 4 14 5 15 7 16 87 17 6 18 86 19 85 20 17 21 18 22
REMARK SMILES IDX 19 23 20 24 21 25 22 26 23 27 84 28 24 29 83 30 25 31 26 32
REMARK SMILES IDX 27 33 77 34 28 35 82 36 76 37 78 38 29 39 81 40 75 41 74 42
REMARK SMILES IDX 30 44 62 45 42 46 61 47 43 48 46 49 60 50 79 51 44 52 45 53
REMARK SMILES IDX 59 55 80 56 47 57 31 58 32 59 40 60 33 61 34 62 38 63 41 64
REMARK SMILES IDX 35 65 36 66 39 67 37 68 63 69 64 70 72 71 65 72 66 73 70 74
REMARK SMILES IDX 73 75 67 76 68 77 71 78 69 79 48 80 49 81 57 82 50 83 51 84
REMARK SMILES IDX 55 85 58 86 52 87 53 88 56 89 54 90
REMARK H PARENT 78 43 46 54
REMARK Flexibility Score: inf
ROOT
ATOM      1  O   UNL A   1      32.438  30.190  26.592  1.00  0.00    -0.374 OA
ENDROOT
BRANCH   1   2
ATOM      2  C   UNL A   1      32.890  29.518  25.420  1.00  0.00     0.202 C 
BRANCH   2   3
ATOM      3  C   UNL A   1      31.944  28.482  24.797  1.00  0.00     0.261 C 
BRANCH   3   4
ATOM      4  O   UNL A   1      32.281  27.115  25.117  1.00  0.00    -0.461 OA
BRANCH   4   5
ATOM      5  C   UNL A   1      31.439  26.485  25.984  1.00  0.00     0.344 C 
ATOM      6  O   UNL A   1      30.960  26.998  26.990  1.00  0.00    -0.248 OA
BRANCH   5   7
ATOM      7  C   UNL A   1      31.180  25.018  25.626  1.00  0.00     0.352 C 
BRANCH   7   8
ATOM      8  O   UNL A   1      32.153  24.248  24.948  1.00  0.00    -0.481 OA
BRANCH   8   9
ATOM      9  C   UNL A   1      32.691  23.130  25.537  1.00  0.00     0.131 A 
ATOM     10  C   UNL A   1      32.826  18.188  25.426  1.00  0.00     0.048 C 
ATOM     11  C   UNL A   1      32.743  19.510  24.701  1.00  0.00    -0.006 A 
ATOM     12  C   UNL A   1      32.394  19.546  23.339  1.00  0.00     0.046 A 
ATOM     13  C   UNL A   1      32.928  20.712  25.408  1.00  0.00     0.078 A 
ATOM     14  Cl  UNL A   1      32.193  18.105  22.405  1.00  0.00    -0.084 Cl
ATOM     15  C   UNL A   1      32.186  20.758  22.689  1.00  0.00     0.022 A 
ATOM     16  C   UNL A   1      32.622  21.938  24.774  1.00  0.00     0.043 A 
ATOM     17  N   UNL A   1      33.384  20.692  26.676  1.00  0.00    -0.256 NA
ATOM     18  C   UNL A   1      32.264  21.941  23.411  1.00  0.00     0.016 A 
ATOM     19  C   UNL A   1      33.577  21.857  27.326  1.00  0.00     0.115 A 
ATOM     20  C   UNL A   1      33.235  23.091  26.813  1.00  0.00     0.067 A 
ENDBRANCH   8   9
ENDBRANCH   7   8
ENDBRANCH   5   7
ENDBRANCH   4   5
ENDBRANCH   3   4
ENDBRANCH   2   3
ENDBRANCH   1   2
BRANCH   1  21
ATOM     21  C   UNL A   1      31.543  31.285  26.404  1.00  0.00     0.202 C 
BRANCH  21  22
ATOM     22  C   UNL A   1      31.804  32.541  27.241  1.00  0.00     0.261 C 
BRANCH  22  23
ATOM     23  O   UNL A   1      33.117  33.073  27.010  1.00  0.00    -0.460 OA
BRANCH  23  24
ATOM     24  C   UNL A   1      33.728  33.541  28.116  1.00  0.00     0.338 C 
ATOM     25  O   UNL A   1      33.292  34.331  28.944  1.00  0.00    -0.246 OA
BRANCH  24  26
ATOM     26  C   UNL A   1      34.991  32.825  28.318  1.00  0.00     0.060 A 
ATOM     27  C   UNL A   1      34.915  31.459  28.616  1.00  0.00     0.016 A 
ATOM     28  C   UNL A   1      36.212  33.503  28.330  1.00  0.00     0.016 A 
ATOM     29  C   UNL A   1      36.061  30.774  28.995  1.00  0.00     0.010 A 
ATOM     30  C   UNL A   1      37.360  32.816  28.726  1.00  0.00     0.010 A 
ATOM     31  C   UNL A   1      37.273  31.466  29.107  1.00  0.00    -0.014 A 
BRANCH  31  32
ATOM     32  C   UNL A   1      38.388  30.817  29.826  1.00  0.00     0.031 A 
ATOM     33  C   UNL A   1      38.604  31.164  31.270  1.00  0.00     0.074 A 
ATOM     34  C   UNL A   1      39.150  29.896  29.214  1.00  0.00     0.049 A 
ATOM     35  N   UNL A   1      39.472  30.682  32.119  1.00  0.00    -0.248 NA
ATOM     36  C   UNL A   1      37.715  32.193  31.834  1.00  0.00     0.031 C 
ATOM     37  C   UNL A   1      38.997  29.470  27.826  1.00  0.00     0.029 A 
ATOM     38  N   UNL A   1      40.200  29.155  29.688  1.00  0.00    -0.354 N 
ATOM     39  C   UNL A   1      39.229  31.340  33.316  1.00  0.00     0.074 A 
ATOM     40  C   UNL A   1      38.160  32.284  33.078  1.00  0.00     0.031 C 
ATOM     41  C   UNL A   1      39.928  28.539  27.555  1.00  0.00     0.029 A 
ATOM     42  C   UNL A   1      40.748  28.323  28.745  1.00  0.00     0.049 A 
ATOM     43  H   UNL A   1      40.529  29.214  30.613  1.00  0.00     0.167 HD
ATOM     44  C   UNL A   1      39.839  31.161  34.511  1.00  0.00     0.037 A 
ATOM     45  C   UNL A   1      41.800  27.488  28.840  1.00  0.00     0.037 A 
ATOM     46  C   UNL A   1      40.909  30.226  34.728  1.00  0.00     0.049 A 
ATOM     47  C   UNL A   1      42.510  27.353  30.160  1.00  0.00     0.074 A 
ATOM     48  C   UNL A   1      41.578  29.938  35.904  1.00  0.00     0.029 A 
ATOM     49  N   UNL A   1      41.477  29.437  33.737  1.00  0.00    -0.354 N 
ATOM     50  N   UNL A   1      42.246  27.941  31.301  1.00  0.00    -0.248 NA
ATOM     51  C   UNL A   1      43.657  26.435  30.206  1.00  0.00     0.031 C 
ATOM     52  C   UNL A   1      42.589  29.018  35.612  1.00  0.00     0.029 A 
ATOM     53  C   UNL A   1      42.516  28.690  34.265  1.00  0.00     0.049 A 
ATOM     54  H   UNL A   1      41.184  29.412  32.798  1.00  0.00     0.167 HD
ATOM     55  C   UNL A   1      43.182  27.461  32.207  1.00  0.00     0.074 A 
ATOM     56  C   UNL A   1      44.013  26.518  31.483  1.00  0.00     0.031 C 
ATOM     57  C   UNL A   1      43.338  27.770  33.519  1.00  0.00     0.037 A 
BRANCH  44  58
ATOM     58  C   UNL A   1      39.380  32.015  35.656  1.00  0.00     0.064 A 
ATOM     59  C   UNL A   1      38.424  31.563  36.578  1.00  0.00     0.173 A 
ATOM     60  C   UNL A   1      39.913  33.299  35.842  1.00  0.00     0.173 A 
ATOM     61  F   UNL A   1      37.870  30.348  36.437  1.00  0.00    -0.203 F 
ATOM     62  C   UNL A   1      37.997  32.375  37.625  1.00  0.00     0.198 A 
ATOM     63  C   UNL A   1      39.506  34.098  36.907  1.00  0.00     0.198 A 
ATOM     64  F   UNL A   1      40.831  33.780  34.989  1.00  0.00    -0.203 F 
ATOM     65  F   UNL A   1      37.047  31.942  38.464  1.00  0.00    -0.200 F 
ATOM     66  C   UNL A   1      38.543  33.639  37.793  1.00  0.00     0.200 A 
ATOM     67  F   UNL A   1      40.041  35.315  37.073  1.00  0.00    -0.200 F 
ATOM     68  F   UNL A   1      38.135  34.419  38.803  1.00  0.00    -0.200 F 
ENDBRANCH  44  58
BRANCH  45  69
ATOM     69  C   UNL A   1      42.213  26.715  27.643  1.00  0.00     0.064 A 
ATOM     70  C   UNL A   1      43.222  27.185  26.791  1.00  0.00     0.173 A 
ATOM     71  C   UNL A   1      41.663  25.453  27.371  1.00  0.00     0.173 A 
ATOM     72  F   UNL A   1      43.765  28.392  27.000  1.00  0.00    -0.203 F 
ATOM     73  C   UNL A   1      43.672  26.416  25.720  1.00  0.00     0.198 A 
ATOM     74  C   UNL A   1      42.129  24.677  26.313  1.00  0.00     0.198 A 
ATOM     75  F   UNL A   1      40.698  24.959  28.160  1.00  0.00    -0.203 F 
ATOM     76  F   UNL A   1      44.633  26.890  24.915  1.00  0.00    -0.200 F 
ATOM     77  C   UNL A   1      43.135  25.158  25.488  1.00  0.00     0.200 A 
ATOM     78  F   UNL A   1      41.619  23.456  26.104  1.00  0.00    -0.200 F 
ATOM     79  F   UNL A   1      43.590  24.408  24.476  1.00  0.00    -0.200 F 
ENDBRANCH  45  69
BRANCH  57  80
ATOM     80  C   UNL A   1      44.452  27.093  34.263  1.00  0.00     0.064 A 
ATOM     81  C   UNL A   1      45.703  27.707  34.418  1.00  0.00     0.173 A 
ATOM     82  C   UNL A   1      44.237  25.863  34.905  1.00  0.00     0.173 A 
ATOM     83  F   UNL A   1      45.961  28.876  33.814  1.00  0.00    -0.203 F 
ATOM     84  C   UNL A   1      46.702  27.110  35.183  1.00  0.00     0.198 A 
ATOM     85  C   UNL A   1      45.227  25.285  35.692  1.00  0.00     0.198 A 
ATOM     86  F   UNL A   1      43.053  25.242  34.795  1.00  0.00    -0.203 F 
ATOM     87  F   UNL A   1      47.899  27.700  35.296  1.00  0.00    -0.200 F 
ATOM     88  C   UNL A   1      46.459  25.906  35.828  1.00  0.00     0.200 A 
ATOM     89  F   UNL A   1      44.985  24.131  36.329  1.00  0.00    -0.200 F 
ATOM     90  F   UNL A   1      47.414  25.344  36.582  1.00  0.00    -0.200 F 
ENDBRANCH  57  80
ENDBRANCH  31  32
ENDBRANCH  24  26
ENDBRANCH  23  24
ENDBRANCH  22  23
ENDBRANCH  21  22
ENDBRANCH   1  21
TORSDOF 16
ENDMDL
