MODEL 1
REMARK VINA RESULT:     -13.3      0.000      0.000
REMARK SMILES O=C(OCCOCCOC(=O)[C@H]1CC=CC[C@H]1C(=O)N[C@@H]1CCN(c2cccc(Cl)c2)C1)c1ccc(-c2c3nc(c(-c4c(F)c(F)c(F)c(F)c4F)c4ccc([nH]4)c(-c4c(F)c(F)c(F)c(F)c4F)c4nc(c(-c5c(F)c(F)c(F)c(F)c5F)c5ccc2[nH]5)C=C4)C=C3)cc1
REMARK SMILES IDX 7 1 6 2 5 3 4 4 3 5 2 6 1 7 33 8 34 9 95 10 35 11 94 12
REMARK SMILES IDX 36 13 37 14 38 15 88 16 39 17 93 18 87 19 89 20 40 21 92 22
REMARK SMILES IDX 86 23 85 24 41 26 73 27 53 28 72 29 54 30 57 31 71 32 90 33
REMARK SMILES IDX 55 34 56 35 70 37 91 38 58 39 42 40 43 41 51 42 44 43 45 44
REMARK SMILES IDX 49 45 52 46 46 47 47 48 50 49 48 50 74 51 75 52 83 53 76 54
REMARK SMILES IDX 77 55 81 56 84 57 78 58 79 59 82 60 80 61 59 62 60 63 68 64
REMARK SMILES IDX 61 65 62 66 66 67 69 68 63 69 64 70 67 71 65 72 8 73 9 74
REMARK SMILES IDX 10 75 11 76 12 77 13 78 17 79 14 80 16 81 15 82 18 83 19 84
REMARK SMILES IDX 20 85 21 87 22 88 32 89 23 90 24 91 25 92 26 93 31 94 27 95
REMARK SMILES IDX 29 96 28 97 30 98
REMARK H PARENT 89 25 57 36 20 86
REMARK Flexibility Score: inf
ROOT
ATOM      1  C   UNL A   1      38.332  21.667  25.705  1.00  0.00     0.202 C 
ENDROOT
BRANCH   1   2
ATOM      2  O   UNL A   1      39.401  20.694  25.701  1.00  0.00    -0.374 OA
BRANCH   2   3
ATOM      3  C   UNL A   1      40.487  20.834  26.647  1.00  0.00     0.202 C 
BRANCH   3   4
ATOM      4  C   UNL A   1      41.952  21.008  26.082  1.00  0.00     0.261 C 
BRANCH   4   5
ATOM      5  O   UNL A   1      42.247  22.328  25.455  1.00  0.00    -0.460 OA
BRANCH   5   6
ATOM      6  C   UNL A   1      42.650  23.528  25.994  1.00  0.00     0.338 C 
ATOM      7  O   UNL A   1      43.830  23.783  26.205  1.00  0.00    -0.246 OA
BRANCH   6   8
ATOM      8  C   UNL A   1      41.621  24.498  26.430  1.00  0.00     0.060 A 
ATOM      9  C   UNL A   1      41.758  25.778  25.967  1.00  0.00     0.016 A 
ATOM     10  C   UNL A   1      40.548  24.233  27.271  1.00  0.00     0.016 A 
ATOM     11  C   UNL A   1      41.243  26.858  26.616  1.00  0.00     0.010 A 
ATOM     12  C   UNL A   1      39.861  25.319  27.842  1.00  0.00     0.010 A 
ATOM     13  C   UNL A   1      40.333  26.628  27.623  1.00  0.00    -0.014 A 
BRANCH  13  14
ATOM     14  C   UNL A   1      40.245  27.683  28.645  1.00  0.00     0.031 A 
ATOM     15  C   UNL A   1      41.333  27.691  29.677  1.00  0.00     0.074 A 
ATOM     16  C   UNL A   1      39.409  28.726  28.517  1.00  0.00     0.049 A 
ATOM     17  N   UNL A   1      41.368  28.258  30.846  1.00  0.00    -0.248 NA
ATOM     18  C   UNL A   1      42.551  26.927  29.346  1.00  0.00     0.031 C 
ATOM     19  C   UNL A   1      38.515  28.974  27.380  1.00  0.00     0.029 A 
ATOM     20  N   UNL A   1      39.197  29.793  29.344  1.00  0.00    -0.354 N 
ATOM     21  C   UNL A   1      42.542  27.807  31.437  1.00  0.00     0.074 A 
ATOM     22  C   UNL A   1      43.212  26.953  30.490  1.00  0.00     0.031 C 
ATOM     23  C   UNL A   1      37.853  30.121  27.584  1.00  0.00     0.029 A 
ATOM     24  C   UNL A   1      38.163  30.592  28.926  1.00  0.00     0.049 A 
ATOM     25  H   UNL A   1      39.729  29.970  30.153  1.00  0.00     0.167 HD
ATOM     26  C   UNL A   1      42.974  28.075  32.689  1.00  0.00     0.037 A 
ATOM     27  C   UNL A   1      37.474  31.517  29.615  1.00  0.00     0.037 A 
ATOM     28  C   UNL A   1      42.278  29.002  33.535  1.00  0.00     0.049 A 
ATOM     29  C   UNL A   1      37.889  31.749  31.040  1.00  0.00     0.074 A 
ATOM     30  C   UNL A   1      42.523  29.349  34.847  1.00  0.00     0.029 A 
ATOM     31  N   UNL A   1      41.186  29.756  33.110  1.00  0.00    -0.354 N 
ATOM     32  N   UNL A   1      38.871  31.188  31.710  1.00  0.00    -0.248 NA
ATOM     33  C   UNL A   1      37.097  32.703  31.817  1.00  0.00     0.031 C 
ATOM     34  C   UNL A   1      41.544  30.274  35.229  1.00  0.00     0.029 A 
ATOM     35  C   UNL A   1      40.731  30.555  34.136  1.00  0.00     0.049 A 
ATOM     36  H   UNL A   1      40.796  29.723  32.207  1.00  0.00     0.167 HD
ATOM     37  C   UNL A   1      38.833  31.733  32.983  1.00  0.00     0.074 A 
ATOM     38  C   UNL A   1      37.724  32.673  32.986  1.00  0.00     0.031 C 
ATOM     39  C   UNL A   1      39.632  31.489  34.053  1.00  0.00     0.037 A 
BRANCH  26  40
ATOM     40  C   UNL A   1      44.123  27.257  33.207  1.00  0.00     0.064 A 
ATOM     41  C   UNL A   1      45.467  27.575  32.956  1.00  0.00     0.173 A 
ATOM     42  C   UNL A   1      43.858  26.054  33.885  1.00  0.00     0.173 A 
ATOM     43  F   UNL A   1      45.782  28.692  32.282  1.00  0.00    -0.203 F 
ATOM     44  C   UNL A   1      46.493  26.698  33.310  1.00  0.00     0.198 A 
ATOM     45  C   UNL A   1      44.887  25.198  34.271  1.00  0.00     0.198 A 
ATOM     46  F   UNL A   1      42.594  25.689  34.144  1.00  0.00    -0.203 F 
ATOM     47  F   UNL A   1      47.759  26.979  32.972  1.00  0.00    -0.200 F 
ATOM     48  C   UNL A   1      46.202  25.511  33.967  1.00  0.00     0.200 A 
ATOM     49  F   UNL A   1      44.601  24.055  34.908  1.00  0.00    -0.200 F 
ATOM     50  F   UNL A   1      47.186  24.660  34.286  1.00  0.00    -0.200 F 
ENDBRANCH  26  40
BRANCH  27  51
ATOM     51  C   UNL A   1      36.279  32.151  28.996  1.00  0.00     0.064 A 
ATOM     52  C   UNL A   1      35.139  31.407  28.674  1.00  0.00     0.173 A 
ATOM     53  C   UNL A   1      36.225  33.542  28.784  1.00  0.00     0.173 A 
ATOM     54  F   UNL A   1      35.138  30.077  28.842  1.00  0.00    -0.203 F 
ATOM     55  C   UNL A   1      33.991  32.026  28.173  1.00  0.00     0.198 A 
ATOM     56  C   UNL A   1      35.070  34.162  28.316  1.00  0.00     0.198 A 
ATOM     57  F   UNL A   1      37.286  34.308  29.082  1.00  0.00    -0.203 F 
ATOM     58  F   UNL A   1      32.919  31.288  27.858  1.00  0.00    -0.200 F 
ATOM     59  C   UNL A   1      33.954  33.403  28.007  1.00  0.00     0.200 A 
ATOM     60  F   UNL A   1      35.033  35.496  28.186  1.00  0.00    -0.200 F 
ATOM     61  F   UNL A   1      32.842  33.998  27.554  1.00  0.00    -0.200 F 
ENDBRANCH  27  51
BRANCH  39  62
ATOM     62  C   UNL A   1      39.375  32.299  35.283  1.00  0.00     0.064 A 
ATOM     63  C   UNL A   1      39.871  33.601  35.419  1.00  0.00     0.173 A 
ATOM     64  C   UNL A   1      38.521  31.797  36.275  1.00  0.00     0.173 A 
ATOM     65  F   UNL A   1      40.701  34.108  34.497  1.00  0.00    -0.203 F 
ATOM     66  C   UNL A   1      39.520  34.377  36.517  1.00  0.00     0.198 A 
ATOM     67  C   UNL A   1      38.148  32.587  37.354  1.00  0.00     0.198 A 
ATOM     68  F   UNL A   1      38.018  30.558  36.173  1.00  0.00    -0.203 F 
ATOM     69  F   UNL A   1      40.019  35.614  36.647  1.00  0.00    -0.200 F 
ATOM     70  C   UNL A   1      38.647  33.876  37.475  1.00  0.00     0.200 A 
ATOM     71  F   UNL A   1      37.291  32.109  38.266  1.00  0.00    -0.200 F 
ATOM     72  F   UNL A   1      38.286  34.637  38.515  1.00  0.00    -0.200 F 
ENDBRANCH  39  62
ENDBRANCH  13  14
ENDBRANCH   6   8
ENDBRANCH   5   6
ENDBRANCH   4   5
ENDBRANCH   3   4
ENDBRANCH   2   3
ENDBRANCH   1   2
BRANCH   1  73
ATOM     73  C   UNL A   1      37.102  21.466  24.814  1.00  0.00     0.261 C 
BRANCH  73  74
ATOM     74  O   UNL A   1      35.878  21.704  25.520  1.00  0.00    -0.463 OA
BRANCH  74  75
ATOM     75  C   UNL A   1      35.108  22.666  24.959  1.00  0.00     0.310 C 
ATOM     76  O   UNL A   1      35.140  23.832  25.324  1.00  0.00    -0.252 OA
BRANCH  75  77
ATOM     77  C   UNL A   1      34.197  22.088  23.880  1.00  0.00     0.115 C 
ATOM     78  C   UNL A   1      33.504  20.879  24.568  1.00  0.00     0.043 C 
ATOM     79  C   UNL A   1      33.093  22.995  23.297  1.00  0.00     0.096 C 
ATOM     80  C   UNL A   1      32.505  21.330  25.604  1.00  0.00    -0.030 C 
ATOM     81  C   UNL A   1      32.045  23.444  24.350  1.00  0.00     0.041 C 
ATOM     82  C   UNL A   1      31.888  22.519  25.523  1.00  0.00    -0.030 C 
BRANCH  79  83
ATOM     83  C   UNL A   1      33.317  24.115  22.252  1.00  0.00     0.224 C 
ATOM     84  O   UNL A   1      33.384  23.817  21.053  1.00  0.00    -0.275 OA
ATOM     85  N   UNL A   1      33.667  25.400  22.569  1.00  0.00    -0.351 N 
ATOM     86  H   UNL A   1      34.609  25.668  22.465  1.00  0.00     0.163 HD
BRANCH  85  87
ATOM     87  C   UNL A   1      32.715  26.389  23.051  1.00  0.00     0.103 C 
ATOM     88  C   UNL A   1      32.745  26.579  24.570  1.00  0.00     0.048 C 
ATOM     89  C   UNL A   1      31.219  26.203  22.768  1.00  0.00     0.141 C 
ATOM     90  C   UNL A   1      31.363  27.080  24.989  1.00  0.00     0.119 C 
ATOM     91  N   UNL A   1      30.625  27.134  23.737  1.00  0.00    -0.369 N 
BRANCH  91  92
ATOM     92  C   UNL A   1      29.567  27.968  23.490  1.00  0.00     0.038 A 
ATOM     93  C   UNL A   1      28.235  27.513  23.491  1.00  0.00     0.026 A 
ATOM     94  C   UNL A   1      29.766  29.332  23.247  1.00  0.00     0.046 A 
ATOM     95  C   UNL A   1      27.152  28.379  23.290  1.00  0.00     0.004 A 
ATOM     96  C   UNL A   1      28.690  30.196  23.018  1.00  0.00     0.043 A 
ATOM     97  C   UNL A   1      27.381  29.727  23.049  1.00  0.00     0.020 A 
ATOM     98  Cl  UNL A   1      28.991  31.858  22.687  1.00  0.00    -0.084 Cl
ENDBRANCH  91  92
ENDBRANCH  85  87
ENDBRANCH  79  83
ENDBRANCH  75  77
ENDBRANCH  74  75
ENDBRANCH  73  74
ENDBRANCH   1  73
TORSDOF 17
ENDMDL
MODEL 2
REMARK VINA RESULT:     -13.2      3.298      8.163
REMARK SMILES O=C(OCCOCCOC(=O)[C@H]1CC=CC[C@H]1C(=O)N[C@@H]1CCN(c2cccc(Cl)c2)C1)c1ccc(-c2c3nc(c(-c4c(F)c(F)c(F)c(F)c4F)c4ccc([nH]4)c(-c4c(F)c(F)c(F)c(F)c4F)c4nc(c(-c5c(F)c(F)c(F)c(F)c5F)c5ccc2[nH]5)C=C4)C=C3)cc1
REMARK SMILES IDX 7 1 6 2 5 3 4 4 3 5 2 6 1 7 33 8 34 9 95 10 35 11 94 12
REMARK SMILES IDX 36 13 37 14 38 15 88 16 39 17 93 18 87 19 89 20 40 21 92 22
REMARK SMILES IDX 86 23 85 24 41 26 73 27 53 28 72 29 54 30 57 31 71 32 90 33
REMARK SMILES IDX 55 34 56 35 70 37 91 38 58 39 42 40 43 41 51 42 44 43 45 44
REMARK SMILES IDX 49 45 52 46 46 47 47 48 50 49 48 50 74 51 75 52 83 53 76 54
REMARK SMILES IDX 77 55 81 56 84 57 78 58 79 59 82 60 80 61 59 62 60 63 68 64
REMARK SMILES IDX 61 65 62 66 66 67 69 68 63 69 64 70 67 71 65 72 8 73 9 74
REMARK SMILES IDX 10 75 11 76 12 77 13 78 17 79 14 80 16 81 15 82 18 83 19 84
REMARK SMILES IDX 20 85 21 87 22 88 32 89 23 90 24 91 25 92 26 93 31 94 27 95
REMARK SMILES IDX 29 96 28 97 30 98
REMARK H PARENT 89 25 57 36 20 86
REMARK Flexibility Score: inf
ROOT
ATOM      1  C   UNL A   1      32.039  29.574  27.251  1.00  0.00     0.202 C 
ENDROOT
BRANCH   1   2
ATOM      2  O   UNL A   1      32.482  30.845  26.723  1.00  0.00    -0.374 OA
BRANCH   2   3
ATOM      3  C   UNL A   1      31.776  32.050  27.100  1.00  0.00     0.202 C 
BRANCH   3   4
ATOM      4  C   UNL A   1      32.603  33.391  27.227  1.00  0.00     0.261 C 
BRANCH   4   5
ATOM      5  O   UNL A   1      32.704  33.956  28.603  1.00  0.00    -0.460 OA
BRANCH   5   6
ATOM      6  C   UNL A   1      33.729  33.951  29.521  1.00  0.00     0.338 C 
ATOM      7  O   UNL A   1      33.660  34.570  30.577  1.00  0.00    -0.246 OA
BRANCH   6   8
ATOM      8  C   UNL A   1      34.994  33.264  29.177  1.00  0.00     0.060 A 
ATOM      9  C   UNL A   1      34.914  31.915  28.969  1.00  0.00     0.016 A 
ATOM     10  C   UNL A   1      36.245  33.856  29.066  1.00  0.00     0.016 A 
ATOM     11  C   UNL A   1      35.975  31.077  29.133  1.00  0.00     0.010 A 
ATOM     12  C   UNL A   1      37.380  33.026  29.057  1.00  0.00     0.010 A 
ATOM     13  C   UNL A   1      37.225  31.640  29.254  1.00  0.00    -0.014 A 
BRANCH  13  14
ATOM     14  C   UNL A   1      38.213  30.828  29.982  1.00  0.00     0.031 A 
ATOM     15  C   UNL A   1      38.255  31.019  31.468  1.00  0.00     0.074 A 
ATOM     16  C   UNL A   1      38.850  29.798  29.401  1.00  0.00     0.049 A 
ATOM     17  N   UNL A   1      39.187  30.712  32.321  1.00  0.00    -0.248 NA
ATOM     18  C   UNL A   1      37.079  31.671  32.075  1.00  0.00     0.031 C 
ATOM     19  C   UNL A   1      38.647  29.332  28.024  1.00  0.00     0.029 A 
ATOM     20  N   UNL A   1      39.778  28.935  29.909  1.00  0.00    -0.354 N 
ATOM     21  C   UNL A   1      38.769  31.255  33.530  1.00  0.00     0.074 A 
ATOM     22  C   UNL A   1      37.487  31.876  33.315  1.00  0.00     0.031 C 
ATOM     23  C   UNL A   1      39.430  28.267  27.802  1.00  0.00     0.029 A 
ATOM     24  C   UNL A   1      40.290  28.085  28.961  1.00  0.00     0.049 A 
ATOM     25  H   UNL A   1      40.051  28.923  30.855  1.00  0.00     0.167 HD
ATOM     26  C   UNL A   1      39.448  31.251  34.698  1.00  0.00     0.037 A 
ATOM     27  C   UNL A   1      41.408  27.341  29.004  1.00  0.00     0.037 A 
ATOM     28  C   UNL A   1      40.686  30.538  34.838  1.00  0.00     0.049 A 
ATOM     29  C   UNL A   1      42.219  27.409  30.267  1.00  0.00     0.074 A 
ATOM     30  C   UNL A   1      41.546  30.473  35.914  1.00  0.00     0.029 A 
ATOM     31  N   UNL A   1      41.223  29.732  33.836  1.00  0.00    -0.354 N 
ATOM     32  N   UNL A   1      41.967  28.080  31.368  1.00  0.00    -0.248 NA
ATOM     33  C   UNL A   1      43.474  26.657  30.293  1.00  0.00     0.031 C 
ATOM     34  C   UNL A   1      42.630  29.669  35.540  1.00  0.00     0.029 A 
ATOM     35  C   UNL A   1      42.412  29.177  34.257  1.00  0.00     0.049 A 
ATOM     36  H   UNL A   1      40.812  29.580  32.955  1.00  0.00     0.167 HD
ATOM     37  C   UNL A   1      43.019  27.818  32.231  1.00  0.00     0.074 A 
ATOM     38  C   UNL A   1      43.913  26.922  31.517  1.00  0.00     0.031 C 
ATOM     39  C   UNL A   1      43.235  28.269  33.493  1.00  0.00     0.037 A 
BRANCH  26  40
ATOM     40  C   UNL A   1      38.931  32.138  35.795  1.00  0.00     0.064 A 
ATOM     41  C   UNL A   1      39.284  33.490  35.921  1.00  0.00     0.173 A 
ATOM     42  C   UNL A   1      38.140  31.578  36.814  1.00  0.00     0.173 A 
ATOM     43  F   UNL A   1      40.066  34.072  34.999  1.00  0.00    -0.203 F 
ATOM     44  C   UNL A   1      38.918  34.228  37.047  1.00  0.00     0.198 A 
ATOM     45  C   UNL A   1      37.743  32.328  37.919  1.00  0.00     0.198 A 
ATOM     46  F   UNL A   1      37.778  30.287  36.757  1.00  0.00    -0.203 F 
ATOM     47  F   UNL A   1      39.351  35.489  37.189  1.00  0.00    -0.200 F 
ATOM     48  C   UNL A   1      38.148  33.648  38.044  1.00  0.00     0.200 A 
ATOM     49  F   UNL A   1      36.997  31.762  38.877  1.00  0.00    -0.200 F 
ATOM     50  F   UNL A   1      37.816  34.351  39.134  1.00  0.00    -0.200 F 
ENDBRANCH  26  40
BRANCH  27  51
ATOM     51  C   UNL A   1      41.850  26.613  27.784  1.00  0.00     0.064 A 
ATOM     52  C   UNL A   1      42.766  27.174  26.888  1.00  0.00     0.173 A 
ATOM     53  C   UNL A   1      41.419  25.297  27.531  1.00  0.00     0.173 A 
ATOM     54  F   UNL A   1      43.200  28.429  27.072  1.00  0.00    -0.203 F 
ATOM     55  C   UNL A   1      43.239  26.449  25.792  1.00  0.00     0.198 A 
ATOM     56  C   UNL A   1      41.916  24.563  26.457  1.00  0.00     0.198 A 
ATOM     57  F   UNL A   1      40.547  24.704  28.361  1.00  0.00    -0.203 F 
ATOM     58  F   UNL A   1      44.103  27.015  24.940  1.00  0.00    -0.200 F 
ATOM     59  C   UNL A   1      42.824  25.141  25.586  1.00  0.00     0.200 A 
ATOM     60  F   UNL A   1      41.532  23.291  26.282  1.00  0.00    -0.200 F 
ATOM     61  F   UNL A   1      43.302  24.437  24.550  1.00  0.00    -0.200 F 
ENDBRANCH  27  51
BRANCH  39  62
ATOM     62  C   UNL A   1      44.445  27.743  34.197  1.00  0.00     0.064 A 
ATOM     63  C   UNL A   1      45.662  28.433  34.179  1.00  0.00     0.173 A 
ATOM     64  C   UNL A   1      44.335  26.595  34.993  1.00  0.00     0.173 A 
ATOM     65  F   UNL A   1      45.807  29.528  33.417  1.00  0.00    -0.203 F 
ATOM     66  C   UNL A   1      46.737  27.987  34.937  1.00  0.00     0.198 A 
ATOM     67  C   UNL A   1      45.402  26.169  35.775  1.00  0.00     0.198 A 
ATOM     68  F   UNL A   1      43.181  25.912  35.044  1.00  0.00    -0.203 F 
ATOM     69  F   UNL A   1      47.903  28.645  34.894  1.00  0.00    -0.200 F 
ATOM     70  C   UNL A   1      46.601  26.865  35.746  1.00  0.00     0.200 A 
ATOM     71  F   UNL A   1      45.263  25.099  36.568  1.00  0.00    -0.200 F 
ATOM     72  F   UNL A   1      47.629  26.456  36.500  1.00  0.00    -0.200 F 
ENDBRANCH  39  62
ENDBRANCH  13  14
ENDBRANCH   6   8
ENDBRANCH   5   6
ENDBRANCH   4   5
ENDBRANCH   3   4
ENDBRANCH   2   3
ENDBRANCH   1   2
BRANCH   1  73
ATOM     73  C   UNL A   1      31.794  28.391  26.309  1.00  0.00     0.261 C 
BRANCH  73  74
ATOM     74  O   UNL A   1      32.605  27.257  26.644  1.00  0.00    -0.463 OA
BRANCH  74  75
ATOM     75  C   UNL A   1      32.107  26.084  26.186  1.00  0.00     0.310 C 
ATOM     76  O   UNL A   1      31.135  25.539  26.688  1.00  0.00    -0.252 OA
BRANCH  75  77
ATOM     77  C   UNL A   1      32.941  25.542  25.028  1.00  0.00     0.115 C 
ATOM     78  C   UNL A   1      34.258  25.058  25.696  1.00  0.00     0.043 C 
ATOM     79  C   UNL A   1      32.368  24.367  24.207  1.00  0.00     0.096 C 
ATOM     80  C   UNL A   1      34.036  23.815  26.521  1.00  0.00    -0.030 C 
ATOM     81  C   UNL A   1      32.160  23.075  25.041  1.00  0.00     0.041 C 
ATOM     82  C   UNL A   1      33.048  22.949  26.247  1.00  0.00    -0.030 C 
BRANCH  79  83
ATOM     83  C   UNL A   1      31.271  24.487  23.122  1.00  0.00     0.224 C 
ATOM     84  O   UNL A   1      30.293  23.732  23.166  1.00  0.00    -0.275 OA
ATOM     85  N   UNL A   1      31.404  25.229  21.978  1.00  0.00    -0.351 N 
ATOM     86  H   UNL A   1      31.618  24.760  21.139  1.00  0.00     0.163 HD
BRANCH  85  87
ATOM     87  C   UNL A   1      31.243  26.674  21.942  1.00  0.00     0.103 C 
ATOM     88  C   UNL A   1      32.547  27.442  22.176  1.00  0.00     0.048 C 
ATOM     89  C   UNL A   1      30.276  27.354  22.919  1.00  0.00     0.141 C 
ATOM     90  C   UNL A   1      32.169  28.806  22.751  1.00  0.00     0.119 C 
ATOM     91  N   UNL A   1      30.718  28.753  22.835  1.00  0.00    -0.369 N 
BRANCH  91  92
ATOM     92  C   UNL A   1      29.893  29.845  22.790  1.00  0.00     0.038 A 
ATOM     93  C   UNL A   1      29.590  30.606  23.934  1.00  0.00     0.026 A 
ATOM     94  C   UNL A   1      29.327  30.272  21.583  1.00  0.00     0.046 A 
ATOM     95  C   UNL A   1      28.787  31.753  23.876  1.00  0.00     0.004 A 
ATOM     96  C   UNL A   1      28.503  31.400  21.523  1.00  0.00     0.043 A 
ATOM     97  C   UNL A   1      28.239  32.150  22.664  1.00  0.00     0.020 A 
ATOM     98  Cl  UNL A   1      27.802  31.861  20.020  1.00  0.00    -0.084 Cl
ENDBRANCH  91  92
ENDBRANCH  85  87
ENDBRANCH  79  83
ENDBRANCH  75  77
ENDBRANCH  74  75
ENDBRANCH  73  74
ENDBRANCH   1  73
TORSDOF 17
ENDMDL
MODEL 3
REMARK VINA RESULT:     -12.9      4.927      7.583
REMARK SMILES O=C(OCCOCCOC(=O)[C@H]1CC=CC[C@H]1C(=O)N[C@@H]1CCN(c2cccc(Cl)c2)C1)c1ccc(-c2c3nc(c(-c4c(F)c(F)c(F)c(F)c4F)c4ccc([nH]4)c(-c4c(F)c(F)c(F)c(F)c4F)c4nc(c(-c5c(F)c(F)c(F)c(F)c5F)c5ccc2[nH]5)C=C4)C=C3)cc1
REMARK SMILES IDX 7 1 6 2 5 3 4 4 3 5 2 6 1 7 33 8 34 9 95 10 35 11 94 12
REMARK SMILES IDX 36 13 37 14 38 15 88 16 39 17 93 18 87 19 89 20 40 21 92 22
REMARK SMILES IDX 86 23 85 24 41 26 73 27 53 28 72 29 54 30 57 31 71 32 90 33
REMARK SMILES IDX 55 34 56 35 70 37 91 38 58 39 42 40 43 41 51 42 44 43 45 44
REMARK SMILES IDX 49 45 52 46 46 47 47 48 50 49 48 50 74 51 75 52 83 53 76 54
REMARK SMILES IDX 77 55 81 56 84 57 78 58 79 59 82 60 80 61 59 62 60 63 68 64
REMARK SMILES IDX 61 65 62 66 66 67 69 68 63 69 64 70 67 71 65 72 8 73 9 74
REMARK SMILES IDX 10 75 11 76 12 77 13 78 17 79 14 80 16 81 15 82 18 83 19 84
REMARK SMILES IDX 20 85 21 87 22 88 32 89 23 90 24 91 25 92 26 93 31 94 27 95
REMARK SMILES IDX 29 96 28 97 30 98
REMARK H PARENT 89 25 57 36 20 86
REMARK Flexibility Score: inf
ROOT
ATOM      1  C   UNL A   1      36.243  23.064  23.840  1.00  0.00     0.202 C 
ENDROOT
BRANCH   1   2
ATOM      2  O   UNL A   1      37.324  22.164  24.173  1.00  0.00    -0.374 OA
BRANCH   2   3
ATOM      3  C   UNL A   1      37.611  21.890  25.565  1.00  0.00     0.202 C 
BRANCH   3   4
ATOM      4  C   UNL A   1      39.121  21.880  26.028  1.00  0.00     0.261 C 
BRANCH   4   5
ATOM      5  O   UNL A   1      39.709  20.532  26.274  1.00  0.00    -0.460 OA
BRANCH   5   6
ATOM      6  C   UNL A   1      40.978  20.037  26.078  1.00  0.00     0.338 C 
ATOM      7  O   UNL A   1      41.185  18.852  25.842  1.00  0.00    -0.246 OA
BRANCH   6   8
ATOM      8  C   UNL A   1      42.135  20.942  26.260  1.00  0.00     0.060 A 
ATOM      9  C   UNL A   1      42.373  21.373  27.536  1.00  0.00     0.016 A 
ATOM     10  C   UNL A   1      42.981  21.403  25.260  1.00  0.00     0.016 A 
ATOM     11  C   UNL A   1      43.030  22.532  27.815  1.00  0.00     0.010 A 
ATOM     12  C   UNL A   1      43.816  22.498  25.543  1.00  0.00     0.010 A 
ATOM     13  C   UNL A   1      43.705  23.150  26.787  1.00  0.00    -0.014 A 
BRANCH  13  14
ATOM     14  C   UNL A   1      43.892  24.602  26.940  1.00  0.00     0.031 A 
ATOM     15  C   UNL A   1      45.219  25.143  26.502  1.00  0.00     0.074 A 
ATOM     16  C   UNL A   1      42.863  25.425  27.200  1.00  0.00     0.049 A 
ATOM     17  N   UNL A   1      45.795  26.272  26.792  1.00  0.00    -0.248 NA
ATOM     18  C   UNL A   1      46.022  24.271  25.624  1.00  0.00     0.031 C 
ATOM     19  C   UNL A   1      41.458  25.024  27.341  1.00  0.00     0.029 A 
ATOM     20  N   UNL A   1      42.839  26.781  27.363  1.00  0.00    -0.354 N 
ATOM     21  C   UNL A   1      47.072  26.182  26.249  1.00  0.00     0.074 A 
ATOM     22  C   UNL A   1      47.177  24.911  25.581  1.00  0.00     0.031 C 
ATOM     23  C   UNL A   1      40.712  26.114  27.568  1.00  0.00     0.029 A 
ATOM     24  C   UNL A   1      41.606  27.249  27.743  1.00  0.00     0.049 A 
ATOM     25  H   UNL A   1      43.621  27.362  27.222  1.00  0.00     0.167 HD
ATOM     26  C   UNL A   1      48.063  27.093  26.356  1.00  0.00     0.037 A 
ATOM     27  C   UNL A   1      41.279  28.433  28.288  1.00  0.00     0.037 A 
ATOM     28  C   UNL A   1      47.841  28.369  26.975  1.00  0.00     0.049 A 
ATOM     29  C   UNL A   1      42.397  29.414  28.498  1.00  0.00     0.074 A 
ATOM     30  C   UNL A   1      48.732  29.388  27.234  1.00  0.00     0.029 A 
ATOM     31  N   UNL A   1      46.590  28.798  27.416  1.00  0.00    -0.354 N 
ATOM     32  N   UNL A   1      43.669  29.287  28.188  1.00  0.00    -0.248 NA
ATOM     33  C   UNL A   1      42.060  30.677  29.156  1.00  0.00     0.031 C 
ATOM     34  C   UNL A   1      48.028  30.411  27.881  1.00  0.00     0.029 A 
ATOM     35  C   UNL A   1      46.685  30.059  27.963  1.00  0.00     0.049 A 
ATOM     36  H   UNL A   1      45.759  28.276  27.347  1.00  0.00     0.167 HD
ATOM     37  C   UNL A   1      44.285  30.461  28.592  1.00  0.00     0.074 A 
ATOM     38  C   UNL A   1      43.238  31.287  29.171  1.00  0.00     0.031 C 
ATOM     39  C   UNL A   1      45.587  30.830  28.498  1.00  0.00     0.037 A 
BRANCH  26  40
ATOM     40  C   UNL A   1      49.438  26.662  25.932  1.00  0.00     0.064 A 
ATOM     41  C   UNL A   1      50.340  26.016  26.792  1.00  0.00     0.173 A 
ATOM     42  C   UNL A   1      49.901  27.009  24.650  1.00  0.00     0.173 A 
ATOM     43  F   UNL A   1      49.968  25.692  28.039  1.00  0.00    -0.203 F 
ATOM     44  C   UNL A   1      51.663  25.788  26.409  1.00  0.00     0.198 A 
ATOM     45  C   UNL A   1      51.212  26.745  24.257  1.00  0.00     0.198 A 
ATOM     46  F   UNL A   1      49.091  27.638  23.786  1.00  0.00    -0.203 F 
ATOM     47  F   UNL A   1      52.529  25.258  27.283  1.00  0.00    -0.200 F 
ATOM     48  C   UNL A   1      52.097  26.151  25.143  1.00  0.00     0.200 A 
ATOM     49  F   UNL A   1      51.624  27.096  23.031  1.00  0.00    -0.200 F 
ATOM     50  F   UNL A   1      53.372  25.952  24.785  1.00  0.00    -0.200 F 
ENDBRANCH  26  40
BRANCH  27  51
ATOM     51  C   UNL A   1      39.890  28.658  28.770  1.00  0.00     0.064 A 
ATOM     52  C   UNL A   1      39.520  28.388  30.092  1.00  0.00     0.173 A 
ATOM     53  C   UNL A   1      38.915  29.227  27.928  1.00  0.00     0.173 A 
ATOM     54  F   UNL A   1      40.404  27.834  30.934  1.00  0.00    -0.203 F 
ATOM     55  C   UNL A   1      38.237  28.684  30.556  1.00  0.00     0.198 A 
ATOM     56  C   UNL A   1      37.646  29.551  28.401  1.00  0.00     0.198 A 
ATOM     57  F   UNL A   1      39.214  29.514  26.652  1.00  0.00    -0.203 F 
ATOM     58  F   UNL A   1      37.904  28.401  31.822  1.00  0.00    -0.200 F 
ATOM     59  C   UNL A   1      37.306  29.276  29.715  1.00  0.00     0.200 A 
ATOM     60  F   UNL A   1      36.763  30.150  27.588  1.00  0.00    -0.200 F 
ATOM     61  F   UNL A   1      36.085  29.586  30.170  1.00  0.00    -0.200 F 
ENDBRANCH  27  51
BRANCH  39  62
ATOM     62  C   UNL A   1      45.931  32.207  28.968  1.00  0.00     0.064 A 
ATOM     63  C   UNL A   1      45.812  33.320  28.128  1.00  0.00     0.173 A 
ATOM     64  C   UNL A   1      46.267  32.414  30.314  1.00  0.00     0.173 A 
ATOM     65  F   UNL A   1      45.506  33.159  26.832  1.00  0.00    -0.203 F 
ATOM     66  C   UNL A   1      46.022  34.602  28.621  1.00  0.00     0.198 A 
ATOM     67  C   UNL A   1      46.445  33.699  30.811  1.00  0.00     0.198 A 
ATOM     68  F   UNL A   1      46.380  31.372  31.152  1.00  0.00    -0.203 F 
ATOM     69  F   UNL A   1      45.926  35.657  27.801  1.00  0.00    -0.200 F 
ATOM     70  C   UNL A   1      46.322  34.791  29.965  1.00  0.00     0.200 A 
ATOM     71  F   UNL A   1      46.715  33.880  32.110  1.00  0.00    -0.200 F 
ATOM     72  F   UNL A   1      46.493  36.029  30.444  1.00  0.00    -0.200 F 
ENDBRANCH  39  62
ENDBRANCH  13  14
ENDBRANCH   6   8
ENDBRANCH   5   6
ENDBRANCH   4   5
ENDBRANCH   3   4
ENDBRANCH   2   3
ENDBRANCH   1   2
BRANCH   1  73
ATOM     73  C   UNL A   1      35.415  23.720  24.950  1.00  0.00     0.261 C 
BRANCH  73  74
ATOM     74  O   UNL A   1      35.070  25.075  24.638  1.00  0.00    -0.463 OA
BRANCH  74  75
ATOM     75  C   UNL A   1      33.741  25.267  24.462  1.00  0.00     0.310 C 
ATOM     76  O   UNL A   1      33.177  25.043  23.400  1.00  0.00    -0.252 OA
BRANCH  75  77
ATOM     77  C   UNL A   1      33.090  25.829  25.722  1.00  0.00     0.115 C 
ATOM     78  C   UNL A   1      33.962  27.062  26.088  1.00  0.00     0.043 C 
ATOM     79  C   UNL A   1      31.622  26.299  25.636  1.00  0.00     0.096 C 
ATOM     80  C   UNL A   1      33.762  28.192  25.110  1.00  0.00    -0.030 C 
ATOM     81  C   UNL A   1      31.409  27.478  24.650  1.00  0.00     0.041 C 
ATOM     82  C   UNL A   1      32.618  28.341  24.423  1.00  0.00    -0.030 C 
BRANCH  79  83
ATOM     83  C   UNL A   1      30.386  25.367  25.632  1.00  0.00     0.224 C 
ATOM     84  O   UNL A   1      29.411  25.660  24.930  1.00  0.00    -0.275 OA
ATOM     85  N   UNL A   1      30.196  24.343  26.522  1.00  0.00    -0.351 N 
ATOM     86  H   UNL A   1      29.584  24.488  27.279  1.00  0.00     0.163 HD
BRANCH  85  87
ATOM     87  C   UNL A   1      30.855  23.052  26.402  1.00  0.00     0.103 C 
ATOM     88  C   UNL A   1      32.091  22.908  27.294  1.00  0.00     0.048 C 
ATOM     89  C   UNL A   1      31.375  22.590  25.036  1.00  0.00     0.141 C 
ATOM     90  C   UNL A   1      33.006  21.878  26.634  1.00  0.00     0.119 C 
ATOM     91  N   UNL A   1      32.288  21.506  25.426  1.00  0.00    -0.369 N 
BRANCH  91  92
ATOM     92  C   UNL A   1      32.411  20.302  24.785  1.00  0.00     0.038 A 
ATOM     93  C   UNL A   1      32.238  20.170  23.394  1.00  0.00     0.026 A 
ATOM     94  C   UNL A   1      32.742  19.139  25.490  1.00  0.00     0.046 A 
ATOM     95  C   UNL A   1      32.415  18.947  22.734  1.00  0.00     0.004 A 
ATOM     96  C   UNL A   1      32.893  17.910  24.840  1.00  0.00     0.043 A 
ATOM     97  C   UNL A   1      32.742  17.811  23.461  1.00  0.00     0.020 A 
ATOM     98  Cl  UNL A   1      33.264  16.503  25.759  1.00  0.00    -0.084 Cl
ENDBRANCH  91  92
ENDBRANCH  85  87
ENDBRANCH  79  83
ENDBRANCH  75  77
ENDBRANCH  74  75
ENDBRANCH  73  74
ENDBRANCH   1  73
TORSDOF 17
ENDMDL
