MODEL 1
REMARK VINA RESULT:     -12.7      0.000      0.000
REMARK SMILES CC(C)n1c2c(c3ccccc31)[C@@H](c1ccccc1)N(CC(=O)OCCOCCOC(=O)c1ccc(-c3c4nc(c(-c5c(F)c(F)c(F)c(F)c5F)c5ccc([nH]5)c(-c5c(F)c(F)c(F)c(F)c5F)c5nc(c(-c6c(F)c(F)c(F)c(F)c6F)c6ccc3[nH]6)C=C5)C=C4)cc1)C2=O
REMARK SMILES IDX 27 1 26 2 25 3 24 4 22 5 23 6 21 7 20 8 4 9 5 10 12 11 6 12
REMARK SMILES IDX 96 13 7 14 11 15 13 16 97 17 8 18 10 19 9 20 2 21 1 22 3 23
REMARK SMILES IDX 14 24 15 25 19 26 16 27 18 28 17 29 28 30 29 31 30 32 31 33
REMARK SMILES IDX 32 34 33 35 34 36 95 37 35 38 94 39 36 40 37 41 38 42 88 43
REMARK SMILES IDX 39 44 93 45 87 46 89 47 40 48 92 49 86 50 85 51 41 53 73 54
REMARK SMILES IDX 53 55 72 56 54 57 57 58 71 59 90 60 55 61 56 62 70 64 91 65
REMARK SMILES IDX 58 66 42 67 43 68 51 69 44 70 45 71 49 72 52 73 46 74 47 75
REMARK SMILES IDX 50 76 48 77 74 78 75 79 83 80 76 81 77 82 81 83 84 84 78 85
REMARK SMILES IDX 79 86 82 87 80 88 59 89 60 90 68 91 61 92 62 93 66 94 69 95
REMARK SMILES IDX 63 96 64 97 67 98 65 99
REMARK H PARENT 89 52 57 63
REMARK Flexibility Score: inf
ROOT
ATOM      1  O   UNL A   1      37.403  22.523  25.324  1.00  0.00    -0.374 OA
ENDROOT
BRANCH   1   2
ATOM      2  C   UNL A   1      36.848  23.063  24.136  1.00  0.00     0.202 C 
BRANCH   2   3
ATOM      3  C   UNL A   1      35.399  22.713  23.771  1.00  0.00     0.261 C 
BRANCH   3   4
ATOM      4  O   UNL A   1      34.922  23.320  22.545  1.00  0.00    -0.462 OA
BRANCH   4   5
ATOM      5  C   UNL A   1      33.569  23.313  22.402  1.00  0.00     0.325 C 
ATOM      6  O   UNL A   1      32.868  22.322  22.604  1.00  0.00    -0.250 OA
BRANCH   5   7
ATOM      7  C   UNL A   1      32.920  24.639  21.983  1.00  0.00     0.243 C 
BRANCH   7   8
ATOM      8  N   UNL A   1      32.512  25.676  22.920  1.00  0.00    -0.315 N 
ATOM      9  N   UNL A   1      31.079  28.773  24.055  1.00  0.00    -0.334 N 
ATOM     10  C   UNL A   1      31.639  27.585  23.679  1.00  0.00     0.114 A 
ATOM     11  C   UNL A   1      31.789  29.226  25.172  1.00  0.00     0.049 A 
ATOM     12  C   UNL A   1      32.520  27.157  24.631  1.00  0.00     0.018 A 
ATOM     13  C   UNL A   1      31.610  26.686  22.575  1.00  0.00     0.272 C 
ATOM     14  C   UNL A   1      32.714  28.214  25.531  1.00  0.00     0.006 A 
ATOM     15  C   UNL A   1      31.758  30.428  25.905  1.00  0.00     0.027 A 
ATOM     16  C   UNL A   1      33.076  25.824  24.287  1.00  0.00     0.150 C 
ATOM     17  O   UNL A   1      30.992  26.805  21.523  1.00  0.00    -0.267 OA
ATOM     18  C   UNL A   1      33.606  28.421  26.600  1.00  0.00     0.011 A 
ATOM     19  C   UNL A   1      32.680  30.621  26.942  1.00  0.00     0.002 A 
ATOM     20  C   UNL A   1      33.594  29.635  27.283  1.00  0.00     0.001 A 
BRANCH   9  21
ATOM     21  C   UNL A   1      29.952  29.375  23.335  1.00  0.00     0.082 C 
ATOM     22  C   UNL A   1      30.406  29.939  21.983  1.00  0.00     0.031 C 
ATOM     23  C   UNL A   1      28.713  28.503  23.122  1.00  0.00     0.031 C 
ENDBRANCH   9  21
BRANCH  16  24
ATOM     24  C   UNL A   1      32.619  24.782  25.312  1.00  0.00    -0.021 A 
ATOM     25  C   UNL A   1      33.595  24.190  26.142  1.00  0.00     0.006 A 
ATOM     26  C   UNL A   1      31.281  24.407  25.554  1.00  0.00     0.006 A 
ATOM     27  C   UNL A   1      33.259  23.272  27.146  1.00  0.00     0.000 A 
ATOM     28  C   UNL A   1      30.939  23.510  26.580  1.00  0.00     0.000 A 
ATOM     29  C   UNL A   1      31.929  22.941  27.373  1.00  0.00     0.000 A 
ENDBRANCH  16  24
ENDBRANCH   7   8
ENDBRANCH   5   7
ENDBRANCH   4   5
ENDBRANCH   3   4
ENDBRANCH   2   3
ENDBRANCH   1   2
BRANCH   1  30
ATOM     30  C   UNL A   1      38.035  21.250  25.219  1.00  0.00     0.202 C 
BRANCH  30  31
ATOM     31  C   UNL A   1      39.391  21.057  25.933  1.00  0.00     0.261 C 
BRANCH  31  32
ATOM     32  O   UNL A   1      39.928  22.297  26.431  1.00  0.00    -0.460 OA
BRANCH  32  33
ATOM     33  C   UNL A   1      41.247  22.494  26.149  1.00  0.00     0.338 C 
ATOM     34  O   UNL A   1      41.940  21.835  25.394  1.00  0.00    -0.246 OA
BRANCH  33  35
ATOM     35  C   UNL A   1      41.521  23.902  26.516  1.00  0.00     0.060 A 
ATOM     36  C   UNL A   1      42.507  24.241  27.446  1.00  0.00     0.016 A 
ATOM     37  C   UNL A   1      40.502  24.812  26.183  1.00  0.00     0.016 A 
ATOM     38  C   UNL A   1      42.398  25.453  28.131  1.00  0.00     0.010 A 
ATOM     39  C   UNL A   1      40.365  25.988  26.912  1.00  0.00     0.010 A 
ATOM     40  C   UNL A   1      41.282  26.287  27.923  1.00  0.00    -0.014 A 
BRANCH  40  41
ATOM     41  C   UNL A   1      41.224  27.591  28.600  1.00  0.00     0.031 A 
ATOM     42  C   UNL A   1      42.295  28.508  28.113  1.00  0.00     0.074 A 
ATOM     43  C   UNL A   1      40.244  28.022  29.430  1.00  0.00     0.049 A 
ATOM     44  N   UNL A   1      43.230  29.078  28.800  1.00  0.00    -0.248 NA
ATOM     45  C   UNL A   1      42.425  28.694  26.655  1.00  0.00     0.031 C 
ATOM     46  C   UNL A   1      39.003  27.346  29.801  1.00  0.00     0.029 A 
ATOM     47  N   UNL A   1      40.107  29.227  30.072  1.00  0.00    -0.354 N 
ATOM     48  C   UNL A   1      43.967  29.825  27.885  1.00  0.00     0.074 A 
ATOM     49  C   UNL A   1      43.537  29.423  26.575  1.00  0.00     0.031 C 
ATOM     50  C   UNL A   1      38.152  28.217  30.390  1.00  0.00     0.029 A 
ATOM     51  C   UNL A   1      38.822  29.491  30.553  1.00  0.00     0.049 A 
ATOM     52  H   UNL A   1      40.856  29.856  30.184  1.00  0.00     0.167 HD
ATOM     53  C   UNL A   1      44.715  30.891  28.276  1.00  0.00     0.037 A 
ATOM     54  C   UNL A   1      38.333  30.681  31.000  1.00  0.00     0.037 A 
ATOM     55  C   UNL A   1      45.008  30.842  29.680  1.00  0.00     0.049 A 
ATOM     56  C   UNL A   1      39.494  31.541  31.322  1.00  0.00     0.074 A 
ATOM     57  C   UNL A   1      45.701  29.966  30.494  1.00  0.00     0.029 A 
ATOM     58  N   UNL A   1      44.251  31.614  30.523  1.00  0.00    -0.354 N 
ATOM     59  N   UNL A   1      40.300  31.328  32.322  1.00  0.00    -0.248 NA
ATOM     60  C   UNL A   1      40.020  32.369  30.248  1.00  0.00     0.031 C 
ATOM     61  C   UNL A   1      44.959  29.926  31.709  1.00  0.00     0.029 A 
ATOM     62  C   UNL A   1      43.905  30.831  31.594  1.00  0.00     0.049 A 
ATOM     63  H   UNL A   1      44.001  32.555  30.385  1.00  0.00     0.167 HD
ATOM     64  C   UNL A   1      41.557  31.596  31.808  1.00  0.00     0.074 A 
ATOM     65  C   UNL A   1      41.318  32.289  30.544  1.00  0.00     0.031 C 
ATOM     66  C   UNL A   1      42.662  30.974  32.309  1.00  0.00     0.037 A 
BRANCH  53  67
ATOM     67  C   UNL A   1      44.856  32.149  27.457  1.00  0.00     0.064 A 
ATOM     68  C   UNL A   1      46.065  32.403  26.782  1.00  0.00     0.173 A 
ATOM     69  C   UNL A   1      43.966  33.242  27.547  1.00  0.00     0.173 A 
ATOM     70  F   UNL A   1      47.000  31.446  26.673  1.00  0.00    -0.203 F 
ATOM     71  C   UNL A   1      46.379  33.671  26.287  1.00  0.00     0.198 A 
ATOM     72  C   UNL A   1      44.257  34.489  27.001  1.00  0.00     0.198 A 
ATOM     73  F   UNL A   1      42.836  33.184  28.262  1.00  0.00    -0.203 F 
ATOM     74  F   UNL A   1      47.589  33.899  25.761  1.00  0.00    -0.200 F 
ATOM     75  C   UNL A   1      45.475  34.713  26.397  1.00  0.00     0.200 A 
ATOM     76  F   UNL A   1      43.378  35.491  27.143  1.00  0.00    -0.200 F 
ATOM     77  F   UNL A   1      45.796  35.942  25.971  1.00  0.00    -0.200 F 
ENDBRANCH  53  67
BRANCH  54  78
ATOM     78  C   UNL A   1      36.977  31.277  30.824  1.00  0.00     0.064 A 
ATOM     79  C   UNL A   1      36.237  31.732  31.935  1.00  0.00     0.173 A 
ATOM     80  C   UNL A   1      36.530  31.717  29.564  1.00  0.00     0.173 A 
ATOM     81  F   UNL A   1      36.610  31.394  33.179  1.00  0.00    -0.203 F 
ATOM     82  C   UNL A   1      35.156  32.611  31.795  1.00  0.00     0.198 A 
ATOM     83  C   UNL A   1      35.448  32.591  29.425  1.00  0.00     0.198 A 
ATOM     84  F   UNL A   1      37.199  31.394  28.449  1.00  0.00    -0.203 F 
ATOM     85  F   UNL A   1      34.529  33.084  32.883  1.00  0.00    -0.200 F 
ATOM     86  C   UNL A   1      34.774  33.053  30.541  1.00  0.00     0.200 A 
ATOM     87  F   UNL A   1      35.112  33.042  28.208  1.00  0.00    -0.200 F 
ATOM     88  F   UNL A   1      33.793  33.956  30.408  1.00  0.00    -0.200 F 
ENDBRANCH  54  78
BRANCH  66  89
ATOM     89  C   UNL A   1      42.520  30.209  33.594  1.00  0.00     0.064 A 
ATOM     90  C   UNL A   1      42.583  30.786  34.875  1.00  0.00     0.173 A 
ATOM     91  C   UNL A   1      42.165  28.856  33.511  1.00  0.00     0.173 A 
ATOM     92  F   UNL A   1      42.824  32.094  35.035  1.00  0.00    -0.203 F 
ATOM     93  C   UNL A   1      42.338  30.026  36.019  1.00  0.00     0.198 A 
ATOM     94  C   UNL A   1      41.883  28.111  34.651  1.00  0.00     0.198 A 
ATOM     95  F   UNL A   1      42.044  28.266  32.311  1.00  0.00    -0.203 F 
ATOM     96  F   UNL A   1      42.414  30.592  37.233  1.00  0.00    -0.200 F 
ATOM     97  C   UNL A   1      41.978  28.692  35.904  1.00  0.00     0.200 A 
ATOM     98  F   UNL A   1      41.487  26.837  34.530  1.00  0.00    -0.200 F 
ATOM     99  F   UNL A   1      41.699  27.973  37.000  1.00  0.00    -0.200 F 
ENDBRANCH  66  89
ENDBRANCH  40  41
ENDBRANCH  33  35
ENDBRANCH  32  33
ENDBRANCH  31  32
ENDBRANCH  30  31
ENDBRANCH   1  30
TORSDOF 17
ENDMDL
MODEL 2
REMARK VINA RESULT:     -12.5      2.424      3.961
REMARK SMILES CC(C)n1c2c(c3ccccc31)[C@@H](c1ccccc1)N(CC(=O)OCCOCCOC(=O)c1ccc(-c3c4nc(c(-c5c(F)c(F)c(F)c(F)c5F)c5ccc([nH]5)c(-c5c(F)c(F)c(F)c(F)c5F)c5nc(c(-c6c(F)c(F)c(F)c(F)c6F)c6ccc3[nH]6)C=C5)C=C4)cc1)C2=O
REMARK SMILES IDX 27 1 26 2 25 3 24 4 22 5 23 6 21 7 20 8 4 9 5 10 12 11 6 12
REMARK SMILES IDX 96 13 7 14 11 15 13 16 97 17 8 18 10 19 9 20 2 21 1 22 3 23
REMARK SMILES IDX 14 24 15 25 19 26 16 27 18 28 17 29 28 30 29 31 30 32 31 33
REMARK SMILES IDX 32 34 33 35 34 36 95 37 35 38 94 39 36 40 37 41 38 42 88 43
REMARK SMILES IDX 39 44 93 45 87 46 89 47 40 48 92 49 86 50 85 51 41 53 73 54
REMARK SMILES IDX 53 55 72 56 54 57 57 58 71 59 90 60 55 61 56 62 70 64 91 65
REMARK SMILES IDX 58 66 42 67 43 68 51 69 44 70 45 71 49 72 52 73 46 74 47 75
REMARK SMILES IDX 50 76 48 77 74 78 75 79 83 80 76 81 77 82 81 83 84 84 78 85
REMARK SMILES IDX 79 86 82 87 80 88 59 89 60 90 68 91 61 92 62 93 66 94 69 95
REMARK SMILES IDX 63 96 64 97 67 98 65 99
REMARK H PARENT 89 52 57 63
REMARK Flexibility Score: inf
ROOT
ATOM      1  O   UNL A   1      41.706  21.199  27.301  1.00  0.00    -0.374 OA
ENDROOT
BRANCH   1   2
ATOM      2  C   UNL A   1      40.354  21.625  27.335  1.00  0.00     0.202 C 
BRANCH   2   3
ATOM      3  C   UNL A   1      39.625  21.880  26.009  1.00  0.00     0.261 C 
BRANCH   3   4
ATOM      4  O   UNL A   1      38.667  20.858  25.640  1.00  0.00    -0.462 OA
BRANCH   4   5
ATOM      5  C   UNL A   1      37.500  21.337  25.130  1.00  0.00     0.325 C 
ATOM      6  O   UNL A   1      37.327  21.583  23.937  1.00  0.00    -0.250 OA
BRANCH   5   7
ATOM      7  C   UNL A   1      36.356  21.550  26.130  1.00  0.00     0.243 C 
BRANCH   7   8
ATOM      8  N   UNL A   1      35.167  22.343  25.849  1.00  0.00    -0.315 N 
ATOM      9  N   UNL A   1      33.158  25.283  25.347  1.00  0.00    -0.334 N 
ATOM     10  C   UNL A   1      33.874  24.134  25.530  1.00  0.00     0.114 A 
ATOM     11  C   UNL A   1      31.853  25.028  25.783  1.00  0.00     0.049 A 
ATOM     12  C   UNL A   1      33.036  23.104  25.852  1.00  0.00     0.018 A 
ATOM     13  C   UNL A   1      35.231  23.701  25.528  1.00  0.00     0.272 C 
ATOM     14  C   UNL A   1      31.775  23.654  26.118  1.00  0.00     0.006 A 
ATOM     15  C   UNL A   1      30.723  25.849  25.957  1.00  0.00     0.027 A 
ATOM     16  C   UNL A   1      33.780  21.824  25.968  1.00  0.00     0.150 C 
ATOM     17  O   UNL A   1      36.237  24.381  25.359  1.00  0.00    -0.267 OA
ATOM     18  C   UNL A   1      30.580  23.122  26.641  1.00  0.00     0.011 A 
ATOM     19  C   UNL A   1      29.558  25.303  26.510  1.00  0.00     0.002 A 
ATOM     20  C   UNL A   1      29.487  23.960  26.852  1.00  0.00     0.001 A 
BRANCH   9  21
ATOM     21  C   UNL A   1      33.757  26.504  24.798  1.00  0.00     0.082 C 
ATOM     22  C   UNL A   1      33.097  26.885  23.466  1.00  0.00     0.031 C 
ATOM     23  C   UNL A   1      33.795  27.734  25.707  1.00  0.00     0.031 C 
ENDBRANCH   9  21
BRANCH  16  24
ATOM     24  C   UNL A   1      33.336  20.853  24.871  1.00  0.00    -0.021 A 
ATOM     25  C   UNL A   1      33.481  19.469  25.105  1.00  0.00     0.006 A 
ATOM     26  C   UNL A   1      32.719  21.220  23.656  1.00  0.00     0.006 A 
ATOM     27  C   UNL A   1      33.047  18.509  24.181  1.00  0.00     0.000 A 
ATOM     28  C   UNL A   1      32.256  20.260  22.743  1.00  0.00     0.000 A 
ATOM     29  C   UNL A   1      32.423  18.905  23.004  1.00  0.00     0.000 A 
ENDBRANCH  16  24
ENDBRANCH   7   8
ENDBRANCH   5   7
ENDBRANCH   4   5
ENDBRANCH   3   4
ENDBRANCH   2   3
ENDBRANCH   1   2
BRANCH   1  30
ATOM     30  C   UNL A   1      41.940  19.821  27.026  1.00  0.00     0.202 C 
BRANCH  30  31
ATOM     31  C   UNL A   1      43.048  19.466  26.010  1.00  0.00     0.261 C 
BRANCH  31  32
ATOM     32  O   UNL A   1      43.168  20.450  24.967  1.00  0.00    -0.460 OA
BRANCH  32  33
ATOM     33  C   UNL A   1      44.444  20.870  24.730  1.00  0.00     0.338 C 
ATOM     34  O   UNL A   1      45.233  20.396  23.933  1.00  0.00    -0.246 OA
BRANCH  33  35
ATOM     35  C   UNL A   1      44.497  22.264  25.228  1.00  0.00     0.060 A 
ATOM     36  C   UNL A   1      45.309  22.629  26.306  1.00  0.00     0.016 A 
ATOM     37  C   UNL A   1      43.427  23.080  24.824  1.00  0.00     0.016 A 
ATOM     38  C   UNL A   1      44.968  23.759  27.052  1.00  0.00     0.010 A 
ATOM     39  C   UNL A   1      43.057  24.168  25.607  1.00  0.00     0.010 A 
ATOM     40  C   UNL A   1      43.796  24.480  26.752  1.00  0.00    -0.014 A 
BRANCH  40  41
ATOM     41  C   UNL A   1      43.495  25.707  27.504  1.00  0.00     0.031 A 
ATOM     42  C   UNL A   1      44.472  26.792  27.193  1.00  0.00     0.074 A 
ATOM     43  C   UNL A   1      42.392  25.940  28.254  1.00  0.00     0.049 A 
ATOM     44  N   UNL A   1      45.250  27.422  28.010  1.00  0.00    -0.248 NA
ATOM     45  C   UNL A   1      44.713  27.108  25.772  1.00  0.00     0.031 C 
ATOM     46  C   UNL A   1      41.226  25.081  28.447  1.00  0.00     0.029 A 
ATOM     47  N   UNL A   1      42.031  27.062  28.955  1.00  0.00    -0.354 N 
ATOM     48  C   UNL A   1      45.961  28.328  27.229  1.00  0.00     0.074 A 
ATOM     49  C   UNL A   1      45.716  27.979  25.856  1.00  0.00     0.031 C 
ATOM     50  C   UNL A   1      40.211  25.785  29.001  1.00  0.00     0.029 A 
ATOM     51  C   UNL A   1      40.681  27.118  29.316  1.00  0.00     0.049 A 
ATOM     52  H   UNL A   1      42.672  27.772  29.187  1.00  0.00     0.167 HD
ATOM     53  C   UNL A   1      46.515  29.448  27.764  1.00  0.00     0.037 A 
ATOM     54  C   UNL A   1      39.994  28.195  29.788  1.00  0.00     0.037 A 
ATOM     55  C   UNL A   1      46.678  29.326  29.186  1.00  0.00     0.049 A 
ATOM     56  C   UNL A   1      40.990  29.171  30.285  1.00  0.00     0.074 A 
ATOM     57  C   UNL A   1      47.404  28.486  30.007  1.00  0.00     0.029 A 
ATOM     58  N   UNL A   1      45.746  29.923  29.994  1.00  0.00    -0.354 N 
ATOM     59  N   UNL A   1      41.719  28.985  31.348  1.00  0.00    -0.248 NA
ATOM     60  C   UNL A   1      41.496  30.142  29.329  1.00  0.00     0.031 C 
ATOM     61  C   UNL A   1      46.563  28.253  31.133  1.00  0.00     0.029 A 
ATOM     62  C   UNL A   1      45.411  29.020  30.969  1.00  0.00     0.049 A 
ATOM     63  H   UNL A   1      45.384  30.833  29.893  1.00  0.00     0.167 HD
ATOM     64  C   UNL A   1      42.971  29.454  30.986  1.00  0.00     0.074 A 
ATOM     65  C   UNL A   1      42.760  30.208  29.752  1.00  0.00     0.031 C 
ATOM     66  C   UNL A   1      44.098  28.943  31.557  1.00  0.00     0.037 A 
BRANCH  53  67
ATOM     67  C   UNL A   1      46.560  30.774  27.049  1.00  0.00     0.064 A 
ATOM     68  C   UNL A   1      47.772  31.486  26.987  1.00  0.00     0.173 A 
ATOM     69  C   UNL A   1      45.405  31.501  26.683  1.00  0.00     0.173 A 
ATOM     70  F   UNL A   1      48.925  30.904  27.351  1.00  0.00    -0.203 F 
ATOM     71  C   UNL A   1      47.814  32.839  26.638  1.00  0.00     0.198 A 
ATOM     72  C   UNL A   1      45.458  32.832  26.280  1.00  0.00     0.198 A 
ATOM     73  F   UNL A   1      44.173  30.994  26.810  1.00  0.00    -0.203 F 
ATOM     74  F   UNL A   1      48.972  33.508  26.710  1.00  0.00    -0.200 F 
ATOM     75  C   UNL A   1      46.657  33.511  26.285  1.00  0.00     0.200 A 
ATOM     76  F   UNL A   1      44.321  33.472  25.968  1.00  0.00    -0.200 F 
ATOM     77  F   UNL A   1      46.688  34.820  26.003  1.00  0.00    -0.200 F 
ENDBRANCH  53  67
BRANCH  54  78
ATOM     78  C   UNL A   1      38.592  28.622  29.511  1.00  0.00     0.064 A 
ATOM     79  C   UNL A   1      37.716  28.958  30.564  1.00  0.00     0.173 A 
ATOM     80  C   UNL A   1      38.193  29.030  28.224  1.00  0.00     0.173 A 
ATOM     81  F   UNL A   1      38.030  28.642  31.829  1.00  0.00    -0.203 F 
ATOM     82  C   UNL A   1      36.548  29.699  30.348  1.00  0.00     0.198 A 
ATOM     83  C   UNL A   1      37.024  29.766  28.009  1.00  0.00     0.198 A 
ATOM     84  F   UNL A   1      38.982  28.817  27.162  1.00  0.00    -0.203 F 
ATOM     85  F   UNL A   1      35.784  30.067  31.387  1.00  0.00    -0.200 F 
ATOM     86  C   UNL A   1      36.212  30.117  29.072  1.00  0.00     0.200 A 
ATOM     87  F   UNL A   1      36.730  30.197  26.774  1.00  0.00    -0.200 F 
ATOM     88  F   UNL A   1      35.139  30.894  28.872  1.00  0.00    -0.200 F 
ENDBRANCH  54  78
BRANCH  66  89
ATOM     89  C   UNL A   1      43.942  28.066  32.768  1.00  0.00     0.064 A 
ATOM     90  C   UNL A   1      43.862  26.663  32.728  1.00  0.00     0.173 A 
ATOM     91  C   UNL A   1      44.020  28.674  34.027  1.00  0.00     0.173 A 
ATOM     92  F   UNL A   1      43.879  26.000  31.564  1.00  0.00    -0.203 F 
ATOM     93  C   UNL A   1      43.823  25.911  33.903  1.00  0.00     0.198 A 
ATOM     94  C   UNL A   1      44.020  27.919  35.196  1.00  0.00     0.198 A 
ATOM     95  F   UNL A   1      44.145  30.007  34.123  1.00  0.00    -0.203 F 
ATOM     96  F   UNL A   1      43.736  24.573  33.844  1.00  0.00    -0.200 F 
ATOM     97  C   UNL A   1      43.913  26.541  35.135  1.00  0.00     0.200 A 
ATOM     98  F   UNL A   1      44.157  28.530  36.380  1.00  0.00    -0.200 F 
ATOM     99  F   UNL A   1      43.920  25.816  36.262  1.00  0.00    -0.200 F 
ENDBRANCH  66  89
ENDBRANCH  40  41
ENDBRANCH  33  35
ENDBRANCH  32  33
ENDBRANCH  31  32
ENDBRANCH  30  31
ENDBRANCH   1  30
TORSDOF 17
ENDMDL
MODEL 3
REMARK VINA RESULT:     -11.8      5.227     11.635
REMARK SMILES CC(C)n1c2c(c3ccccc31)[C@@H](c1ccccc1)N(CC(=O)OCCOCCOC(=O)c1ccc(-c3c4nc(c(-c5c(F)c(F)c(F)c(F)c5F)c5ccc([nH]5)c(-c5c(F)c(F)c(F)c(F)c5F)c5nc(c(-c6c(F)c(F)c(F)c(F)c6F)c6ccc3[nH]6)C=C5)C=C4)cc1)C2=O
REMARK SMILES IDX 27 1 26 2 25 3 24 4 22 5 23 6 21 7 20 8 4 9 5 10 12 11 6 12
REMARK SMILES IDX 96 13 7 14 11 15 13 16 97 17 8 18 10 19 9 20 2 21 1 22 3 23
REMARK SMILES IDX 14 24 15 25 19 26 16 27 18 28 17 29 28 30 29 31 30 32 31 33
REMARK SMILES IDX 32 34 33 35 34 36 95 37 35 38 94 39 36 40 37 41 38 42 88 43
REMARK SMILES IDX 39 44 93 45 87 46 89 47 40 48 92 49 86 50 85 51 41 53 73 54
REMARK SMILES IDX 53 55 72 56 54 57 57 58 71 59 90 60 55 61 56 62 70 64 91 65
REMARK SMILES IDX 58 66 42 67 43 68 51 69 44 70 45 71 49 72 52 73 46 74 47 75
REMARK SMILES IDX 50 76 48 77 74 78 75 79 83 80 76 81 77 82 81 83 84 84 78 85
REMARK SMILES IDX 79 86 82 87 80 88 59 89 60 90 68 91 61 92 62 93 66 94 69 95
REMARK SMILES IDX 63 96 64 97 67 98 65 99
REMARK H PARENT 89 52 57 63
REMARK Flexibility Score: inf
ROOT
ATOM      1  O   UNL A   1      33.258  34.526  30.337  1.00  0.00    -0.374 OA
ENDROOT
BRANCH   1   2
ATOM      2  C   UNL A   1      33.868  35.131  31.465  1.00  0.00     0.202 C 
BRANCH   2   3
ATOM      3  C   UNL A   1      34.241  34.251  32.666  1.00  0.00     0.261 C 
BRANCH   3   4
ATOM      4  O   UNL A   1      35.353  33.352  32.433  1.00  0.00    -0.462 OA
BRANCH   4   5
ATOM      5  C   UNL A   1      36.050  33.016  33.552  1.00  0.00     0.325 C 
ATOM      6  O   UNL A   1      35.680  33.292  34.693  1.00  0.00    -0.250 OA
BRANCH   5   7
ATOM      7  C   UNL A   1      37.353  32.235  33.335  1.00  0.00     0.243 C 
BRANCH   7   8
ATOM      8  N   UNL A   1      38.653  32.672  33.825  1.00  0.00    -0.315 N 
ATOM      9  N   UNL A   1      41.492  32.887  36.022  1.00  0.00    -0.334 N 
ATOM     10  C   UNL A   1      40.438  32.845  35.153  1.00  0.00     0.114 A 
ATOM     11  C   UNL A   1      42.026  34.179  35.958  1.00  0.00     0.049 A 
ATOM     12  C   UNL A   1      40.417  33.974  34.384  1.00  0.00     0.018 A 
ATOM     13  C   UNL A   1      39.336  31.999  34.842  1.00  0.00     0.272 C 
ATOM     14  C   UNL A   1      41.337  34.876  34.935  1.00  0.00     0.006 A 
ATOM     15  C   UNL A   1      43.018  34.843  36.703  1.00  0.00     0.027 A 
ATOM     16  C   UNL A   1      39.333  33.913  33.371  1.00  0.00     0.150 C 
ATOM     17  O   UNL A   1      39.012  30.952  35.392  1.00  0.00    -0.267 OA
ATOM     18  C   UNL A   1      41.634  36.229  34.681  1.00  0.00     0.011 A 
ATOM     19  C   UNL A   1      43.270  36.198  36.453  1.00  0.00     0.002 A 
ATOM     20  C   UNL A   1      42.585  36.885  35.460  1.00  0.00     0.001 A 
BRANCH   9  21
ATOM     21  C   UNL A   1      41.891  31.731  36.831  1.00  0.00     0.082 C 
ATOM     22  C   UNL A   1      43.164  31.084  36.268  1.00  0.00     0.031 C 
ATOM     23  C   UNL A   1      42.068  31.956  38.334  1.00  0.00     0.031 C 
ENDBRANCH   9  21
BRANCH  16  24
ATOM     24  C   UNL A   1      39.930  33.867  31.962  1.00  0.00    -0.021 A 
ATOM     25  C   UNL A   1      39.288  34.598  30.941  1.00  0.00     0.006 A 
ATOM     26  C   UNL A   1      41.124  33.207  31.602  1.00  0.00     0.006 A 
ATOM     27  C   UNL A   1      39.798  34.661  29.637  1.00  0.00     0.000 A 
ATOM     28  C   UNL A   1      41.653  33.293  30.304  1.00  0.00     0.000 A 
ATOM     29  C   UNL A   1      40.988  34.018  29.321  1.00  0.00     0.000 A 
ENDBRANCH  16  24
ENDBRANCH   7   8
ENDBRANCH   5   7
ENDBRANCH   4   5
ENDBRANCH   3   4
ENDBRANCH   2   3
ENDBRANCH   1   2
BRANCH   1  30
ATOM     30  C   UNL A   1      33.672  34.990  29.055  1.00  0.00     0.202 C 
BRANCH  30  31
ATOM     31  C   UNL A   1      34.634  34.097  28.240  1.00  0.00     0.261 C 
BRANCH  31  32
ATOM     32  O   UNL A   1      35.280  33.104  29.057  1.00  0.00    -0.460 OA
BRANCH  32  33
ATOM     33  C   UNL A   1      35.086  31.819  28.643  1.00  0.00     0.338 C 
ATOM     34  O   UNL A   1      34.056  31.341  28.203  1.00  0.00    -0.246 OA
BRANCH  33  35
ATOM     35  C   UNL A   1      36.440  31.289  28.358  1.00  0.00     0.060 A 
ATOM     36  C   UNL A   1      36.629  30.046  27.749  1.00  0.00     0.016 A 
ATOM     37  C   UNL A   1      37.482  31.910  29.068  1.00  0.00     0.016 A 
ATOM     38  C   UNL A   1      37.835  29.372  27.957  1.00  0.00     0.010 A 
ATOM     39  C   UNL A   1      38.654  31.208  29.323  1.00  0.00     0.010 A 
ATOM     40  C   UNL A   1      38.813  29.916  28.811  1.00  0.00    -0.014 A 
BRANCH  40  41
ATOM     41  C   UNL A   1      40.102  29.225  28.959  1.00  0.00     0.031 A 
ATOM     42  C   UNL A   1      40.398  28.917  30.388  1.00  0.00     0.074 A 
ATOM     43  C   UNL A   1      40.876  28.746  27.955  1.00  0.00     0.049 A 
ATOM     44  N   UNL A   1      41.414  29.294  31.091  1.00  0.00    -0.248 NA
ATOM     45  C   UNL A   1      39.354  28.224  31.168  1.00  0.00     0.031 C 
ATOM     46  C   UNL A   1      40.602  28.738  26.520  1.00  0.00     0.029 A 
ATOM     47  N   UNL A   1      42.068  28.071  28.015  1.00  0.00    -0.354 N 
ATOM     48  C   UNL A   1      41.219  28.749  32.357  1.00  0.00     0.074 A 
ATOM     49  C   UNL A   1      39.873  28.250  32.394  1.00  0.00     0.031 C 
ATOM     50  C   UNL A   1      41.456  27.902  25.884  1.00  0.00     0.029 A 
ATOM     51  C   UNL A   1      42.421  27.400  26.840  1.00  0.00     0.049 A 
ATOM     52  H   UNL A   1      42.632  28.059  28.823  1.00  0.00     0.167 HD
ATOM     53  C   UNL A   1      42.258  28.537  33.209  1.00  0.00     0.037 A 
ATOM     54  C   UNL A   1      43.398  26.465  26.682  1.00  0.00     0.037 A 
ATOM     55  C   UNL A   1      43.399  29.333  32.854  1.00  0.00     0.049 A 
ATOM     56  C   UNL A   1      44.323  26.594  27.831  1.00  0.00     0.074 A 
ATOM     57  C   UNL A   1      43.645  30.690  32.775  1.00  0.00     0.029 A 
ATOM     58  N   UNL A   1      44.412  28.730  32.155  1.00  0.00    -0.354 N 
ATOM     59  N   UNL A   1      45.119  27.608  28.011  1.00  0.00    -0.248 NA
ATOM     60  C   UNL A   1      44.016  25.809  29.015  1.00  0.00     0.031 C 
ATOM     61  C   UNL A   1      44.490  30.847  31.639  1.00  0.00     0.029 A 
ATOM     62  C   UNL A   1      44.769  29.577  31.138  1.00  0.00     0.049 A 
ATOM     63  H   UNL A   1      44.811  27.851  32.348  1.00  0.00     0.167 HD
ATOM     64  C   UNL A   1      45.043  27.861  29.371  1.00  0.00     0.074 A 
ATOM     65  C   UNL A   1      44.395  26.685  29.947  1.00  0.00     0.031 C 
ATOM     66  C   UNL A   1      45.245  29.118  29.858  1.00  0.00     0.037 A 
BRANCH  53  67
ATOM     67  C   UNL A   1      42.349  27.344  34.124  1.00  0.00     0.064 A 
ATOM     68  C   UNL A   1      41.877  27.448  35.446  1.00  0.00     0.173 A 
ATOM     69  C   UNL A   1      43.140  26.207  33.846  1.00  0.00     0.173 A 
ATOM     70  F   UNL A   1      41.149  28.509  35.829  1.00  0.00    -0.203 F 
ATOM     71  C   UNL A   1      42.221  26.513  36.426  1.00  0.00     0.198 A 
ATOM     72  C   UNL A   1      43.432  25.247  34.811  1.00  0.00     0.198 A 
ATOM     73  F   UNL A   1      43.757  26.037  32.671  1.00  0.00    -0.203 F 
ATOM     74  F   UNL A   1      41.851  26.716  37.697  1.00  0.00    -0.200 F 
ATOM     75  C   UNL A   1      42.998  25.414  36.108  1.00  0.00     0.200 A 
ATOM     76  F   UNL A   1      44.210  24.204  34.488  1.00  0.00    -0.200 F 
ATOM     77  F   UNL A   1      43.372  24.546  37.057  1.00  0.00    -0.200 F 
ENDBRANCH  53  67
BRANCH  54  78
ATOM     78  C   UNL A   1      43.406  25.232  25.841  1.00  0.00     0.064 A 
ATOM     79  C   UNL A   1      44.520  24.911  25.039  1.00  0.00     0.173 A 
ATOM     80  C   UNL A   1      42.485  24.191  26.063  1.00  0.00     0.173 A 
ATOM     81  F   UNL A   1      45.469  25.828  24.803  1.00  0.00    -0.203 F 
ATOM     82  C   UNL A   1      44.723  23.619  24.538  1.00  0.00     0.198 A 
ATOM     83  C   UNL A   1      42.686  22.904  25.558  1.00  0.00     0.198 A 
ATOM     84  F   UNL A   1      41.424  24.373  26.862  1.00  0.00    -0.203 F 
ATOM     85  F   UNL A   1      45.836  23.334  23.846  1.00  0.00    -0.200 F 
ATOM     86  C   UNL A   1      43.814  22.612  24.813  1.00  0.00     0.200 A 
ATOM     87  F   UNL A   1      41.818  21.928  25.863  1.00  0.00    -0.200 F 
ATOM     88  F   UNL A   1      44.045  21.357  24.403  1.00  0.00    -0.200 F 
ENDBRANCH  54  78
BRANCH  66  89
ATOM     89  C   UNL A   1      45.813  30.153  28.929  1.00  0.00     0.064 A 
ATOM     90  C   UNL A   1      45.047  30.933  28.043  1.00  0.00     0.173 A 
ATOM     91  C   UNL A   1      47.174  30.461  29.049  1.00  0.00     0.173 A 
ATOM     92  F   UNL A   1      43.722  30.765  27.939  1.00  0.00    -0.203 F 
ATOM     93  C   UNL A   1      45.635  31.948  27.287  1.00  0.00     0.198 A 
ATOM     94  C   UNL A   1      47.748  31.499  28.323  1.00  0.00     0.198 A 
ATOM     95  F   UNL A   1      47.942  29.780  29.915  1.00  0.00    -0.203 F 
ATOM     96  F   UNL A   1      44.889  32.673  26.439  1.00  0.00    -0.200 F 
ATOM     97  C   UNL A   1      46.982  32.236  27.436  1.00  0.00     0.200 A 
ATOM     98  F   UNL A   1      49.040  31.804  28.509  1.00  0.00    -0.200 F 
ATOM     99  F   UNL A   1      47.538  33.239  26.743  1.00  0.00    -0.200 F 
ENDBRANCH  66  89
ENDBRANCH  40  41
ENDBRANCH  33  35
ENDBRANCH  32  33
ENDBRANCH  31  32
ENDBRANCH  30  31
ENDBRANCH   1  30
TORSDOF 17
ENDMDL
