MODEL 1
REMARK VINA RESULT:     -11.5      0.000      0.000
REMARK SMILES Cc1cc(S(=O)(=O)Nc2ccc(F)c(F)c2)sc1C(=O)OCCOCCOC(=O)c1ccc(-c2c3nc(c(-c4c(F)c(F)c(F)c(F)c4F)c4ccc([nH]4)c(-c4c(F)c(F)c(F)c(F)c4F)c4nc(c(-c5c(F)c(F)c(F)c(F)c5F)c5ccc2[nH]5)C=C4)C=C3)cc1
REMARK SMILES IDX 23 1 22 2 21 3 19 4 20 5 18 6 1 7 2 8 3 9 4 10 17 11 5 12
REMARK SMILES IDX 6 13 7 14 8 15 9 17 10 18 16 19 11 20 14 21 12 22 15 23
REMARK SMILES IDX 13 24 24 25 25 26 26 27 27 28 28 29 29 30 30 31 31 32 92 33
REMARK SMILES IDX 32 34 91 35 33 36 34 37 35 38 85 39 36 40 90 41 84 42 86 43
REMARK SMILES IDX 37 44 89 45 83 46 82 47 38 49 70 50 50 51 69 52 51 53 54 54
REMARK SMILES IDX 68 55 87 56 52 57 53 58 67 60 88 61 55 62 39 63 40 64 48 65
REMARK SMILES IDX 41 66 42 67 46 68 49 69 43 70 44 71 47 72 45 73 71 74 72 75
REMARK SMILES IDX 80 76 73 77 74 78 78 79 81 80 75 81 76 82 79 83 77 84 56 85
REMARK SMILES IDX 57 86 65 87 58 88 59 89 63 90 66 91 60 92 61 93 64 94 62 95
REMARK H PARENT 8 16 86 48 54 59
REMARK Flexibility Score: inf
ROOT
ATOM      1  C   UNL A   1      32.690  29.566  25.383  1.00  0.00     0.202 C 
ENDROOT
BRANCH   1   2
ATOM      2  C   UNL A   1      31.407  29.380  24.567  1.00  0.00     0.261 C 
BRANCH   2   3
ATOM      3  O   UNL A   1      31.707  29.076  23.194  1.00  0.00    -0.459 OA
BRANCH   3   4
ATOM      4  C   UNL A   1      30.753  28.385  22.505  1.00  0.00     0.348 C 
ATOM      5  O   UNL A   1      30.005  28.895  21.679  1.00  0.00    -0.245 OA
BRANCH   4   6
ATOM      6  C   UNL A   1      30.849  26.958  22.797  1.00  0.00     0.116 A 
ATOM      7  C   UNL A   1      28.621  26.331  23.976  1.00  0.00     0.046 C 
ATOM      8  C   UNL A   1      30.008  26.077  23.475  1.00  0.00    -0.024 A 
ATOM      9  C   UNL A   1      30.656  24.809  23.665  1.00  0.00     0.038 A 
ATOM     10  C   UNL A   1      31.930  24.747  23.136  1.00  0.00     0.141 A 
ATOM     11  S   UNL A   1      32.267  26.145  22.235  1.00  0.00    -0.115 S 
BRANCH  10  12
ATOM     12  S   UNL A   1      33.132  23.438  23.212  1.00  0.00     0.271 S 
ATOM     13  O   UNL A   1      32.369  22.263  22.841  1.00  0.00    -0.200 OA
ATOM     14  O   UNL A   1      34.224  23.904  22.381  1.00  0.00    -0.200 OA
BRANCH  12  15
ATOM     15  N   UNL A   1      33.809  23.141  24.716  1.00  0.00    -0.279 N 
ATOM     16  H   UNL A   1      33.238  23.250  25.510  1.00  0.00     0.180 HD
BRANCH  15  17
ATOM     17  C   UNL A   1      35.156  22.744  24.914  1.00  0.00     0.052 A 
ATOM     18  C   UNL A   1      35.620  21.456  24.628  1.00  0.00     0.030 A 
ATOM     19  C   UNL A   1      36.036  23.713  25.404  1.00  0.00     0.069 A 
ATOM     20  C   UNL A   1      36.950  21.120  24.917  1.00  0.00     0.044 A 
ATOM     21  C   UNL A   1      37.354  23.371  25.681  1.00  0.00     0.160 A 
ATOM     22  C   UNL A   1      37.805  22.079  25.453  1.00  0.00     0.158 A 
ATOM     23  F   UNL A   1      38.179  24.302  26.178  1.00  0.00    -0.204 F 
ATOM     24  F   UNL A   1      39.070  21.747  25.741  1.00  0.00    -0.204 F 
ENDBRANCH  15  17
ENDBRANCH  12  15
ENDBRANCH  10  12
ENDBRANCH   4   6
ENDBRANCH   3   4
ENDBRANCH   2   3
ENDBRANCH   1   2
BRANCH   1  25
ATOM     25  O   UNL A   1      32.630  30.511  26.449  1.00  0.00    -0.374 OA
BRANCH  25  26
ATOM     26  C   UNL A   1      31.514  31.400  26.480  1.00  0.00     0.202 C 
BRANCH  26  27
ATOM     27  C   UNL A   1      31.769  32.817  27.010  1.00  0.00     0.261 C 
BRANCH  27  28
ATOM     28  O   UNL A   1      33.146  33.217  26.886  1.00  0.00    -0.460 OA
BRANCH  28  29
ATOM     29  C   UNL A   1      33.673  33.784  27.999  1.00  0.00     0.338 C 
ATOM     30  O   UNL A   1      33.202  34.689  28.666  1.00  0.00    -0.246 OA
BRANCH  29  31
ATOM     31  C   UNL A   1      34.865  33.029  28.426  1.00  0.00     0.060 A 
ATOM     32  C   UNL A   1      34.668  31.742  28.944  1.00  0.00     0.016 A 
ATOM     33  C   UNL A   1      36.140  33.595  28.396  1.00  0.00     0.016 A 
ATOM     34  C   UNL A   1      35.743  31.030  29.471  1.00  0.00     0.010 A 
ATOM     35  C   UNL A   1      37.217  32.880  28.929  1.00  0.00     0.010 A 
ATOM     36  C   UNL A   1      37.020  31.608  29.498  1.00  0.00    -0.014 A 
BRANCH  36  37
ATOM     37  C   UNL A   1      38.124  30.932  30.222  1.00  0.00     0.031 A 
ATOM     38  C   UNL A   1      38.388  31.290  31.659  1.00  0.00     0.074 A 
ATOM     39  C   UNL A   1      38.871  29.995  29.612  1.00  0.00     0.049 A 
ATOM     40  N   UNL A   1      39.333  30.867  32.459  1.00  0.00    -0.248 NA
ATOM     41  C   UNL A   1      37.464  32.254  32.277  1.00  0.00     0.031 C 
ATOM     42  C   UNL A   1      38.681  29.532  28.239  1.00  0.00     0.029 A 
ATOM     43  N   UNL A   1      39.942  29.269  30.068  1.00  0.00    -0.354 N 
ATOM     44  C   UNL A   1      39.122  31.516  33.669  1.00  0.00     0.074 A 
ATOM     45  C   UNL A   1      37.982  32.388  33.490  1.00  0.00     0.031 C 
ATOM     46  C   UNL A   1      39.606  28.598  27.963  1.00  0.00     0.029 A 
ATOM     47  C   UNL A   1      40.478  28.427  29.124  1.00  0.00     0.049 A 
ATOM     48  H   UNL A   1      40.293  29.343  30.986  1.00  0.00     0.167 HD
ATOM     49  C   UNL A   1      39.812  31.384  34.826  1.00  0.00     0.037 A 
ATOM     50  C   UNL A   1      41.561  27.626  29.184  1.00  0.00     0.037 A 
ATOM     51  C   UNL A   1      40.939  30.506  35.001  1.00  0.00     0.049 A 
ATOM     52  C   UNL A   1      42.360  27.557  30.461  1.00  0.00     0.074 A 
ATOM     53  C   UNL A   1      41.691  30.290  36.143  1.00  0.00     0.029 A 
ATOM     54  N   UNL A   1      41.479  29.701  34.009  1.00  0.00    -0.354 N 
ATOM     55  N   UNL A   1      42.146  28.162  31.603  1.00  0.00    -0.248 NA
ATOM     56  C   UNL A   1      43.549  26.693  30.455  1.00  0.00     0.031 C 
ATOM     57  C   UNL A   1      42.722  29.401  35.825  1.00  0.00     0.029 A 
ATOM     58  C   UNL A   1      42.574  29.011  34.504  1.00  0.00     0.049 A 
ATOM     59  H   UNL A   1      41.136  29.631  33.089  1.00  0.00     0.167 HD
ATOM     60  C   UNL A   1      43.153  27.734  32.459  1.00  0.00     0.074 A 
ATOM     61  C   UNL A   1      43.972  26.807  31.708  1.00  0.00     0.031 C 
ATOM     62  C   UNL A   1      43.377  28.081  33.750  1.00  0.00     0.037 A 
BRANCH  49  63
ATOM     63  C   UNL A   1      39.380  32.210  36.003  1.00  0.00     0.064 A 
ATOM     64  C   UNL A   1      40.006  33.437  36.277  1.00  0.00     0.173 A 
ATOM     65  C   UNL A   1      38.412  31.752  36.909  1.00  0.00     0.173 A 
ATOM     66  F   UNL A   1      40.942  33.919  35.446  1.00  0.00    -0.203 F 
ATOM     67  C   UNL A   1      39.693  34.162  37.423  1.00  0.00     0.198 A 
ATOM     68  C   UNL A   1      38.080  32.496  38.040  1.00  0.00     0.198 A 
ATOM     69  F   UNL A   1      37.777  30.592  36.688  1.00  0.00    -0.203 F 
ATOM     70  F   UNL A   1      40.334  35.310  37.684  1.00  0.00    -0.200 F 
ATOM     71  C   UNL A   1      38.730  33.692  38.302  1.00  0.00     0.200 A 
ATOM     72  F   UNL A   1      37.131  32.052  38.875  1.00  0.00    -0.200 F 
ATOM     73  F   UNL A   1      38.425  34.394  39.403  1.00  0.00    -0.200 F 
ENDBRANCH  49  63
BRANCH  50  74
ATOM     74  C   UNL A   1      41.945  26.820  27.996  1.00  0.00     0.064 A 
ATOM     75  C   UNL A   1      42.893  27.286  27.072  1.00  0.00     0.173 A 
ATOM     76  C   UNL A   1      41.352  25.574  27.748  1.00  0.00     0.173 A 
ATOM     77  F   UNL A   1      43.490  28.471  27.262  1.00  0.00    -0.203 F 
ATOM     78  C   UNL A   1      43.214  26.548  25.934  1.00  0.00     0.198 A 
ATOM     79  C   UNL A   1      41.696  24.823  26.625  1.00  0.00     0.198 A 
ATOM     80  F   UNL A   1      40.459  25.074  28.613  1.00  0.00    -0.203 F 
ATOM     81  F   UNL A   1      44.092  27.036  25.049  1.00  0.00    -0.200 F 
ATOM     82  C   UNL A   1      42.619  25.316  25.714  1.00  0.00     0.200 A 
ATOM     83  F   UNL A   1      41.139  23.621  26.430  1.00  0.00    -0.200 F 
ATOM     84  F   UNL A   1      42.935  24.602  24.625  1.00  0.00    -0.200 F 
ENDBRANCH  50  74
BRANCH  62  85
ATOM     85  C   UNL A   1      44.538  27.443  34.460  1.00  0.00     0.064 A 
ATOM     86  C   UNL A   1      44.343  26.307  35.261  1.00  0.00     0.173 A 
ATOM     87  C   UNL A   1      45.821  28.009  34.426  1.00  0.00     0.173 A 
ATOM     88  F   UNL A   1      43.132  25.732  35.338  1.00  0.00    -0.203 F 
ATOM     89  C   UNL A   1      45.382  25.775  36.018  1.00  0.00     0.198 A 
ATOM     90  C   UNL A   1      46.867  27.453  35.159  1.00  0.00     0.198 A 
ATOM     91  F   UNL A   1      46.063  29.088  33.668  1.00  0.00    -0.203 F 
ATOM     92  F   UNL A   1      45.159  24.717  36.812  1.00  0.00    -0.200 F 
ATOM     93  C   UNL A   1      46.644  26.346  35.964  1.00  0.00     0.200 A 
ATOM     94  F   UNL A   1      48.092  27.992  35.087  1.00  0.00    -0.200 F 
ATOM     95  F   UNL A   1      47.647  25.829  36.688  1.00  0.00    -0.200 F 
ENDBRANCH  62  85
ENDBRANCH  36  37
ENDBRANCH  29  31
ENDBRANCH  28  29
ENDBRANCH  27  28
ENDBRANCH  26  27
ENDBRANCH  25  26
ENDBRANCH   1  25
TORSDOF 17
ENDMDL
MODEL 2
REMARK VINA RESULT:     -11.4      2.139      7.700
REMARK SMILES Cc1cc(S(=O)(=O)Nc2ccc(F)c(F)c2)sc1C(=O)OCCOCCOC(=O)c1ccc(-c2c3nc(c(-c4c(F)c(F)c(F)c(F)c4F)c4ccc([nH]4)c(-c4c(F)c(F)c(F)c(F)c4F)c4nc(c(-c5c(F)c(F)c(F)c(F)c5F)c5ccc2[nH]5)C=C4)C=C3)cc1
REMARK SMILES IDX 23 1 22 2 21 3 19 4 20 5 18 6 1 7 2 8 3 9 4 10 17 11 5 12
REMARK SMILES IDX 6 13 7 14 8 15 9 17 10 18 16 19 11 20 14 21 12 22 15 23
REMARK SMILES IDX 13 24 24 25 25 26 26 27 27 28 28 29 29 30 30 31 31 32 92 33
REMARK SMILES IDX 32 34 91 35 33 36 34 37 35 38 85 39 36 40 90 41 84 42 86 43
REMARK SMILES IDX 37 44 89 45 83 46 82 47 38 49 70 50 50 51 69 52 51 53 54 54
REMARK SMILES IDX 68 55 87 56 52 57 53 58 67 60 88 61 55 62 39 63 40 64 48 65
REMARK SMILES IDX 41 66 42 67 46 68 49 69 43 70 44 71 47 72 45 73 71 74 72 75
REMARK SMILES IDX 80 76 73 77 74 78 78 79 81 80 75 81 76 82 79 83 77 84 56 85
REMARK SMILES IDX 57 86 65 87 58 88 59 89 63 90 66 91 60 92 61 93 64 94 62 95
REMARK H PARENT 8 16 86 48 54 59
REMARK Flexibility Score: inf
ROOT
ATOM      1  C   UNL A   1      30.666  28.885  22.634  1.00  0.00     0.202 C 
ENDROOT
BRANCH   1   2
ATOM      2  C   UNL A   1      31.134  27.427  22.679  1.00  0.00     0.261 C 
BRANCH   2   3
ATOM      3  O   UNL A   1      32.567  27.346  22.764  1.00  0.00    -0.459 OA
BRANCH   3   4
ATOM      4  C   UNL A   1      33.118  26.121  22.528  1.00  0.00     0.348 C 
ATOM      5  O   UNL A   1      33.653  25.805  21.471  1.00  0.00    -0.245 OA
BRANCH   4   6
ATOM      6  C   UNL A   1      33.094  25.310  23.742  1.00  0.00     0.116 A 
ATOM      7  C   UNL A   1      34.022  26.840  25.626  1.00  0.00     0.046 C 
ATOM      8  C   UNL A   1      33.531  25.552  25.044  1.00  0.00    -0.024 A 
ATOM      9  C   UNL A   1      33.465  24.350  25.828  1.00  0.00     0.038 A 
ATOM     10  C   UNL A   1      32.984  23.256  25.134  1.00  0.00     0.141 A 
ATOM     11  S   UNL A   1      32.424  23.723  23.602  1.00  0.00    -0.115 S 
BRANCH  10  12
ATOM     12  S   UNL A   1      32.818  21.562  25.653  1.00  0.00     0.271 S 
ATOM     13  O   UNL A   1      33.316  21.580  27.014  1.00  0.00    -0.200 OA
ATOM     14  O   UNL A   1      31.435  21.235  25.374  1.00  0.00    -0.200 OA
BRANCH  12  15
ATOM     15  N   UNL A   1      33.725  20.436  24.803  1.00  0.00    -0.279 N 
ATOM     16  H   UNL A   1      34.485  20.762  24.269  1.00  0.00     0.180 HD
BRANCH  15  17
ATOM     17  C   UNL A   1      33.463  19.043  24.808  1.00  0.00     0.052 A 
ATOM     18  C   UNL A   1      32.684  18.417  25.785  1.00  0.00     0.030 A 
ATOM     19  C   UNL A   1      34.012  18.294  23.763  1.00  0.00     0.069 A 
ATOM     20  C   UNL A   1      32.529  17.024  25.759  1.00  0.00     0.044 A 
ATOM     21  C   UNL A   1      33.847  16.914  23.743  1.00  0.00     0.160 A 
ATOM     22  C   UNL A   1      33.123  16.281  24.743  1.00  0.00     0.158 A 
ATOM     23  F   UNL A   1      34.403  16.204  22.752  1.00  0.00    -0.204 F 
ATOM     24  F   UNL A   1      32.984  14.949  24.733  1.00  0.00    -0.204 F 
ENDBRANCH  15  17
ENDBRANCH  12  15
ENDBRANCH  10  12
ENDBRANCH   4   6
ENDBRANCH   3   4
ENDBRANCH   2   3
ENDBRANCH   1   2
BRANCH   1  25
ATOM     25  O   UNL A   1      30.288  29.467  23.880  1.00  0.00    -0.374 OA
BRANCH  25  26
ATOM     26  C   UNL A   1      31.071  29.135  25.027  1.00  0.00     0.202 C 
BRANCH  26  27
ATOM     27  C   UNL A   1      32.231  30.078  25.373  1.00  0.00     0.261 C 
BRANCH  27  28
ATOM     28  O   UNL A   1      32.465  30.173  26.790  1.00  0.00    -0.460 OA
BRANCH  28  29
ATOM     29  C   UNL A   1      33.078  31.316  27.186  1.00  0.00     0.338 C 
ATOM     30  O   UNL A   1      32.596  32.434  27.251  1.00  0.00    -0.246 OA
BRANCH  29  31
ATOM     31  C   UNL A   1      34.418  31.004  27.715  1.00  0.00     0.060 A 
ATOM     32  C   UNL A   1      34.709  29.664  28.002  1.00  0.00     0.016 A 
ATOM     33  C   UNL A   1      35.345  32.009  27.999  1.00  0.00     0.016 A 
ATOM     34  C   UNL A   1      35.914  29.328  28.613  1.00  0.00     0.010 A 
ATOM     35  C   UNL A   1      36.553  31.669  28.616  1.00  0.00     0.010 A 
ATOM     36  C   UNL A   1      36.831  30.332  28.955  1.00  0.00    -0.014 A 
BRANCH  36  37
ATOM     37  C   UNL A   1      38.026  29.999  29.768  1.00  0.00     0.031 A 
ATOM     38  C   UNL A   1      39.065  29.071  29.201  1.00  0.00     0.074 A 
ATOM     39  C   UNL A   1      38.193  30.534  30.991  1.00  0.00     0.049 A 
ATOM     40  N   UNL A   1      40.152  28.603  29.760  1.00  0.00    -0.248 NA
ATOM     41  C   UNL A   1      38.851  28.608  27.822  1.00  0.00     0.031 C 
ATOM     42  C   UNL A   1      37.278  31.479  31.627  1.00  0.00     0.029 A 
ATOM     43  N   UNL A   1      39.190  30.353  31.917  1.00  0.00    -0.354 N 
ATOM     44  C   UNL A   1      40.746  27.788  28.805  1.00  0.00     0.074 A 
ATOM     45  C   UNL A   1      39.884  27.796  27.644  1.00  0.00     0.031 C 
ATOM     46  C   UNL A   1      37.755  31.797  32.841  1.00  0.00     0.029 A 
ATOM     47  C   UNL A   1      38.986  31.047  33.085  1.00  0.00     0.049 A 
ATOM     48  H   UNL A   1      39.976  29.781  31.759  1.00  0.00     0.167 HD
ATOM     49  C   UNL A   1      41.914  27.107  28.888  1.00  0.00     0.037 A 
ATOM     50  C   UNL A   1      39.702  31.058  34.228  1.00  0.00     0.037 A 
ATOM     51  C   UNL A   1      42.774  27.113  30.043  1.00  0.00     0.049 A 
ATOM     52  C   UNL A   1      40.956  30.228  34.324  1.00  0.00     0.074 A 
ATOM     53  C   UNL A   1      43.986  26.467  30.214  1.00  0.00     0.029 A 
ATOM     54  N   UNL A   1      42.512  27.793  31.223  1.00  0.00    -0.354 N 
ATOM     55  N   UNL A   1      41.518  29.471  33.412  1.00  0.00    -0.248 NA
ATOM     56  C   UNL A   1      41.675  30.253  35.606  1.00  0.00     0.031 C 
ATOM     57  C   UNL A   1      44.428  26.708  31.518  1.00  0.00     0.029 A 
ATOM     58  C   UNL A   1      43.526  27.558  32.138  1.00  0.00     0.049 A 
ATOM     59  H   UNL A   1      41.723  28.358  31.387  1.00  0.00     0.167 HD
ATOM     60  C   UNL A   1      42.667  28.954  33.998  1.00  0.00     0.074 A 
ATOM     61  C   UNL A   1      42.730  29.493  35.340  1.00  0.00     0.031 C 
ATOM     62  C   UNL A   1      43.584  28.108  33.470  1.00  0.00     0.037 A 
BRANCH  49  63
ATOM     63  C   UNL A   1      42.338  26.286  27.705  1.00  0.00     0.064 A 
ATOM     64  C   UNL A   1      41.866  24.973  27.546  1.00  0.00     0.173 A 
ATOM     65  C   UNL A   1      43.276  26.762  26.777  1.00  0.00     0.173 A 
ATOM     66  F   UNL A   1      40.972  24.467  28.408  1.00  0.00    -0.203 F 
ATOM     67  C   UNL A   1      42.332  24.162  26.515  1.00  0.00     0.198 A 
ATOM     68  C   UNL A   1      43.717  25.958  25.729  1.00  0.00     0.198 A 
ATOM     69  F   UNL A   1      43.750  28.012  26.877  1.00  0.00    -0.203 F 
ATOM     70  F   UNL A   1      41.898  22.899  26.409  1.00  0.00    -0.200 F 
ATOM     71  C   UNL A   1      43.256  24.656  25.607  1.00  0.00     0.200 A 
ATOM     72  F   UNL A   1      44.592  26.445  24.837  1.00  0.00    -0.200 F 
ATOM     73  F   UNL A   1      43.701  23.876  24.611  1.00  0.00    -0.200 F 
ENDBRANCH  49  63
BRANCH  50  74
ATOM     74  C   UNL A   1      39.247  31.893  35.371  1.00  0.00     0.064 A 
ATOM     75  C   UNL A   1      39.624  33.240  35.486  1.00  0.00     0.173 A 
ATOM     76  C   UNL A   1      38.445  31.353  36.384  1.00  0.00     0.173 A 
ATOM     77  F   UNL A   1      40.391  33.807  34.543  1.00  0.00    -0.203 F 
ATOM     78  C   UNL A   1      39.236  34.006  36.584  1.00  0.00     0.198 A 
ATOM     79  C   UNL A   1      38.032  32.128  37.467  1.00  0.00     0.198 A 
ATOM     80  F   UNL A   1      38.038  30.078  36.308  1.00  0.00    -0.203 F 
ATOM     81  F   UNL A   1      39.644  35.278  36.688  1.00  0.00    -0.200 F 
ATOM     82  C   UNL A   1      38.437  33.451  37.571  1.00  0.00     0.200 A 
ATOM     83  F   UNL A   1      37.238  31.596  38.405  1.00  0.00    -0.200 F 
ATOM     84  F   UNL A   1      38.055  34.190  38.621  1.00  0.00    -0.200 F 
ENDBRANCH  50  74
BRANCH  62  85
ATOM     85  C   UNL A   1      44.760  27.721  34.322  1.00  0.00     0.064 A 
ATOM     86  C   UNL A   1      44.692  26.594  35.156  1.00  0.00     0.173 A 
ATOM     87  C   UNL A   1      45.914  28.516  34.386  1.00  0.00     0.173 A 
ATOM     88  F   UNL A   1      43.606  25.805  35.142  1.00  0.00    -0.203 F 
ATOM     89  C   UNL A   1      45.725  26.289  36.038  1.00  0.00     0.198 A 
ATOM     90  C   UNL A   1      46.960  28.189  35.246  1.00  0.00     0.198 A 
ATOM     91  F   UNL A   1      46.034  29.597  33.603  1.00  0.00    -0.203 F 
ATOM     92  F   UNL A   1      45.616  25.234  36.857  1.00  0.00    -0.200 F 
ATOM     93  C   UNL A   1      46.859  27.085  36.080  1.00  0.00     0.200 A 
ATOM     94  F   UNL A   1      48.066  28.946  35.268  1.00  0.00    -0.200 F 
ATOM     95  F   UNL A   1      47.857  26.788  36.924  1.00  0.00    -0.200 F 
ENDBRANCH  62  85
ENDBRANCH  36  37
ENDBRANCH  29  31
ENDBRANCH  28  29
ENDBRANCH  27  28
ENDBRANCH  26  27
ENDBRANCH  25  26
ENDBRANCH   1  25
TORSDOF 17
ENDMDL
MODEL 3
REMARK VINA RESULT:     -11.3      1.332      7.447
REMARK SMILES Cc1cc(S(=O)(=O)Nc2ccc(F)c(F)c2)sc1C(=O)OCCOCCOC(=O)c1ccc(-c2c3nc(c(-c4c(F)c(F)c(F)c(F)c4F)c4ccc([nH]4)c(-c4c(F)c(F)c(F)c(F)c4F)c4nc(c(-c5c(F)c(F)c(F)c(F)c5F)c5ccc2[nH]5)C=C4)C=C3)cc1
REMARK SMILES IDX 23 1 22 2 21 3 19 4 20 5 18 6 1 7 2 8 3 9 4 10 17 11 5 12
REMARK SMILES IDX 6 13 7 14 8 15 9 17 10 18 16 19 11 20 14 21 12 22 15 23
REMARK SMILES IDX 13 24 24 25 25 26 26 27 27 28 28 29 29 30 30 31 31 32 92 33
REMARK SMILES IDX 32 34 91 35 33 36 34 37 35 38 85 39 36 40 90 41 84 42 86 43
REMARK SMILES IDX 37 44 89 45 83 46 82 47 38 49 70 50 50 51 69 52 51 53 54 54
REMARK SMILES IDX 68 55 87 56 52 57 53 58 67 60 88 61 55 62 39 63 40 64 48 65
REMARK SMILES IDX 41 66 42 67 46 68 49 69 43 70 44 71 47 72 45 73 71 74 72 75
REMARK SMILES IDX 80 76 73 77 74 78 78 79 81 80 75 81 76 82 79 83 77 84 56 85
REMARK SMILES IDX 57 86 65 87 58 88 59 89 63 90 66 91 60 92 61 93 64 94 62 95
REMARK H PARENT 8 16 86 48 54 59
REMARK Flexibility Score: inf
ROOT
ATOM      1  C   UNL A   1      33.859  28.202  24.549  1.00  0.00     0.202 C 
ENDROOT
BRANCH   1   2
ATOM      2  C   UNL A   1      33.667  26.881  23.798  1.00  0.00     0.261 C 
BRANCH   2   3
ATOM      3  O   UNL A   1      33.083  27.102  22.503  1.00  0.00    -0.459 OA
BRANCH   3   4
ATOM      4  C   UNL A   1      32.244  26.129  22.044  1.00  0.00     0.348 C 
ATOM      5  O   UNL A   1      32.258  25.703  20.895  1.00  0.00    -0.245 OA
BRANCH   4   6
ATOM      6  C   UNL A   1      31.442  25.591  23.139  1.00  0.00     0.116 A 
ATOM      7  C   UNL A   1      29.518  27.299  23.505  1.00  0.00     0.046 C 
ATOM      8  C   UNL A   1      30.335  26.087  23.827  1.00  0.00    -0.024 A 
ATOM      9  C   UNL A   1      30.038  25.261  24.964  1.00  0.00     0.038 A 
ATOM     10  C   UNL A   1      30.888  24.182  25.108  1.00  0.00     0.141 A 
ATOM     11  S   UNL A   1      31.915  24.051  23.764  1.00  0.00    -0.115 S 
BRANCH  10  12
ATOM     12  S   UNL A   1      30.968  22.960  26.399  1.00  0.00     0.271 S 
ATOM     13  O   UNL A   1      30.054  23.473  27.400  1.00  0.00    -0.200 OA
ATOM     14  O   UNL A   1      30.700  21.706  25.724  1.00  0.00    -0.200 OA
BRANCH  12  15
ATOM     15  N   UNL A   1      32.459  22.760  27.138  1.00  0.00    -0.279 N 
ATOM     16  H   UNL A   1      32.514  22.891  28.112  1.00  0.00     0.180 HD
BRANCH  15  17
ATOM     17  C   UNL A   1      33.646  22.413  26.444  1.00  0.00     0.052 A 
ATOM     18  C   UNL A   1      33.862  21.149  25.888  1.00  0.00     0.030 A 
ATOM     19  C   UNL A   1      34.617  23.410  26.315  1.00  0.00     0.069 A 
ATOM     20  C   UNL A   1      35.090  20.861  25.279  1.00  0.00     0.044 A 
ATOM     21  C   UNL A   1      35.830  23.117  25.703  1.00  0.00     0.160 A 
ATOM     22  C   UNL A   1      36.071  21.846  25.201  1.00  0.00     0.158 A 
ATOM     23  F   UNL A   1      36.763  24.073  25.612  1.00  0.00    -0.204 F 
ATOM     24  F   UNL A   1      37.249  21.560  24.631  1.00  0.00    -0.204 F 
ENDBRANCH  15  17
ENDBRANCH  12  15
ENDBRANCH  10  12
ENDBRANCH   4   6
ENDBRANCH   3   4
ENDBRANCH   2   3
ENDBRANCH   1   2
BRANCH   1  25
ATOM     25  O   UNL A   1      32.935  29.243  24.242  1.00  0.00    -0.374 OA
BRANCH  25  26
ATOM     26  C   UNL A   1      31.803  29.395  25.099  1.00  0.00     0.202 C 
BRANCH  26  27
ATOM     27  C   UNL A   1      31.701  30.707  25.889  1.00  0.00     0.261 C 
BRANCH  27  28
ATOM     28  O   UNL A   1      32.466  30.683  27.107  1.00  0.00    -0.460 OA
BRANCH  28  29
ATOM     29  C   UNL A   1      33.219  31.789  27.324  1.00  0.00     0.338 C 
ATOM     30  O   UNL A   1      32.869  32.954  27.246  1.00  0.00    -0.246 OA
BRANCH  29  31
ATOM     31  C   UNL A   1      34.537  31.396  27.855  1.00  0.00     0.060 A 
ATOM     32  C   UNL A   1      34.731  30.048  28.184  1.00  0.00     0.016 A 
ATOM     33  C   UNL A   1      35.537  32.339  28.103  1.00  0.00     0.016 A 
ATOM     34  C   UNL A   1      35.913  29.643  28.799  1.00  0.00     0.010 A 
ATOM     35  C   UNL A   1      36.721  31.931  28.724  1.00  0.00     0.010 A 
ATOM     36  C   UNL A   1      36.903  30.588  29.104  1.00  0.00    -0.014 A 
BRANCH  36  37
ATOM     37  C   UNL A   1      38.077  30.194  29.921  1.00  0.00     0.031 A 
ATOM     38  C   UNL A   1      39.099  29.259  29.336  1.00  0.00     0.074 A 
ATOM     39  C   UNL A   1      38.240  30.680  31.164  1.00  0.00     0.049 A 
ATOM     40  N   UNL A   1      40.166  28.742  29.892  1.00  0.00    -0.248 NA
ATOM     41  C   UNL A   1      38.894  28.852  27.937  1.00  0.00     0.031 C 
ATOM     42  C   UNL A   1      37.341  31.627  31.821  1.00  0.00     0.029 A 
ATOM     43  N   UNL A   1      39.218  30.440  32.097  1.00  0.00    -0.354 N 
ATOM     44  C   UNL A   1      40.752  27.946  28.917  1.00  0.00     0.074 A 
ATOM     45  C   UNL A   1      39.907  28.019  27.745  1.00  0.00     0.031 C 
ATOM     46  C   UNL A   1      37.809  31.888  33.053  1.00  0.00     0.029 A 
ATOM     47  C   UNL A   1      39.016  31.096  33.287  1.00  0.00     0.049 A 
ATOM     48  H   UNL A   1      39.991  29.853  31.930  1.00  0.00     0.167 HD
ATOM     49  C   UNL A   1      41.899  27.231  28.991  1.00  0.00     0.037 A 
ATOM     50  C   UNL A   1      39.714  31.048  34.439  1.00  0.00     0.037 A 
ATOM     51  C   UNL A   1      42.742  27.172  30.157  1.00  0.00     0.049 A 
ATOM     52  C   UNL A   1      40.945  30.181  34.522  1.00  0.00     0.074 A 
ATOM     53  C   UNL A   1      43.934  26.489  30.322  1.00  0.00     0.029 A 
ATOM     54  N   UNL A   1      42.481  27.817  31.357  1.00  0.00    -0.354 N 
ATOM     55  N   UNL A   1      41.500  29.442  33.592  1.00  0.00    -0.248 NA
ATOM     56  C   UNL A   1      41.645  30.141  35.814  1.00  0.00     0.031 C 
ATOM     57  C   UNL A   1      44.363  26.671  31.639  1.00  0.00     0.029 A 
ATOM     58  C   UNL A   1      43.475  27.522  32.277  1.00  0.00     0.049 A 
ATOM     59  H   UNL A   1      41.705  28.397  31.531  1.00  0.00     0.167 HD
ATOM     60  C   UNL A   1      42.625  28.874  34.174  1.00  0.00     0.074 A 
ATOM     61  C   UNL A   1      42.683  29.362  35.536  1.00  0.00     0.031 C 
ATOM     62  C   UNL A   1      43.528  28.022  33.628  1.00  0.00     0.037 A 
BRANCH  49  63
ATOM     63  C   UNL A   1      42.319  26.442  27.785  1.00  0.00     0.064 A 
ATOM     64  C   UNL A   1      41.837  25.138  27.587  1.00  0.00     0.173 A 
ATOM     65  C   UNL A   1      43.262  26.937  26.873  1.00  0.00     0.173 A 
ATOM     66  F   UNL A   1      40.937  24.614  28.433  1.00  0.00    -0.203 F 
ATOM     67  C   UNL A   1      42.299  24.354  26.534  1.00  0.00     0.198 A 
ATOM     68  C   UNL A   1      43.699  26.161  25.802  1.00  0.00     0.198 A 
ATOM     69  F   UNL A   1      43.746  28.180  27.010  1.00  0.00    -0.203 F 
ATOM     70  F   UNL A   1      41.854  23.098  26.390  1.00  0.00    -0.200 F 
ATOM     71  C   UNL A   1      43.227  24.866  25.641  1.00  0.00     0.200 A 
ATOM     72  F   UNL A   1      44.579  26.666  24.927  1.00  0.00    -0.200 F 
ATOM     73  F   UNL A   1      43.668  24.113  24.624  1.00  0.00    -0.200 F 
ENDBRANCH  49  63
BRANCH  50  74
ATOM     74  C   UNL A   1      39.265  31.854  35.605  1.00  0.00     0.064 A 
ATOM     75  C   UNL A   1      38.370  31.333  36.552  1.00  0.00     0.173 A 
ATOM     76  C   UNL A   1      39.706  33.172  35.782  1.00  0.00     0.173 A 
ATOM     77  F   UNL A   1      37.918  30.076  36.429  1.00  0.00    -0.203 F 
ATOM     78  C   UNL A   1      37.915  32.109  37.616  1.00  0.00     0.198 A 
ATOM     79  C   UNL A   1      39.273  33.937  36.864  1.00  0.00     0.198 A 
ATOM     80  F   UNL A   1      40.580  33.707  34.918  1.00  0.00    -0.203 F 
ATOM     81  F   UNL A   1      37.029  31.599  38.482  1.00  0.00    -0.200 F 
ATOM     82  C   UNL A   1      38.370  33.408  37.774  1.00  0.00     0.200 A 
ATOM     83  F   UNL A   1      39.736  35.183  37.027  1.00  0.00    -0.200 F 
ATOM     84  F   UNL A   1      37.940  34.150  38.803  1.00  0.00    -0.200 F 
ENDBRANCH  50  74
BRANCH  62  85
ATOM     85  C   UNL A   1      44.680  27.574  34.482  1.00  0.00     0.064 A 
ATOM     86  C   UNL A   1      44.567  26.425  35.282  1.00  0.00     0.173 A 
ATOM     87  C   UNL A   1      45.857  28.329  34.583  1.00  0.00     0.173 A 
ATOM     88  F   UNL A   1      43.457  25.672  35.232  1.00  0.00    -0.203 F 
ATOM     89  C   UNL A   1      45.579  26.063  36.166  1.00  0.00     0.198 A 
ATOM     90  C   UNL A   1      46.882  27.944  35.445  1.00  0.00     0.198 A 
ATOM     91  F   UNL A   1      46.021  29.429  33.834  1.00  0.00    -0.203 F 
ATOM     92  F   UNL A   1      45.427  24.988  36.953  1.00  0.00    -0.200 F 
ATOM     93  C   UNL A   1      46.736  26.820  36.245  1.00  0.00     0.200 A 
ATOM     94  F   UNL A   1      48.011  28.664  35.502  1.00  0.00    -0.200 F 
ATOM     95  F   UNL A   1      47.714  26.467  37.091  1.00  0.00    -0.200 F 
ENDBRANCH  62  85
ENDBRANCH  36  37
ENDBRANCH  29  31
ENDBRANCH  28  29
ENDBRANCH  27  28
ENDBRANCH  26  27
ENDBRANCH  25  26
ENDBRANCH   1  25
TORSDOF 17
ENDMDL
