MODEL 1
REMARK VINA RESULT:     -11.3      0.000      0.000
REMARK SMILES O=C(OCCOCCOC(=O)C1(Oc2cccc(F)c2)CCN(c2cc(NCCO)ncn2)CC1)c1ccc(-c2c3nc(c(-c4c(F)c(F)c(F)c(F)c4F)c4ccc([nH]4)c(-c4c(F)c(F)c(F)c(F)c4F)c4nc(c(-c5c(F)c(F)c(F)c(F)c5F)c5ccc2[nH]5)C=C4)C=C3)cc1
REMARK SMILES IDX 7 1 6 2 5 3 4 4 3 5 2 6 1 7 36 8 37 9 98 10 38 11 97 12
REMARK SMILES IDX 39 13 40 14 41 15 91 16 42 17 96 18 90 19 92 20 43 21 95 22
REMARK SMILES IDX 89 23 88 24 44 26 76 27 56 28 75 29 57 30 60 31 74 32 93 33
REMARK SMILES IDX 58 34 59 35 73 37 94 38 61 39 45 40 46 41 54 42 47 43 48 44
REMARK SMILES IDX 52 45 55 46 49 47 50 48 53 49 51 50 77 51 78 52 86 53 79 54
REMARK SMILES IDX 80 55 84 56 87 57 81 58 82 59 85 60 83 61 62 62 63 63 71 64
REMARK SMILES IDX 64 65 65 66 69 67 72 68 66 69 67 70 70 71 68 72 8 73 9 74
REMARK SMILES IDX 10 75 11 76 12 77 21 78 35 79 22 80 34 81 23 82 13 83 14 84
REMARK SMILES IDX 15 85 20 86 16 87 18 88 17 89 19 90 24 91 25 92 33 93 26 94
REMARK SMILES IDX 32 95 31 96 27 97 28 99 29 100 30 101
REMARK H PARENT 92 25 60 36 27 98 30 102
REMARK Flexibility Score: inf
ROOT
ATOM      1  C   UNL A   1      34.963  23.524  24.867  1.00  0.00     0.202 C 
ENDROOT
BRANCH   1   2
ATOM      2  O   UNL A   1      34.996  22.296  24.129  1.00  0.00    -0.374 OA
BRANCH   2   3
ATOM      3  C   UNL A   1      35.498  21.176  24.869  1.00  0.00     0.202 C 
BRANCH   3   4
ATOM      4  C   UNL A   1      36.475  21.570  25.981  1.00  0.00     0.261 C 
BRANCH   4   5
ATOM      5  O   UNL A   1      37.835  21.481  25.522  1.00  0.00    -0.460 OA
BRANCH   5   6
ATOM      6  C   UNL A   1      38.961  21.605  26.264  1.00  0.00     0.338 C 
ATOM      7  O   UNL A   1      39.581  20.591  26.577  1.00  0.00    -0.246 OA
BRANCH   6   8
ATOM      8  C   UNL A   1      39.552  22.924  26.637  1.00  0.00     0.060 A 
ATOM      9  C   UNL A   1      39.108  24.171  26.188  1.00  0.00     0.016 A 
ATOM     10  C   UNL A   1      40.608  22.895  27.565  1.00  0.00     0.016 A 
ATOM     11  C   UNL A   1      39.752  25.342  26.555  1.00  0.00     0.010 A 
ATOM     12  C   UNL A   1      41.235  24.073  27.976  1.00  0.00     0.010 A 
ATOM     13  C   UNL A   1      40.826  25.296  27.438  1.00  0.00    -0.014 A 
BRANCH  13  14
ATOM     14  C   UNL A   1      41.576  26.539  27.677  1.00  0.00     0.031 A 
ATOM     15  C   UNL A   1      40.956  27.579  28.555  1.00  0.00     0.074 A 
ATOM     16  C   UNL A   1      42.837  26.648  27.227  1.00  0.00     0.049 A 
ATOM     17  N   UNL A   1      41.400  28.764  28.876  1.00  0.00    -0.248 NA
ATOM     18  C   UNL A   1      39.666  27.229  29.176  1.00  0.00     0.031 C 
ATOM     19  C   UNL A   1      43.556  25.611  26.484  1.00  0.00     0.029 A 
ATOM     20  N   UNL A   1      43.749  27.659  27.361  1.00  0.00    -0.354 N 
ATOM     21  C   UNL A   1      40.436  29.308  29.710  1.00  0.00     0.074 A 
ATOM     22  C   UNL A   1      39.382  28.330  29.854  1.00  0.00     0.031 C 
ATOM     23  C   UNL A   1      44.810  26.029  26.254  1.00  0.00     0.029 A 
ATOM     24  C   UNL A   1      44.957  27.386  26.769  1.00  0.00     0.049 A 
ATOM     25  H   UNL A   1      43.558  28.500  27.835  1.00  0.00     0.167 HD
ATOM     26  C   UNL A   1      40.437  30.528  30.291  1.00  0.00     0.037 A 
ATOM     27  C   UNL A   1      46.043  28.170  26.635  1.00  0.00     0.037 A 
ATOM     28  C   UNL A   1      41.504  31.476  30.122  1.00  0.00     0.049 A 
ATOM     29  C   UNL A   1      45.980  29.561  27.206  1.00  0.00     0.074 A 
ATOM     30  C   UNL A   1      41.589  32.778  30.576  1.00  0.00     0.029 A 
ATOM     31  N   UNL A   1      42.684  31.206  29.439  1.00  0.00    -0.354 N 
ATOM     32  N   UNL A   1      45.023  30.120  27.907  1.00  0.00    -0.248 NA
ATOM     33  C   UNL A   1      47.129  30.438  26.949  1.00  0.00     0.031 C 
ATOM     34  C   UNL A   1      42.807  33.307  30.137  1.00  0.00     0.029 A 
ATOM     35  C   UNL A   1      43.500  32.322  29.448  1.00  0.00     0.049 A 
ATOM     36  H   UNL A   1      42.906  30.347  29.011  1.00  0.00     0.167 HD
ATOM     37  C   UNL A   1      45.447  31.412  28.178  1.00  0.00     0.074 A 
ATOM     38  C   UNL A   1      46.764  31.545  27.583  1.00  0.00     0.031 C 
ATOM     39  C   UNL A   1      44.808  32.402  28.846  1.00  0.00     0.037 A 
BRANCH  26  40
ATOM     40  C   UNL A   1      39.230  30.912  31.089  1.00  0.00     0.064 A 
ATOM     41  C   UNL A   1      39.111  30.503  32.427  1.00  0.00     0.173 A 
ATOM     42  C   UNL A   1      38.201  31.694  30.547  1.00  0.00     0.173 A 
ATOM     43  F   UNL A   1      40.074  29.763  32.995  1.00  0.00    -0.203 F 
ATOM     44  C   UNL A   1      38.003  30.861  33.190  1.00  0.00     0.198 A 
ATOM     45  C   UNL A   1      37.104  32.070  31.321  1.00  0.00     0.198 A 
ATOM     46  F   UNL A   1      38.284  32.137  29.283  1.00  0.00    -0.203 F 
ATOM     47  F   UNL A   1      37.909  30.455  34.464  1.00  0.00    -0.200 F 
ATOM     48  C   UNL A   1      37.004  31.650  32.639  1.00  0.00     0.200 A 
ATOM     49  F   UNL A   1      36.155  32.859  30.797  1.00  0.00    -0.200 F 
ATOM     50  F   UNL A   1      35.951  32.015  33.382  1.00  0.00    -0.200 F 
ENDBRANCH  26  40
BRANCH  27  51
ATOM     51  C   UNL A   1      47.236  27.668  25.905  1.00  0.00     0.064 A 
ATOM     52  C   UNL A   1      48.327  27.109  26.590  1.00  0.00     0.173 A 
ATOM     53  C   UNL A   1      47.329  27.765  24.510  1.00  0.00     0.173 A 
ATOM     54  F   UNL A   1      48.290  26.988  27.925  1.00  0.00    -0.203 F 
ATOM     55  C   UNL A   1      49.473  26.697  25.914  1.00  0.00     0.198 A 
ATOM     56  C   UNL A   1      48.466  27.326  23.831  1.00  0.00     0.198 A 
ATOM     57  F   UNL A   1      46.306  28.270  23.805  1.00  0.00    -0.203 F 
ATOM     58  F   UNL A   1      50.514  26.207  26.601  1.00  0.00    -0.200 F 
ATOM     59  C   UNL A   1      49.541  26.804  24.535  1.00  0.00     0.200 A 
ATOM     60  F   UNL A   1      48.518  27.407  22.495  1.00  0.00    -0.200 F 
ATOM     61  F   UNL A   1      50.639  26.398  23.882  1.00  0.00    -0.200 F 
ENDBRANCH  27  51
BRANCH  39  62
ATOM     62  C   UNL A   1      45.525  33.710  28.978  1.00  0.00     0.064 A 
ATOM     63  C   UNL A   1      46.323  33.968  30.102  1.00  0.00     0.173 A 
ATOM     64  C   UNL A   1      45.337  34.737  28.044  1.00  0.00     0.173 A 
ATOM     65  F   UNL A   1      46.520  33.014  31.024  1.00  0.00    -0.203 F 
ATOM     66  C   UNL A   1      46.893  35.220  30.295  1.00  0.00     0.198 A 
ATOM     67  C   UNL A   1      45.929  35.982  28.230  1.00  0.00     0.198 A 
ATOM     68  F   UNL A   1      44.590  34.527  26.950  1.00  0.00    -0.203 F 
ATOM     69  F   UNL A   1      47.622  35.460  31.394  1.00  0.00    -0.200 F 
ATOM     70  C   UNL A   1      46.696  36.225  29.360  1.00  0.00     0.200 A 
ATOM     71  F   UNL A   1      45.754  36.947  27.317  1.00  0.00    -0.200 F 
ATOM     72  F   UNL A   1      47.247  37.433  29.547  1.00  0.00    -0.200 F 
ENDBRANCH  39  62
ENDBRANCH  13  14
ENDBRANCH   6   8
ENDBRANCH   5   6
ENDBRANCH   4   5
ENDBRANCH   3   4
ENDBRANCH   2   3
ENDBRANCH   1   2
BRANCH   1  73
ATOM     73  C   UNL A   1      33.623  23.700  25.581  1.00  0.00     0.261 C 
BRANCH  73  74
ATOM     74  O   UNL A   1      32.782  24.575  24.813  1.00  0.00    -0.460 OA
BRANCH  74  75
ATOM     75  C   UNL A   1      31.880  25.275  25.567  1.00  0.00     0.350 C 
ATOM     76  O   UNL A   1      31.379  24.848  26.600  1.00  0.00    -0.247 OA
BRANCH  75  77
ATOM     77  C   UNL A   1      31.563  26.652  24.942  1.00  0.00     0.209 C 
ATOM     78  C   UNL A   1      32.861  27.223  24.344  1.00  0.00     0.082 C 
ATOM     79  C   UNL A   1      30.996  27.536  26.060  1.00  0.00     0.082 C 
ATOM     80  C   UNL A   1      33.877  27.662  25.391  1.00  0.00     0.123 C 
ATOM     81  C   UNL A   1      32.056  27.866  27.101  1.00  0.00     0.123 C 
ATOM     82  N   UNL A   1      33.215  28.439  26.435  1.00  0.00    -0.356 N 
BRANCH  77  83
ATOM     83  O   UNL A   1      30.629  26.366  23.864  1.00  0.00    -0.475 OA
BRANCH  83  84
ATOM     84  C   UNL A   1      29.845  27.392  23.425  1.00  0.00     0.123 A 
ATOM     85  C   UNL A   1      30.376  28.435  22.667  1.00  0.00     0.047 A 
ATOM     86  C   UNL A   1      28.476  27.333  23.673  1.00  0.00     0.085 A 
ATOM     87  C   UNL A   1      29.555  29.482  22.246  1.00  0.00     0.007 A 
ATOM     88  C   UNL A   1      27.665  28.374  23.239  1.00  0.00     0.126 A 
ATOM     89  C   UNL A   1      28.194  29.458  22.545  1.00  0.00     0.039 A 
ATOM     90  F   UNL A   1      26.351  28.337  23.497  1.00  0.00    -0.207 F 
ENDBRANCH  83  84
ENDBRANCH  77  83
BRANCH  82  91
ATOM     91  C   UNL A   1      33.945  29.469  26.997  1.00  0.00     0.134 A 
ATOM     92  C   UNL A   1      33.385  30.705  27.259  1.00  0.00     0.093 A 
ATOM     93  N   UNL A   1      35.240  29.243  27.265  1.00  0.00    -0.219 NA
ATOM     94  C   UNL A   1      34.191  31.702  27.772  1.00  0.00     0.131 A 
ATOM     95  C   UNL A   1      35.953  30.273  27.729  1.00  0.00     0.226 A 
ATOM     96  N   UNL A   1      35.497  31.506  27.977  1.00  0.00    -0.219 NA
BRANCH  94  97
ATOM     97  N   UNL A   1      33.620  32.940  28.033  1.00  0.00    -0.368 N 
ATOM     98  H   UNL A   1      32.648  33.012  28.173  1.00  0.00     0.162 HD
BRANCH  97  99
ATOM     99  C   UNL A   1      34.455  34.133  28.097  1.00  0.00     0.142 C 
BRANCH  99 100
ATOM    100  C   UNL A   1      33.805  35.159  29.030  1.00  0.00     0.177 C 
BRANCH 100 101
ATOM    101  O   UNL A   1      33.380  34.515  30.235  1.00  0.00    -0.395 OA
ATOM    102  H   UNL A   1      33.654  33.585  30.219  1.00  0.00     0.210 HD
ENDBRANCH 100 101
ENDBRANCH  99 100
ENDBRANCH  97  99
ENDBRANCH  94  97
ENDBRANCH  82  91
ENDBRANCH  75  77
ENDBRANCH  74  75
ENDBRANCH  73  74
ENDBRANCH   1  73
TORSDOF 21
ENDMDL
MODEL 2
REMARK VINA RESULT:     -11.3      4.310     10.250
REMARK SMILES O=C(OCCOCCOC(=O)C1(Oc2cccc(F)c2)CCN(c2cc(NCCO)ncn2)CC1)c1ccc(-c2c3nc(c(-c4c(F)c(F)c(F)c(F)c4F)c4ccc([nH]4)c(-c4c(F)c(F)c(F)c(F)c4F)c4nc(c(-c5c(F)c(F)c(F)c(F)c5F)c5ccc2[nH]5)C=C4)C=C3)cc1
REMARK SMILES IDX 7 1 6 2 5 3 4 4 3 5 2 6 1 7 36 8 37 9 98 10 38 11 97 12
REMARK SMILES IDX 39 13 40 14 41 15 91 16 42 17 96 18 90 19 92 20 43 21 95 22
REMARK SMILES IDX 89 23 88 24 44 26 76 27 56 28 75 29 57 30 60 31 74 32 93 33
REMARK SMILES IDX 58 34 59 35 73 37 94 38 61 39 45 40 46 41 54 42 47 43 48 44
REMARK SMILES IDX 52 45 55 46 49 47 50 48 53 49 51 50 77 51 78 52 86 53 79 54
REMARK SMILES IDX 80 55 84 56 87 57 81 58 82 59 85 60 83 61 62 62 63 63 71 64
REMARK SMILES IDX 64 65 65 66 69 67 72 68 66 69 67 70 70 71 68 72 8 73 9 74
REMARK SMILES IDX 10 75 11 76 12 77 21 78 35 79 22 80 34 81 23 82 13 83 14 84
REMARK SMILES IDX 15 85 20 86 16 87 18 88 17 89 19 90 24 91 25 92 33 93 26 94
REMARK SMILES IDX 32 95 31 96 27 97 28 99 29 100 30 101
REMARK H PARENT 92 25 60 36 27 98 30 102
REMARK Flexibility Score: inf
ROOT
ATOM      1  C   UNL A   1      33.163  26.668  24.691  1.00  0.00     0.202 C 
ENDROOT
BRANCH   1   2
ATOM      2  O   UNL A   1      32.972  27.987  24.163  1.00  0.00    -0.374 OA
BRANCH   2   3
ATOM      3  C   UNL A   1      31.848  28.685  24.712  1.00  0.00     0.202 C 
BRANCH   3   4
ATOM      4  C   UNL A   1      32.130  29.312  26.081  1.00  0.00     0.261 C 
BRANCH   4   5
ATOM      5  O   UNL A   1      32.985  30.460  25.952  1.00  0.00    -0.460 OA
BRANCH   5   6
ATOM      6  C   UNL A   1      33.547  31.182  26.951  1.00  0.00     0.338 C 
ATOM      7  O   UNL A   1      32.971  32.192  27.350  1.00  0.00    -0.246 OA
BRANCH   6   8
ATOM      8  C   UNL A   1      34.785  30.758  27.669  1.00  0.00     0.060 A 
ATOM      9  C   UNL A   1      35.115  29.445  28.015  1.00  0.00     0.016 A 
ATOM     10  C   UNL A   1      35.714  31.771  27.963  1.00  0.00     0.016 A 
ATOM     11  C   UNL A   1      36.269  29.154  28.724  1.00  0.00     0.010 A 
ATOM     12  C   UNL A   1      36.901  31.482  28.638  1.00  0.00     0.010 A 
ATOM     13  C   UNL A   1      37.159  30.172  29.051  1.00  0.00    -0.014 A 
BRANCH  13  14
ATOM     14  C   UNL A   1      38.287  29.845  29.936  1.00  0.00     0.031 A 
ATOM     15  C   UNL A   1      39.415  29.039  29.373  1.00  0.00     0.074 A 
ATOM     16  C   UNL A   1      38.346  30.388  31.163  1.00  0.00     0.049 A 
ATOM     17  N   UNL A   1      40.490  28.593  29.963  1.00  0.00    -0.248 NA
ATOM     18  C   UNL A   1      39.332  28.708  27.939  1.00  0.00     0.031 C 
ATOM     19  C   UNL A   1      37.348  31.300  31.726  1.00  0.00     0.029 A 
ATOM     20  N   UNL A   1      39.298  30.287  32.141  1.00  0.00    -0.354 N 
ATOM     21  C   UNL A   1      41.193  27.908  28.985  1.00  0.00     0.074 A 
ATOM     22  C   UNL A   1      40.434  27.996  27.759  1.00  0.00     0.031 C 
ATOM     23  C   UNL A   1      37.757  31.699  32.940  1.00  0.00     0.029 A 
ATOM     24  C   UNL A   1      39.004  31.016  33.266  1.00  0.00     0.049 A 
ATOM     25  H   UNL A   1      40.113  29.744  32.047  1.00  0.00     0.167 HD
ATOM     26  C   UNL A   1      42.370  27.255  29.115  1.00  0.00     0.037 A 
ATOM     27  C   UNL A   1      39.663  31.088  34.438  1.00  0.00     0.037 A 
ATOM     28  C   UNL A   1      43.096  27.187  30.353  1.00  0.00     0.049 A 
ATOM     29  C   UNL A   1      40.917  30.272  34.589  1.00  0.00     0.074 A 
ATOM     30  C   UNL A   1      44.248  26.483  30.646  1.00  0.00     0.029 A 
ATOM     31  N   UNL A   1      42.728  27.865  31.509  1.00  0.00    -0.354 N 
ATOM     32  N   UNL A   1      41.532  29.533  33.696  1.00  0.00    -0.248 NA
ATOM     33  C   UNL A   1      41.557  30.273  35.910  1.00  0.00     0.031 C 
ATOM     34  C   UNL A   1      44.557  26.708  31.992  1.00  0.00     0.029 A 
ATOM     35  C   UNL A   1      43.624  27.587  32.524  1.00  0.00     0.049 A 
ATOM     36  H   UNL A   1      41.945  28.456  31.593  1.00  0.00     0.167 HD
ATOM     37  C   UNL A   1      42.629  28.982  34.339  1.00  0.00     0.074 A 
ATOM     38  C   UNL A   1      42.608  29.491  35.698  1.00  0.00     0.031 C 
ATOM     39  C   UNL A   1      43.564  28.126  33.860  1.00  0.00     0.037 A 
BRANCH  26  40
ATOM     40  C   UNL A   1      42.886  26.520  27.916  1.00  0.00     0.064 A 
ATOM     41  C   UNL A   1      43.655  27.194  26.955  1.00  0.00     0.173 A 
ATOM     42  C   UNL A   1      42.640  25.154  27.722  1.00  0.00     0.173 A 
ATOM     43  F   UNL A   1      43.928  28.499  27.101  1.00  0.00    -0.203 F 
ATOM     44  C   UNL A   1      44.155  26.526  25.841  1.00  0.00     0.198 A 
ATOM     45  C   UNL A   1      43.162  24.483  26.617  1.00  0.00     0.198 A 
ATOM     46  F   UNL A   1      41.937  24.459  28.629  1.00  0.00    -0.203 F 
ATOM     47  F   UNL A   1      44.883  27.192  24.933  1.00  0.00    -0.200 F 
ATOM     48  C   UNL A   1      43.914  25.170  25.676  1.00  0.00     0.200 A 
ATOM     49  F   UNL A   1      42.955  23.167  26.475  1.00  0.00    -0.200 F 
ATOM     50  F   UNL A   1      44.418  24.524  24.616  1.00  0.00    -0.200 F 
ENDBRANCH  26  40
BRANCH  27  51
ATOM     51  C   UNL A   1      39.122  31.921  35.543  1.00  0.00     0.064 A 
ATOM     52  C   UNL A   1      39.440  33.284  35.650  1.00  0.00     0.173 A 
ATOM     53  C   UNL A   1      38.304  31.368  36.537  1.00  0.00     0.173 A 
ATOM     54  F   UNL A   1      40.217  33.867  34.725  1.00  0.00    -0.203 F 
ATOM     55  C   UNL A   1      38.989  34.052  36.721  1.00  0.00     0.198 A 
ATOM     56  C   UNL A   1      37.829  32.144  37.594  1.00  0.00     0.198 A 
ATOM     57  F   UNL A   1      37.951  30.076  36.471  1.00  0.00    -0.203 F 
ATOM     58  F   UNL A   1      39.345  35.341  36.816  1.00  0.00    -0.200 F 
ATOM     59  C   UNL A   1      38.181  33.482  37.691  1.00  0.00     0.200 A 
ATOM     60  F   UNL A   1      37.027  31.596  38.518  1.00  0.00    -0.200 F 
ATOM     61  F   UNL A   1      37.737  34.222  38.716  1.00  0.00    -0.200 F 
ENDBRANCH  27  51
BRANCH  39  62
ATOM     62  C   UNL A   1      44.642  27.695  34.804  1.00  0.00     0.064 A 
ATOM     63  C   UNL A   1      44.459  26.569  35.619  1.00  0.00     0.173 A 
ATOM     64  C   UNL A   1      45.808  28.455  34.970  1.00  0.00     0.173 A 
ATOM     65  F   UNL A   1      43.354  25.818  35.498  1.00  0.00    -0.203 F 
ATOM     66  C   UNL A   1      45.400  26.231  36.585  1.00  0.00     0.198 A 
ATOM     67  C   UNL A   1      46.757  28.100  35.922  1.00  0.00     0.198 A 
ATOM     68  F   UNL A   1      46.025  29.533  34.202  1.00  0.00    -0.203 F 
ATOM     69  F   UNL A   1      45.190  25.173  37.381  1.00  0.00    -0.200 F 
ATOM     70  C   UNL A   1      46.547  26.996  36.735  1.00  0.00     0.200 A 
ATOM     71  F   UNL A   1      47.874  28.829  36.055  1.00  0.00    -0.200 F 
ATOM     72  F   UNL A   1      47.454  26.669  37.667  1.00  0.00    -0.200 F 
ENDBRANCH  39  62
ENDBRANCH  13  14
ENDBRANCH   6   8
ENDBRANCH   5   6
ENDBRANCH   4   5
ENDBRANCH   3   4
ENDBRANCH   2   3
ENDBRANCH   1   2
BRANCH   1  73
ATOM     73  C   UNL A   1      31.990  25.756  24.332  1.00  0.00     0.261 C 
BRANCH  73  74
ATOM     74  O   UNL A   1      32.465  24.413  24.153  1.00  0.00    -0.460 OA
BRANCH  74  75
ATOM     75  C   UNL A   1      32.416  23.654  25.291  1.00  0.00     0.350 C 
ATOM     76  O   UNL A   1      31.897  24.026  26.336  1.00  0.00    -0.247 OA
BRANCH  75  77
ATOM     77  C   UNL A   1      33.110  22.288  25.094  1.00  0.00     0.209 C 
ATOM     78  C   UNL A   1      33.759  21.877  26.428  1.00  0.00     0.082 C 
ATOM     79  C   UNL A   1      34.141  22.461  23.972  1.00  0.00     0.082 C 
ATOM     80  C   UNL A   1      34.976  22.713  26.800  1.00  0.00     0.123 C 
ATOM     81  C   UNL A   1      35.284  23.369  24.401  1.00  0.00     0.123 C 
ATOM     82  N   UNL A   1      35.851  22.865  25.641  1.00  0.00    -0.356 N 
BRANCH  77  83
ATOM     83  O   UNL A   1      32.030  21.362  24.786  1.00  0.00    -0.475 OA
BRANCH  83  84
ATOM     84  C   UNL A   1      32.376  20.129  24.316  1.00  0.00     0.123 A 
ATOM     85  C   UNL A   1      32.847  19.135  25.172  1.00  0.00     0.047 A 
ATOM     86  C   UNL A   1      32.161  19.850  22.969  1.00  0.00     0.085 A 
ATOM     87  C   UNL A   1      33.213  17.888  24.662  1.00  0.00     0.007 A 
ATOM     88  C   UNL A   1      32.516  18.601  22.474  1.00  0.00     0.126 A 
ATOM     89  C   UNL A   1      33.057  17.624  23.303  1.00  0.00     0.039 A 
ATOM     90  F   UNL A   1      32.337  18.334  21.173  1.00  0.00    -0.207 F 
ENDBRANCH  83  84
ENDBRANCH  77  83
BRANCH  82  91
ATOM     91  C   UNL A   1      37.210  22.907  25.893  1.00  0.00     0.134 A 
ATOM     92  C   UNL A   1      38.004  21.779  25.810  1.00  0.00     0.093 A 
ATOM     93  N   UNL A   1      37.743  24.086  26.248  1.00  0.00    -0.219 NA
ATOM     94  C   UNL A   1      39.344  21.888  26.128  1.00  0.00     0.131 A 
ATOM     95  C   UNL A   1      39.040  24.093  26.570  1.00  0.00     0.226 A 
ATOM     96  N   UNL A   1      39.868  23.043  26.550  1.00  0.00    -0.219 NA
BRANCH  94  97
ATOM     97  N   UNL A   1      40.134  20.751  26.041  1.00  0.00    -0.368 N 
ATOM     98  H   UNL A   1      40.115  20.202  25.225  1.00  0.00     0.162 HD
BRANCH  97  99
ATOM     99  C   UNL A   1      40.990  20.367  27.157  1.00  0.00     0.142 C 
BRANCH  99 100
ATOM    100  C   UNL A   1      42.255  19.693  26.619  1.00  0.00     0.177 C 
BRANCH 100 101
ATOM    101  O   UNL A   1      42.632  20.295  25.377  1.00  0.00    -0.395 OA
ATOM    102  H   UNL A   1      42.456  19.676  24.651  1.00  0.00     0.210 HD
ENDBRANCH 100 101
ENDBRANCH  99 100
ENDBRANCH  97  99
ENDBRANCH  94  97
ENDBRANCH  82  91
ENDBRANCH  75  77
ENDBRANCH  74  75
ENDBRANCH  73  74
ENDBRANCH   1  73
TORSDOF 21
ENDMDL
MODEL 3
REMARK VINA RESULT:     -11.0      3.046      8.981
REMARK SMILES O=C(OCCOCCOC(=O)C1(Oc2cccc(F)c2)CCN(c2cc(NCCO)ncn2)CC1)c1ccc(-c2c3nc(c(-c4c(F)c(F)c(F)c(F)c4F)c4ccc([nH]4)c(-c4c(F)c(F)c(F)c(F)c4F)c4nc(c(-c5c(F)c(F)c(F)c(F)c5F)c5ccc2[nH]5)C=C4)C=C3)cc1
REMARK SMILES IDX 7 1 6 2 5 3 4 4 3 5 2 6 1 7 36 8 37 9 98 10 38 11 97 12
REMARK SMILES IDX 39 13 40 14 41 15 91 16 42 17 96 18 90 19 92 20 43 21 95 22
REMARK SMILES IDX 89 23 88 24 44 26 76 27 56 28 75 29 57 30 60 31 74 32 93 33
REMARK SMILES IDX 58 34 59 35 73 37 94 38 61 39 45 40 46 41 54 42 47 43 48 44
REMARK SMILES IDX 52 45 55 46 49 47 50 48 53 49 51 50 77 51 78 52 86 53 79 54
REMARK SMILES IDX 80 55 84 56 87 57 81 58 82 59 85 60 83 61 62 62 63 63 71 64
REMARK SMILES IDX 64 65 65 66 69 67 72 68 66 69 67 70 70 71 68 72 8 73 9 74
REMARK SMILES IDX 10 75 11 76 12 77 21 78 35 79 22 80 34 81 23 82 13 83 14 84
REMARK SMILES IDX 15 85 20 86 16 87 18 88 17 89 19 90 24 91 25 92 33 93 26 94
REMARK SMILES IDX 32 95 31 96 27 97 28 99 29 100 30 101
REMARK H PARENT 92 25 60 36 27 98 30 102
REMARK Flexibility Score: inf
ROOT
ATOM      1  C   UNL A   1      36.957  22.904  25.905  1.00  0.00     0.202 C 
ENDROOT
BRANCH   1   2
ATOM      2  O   UNL A   1      37.740  22.003  25.110  1.00  0.00    -0.374 OA
BRANCH   2   3
ATOM      3  C   UNL A   1      38.664  21.206  25.860  1.00  0.00     0.202 C 
BRANCH   3   4
ATOM      4  C   UNL A   1      39.106  19.934  25.128  1.00  0.00     0.261 C 
BRANCH   4   5
ATOM      5  O   UNL A   1      40.039  19.184  25.923  1.00  0.00    -0.460 OA
BRANCH   5   6
ATOM      6  C   UNL A   1      41.367  19.409  26.062  1.00  0.00     0.338 C 
ATOM      7  O   UNL A   1      42.156  18.517  25.756  1.00  0.00    -0.246 OA
BRANCH   6   8
ATOM      8  C   UNL A   1      41.933  20.729  26.470  1.00  0.00     0.060 A 
ATOM      9  C   UNL A   1      42.193  21.131  27.783  1.00  0.00     0.016 A 
ATOM     10  C   UNL A   1      42.282  21.607  25.429  1.00  0.00     0.016 A 
ATOM     11  C   UNL A   1      42.678  22.398  28.067  1.00  0.00     0.010 A 
ATOM     12  C   UNL A   1      42.813  22.869  25.703  1.00  0.00     0.010 A 
ATOM     13  C   UNL A   1      42.976  23.276  27.030  1.00  0.00    -0.014 A 
BRANCH  13  14
ATOM     14  C   UNL A   1      43.337  24.659  27.379  1.00  0.00     0.031 A 
ATOM     15  C   UNL A   1      44.723  25.127  27.064  1.00  0.00     0.074 A 
ATOM     16  C   UNL A   1      42.390  25.497  27.831  1.00  0.00     0.049 A 
ATOM     17  N   UNL A   1      45.285  26.278  27.313  1.00  0.00    -0.248 NA
ATOM     18  C   UNL A   1      45.591  24.173  26.351  1.00  0.00     0.031 C 
ATOM     19  C   UNL A   1      40.982  25.145  28.027  1.00  0.00     0.029 A 
ATOM     20  N   UNL A   1      42.455  26.821  28.169  1.00  0.00    -0.354 N 
ATOM     21  C   UNL A   1      46.574  26.177  26.814  1.00  0.00     0.074 A 
ATOM     22  C   UNL A   1      46.718  24.858  26.242  1.00  0.00     0.031 C 
ATOM     23  C   UNL A   1      40.310  26.238  28.423  1.00  0.00     0.029 A 
ATOM     24  C   UNL A   1      41.252  27.341  28.576  1.00  0.00     0.049 A 
ATOM     25  H   UNL A   1      43.285  27.349  28.125  1.00  0.00     0.167 HD
ATOM     26  C   UNL A   1      47.550  27.112  26.846  1.00  0.00     0.037 A 
ATOM     27  C   UNL A   1      40.964  28.567  29.051  1.00  0.00     0.037 A 
ATOM     28  C   UNL A   1      47.369  28.414  27.426  1.00  0.00     0.049 A 
ATOM     29  C   UNL A   1      42.090  29.557  29.169  1.00  0.00     0.074 A 
ATOM     30  C   UNL A   1      48.299  29.420  27.609  1.00  0.00     0.029 A 
ATOM     31  N   UNL A   1      46.157  28.887  27.915  1.00  0.00    -0.354 N 
ATOM     32  N   UNL A   1      43.342  29.429  28.795  1.00  0.00    -0.248 NA
ATOM     33  C   UNL A   1      41.779  30.847  29.795  1.00  0.00     0.031 C 
ATOM     34  C   UNL A   1      47.655  30.489  28.241  1.00  0.00     0.029 A 
ATOM     35  C   UNL A   1      46.316  30.167  28.412  1.00  0.00     0.049 A 
ATOM     36  H   UNL A   1      45.310  28.385  27.909  1.00  0.00     0.167 HD
ATOM     37  C   UNL A   1      43.970  30.617  29.136  1.00  0.00     0.074 A 
ATOM     38  C   UNL A   1      42.952  31.465  29.730  1.00  0.00     0.031 C 
ATOM     39  C   UNL A   1      45.268  30.974  28.986  1.00  0.00     0.037 A 
BRANCH  26  40
ATOM     40  C   UNL A   1      48.892  26.726  26.305  1.00  0.00     0.064 A 
ATOM     41  C   UNL A   1      49.195  26.944  24.952  1.00  0.00     0.173 A 
ATOM     42  C   UNL A   1      49.883  26.159  27.118  1.00  0.00     0.173 A 
ATOM     43  F   UNL A   1      48.285  27.495  24.136  1.00  0.00    -0.203 F 
ATOM     44  C   UNL A   1      50.442  26.605  24.434  1.00  0.00     0.198 A 
ATOM     45  C   UNL A   1      51.137  25.841  26.601  1.00  0.00     0.198 A 
ATOM     46  F   UNL A   1      49.652  25.959  28.425  1.00  0.00    -0.203 F 
ATOM     47  F   UNL A   1      50.707  26.818  23.137  1.00  0.00    -0.200 F 
ATOM     48  C   UNL A   1      51.414  26.060  25.259  1.00  0.00     0.200 A 
ATOM     49  F   UNL A   1      52.087  25.344  27.406  1.00  0.00    -0.200 F 
ATOM     50  F   UNL A   1      52.621  25.757  24.764  1.00  0.00    -0.200 F 
ENDBRANCH  26  40
BRANCH  27  51
ATOM     51  C   UNL A   1      39.578  28.891  29.477  1.00  0.00     0.064 A 
ATOM     52  C   UNL A   1      39.148  28.662  30.794  1.00  0.00     0.173 A 
ATOM     53  C   UNL A   1      38.640  29.406  28.572  1.00  0.00     0.173 A 
ATOM     54  F   UNL A   1      40.004  28.173  31.703  1.00  0.00    -0.203 F 
ATOM     55  C   UNL A   1      37.831  28.904  31.179  1.00  0.00     0.198 A 
ATOM     56  C   UNL A   1      37.330  29.675  28.965  1.00  0.00     0.198 A 
ATOM     57  F   UNL A   1      39.004  29.666  27.307  1.00  0.00    -0.203 F 
ATOM     58  F   UNL A   1      37.443  28.634  32.433  1.00  0.00    -0.200 F 
ATOM     59  C   UNL A   1      36.924  29.413  30.265  1.00  0.00     0.200 A 
ATOM     60  F   UNL A   1      36.460  30.191  28.086  1.00  0.00    -0.200 F 
ATOM     61  F   UNL A   1      35.660  29.656  30.638  1.00  0.00    -0.200 F 
ENDBRANCH  27  51
BRANCH  39  62
ATOM     62  C   UNL A   1      45.660  32.339  29.460  1.00  0.00     0.064 A 
ATOM     63  C   UNL A   1      45.565  33.440  28.597  1.00  0.00     0.173 A 
ATOM     64  C   UNL A   1      46.221  32.533  30.729  1.00  0.00     0.173 A 
ATOM     65  F   UNL A   1      45.043  33.295  27.370  1.00  0.00    -0.203 F 
ATOM     66  C   UNL A   1      46.039  34.688  28.983  1.00  0.00     0.198 A 
ATOM     67  C   UNL A   1      46.673  33.789  31.120  1.00  0.00     0.198 A 
ATOM     68  F   UNL A   1      46.319  31.508  31.588  1.00  0.00    -0.203 F 
ATOM     69  F   UNL A   1      45.976  35.720  28.131  1.00  0.00    -0.200 F 
ATOM     70  C   UNL A   1      46.593  34.861  30.244  1.00  0.00     0.200 A 
ATOM     71  F   UNL A   1      47.190  33.960  32.344  1.00  0.00    -0.200 F 
ATOM     72  F   UNL A   1      47.050  36.065  30.615  1.00  0.00    -0.200 F 
ENDBRANCH  39  62
ENDBRANCH  13  14
ENDBRANCH   6   8
ENDBRANCH   5   6
ENDBRANCH   4   5
ENDBRANCH   3   4
ENDBRANCH   2   3
ENDBRANCH   1   2
BRANCH   1  73
ATOM     73  C   UNL A   1      36.325  23.994  25.040  1.00  0.00     0.261 C 
BRANCH  73  74
ATOM     74  O   UNL A   1      35.136  24.484  25.680  1.00  0.00    -0.460 OA
BRANCH  74  75
ATOM     75  C   UNL A   1      34.190  24.944  24.805  1.00  0.00     0.350 C 
ATOM     76  O   UNL A   1      34.440  25.664  23.847  1.00  0.00    -0.247 OA
BRANCH  75  77
ATOM     77  C   UNL A   1      32.775  24.457  25.191  1.00  0.00     0.209 C 
ATOM     78  C   UNL A   1      32.913  23.380  26.282  1.00  0.00     0.082 C 
ATOM     79  C   UNL A   1      32.119  23.915  23.915  1.00  0.00     0.082 C 
ATOM     80  C   UNL A   1      33.490  22.065  25.774  1.00  0.00     0.123 C 
ATOM     81  C   UNL A   1      32.803  22.642  23.435  1.00  0.00     0.123 C 
ATOM     82  N   UNL A   1      32.838  21.681  24.526  1.00  0.00    -0.356 N 
BRANCH  77  83
ATOM     83  O   UNL A   1      32.120  25.626  25.758  1.00  0.00    -0.475 OA
BRANCH  83  84
ATOM     84  C   UNL A   1      31.194  26.262  24.985  1.00  0.00     0.123 A 
ATOM     85  C   UNL A   1      29.893  25.775  24.868  1.00  0.00     0.047 A 
ATOM     86  C   UNL A   1      31.548  27.467  24.384  1.00  0.00     0.085 A 
ATOM     87  C   UNL A   1      28.969  26.435  24.055  1.00  0.00     0.007 A 
ATOM     88  C   UNL A   1      30.617  28.123  23.588  1.00  0.00     0.126 A 
ATOM     89  C   UNL A   1      29.338  27.609  23.402  1.00  0.00     0.039 A 
ATOM     90  F   UNL A   1      30.959  29.270  22.985  1.00  0.00    -0.207 F 
ENDBRANCH  83  84
ENDBRANCH  77  83
BRANCH  82  91
ATOM     91  C   UNL A   1      32.654  20.328  24.313  1.00  0.00     0.134 A 
ATOM     92  C   UNL A   1      32.846  19.397  25.316  1.00  0.00     0.093 A 
ATOM     93  N   UNL A   1      32.301  19.932  23.081  1.00  0.00    -0.219 NA
ATOM     94  C   UNL A   1      32.697  18.058  25.015  1.00  0.00     0.131 A 
ATOM     95  C   UNL A   1      32.210  18.615  22.870  1.00  0.00     0.226 A 
ATOM     96  N   UNL A   1      32.413  17.651  23.773  1.00  0.00    -0.219 NA
BRANCH  94  97
ATOM     97  N   UNL A   1      32.891  17.130  26.028  1.00  0.00    -0.368 N 
ATOM     98  H   UNL A   1      33.396  17.383  26.834  1.00  0.00     0.162 HD
BRANCH  97  99
ATOM     99  C   UNL A   1      32.350  15.782  25.901  1.00  0.00     0.142 C 
BRANCH  99 100
ATOM    100  C   UNL A   1      33.441  14.845  25.375  1.00  0.00     0.177 C 
BRANCH 100 101
ATOM    101  O   UNL A   1      33.101  13.489  25.678  1.00  0.00    -0.395 OA
ATOM    102  H   UNL A   1      32.582  13.115  24.950  1.00  0.00     0.210 HD
ENDBRANCH 100 101
ENDBRANCH  99 100
ENDBRANCH  97  99
ENDBRANCH  94  97
ENDBRANCH  82  91
ENDBRANCH  75  77
ENDBRANCH  74  75
ENDBRANCH  73  74
ENDBRANCH   1  73
TORSDOF 21
ENDMDL
