MODEL 1
REMARK VINA RESULT:     -11.5      0.000      0.000
REMARK SMILES O=C(C[C@H]1CN(c2nc(C3CC3)ns2)CCO1)OCCOCCOC(=O)c1ccc(-c2c3nc(c(-c4c(F)c(F)c(F)c(F)c4F)c4ccc([nH]4)c(-c4c(F)c(F)c(F)c(F)c4F)c4nc(c(-c5c(F)c(F)c(F)c(F)c5F)c5ccc2[nH]5)C=C4)C=C3)cc1
REMARK SMILES IDX 20 1 19 2 18 3 2 4 1 5 3 6 4 7 5 8 17 9 6 10 16 11 15 12
REMARK SMILES IDX 7 13 8 14 14 15 9 16 13 17 10 18 11 19 12 20 21 21 22 22
REMARK SMILES IDX 23 23 24 24 25 25 26 26 27 27 28 28 89 29 29 30 88 31 30 32
REMARK SMILES IDX 31 33 32 34 82 35 33 36 87 37 81 38 83 39 34 40 86 41 80 42
REMARK SMILES IDX 79 43 35 45 67 46 47 47 66 48 48 49 51 50 65 51 84 52 49 53
REMARK SMILES IDX 50 54 64 56 85 57 52 58 36 59 37 60 45 61 38 62 39 63 43 64
REMARK SMILES IDX 46 65 40 66 41 67 44 68 42 69 68 70 69 71 77 72 70 73 71 74
REMARK SMILES IDX 75 75 78 76 72 77 73 78 76 79 74 80 53 81 54 82 62 83 55 84
REMARK SMILES IDX 56 85 60 86 63 87 57 88 58 89 61 90 59 91
REMARK H PARENT 83 44 51 55
REMARK Flexibility Score: inf
ROOT
ATOM      1  C   UNL A   1      34.265  21.456  26.817  1.00  0.00     0.202 C 
ENDROOT
BRANCH   1   2
ATOM      2  C   UNL A   1      33.602  22.562  27.629  1.00  0.00     0.261 C 
BRANCH   2   3
ATOM      3  O   UNL A   1      32.181  22.608  27.467  1.00  0.00    -0.463 OA
BRANCH   3   4
ATOM      4  C   UNL A   1      31.498  23.615  26.889  1.00  0.00     0.308 C 
ATOM      5  O   UNL A   1      30.339  23.832  27.250  1.00  0.00    -0.252 OA
BRANCH   4   6
ATOM      6  C   UNL A   1      32.084  24.379  25.730  1.00  0.00     0.156 C 
BRANCH   6   7
ATOM      7  C   UNL A   1      32.088  23.690  24.373  1.00  0.00     0.148 C 
ATOM      8  C   UNL A   1      31.223  24.447  23.357  1.00  0.00     0.151 C 
ATOM      9  O   UNL A   1      33.412  23.477  23.858  1.00  0.00    -0.374 OA
ATOM     10  N   UNL A   1      31.871  25.698  22.990  1.00  0.00    -0.342 N 
ATOM     11  C   UNL A   1      34.074  24.713  23.539  1.00  0.00     0.182 C 
ATOM     12  C   UNL A   1      33.264  25.585  22.557  1.00  0.00     0.147 C 
BRANCH  10  13
ATOM     13  C   UNL A   1      31.281  26.879  23.297  1.00  0.00     0.205 A 
ATOM     14  N   UNL A   1      30.221  27.378  22.691  1.00  0.00    -0.203 NA
ATOM     15  S   UNL A   1      31.892  27.985  24.480  1.00  0.00     0.004 S 
ATOM     16  C   UNL A   1      29.962  28.647  23.197  1.00  0.00     0.147 A 
ATOM     17  N   UNL A   1      30.784  29.170  24.107  1.00  0.00    -0.174 NA
BRANCH  16  18
ATOM     18  C   UNL A   1      28.755  29.470  22.741  1.00  0.00     0.059 C 
ATOM     19  C   UNL A   1      28.687  30.957  23.015  1.00  0.00     0.012 C 
ATOM     20  C   UNL A   1      28.949  30.477  21.627  1.00  0.00     0.012 C 
ENDBRANCH  16  18
ENDBRANCH  10  13
ENDBRANCH   6   7
ENDBRANCH   4   6
ENDBRANCH   3   4
ENDBRANCH   2   3
ENDBRANCH   1   2
BRANCH   1  21
ATOM     21  O   UNL A   1      35.465  21.755  26.111  1.00  0.00    -0.374 OA
BRANCH  21  22
ATOM     22  C   UNL A   1      35.898  20.828  25.105  1.00  0.00     0.202 C 
BRANCH  22  23
ATOM     23  C   UNL A   1      37.395  20.541  24.977  1.00  0.00     0.261 C 
BRANCH  23  24
ATOM     24  O   UNL A   1      38.181  21.685  25.334  1.00  0.00    -0.460 OA
BRANCH  24  25
ATOM     25  C   UNL A   1      39.237  21.406  26.126  1.00  0.00     0.338 C 
ATOM     26  O   UNL A   1      39.892  20.371  26.155  1.00  0.00    -0.246 OA
BRANCH  25  27
ATOM     27  C   UNL A   1      39.672  22.634  26.814  1.00  0.00     0.060 A 
ATOM     28  C   UNL A   1      38.985  23.815  26.500  1.00  0.00     0.016 A 
ATOM     29  C   UNL A   1      40.742  22.640  27.712  1.00  0.00     0.016 A 
ATOM     30  C   UNL A   1      39.440  25.028  26.988  1.00  0.00     0.010 A 
ATOM     31  C   UNL A   1      41.207  23.862  28.194  1.00  0.00     0.010 A 
ATOM     32  C   UNL A   1      40.600  25.058  27.770  1.00  0.00    -0.014 A 
BRANCH  32  33
ATOM     33  C   UNL A   1      41.321  26.341  27.891  1.00  0.00     0.031 A 
ATOM     34  C   UNL A   1      40.633  27.464  28.618  1.00  0.00     0.074 A 
ATOM     35  C   UNL A   1      42.579  26.467  27.443  1.00  0.00     0.049 A 
ATOM     36  N   UNL A   1      41.059  28.672  28.878  1.00  0.00    -0.248 NA
ATOM     37  C   UNL A   1      39.276  27.187  29.120  1.00  0.00     0.031 C 
ATOM     38  C   UNL A   1      43.346  25.416  26.779  1.00  0.00     0.029 A 
ATOM     39  N   UNL A   1      43.432  27.536  27.491  1.00  0.00    -0.354 N 
ATOM     40  C   UNL A   1      40.019  29.299  29.554  1.00  0.00     0.074 A 
ATOM     41  C   UNL A   1      38.929  28.354  29.636  1.00  0.00     0.031 C 
ATOM     42  C   UNL A   1      44.567  25.895  26.481  1.00  0.00     0.029 A 
ATOM     43  C   UNL A   1      44.648  27.290  26.907  1.00  0.00     0.049 A 
ATOM     44  H   UNL A   1      43.196  28.397  27.905  1.00  0.00     0.167 HD
ATOM     45  C   UNL A   1      39.984  30.549  30.069  1.00  0.00     0.037 A 
ATOM     46  C   UNL A   1      45.697  28.114  26.731  1.00  0.00     0.037 A 
ATOM     47  C   UNL A   1      41.083  31.473  29.986  1.00  0.00     0.049 A 
ATOM     48  C   UNL A   1      45.609  29.523  27.259  1.00  0.00     0.074 A 
ATOM     49  C   UNL A   1      41.172  32.758  30.490  1.00  0.00     0.029 A 
ATOM     50  N   UNL A   1      42.287  31.206  29.349  1.00  0.00    -0.354 N 
ATOM     51  N   UNL A   1      44.634  30.104  27.920  1.00  0.00    -0.248 NA
ATOM     52  C   UNL A   1      46.773  30.387  27.025  1.00  0.00     0.031 C 
ATOM     53  C   UNL A   1      42.405  33.291  30.099  1.00  0.00     0.029 A 
ATOM     54  C   UNL A   1      43.114  32.314  29.419  1.00  0.00     0.049 A 
ATOM     55  H   UNL A   1      42.518  30.355  28.911  1.00  0.00     0.167 HD
ATOM     56  C   UNL A   1      45.082  31.386  28.213  1.00  0.00     0.074 A 
ATOM     57  C   UNL A   1      46.421  31.490  27.669  1.00  0.00     0.031 C 
ATOM     58  C   UNL A   1      44.448  32.386  28.876  1.00  0.00     0.037 A 
BRANCH  45  59
ATOM     59  C   UNL A   1      38.706  31.000  30.719  1.00  0.00     0.064 A 
ATOM     60  C   UNL A   1      38.505  30.920  32.106  1.00  0.00     0.173 A 
ATOM     61  C   UNL A   1      37.668  31.531  29.939  1.00  0.00     0.173 A 
ATOM     62  F   UNL A   1      39.456  30.402  32.899  1.00  0.00    -0.203 F 
ATOM     63  C   UNL A   1      37.302  31.325  32.681  1.00  0.00     0.198 A 
ATOM     64  C   UNL A   1      36.482  31.968  30.520  1.00  0.00     0.198 A 
ATOM     65  F   UNL A   1      37.805  31.630  28.608  1.00  0.00    -0.203 F 
ATOM     66  F   UNL A   1      37.111  31.186  34.000  1.00  0.00    -0.200 F 
ATOM     67  C   UNL A   1      36.295  31.857  31.889  1.00  0.00     0.200 A 
ATOM     68  F   UNL A   1      35.515  32.493  29.753  1.00  0.00    -0.200 F 
ATOM     69  F   UNL A   1      35.141  32.253  32.444  1.00  0.00    -0.200 F 
ENDBRANCH  45  59
BRANCH  46  70
ATOM     70  C   UNL A   1      46.917  27.628  26.037  1.00  0.00     0.064 A 
ATOM     71  C   UNL A   1      47.995  27.096  26.757  1.00  0.00     0.173 A 
ATOM     72  C   UNL A   1      47.037  27.696  24.641  1.00  0.00     0.173 A 
ATOM     73  F   UNL A   1      47.937  27.027  28.095  1.00  0.00    -0.203 F 
ATOM     74  C   UNL A   1      49.154  26.672  26.110  1.00  0.00     0.198 A 
ATOM     75  C   UNL A   1      48.183  27.243  23.992  1.00  0.00     0.198 A 
ATOM     76  F   UNL A   1      46.034  28.195  23.903  1.00  0.00    -0.203 F 
ATOM     77  F   UNL A   1      50.189  26.214  26.828  1.00  0.00    -0.200 F 
ATOM     78  C   UNL A   1      49.245  26.740  24.728  1.00  0.00     0.200 A 
ATOM     79  F   UNL A   1      48.260  27.296  22.656  1.00  0.00    -0.200 F 
ATOM     80  F   UNL A   1      50.359  26.330  24.107  1.00  0.00    -0.200 F 
ENDBRANCH  46  70
BRANCH  58  81
ATOM     81  C   UNL A   1      45.219  33.658  29.095  1.00  0.00     0.064 A 
ATOM     82  C   UNL A   1      45.164  34.727  28.190  1.00  0.00     0.173 A 
ATOM     83  C   UNL A   1      46.008  33.813  30.247  1.00  0.00     0.173 A 
ATOM     84  F   UNL A   1      44.435  34.625  27.068  1.00  0.00    -0.203 F 
ATOM     85  C   UNL A   1      45.904  35.886  28.407  1.00  0.00     0.198 A 
ATOM     86  C   UNL A   1      46.714  34.988  30.480  1.00  0.00     0.198 A 
ATOM     87  F   UNL A   1      46.086  32.826  31.153  1.00  0.00    -0.203 F 
ATOM     88  F   UNL A   1      45.891  36.867  27.493  1.00  0.00    -0.200 F 
ATOM     89  C   UNL A   1      46.673  36.019  29.553  1.00  0.00     0.200 A 
ATOM     90  F   UNL A   1      47.440  35.122  31.599  1.00  0.00    -0.200 F 
ATOM     91  F   UNL A   1      47.382  37.136  29.762  1.00  0.00    -0.200 F 
ENDBRANCH  58  81
ENDBRANCH  32  33
ENDBRANCH  25  27
ENDBRANCH  24  25
ENDBRANCH  23  24
ENDBRANCH  22  23
ENDBRANCH  21  22
ENDBRANCH   1  21
TORSDOF 17
ENDMDL
MODEL 2
REMARK VINA RESULT:     -11.5      4.557      9.925
REMARK SMILES O=C(C[C@H]1CN(c2nc(C3CC3)ns2)CCO1)OCCOCCOC(=O)c1ccc(-c2c3nc(c(-c4c(F)c(F)c(F)c(F)c4F)c4ccc([nH]4)c(-c4c(F)c(F)c(F)c(F)c4F)c4nc(c(-c5c(F)c(F)c(F)c(F)c5F)c5ccc2[nH]5)C=C4)C=C3)cc1
REMARK SMILES IDX 20 1 19 2 18 3 2 4 1 5 3 6 4 7 5 8 17 9 6 10 16 11 15 12
REMARK SMILES IDX 7 13 8 14 14 15 9 16 13 17 10 18 11 19 12 20 21 21 22 22
REMARK SMILES IDX 23 23 24 24 25 25 26 26 27 27 28 28 89 29 29 30 88 31 30 32
REMARK SMILES IDX 31 33 32 34 82 35 33 36 87 37 81 38 83 39 34 40 86 41 80 42
REMARK SMILES IDX 79 43 35 45 67 46 47 47 66 48 48 49 51 50 65 51 84 52 49 53
REMARK SMILES IDX 50 54 64 56 85 57 52 58 36 59 37 60 45 61 38 62 39 63 43 64
REMARK SMILES IDX 46 65 40 66 41 67 44 68 42 69 68 70 69 71 77 72 70 73 71 74
REMARK SMILES IDX 75 75 78 76 72 77 73 78 76 79 74 80 53 81 54 82 62 83 55 84
REMARK SMILES IDX 56 85 60 86 63 87 57 88 58 89 61 90 59 91
REMARK H PARENT 83 44 51 55
REMARK Flexibility Score: inf
ROOT
ATOM      1  C   UNL A   1      30.850  27.269  24.849  1.00  0.00     0.202 C 
ENDROOT
BRANCH   1   2
ATOM      2  C   UNL A   1      31.344  25.828  24.906  1.00  0.00     0.261 C 
BRANCH   2   3
ATOM      3  O   UNL A   1      30.904  25.125  26.070  1.00  0.00    -0.463 OA
BRANCH   3   4
ATOM      4  C   UNL A   1      31.381  23.936  26.485  1.00  0.00     0.308 C 
ATOM      5  O   UNL A   1      30.998  23.485  27.567  1.00  0.00    -0.252 OA
BRANCH   4   6
ATOM      6  C   UNL A   1      32.464  23.227  25.713  1.00  0.00     0.156 C 
BRANCH   6   7
ATOM      7  C   UNL A   1      33.872  23.269  26.291  1.00  0.00     0.148 C 
ATOM      8  C   UNL A   1      34.459  21.859  26.439  1.00  0.00     0.151 C 
ATOM      9  O   UNL A   1      34.758  24.115  25.542  1.00  0.00    -0.374 OA
ATOM     10  N   UNL A   1      34.758  21.307  25.126  1.00  0.00    -0.342 N 
ATOM     11  C   UNL A   1      35.018  23.598  24.226  1.00  0.00     0.182 C 
ATOM     12  C   UNL A   1      35.568  22.156  24.252  1.00  0.00     0.147 C 
BRANCH  10  13
ATOM     13  C   UNL A   1      34.094  20.209  24.689  1.00  0.00     0.205 A 
ATOM     14  N   UNL A   1      34.546  18.972  24.754  1.00  0.00    -0.203 NA
ATOM     15  S   UNL A   1      32.570  20.265  23.868  1.00  0.00     0.004 S 
ATOM     16  C   UNL A   1      33.648  18.124  24.118  1.00  0.00     0.147 A 
ATOM     17  N   UNL A   1      32.569  18.637  23.524  1.00  0.00    -0.174 NA
BRANCH  16  18
ATOM     18  C   UNL A   1      33.855  16.608  24.076  1.00  0.00     0.059 C 
ATOM     19  C   UNL A   1      34.794  15.930  25.051  1.00  0.00     0.012 C 
ATOM     20  C   UNL A   1      33.320  15.775  25.221  1.00  0.00     0.012 C 
ENDBRANCH  16  18
ENDBRANCH  10  13
ENDBRANCH   6   7
ENDBRANCH   4   6
ENDBRANCH   3   4
ENDBRANCH   2   3
ENDBRANCH   1   2
BRANCH   1  21
ATOM     21  O   UNL A   1      31.538  28.255  25.611  1.00  0.00    -0.374 OA
BRANCH  21  22
ATOM     22  C   UNL A   1      31.486  29.614  25.150  1.00  0.00     0.202 C 
BRANCH  22  23
ATOM     23  C   UNL A   1      31.707  30.735  26.166  1.00  0.00     0.261 C 
BRANCH  23  24
ATOM     24  O   UNL A   1      32.832  30.464  27.011  1.00  0.00    -0.460 OA
BRANCH  24  25
ATOM     25  C   UNL A   1      33.495  31.566  27.421  1.00  0.00     0.338 C 
ATOM     26  O   UNL A   1      33.023  32.669  27.667  1.00  0.00    -0.246 OA
BRANCH  25  27
ATOM     27  C   UNL A   1      34.877  31.201  27.778  1.00  0.00     0.060 A 
ATOM     28  C   UNL A   1      35.159  29.835  27.912  1.00  0.00     0.016 A 
ATOM     29  C   UNL A   1      35.860  32.166  28.011  1.00  0.00     0.016 A 
ATOM     30  C   UNL A   1      36.391  29.429  28.397  1.00  0.00     0.010 A 
ATOM     31  C   UNL A   1      37.097  31.758  28.510  1.00  0.00     0.010 A 
ATOM     32  C   UNL A   1      37.330  30.397  28.772  1.00  0.00    -0.014 A 
BRANCH  32  33
ATOM     33  C   UNL A   1      38.413  29.991  29.691  1.00  0.00     0.031 A 
ATOM     34  C   UNL A   1      39.450  29.034  29.171  1.00  0.00     0.074 A 
ATOM     35  C   UNL A   1      38.512  30.530  30.915  1.00  0.00     0.049 A 
ATOM     36  N   UNL A   1      40.506  28.546  29.767  1.00  0.00    -0.248 NA
ATOM     37  C   UNL A   1      39.269  28.557  27.788  1.00  0.00     0.031 C 
ATOM     38  C   UNL A   1      37.588  31.509  31.483  1.00  0.00     0.029 A 
ATOM     39  N   UNL A   1      39.446  30.331  31.896  1.00  0.00    -0.354 N 
ATOM     40  C   UNL A   1      41.100  27.698  28.840  1.00  0.00     0.074 A 
ATOM     41  C   UNL A   1      40.273  27.708  27.656  1.00  0.00     0.031 C 
ATOM     42  C   UNL A   1      38.006  31.831  32.720  1.00  0.00     0.029 A 
ATOM     43  C   UNL A   1      39.203  31.055  33.035  1.00  0.00     0.049 A 
ATOM     44  H   UNL A   1      40.217  29.728  31.793  1.00  0.00     0.167 HD
ATOM     45  C   UNL A   1      42.242  26.983  28.966  1.00  0.00     0.037 A 
ATOM     46  C   UNL A   1      39.876  31.072  34.200  1.00  0.00     0.037 A 
ATOM     47  C   UNL A   1      43.059  26.993  30.150  1.00  0.00     0.049 A 
ATOM     48  C   UNL A   1      41.110  30.218  34.337  1.00  0.00     0.074 A 
ATOM     49  C   UNL A   1      44.248  26.327  30.386  1.00  0.00     0.029 A 
ATOM     50  N   UNL A   1      42.760  27.706  31.304  1.00  0.00    -0.354 N 
ATOM     51  N   UNL A   1      41.683  29.436  33.451  1.00  0.00    -0.248 NA
ATOM     52  C   UNL A   1      41.796  30.257  35.634  1.00  0.00     0.031 C 
ATOM     53  C   UNL A   1      44.634  26.586  31.705  1.00  0.00     0.029 A 
ATOM     54  C   UNL A   1      43.727  27.471  32.267  1.00  0.00     0.049 A 
ATOM     55  H   UNL A   1      41.977  28.291  31.419  1.00  0.00     0.167 HD
ATOM     56  C   UNL A   1      42.816  28.923  34.069  1.00  0.00     0.074 A 
ATOM     57  C   UNL A   1      42.853  29.493  35.401  1.00  0.00     0.031 C 
ATOM     58  C   UNL A   1      43.745  28.061  33.582  1.00  0.00     0.037 A 
BRANCH  45  59
ATOM     59  C   UNL A   1      42.643  26.100  27.818  1.00  0.00     0.064 A 
ATOM     60  C   UNL A   1      42.138  24.799  27.664  1.00  0.00     0.173 A 
ATOM     61  C   UNL A   1      43.541  26.570  26.849  1.00  0.00     0.173 A 
ATOM     62  F   UNL A   1      41.290  24.291  28.571  1.00  0.00    -0.203 F 
ATOM     63  C   UNL A   1      42.541  23.995  26.601  1.00  0.00     0.198 A 
ATOM     64  C   UNL A   1      43.915  25.776  25.768  1.00  0.00     0.198 A 
ATOM     65  F   UNL A   1      44.057  27.805  26.946  1.00  0.00    -0.203 F 
ATOM     66  F   UNL A   1      42.091  22.736  26.506  1.00  0.00    -0.200 F 
ATOM     67  C   UNL A   1      43.423  24.486  25.649  1.00  0.00     0.200 A 
ATOM     68  F   UNL A   1      44.758  26.259  24.845  1.00  0.00    -0.200 F 
ATOM     69  F   UNL A   1      43.806  23.713  24.624  1.00  0.00    -0.200 F 
ENDBRANCH  45  59
BRANCH  46  70
ATOM     70  C   UNL A   1      39.405  31.928  35.319  1.00  0.00     0.064 A 
ATOM     71  C   UNL A   1      38.543  31.422  36.302  1.00  0.00     0.173 A 
ATOM     72  C   UNL A   1      39.797  33.271  35.424  1.00  0.00     0.173 A 
ATOM     73  F   UNL A   1      38.124  30.150  36.235  1.00  0.00    -0.203 F 
ATOM     74  C   UNL A   1      38.072  32.234  37.333  1.00  0.00     0.198 A 
ATOM     75  C   UNL A   1      39.351  34.072  36.473  1.00  0.00     0.198 A 
ATOM     76  F   UNL A   1      40.623  33.804  34.512  1.00  0.00    -0.203 F 
ATOM     77  F   UNL A   1      37.209  31.738  38.229  1.00  0.00    -0.200 F 
ATOM     78  C   UNL A   1      38.481  33.556  37.421  1.00  0.00     0.200 A 
ATOM     79  F   UNL A   1      39.761  35.344  36.563  1.00  0.00    -0.200 F 
ATOM     80  F   UNL A   1      38.030  34.333  38.414  1.00  0.00    -0.200 F 
ENDBRANCH  46  70
BRANCH  58  81
ATOM     81  C   UNL A   1      44.907  27.731  34.476  1.00  0.00     0.064 A 
ATOM     82  C   UNL A   1      46.075  28.506  34.495  1.00  0.00     0.173 A 
ATOM     83  C   UNL A   1      44.836  26.629  35.345  1.00  0.00     0.173 A 
ATOM     84  F   UNL A   1      46.198  29.562  33.677  1.00  0.00    -0.203 F 
ATOM     85  C   UNL A   1      47.145  28.166  35.318  1.00  0.00     0.198 A 
ATOM     86  C   UNL A   1      45.892  26.316  36.194  1.00  0.00     0.198 A 
ATOM     87  F   UNL A   1      43.736  25.861  35.376  1.00  0.00    -0.203 F 
ATOM     88  F   UNL A   1      48.278  28.881  35.269  1.00  0.00    -0.200 F 
ATOM     89  C   UNL A   1      47.052  27.076  36.171  1.00  0.00     0.200 A 
ATOM     90  F   UNL A   1      45.790  25.275  37.032  1.00  0.00    -0.200 F 
ATOM     91  F   UNL A   1      48.081  26.753  36.964  1.00  0.00    -0.200 F 
ENDBRANCH  58  81
ENDBRANCH  32  33
ENDBRANCH  25  27
ENDBRANCH  24  25
ENDBRANCH  23  24
ENDBRANCH  22  23
ENDBRANCH  21  22
ENDBRANCH   1  21
TORSDOF 17
ENDMDL
MODEL 3
REMARK VINA RESULT:     -11.4      5.641      9.515
REMARK SMILES O=C(C[C@H]1CN(c2nc(C3CC3)ns2)CCO1)OCCOCCOC(=O)c1ccc(-c2c3nc(c(-c4c(F)c(F)c(F)c(F)c4F)c4ccc([nH]4)c(-c4c(F)c(F)c(F)c(F)c4F)c4nc(c(-c5c(F)c(F)c(F)c(F)c5F)c5ccc2[nH]5)C=C4)C=C3)cc1
REMARK SMILES IDX 20 1 19 2 18 3 2 4 1 5 3 6 4 7 5 8 17 9 6 10 16 11 15 12
REMARK SMILES IDX 7 13 8 14 14 15 9 16 13 17 10 18 11 19 12 20 21 21 22 22
REMARK SMILES IDX 23 23 24 24 25 25 26 26 27 27 28 28 89 29 29 30 88 31 30 32
REMARK SMILES IDX 31 33 32 34 82 35 33 36 87 37 81 38 83 39 34 40 86 41 80 42
REMARK SMILES IDX 79 43 35 45 67 46 47 47 66 48 48 49 51 50 65 51 84 52 49 53
REMARK SMILES IDX 50 54 64 56 85 57 52 58 36 59 37 60 45 61 38 62 39 63 43 64
REMARK SMILES IDX 46 65 40 66 41 67 44 68 42 69 68 70 69 71 77 72 70 73 71 74
REMARK SMILES IDX 75 75 78 76 72 77 73 78 76 79 74 80 53 81 54 82 62 83 55 84
REMARK SMILES IDX 56 85 60 86 63 87 57 88 58 89 61 90 59 91
REMARK H PARENT 83 44 51 55
REMARK Flexibility Score: inf
ROOT
ATOM      1  C   UNL A   1      33.381  35.812  30.657  1.00  0.00     0.202 C 
ENDROOT
BRANCH   1   2
ATOM      2  C   UNL A   1      33.451  35.675  32.174  1.00  0.00     0.261 C 
BRANCH   2   3
ATOM      3  O   UNL A   1      34.577  34.916  32.622  1.00  0.00    -0.463 OA
BRANCH   3   4
ATOM      4  C   UNL A   1      34.561  33.602  32.916  1.00  0.00     0.308 C 
ATOM      5  O   UNL A   1      33.494  32.989  32.841  1.00  0.00    -0.252 OA
BRANCH   4   6
ATOM      6  C   UNL A   1      35.789  32.917  33.457  1.00  0.00     0.156 C 
BRANCH   6   7
ATOM      7  C   UNL A   1      36.524  33.605  34.598  1.00  0.00     0.148 C 
ATOM      8  C   UNL A   1      37.488  32.643  35.305  1.00  0.00     0.151 C 
ATOM      9  O   UNL A   1      37.207  34.799  34.184  1.00  0.00    -0.374 OA
ATOM     10  N   UNL A   1      38.619  32.350  34.437  1.00  0.00    -0.342 N 
ATOM     11  C   UNL A   1      38.295  34.517  33.288  1.00  0.00     0.182 C 
ATOM     12  C   UNL A   1      39.308  33.514  33.880  1.00  0.00     0.147 C 
BRANCH  10  13
ATOM     13  C   UNL A   1      38.817  31.084  33.992  1.00  0.00     0.205 A 
ATOM     14  N   UNL A   1      39.988  30.482  33.912  1.00  0.00    -0.203 NA
ATOM     15  S   UNL A   1      37.562  30.080  33.349  1.00  0.00     0.004 S 
ATOM     16  C   UNL A   1      39.820  29.238  33.314  1.00  0.00     0.147 A 
ATOM     17  N   UNL A   1      38.612  28.875  32.882  1.00  0.00    -0.174 NA
BRANCH  16  18
ATOM     18  C   UNL A   1      40.986  28.264  33.133  1.00  0.00     0.059 C 
ATOM     19  C   UNL A   1      42.372  28.617  33.629  1.00  0.00     0.012 C 
ATOM     20  C   UNL A   1      41.567  27.598  34.363  1.00  0.00     0.012 C 
ENDBRANCH  16  18
ENDBRANCH  10  13
ENDBRANCH   6   7
ENDBRANCH   4   6
ENDBRANCH   3   4
ENDBRANCH   2   3
ENDBRANCH   1   2
BRANCH   1  21
ATOM     21  O   UNL A   1      32.810  34.748  29.902  1.00  0.00    -0.374 OA
BRANCH  21  22
ATOM     22  C   UNL A   1      33.616  34.148  28.877  1.00  0.00     0.202 C 
BRANCH  22  23
ATOM     23  C   UNL A   1      34.922  33.465  29.287  1.00  0.00     0.261 C 
BRANCH  23  24
ATOM     24  O   UNL A   1      34.706  32.095  29.650  1.00  0.00    -0.460 OA
BRANCH  24  25
ATOM     25  C   UNL A   1      34.635  31.249  28.601  1.00  0.00     0.338 C 
ATOM     26  O   UNL A   1      33.802  31.246  27.703  1.00  0.00    -0.246 OA
BRANCH  25  27
ATOM     27  C   UNL A   1      35.867  30.444  28.538  1.00  0.00     0.060 A 
ATOM     28  C   UNL A   1      36.224  29.736  29.694  1.00  0.00     0.016 A 
ATOM     29  C   UNL A   1      36.671  30.410  27.396  1.00  0.00     0.016 A 
ATOM     30  C   UNL A   1      37.446  29.087  29.756  1.00  0.00     0.010 A 
ATOM     31  C   UNL A   1      37.906  29.767  27.462  1.00  0.00     0.010 A 
ATOM     32  C   UNL A   1      38.321  29.173  28.667  1.00  0.00    -0.014 A 
BRANCH  32  33
ATOM     33  C   UNL A   1      39.751  28.894  28.905  1.00  0.00     0.031 A 
ATOM     34  C   UNL A   1      40.541  29.905  29.690  1.00  0.00     0.074 A 
ATOM     35  C   UNL A   1      40.299  27.736  28.509  1.00  0.00     0.049 A 
ATOM     36  N   UNL A   1      41.797  29.884  30.051  1.00  0.00    -0.248 NA
ATOM     37  C   UNL A   1      39.814  31.111  30.126  1.00  0.00     0.031 C 
ATOM     38  C   UNL A   1      39.599  26.672  27.794  1.00  0.00     0.029 A 
ATOM     39  N   UNL A   1      41.575  27.263  28.662  1.00  0.00    -0.354 N 
ATOM     40  C   UNL A   1      42.010  31.073  30.737  1.00  0.00     0.074 A 
ATOM     41  C   UNL A   1      40.768  31.811  30.715  1.00  0.00     0.031 C 
ATOM     42  C   UNL A   1      40.458  25.661  27.572  1.00  0.00     0.029 A 
ATOM     43  C   UNL A   1      41.769  26.027  28.101  1.00  0.00     0.049 A 
ATOM     44  H   UNL A   1      42.283  27.762  29.130  1.00  0.00     0.167 HD
ATOM     45  C   UNL A   1      43.142  31.504  31.341  1.00  0.00     0.037 A 
ATOM     46  C   UNL A   1      42.892  25.289  28.020  1.00  0.00     0.037 A 
ATOM     47  C   UNL A   1      44.367  30.751  31.362  1.00  0.00     0.049 A 
ATOM     48  C   UNL A   1      44.155  25.821  28.646  1.00  0.00     0.074 A 
ATOM     49  C   UNL A   1      45.571  31.075  31.961  1.00  0.00     0.029 A 
ATOM     50  N   UNL A   1      44.542  29.519  30.745  1.00  0.00    -0.354 N 
ATOM     51  N   UNL A   1      44.348  26.933  29.316  1.00  0.00    -0.248 NA
ATOM     52  C   UNL A   1      45.356  24.986  28.514  1.00  0.00     0.031 C 
ATOM     53  C   UNL A   1      46.492  30.069  31.650  1.00  0.00     0.029 A 
ATOM     54  C   UNL A   1      45.844  29.083  30.923  1.00  0.00     0.049 A 
ATOM     55  H   UNL A   1      43.843  29.029  30.254  1.00  0.00     0.167 HD
ATOM     56  C   UNL A   1      45.677  26.914  29.717  1.00  0.00     0.074 A 
ATOM     57  C   UNL A   1      46.239  25.672  29.224  1.00  0.00     0.031 C 
ATOM     58  C   UNL A   1      46.373  27.836  30.430  1.00  0.00     0.037 A 
BRANCH  45  59
ATOM     59  C   UNL A   1      43.116  32.863  31.981  1.00  0.00     0.064 A 
ATOM     60  C   UNL A   1      43.242  34.044  31.233  1.00  0.00     0.173 A 
ATOM     61  C   UNL A   1      42.953  32.985  33.369  1.00  0.00     0.173 A 
ATOM     62  F   UNL A   1      43.421  33.987  29.904  1.00  0.00    -0.203 F 
ATOM     63  C   UNL A   1      43.236  35.291  31.854  1.00  0.00     0.198 A 
ATOM     64  C   UNL A   1      42.911  34.234  33.982  1.00  0.00     0.198 A 
ATOM     65  F   UNL A   1      42.829  31.890  34.135  1.00  0.00    -0.203 F 
ATOM     66  F   UNL A   1      43.416  36.402  31.126  1.00  0.00    -0.200 F 
ATOM     67  C   UNL A   1      43.062  35.386  33.226  1.00  0.00     0.200 A 
ATOM     68  F   UNL A   1      42.731  34.322  35.308  1.00  0.00    -0.200 F 
ATOM     69  F   UNL A   1      43.050  36.587  33.822  1.00  0.00    -0.200 F 
ENDBRANCH  45  59
BRANCH  46  70
ATOM     70  C   UNL A   1      42.869  23.974  27.332  1.00  0.00     0.064 A 
ATOM     71  C   UNL A   1      43.239  23.856  25.985  1.00  0.00     0.173 A 
ATOM     72  C   UNL A   1      42.466  22.808  28.000  1.00  0.00     0.173 A 
ATOM     73  F   UNL A   1      43.613  24.944  25.296  1.00  0.00    -0.203 F 
ATOM     74  C   UNL A   1      43.185  22.628  25.328  1.00  0.00     0.198 A 
ATOM     75  C   UNL A   1      42.443  21.575  27.351  1.00  0.00     0.198 A 
ATOM     76  F   UNL A   1      42.105  22.864  29.291  1.00  0.00    -0.203 F 
ATOM     77  F   UNL A   1      43.495  22.555  24.026  1.00  0.00    -0.200 F 
ATOM     78  C   UNL A   1      42.793  21.488  26.013  1.00  0.00     0.200 A 
ATOM     79  F   UNL A   1      42.078  20.474  28.022  1.00  0.00    -0.200 F 
ATOM     80  F   UNL A   1      42.743  20.308  25.381  1.00  0.00    -0.200 F 
ENDBRANCH  46  70
BRANCH  58  81
ATOM     81  C   UNL A   1      47.800  27.506  30.767  1.00  0.00     0.064 A 
ATOM     82  C   UNL A   1      48.868  27.904  29.950  1.00  0.00     0.173 A 
ATOM     83  C   UNL A   1      48.100  26.797  31.942  1.00  0.00     0.173 A 
ATOM     84  F   UNL A   1      48.635  28.573  28.810  1.00  0.00    -0.203 F 
ATOM     85  C   UNL A   1      50.180  27.568  30.275  1.00  0.00     0.198 A 
ATOM     86  C   UNL A   1      49.416  26.498  32.282  1.00  0.00     0.198 A 
ATOM     87  F   UNL A   1      47.117  26.403  32.765  1.00  0.00    -0.203 F 
ATOM     88  F   UNL A   1      51.179  27.899  29.444  1.00  0.00    -0.200 F 
ATOM     89  C   UNL A   1      50.454  26.871  31.442  1.00  0.00     0.200 A 
ATOM     90  F   UNL A   1      49.679  25.843  33.422  1.00  0.00    -0.200 F 
ATOM     91  F   UNL A   1      51.716  26.552  31.754  1.00  0.00    -0.200 F 
ENDBRANCH  58  81
ENDBRANCH  32  33
ENDBRANCH  25  27
ENDBRANCH  24  25
ENDBRANCH  23  24
ENDBRANCH  22  23
ENDBRANCH  21  22
ENDBRANCH   1  21
TORSDOF 17
ENDMDL
