MODEL 1
REMARK VINA RESULT:     -11.9      0.000      0.000
REMARK SMILES O=C(OCCOCCOC(=O)c1ccnc(-c2ccnc(COc3ccccc3)n2)c1)c1ccc(-c2c3nc(c(-c4c(F)c(F)c(F)c(F)c4F)c4ccc([nH]4)c(-c4c(F)c(F)c(F)c(F)c4F)c4nc(c(-c5c(F)c(F)c(F)c(F)c5F)c5ccc2[nH]5)C=C4)C=C3)cc1
REMARK SMILES IDX 7 1 6 2 5 3 4 4 3 5 2 6 1 7 32 8 33 9 94 10 34 11 93 12
REMARK SMILES IDX 35 13 36 14 37 15 87 16 38 17 92 18 86 19 88 20 39 21 91 22
REMARK SMILES IDX 85 23 84 24 40 26 72 27 52 28 71 29 53 30 56 31 70 32 89 33
REMARK SMILES IDX 54 34 55 35 69 37 90 38 57 39 41 40 42 41 50 42 43 43 44 44
REMARK SMILES IDX 48 45 51 46 45 47 46 48 49 49 47 50 73 51 74 52 82 53 75 54
REMARK SMILES IDX 76 55 80 56 83 57 77 58 78 59 81 60 79 61 58 62 59 63 67 64
REMARK SMILES IDX 60 65 61 66 65 67 68 68 62 69 63 70 66 71 64 72 8 73 9 74
REMARK SMILES IDX 10 75 11 76 12 77 13 78 31 79 14 80 16 81 15 82 17 83 18 84
REMARK SMILES IDX 30 85 19 86 21 87 20 88 22 89 23 90 24 91 25 92 29 93 26 94
REMARK SMILES IDX 28 95 27 96
REMARK H PARENT 88 25 56 36
REMARK Flexibility Score: inf
ROOT
ATOM      1  C   UNL A   1      33.570  29.467  26.854  1.00  0.00     0.202 C 
ENDROOT
BRANCH   1   2
ATOM      2  O   UNL A   1      33.146  30.755  26.388  1.00  0.00    -0.374 OA
BRANCH   2   3
ATOM      3  C   UNL A   1      31.768  31.061  26.607  1.00  0.00     0.202 C 
BRANCH   3   4
ATOM      4  C   UNL A   1      31.480  32.554  26.806  1.00  0.00     0.261 C 
BRANCH   4   5
ATOM      5  O   UNL A   1      32.706  33.292  26.935  1.00  0.00    -0.460 OA
BRANCH   5   6
ATOM      6  C   UNL A   1      33.356  33.674  28.060  1.00  0.00     0.338 C 
ATOM      7  O   UNL A   1      32.923  34.641  28.685  1.00  0.00    -0.246 OA
BRANCH   6   8
ATOM      8  C   UNL A   1      34.562  32.979  28.607  1.00  0.00     0.060 A 
ATOM      9  C   UNL A   1      34.543  31.810  29.366  1.00  0.00     0.016 A 
ATOM     10  C   UNL A   1      35.818  33.515  28.265  1.00  0.00     0.016 A 
ATOM     11  C   UNL A   1      35.709  31.236  29.847  1.00  0.00     0.010 A 
ATOM     12  C   UNL A   1      37.004  32.918  28.705  1.00  0.00     0.010 A 
ATOM     13  C   UNL A   1      36.945  31.789  29.527  1.00  0.00    -0.014 A 
BRANCH  13  14
ATOM     14  C   UNL A   1      38.131  31.215  30.184  1.00  0.00     0.031 A 
ATOM     15  C   UNL A   1      38.353  31.519  31.634  1.00  0.00     0.074 A 
ATOM     16  C   UNL A   1      38.870  30.301  29.532  1.00  0.00     0.049 A 
ATOM     17  N   UNL A   1      39.275  31.073  32.444  1.00  0.00    -0.248 NA
ATOM     18  C   UNL A   1      37.388  32.435  32.265  1.00  0.00     0.031 C 
ATOM     19  C   UNL A   1      38.636  29.860  28.155  1.00  0.00     0.029 A 
ATOM     20  N   UNL A   1      39.929  29.540  29.951  1.00  0.00    -0.354 N 
ATOM     21  C   UNL A   1      39.015  31.671  33.670  1.00  0.00     0.074 A 
ATOM     22  C   UNL A   1      37.854  32.514  33.501  1.00  0.00     0.031 C 
ATOM     23  C   UNL A   1      39.500  28.877  27.856  1.00  0.00     0.029 A 
ATOM     24  C   UNL A   1      40.383  28.662  28.998  1.00  0.00     0.049 A 
ATOM     25  H   UNL A   1      40.325  29.616  30.848  1.00  0.00     0.167 HD
ATOM     26  C   UNL A   1      39.697  31.527  34.829  1.00  0.00     0.037 A 
ATOM     27  C   UNL A   1      41.412  27.796  29.050  1.00  0.00     0.037 A 
ATOM     28  C   UNL A   1      40.850  30.678  34.966  1.00  0.00     0.049 A 
ATOM     29  C   UNL A   1      42.205  27.720  30.326  1.00  0.00     0.074 A 
ATOM     30  C   UNL A   1      41.667  30.493  36.065  1.00  0.00     0.029 A 
ATOM     31  N   UNL A   1      41.347  29.867  33.952  1.00  0.00    -0.354 N 
ATOM     32  N   UNL A   1      41.994  28.331  31.468  1.00  0.00    -0.248 NA
ATOM     33  C   UNL A   1      43.384  26.847  30.320  1.00  0.00     0.031 C 
ATOM     34  C   UNL A   1      42.686  29.605  35.700  1.00  0.00     0.029 A 
ATOM     35  C   UNL A   1      42.473  29.194  34.393  1.00  0.00     0.049 A 
ATOM     36  H   UNL A   1      40.955  29.785  33.052  1.00  0.00     0.167 HD
ATOM     37  C   UNL A   1      42.998  27.904  32.324  1.00  0.00     0.074 A 
ATOM     38  C   UNL A   1      43.807  26.963  31.572  1.00  0.00     0.031 C 
ATOM     39  C   UNL A   1      43.239  28.256  33.612  1.00  0.00     0.037 A 
BRANCH  26  40
ATOM     40  C   UNL A   1      39.254  32.367  35.989  1.00  0.00     0.064 A 
ATOM     41  C   UNL A   1      39.778  33.646  36.229  1.00  0.00     0.173 A 
ATOM     42  C   UNL A   1      38.322  31.858  36.906  1.00  0.00     0.173 A 
ATOM     43  F   UNL A   1      40.697  34.166  35.402  1.00  0.00    -0.203 F 
ATOM     44  C   UNL A   1      39.411  34.369  37.363  1.00  0.00     0.198 A 
ATOM     45  C   UNL A   1      37.936  32.595  38.023  1.00  0.00     0.198 A 
ATOM     46  F   UNL A   1      37.796  30.637  36.728  1.00  0.00    -0.203 F 
ATOM     47  F   UNL A   1      39.975  35.560  37.608  1.00  0.00    -0.200 F 
ATOM     48  C   UNL A   1      38.489  33.844  38.257  1.00  0.00     0.200 A 
ATOM     49  F   UNL A   1      37.043  32.085  38.883  1.00  0.00    -0.200 F 
ATOM     50  F   UNL A   1      38.147  34.534  39.353  1.00  0.00    -0.200 F 
ENDBRANCH  26  40
BRANCH  27  51
ATOM     51  C   UNL A   1      41.762  26.967  27.864  1.00  0.00     0.064 A 
ATOM     52  C   UNL A   1      41.213  25.691  27.677  1.00  0.00     0.173 A 
ATOM     53  C   UNL A   1      42.671  27.428  26.898  1.00  0.00     0.173 A 
ATOM     54  F   UNL A   1      40.357  25.191  28.581  1.00  0.00    -0.203 F 
ATOM     55  C   UNL A   1      41.571  24.903  26.583  1.00  0.00     0.198 A 
ATOM     56  C   UNL A   1      43.004  26.653  25.789  1.00  0.00     0.198 A 
ATOM     57  F   UNL A   1      43.232  28.639  27.027  1.00  0.00    -0.203 F 
ATOM     58  F   UNL A   1      41.069  23.667  26.456  1.00  0.00    -0.200 F 
ATOM     59  C   UNL A   1      42.462  25.388  25.637  1.00  0.00     0.200 A 
ATOM     60  F   UNL A   1      43.856  27.132  24.871  1.00  0.00    -0.200 F 
ATOM     61  F   UNL A   1      42.806  24.631  24.586  1.00  0.00    -0.200 F 
ENDBRANCH  27  51
BRANCH  39  62
ATOM     62  C   UNL A   1      44.398  27.588  34.288  1.00  0.00     0.064 A 
ATOM     63  C   UNL A   1      45.672  28.169  34.311  1.00  0.00     0.173 A 
ATOM     64  C   UNL A   1      44.214  26.367  34.955  1.00  0.00     0.173 A 
ATOM     65  F   UNL A   1      45.898  29.329  33.674  1.00  0.00    -0.203 F 
ATOM     66  C   UNL A   1      46.732  27.538  34.955  1.00  0.00     0.198 A 
ATOM     67  C   UNL A   1      45.269  25.754  35.625  1.00  0.00     0.198 A 
ATOM     68  F   UNL A   1      43.010  25.775  34.967  1.00  0.00    -0.203 F 
ATOM     69  F   UNL A   1      47.954  28.086  34.923  1.00  0.00    -0.200 F 
ATOM     70  C   UNL A   1      46.528  26.337  35.618  1.00  0.00     0.200 A 
ATOM     71  F   UNL A   1      45.066  24.601  36.276  1.00  0.00    -0.200 F 
ATOM     72  F   UNL A   1      47.548  25.733  36.243  1.00  0.00    -0.200 F 
ENDBRANCH  39  62
ENDBRANCH  13  14
ENDBRANCH   6   8
ENDBRANCH   5   6
ENDBRANCH   4   5
ENDBRANCH   3   4
ENDBRANCH   2   3
ENDBRANCH   1   2
BRANCH   1  73
ATOM     73  C   UNL A   1      32.407  28.474  26.784  1.00  0.00     0.261 C 
BRANCH  73  74
ATOM     74  O   UNL A   1      32.690  27.503  25.765  1.00  0.00    -0.460 OA
BRANCH  74  75
ATOM     75  C   UNL A   1      32.133  27.762  24.554  1.00  0.00     0.338 C 
ATOM     76  O   UNL A   1      31.460  28.726  24.235  1.00  0.00    -0.246 OA
BRANCH  75  77
ATOM     77  C   UNL A   1      32.710  26.802  23.591  1.00  0.00     0.063 A 
ATOM     78  C   UNL A   1      32.487  26.925  22.221  1.00  0.00     0.036 A 
ATOM     79  C   UNL A   1      33.373  25.688  24.105  1.00  0.00     0.046 A 
ATOM     80  C   UNL A   1      32.898  25.886  21.415  1.00  0.00     0.112 A 
ATOM     81  C   UNL A   1      33.722  24.678  23.223  1.00  0.00     0.090 A 
ATOM     82  N   UNL A   1      33.470  24.759  21.888  1.00  0.00    -0.255 NA
BRANCH  81  83
ATOM     83  C   UNL A   1      34.342  23.433  23.675  1.00  0.00     0.092 A 
ATOM     84  C   UNL A   1      35.713  23.294  23.766  1.00  0.00     0.051 A 
ATOM     85  N   UNL A   1      33.486  22.481  24.099  1.00  0.00    -0.228 NA
ATOM     86  C   UNL A   1      36.164  22.122  24.322  1.00  0.00     0.115 A 
ATOM     87  C   UNL A   1      34.020  21.412  24.717  1.00  0.00     0.166 A 
ATOM     88  N   UNL A   1      35.346  21.173  24.809  1.00  0.00    -0.238 NA
BRANCH  87  89
ATOM     89  C   UNL A   1      33.091  20.549  25.544  1.00  0.00     0.306 C 
BRANCH  89  90
ATOM     90  O   UNL A   1      32.219  19.706  24.762  1.00  0.00    -0.486 OA
BRANCH  90  91
ATOM     91  C   UNL A   1      32.655  18.417  24.602  1.00  0.00     0.119 A 
ATOM     92  C   UNL A   1      32.640  17.602  25.732  1.00  0.00     0.046 A 
ATOM     93  C   UNL A   1      33.219  17.936  23.419  1.00  0.00     0.046 A 
ATOM     94  C   UNL A   1      33.137  16.298  25.666  1.00  0.00     0.004 A 
ATOM     95  C   UNL A   1      33.706  16.630  23.346  1.00  0.00     0.004 A 
ATOM     96  C   UNL A   1      33.661  15.809  24.469  1.00  0.00     0.000 A 
ENDBRANCH  90  91
ENDBRANCH  89  90
ENDBRANCH  87  89
ENDBRANCH  81  83
ENDBRANCH  75  77
ENDBRANCH  74  75
ENDBRANCH  73  74
ENDBRANCH   1  73
TORSDOF 18
ENDMDL
MODEL 2
REMARK VINA RESULT:     -11.9      3.529      8.578
REMARK SMILES O=C(OCCOCCOC(=O)c1ccnc(-c2ccnc(COc3ccccc3)n2)c1)c1ccc(-c2c3nc(c(-c4c(F)c(F)c(F)c(F)c4F)c4ccc([nH]4)c(-c4c(F)c(F)c(F)c(F)c4F)c4nc(c(-c5c(F)c(F)c(F)c(F)c5F)c5ccc2[nH]5)C=C4)C=C3)cc1
REMARK SMILES IDX 7 1 6 2 5 3 4 4 3 5 2 6 1 7 32 8 33 9 94 10 34 11 93 12
REMARK SMILES IDX 35 13 36 14 37 15 87 16 38 17 92 18 86 19 88 20 39 21 91 22
REMARK SMILES IDX 85 23 84 24 40 26 72 27 52 28 71 29 53 30 56 31 70 32 89 33
REMARK SMILES IDX 54 34 55 35 69 37 90 38 57 39 41 40 42 41 50 42 43 43 44 44
REMARK SMILES IDX 48 45 51 46 45 47 46 48 49 49 47 50 73 51 74 52 82 53 75 54
REMARK SMILES IDX 76 55 80 56 83 57 77 58 78 59 81 60 79 61 58 62 59 63 67 64
REMARK SMILES IDX 60 65 61 66 65 67 68 68 62 69 63 70 66 71 64 72 8 73 9 74
REMARK SMILES IDX 10 75 11 76 12 77 13 78 31 79 14 80 16 81 15 82 17 83 18 84
REMARK SMILES IDX 30 85 19 86 21 87 20 88 22 89 23 90 24 91 25 92 29 93 26 94
REMARK SMILES IDX 28 95 27 96
REMARK H PARENT 88 25 56 36
REMARK Flexibility Score: inf
ROOT
ATOM      1  C   UNL A   1      42.276  20.262  26.726  1.00  0.00     0.202 C 
ENDROOT
BRANCH   1   2
ATOM      2  O   UNL A   1      42.750  21.327  25.892  1.00  0.00    -0.374 OA
BRANCH   2   3
ATOM      3  C   UNL A   1      43.913  21.027  25.118  1.00  0.00     0.202 C 
BRANCH   3   4
ATOM      4  C   UNL A   1      44.471  22.221  24.335  1.00  0.00     0.261 C 
BRANCH   4   5
ATOM      5  O   UNL A   1      43.742  23.419  24.651  1.00  0.00    -0.460 OA
BRANCH   5   6
ATOM      6  C   UNL A   1      44.211  24.609  25.093  1.00  0.00     0.338 C 
ATOM      7  O   UNL A   1      45.222  25.071  24.566  1.00  0.00    -0.246 OA
BRANCH   6   8
ATOM      8  C   UNL A   1      43.565  25.415  26.175  1.00  0.00     0.060 A 
ATOM      9  C   UNL A   1      43.813  26.762  26.433  1.00  0.00     0.016 A 
ATOM     10  C   UNL A   1      42.575  24.774  26.944  1.00  0.00     0.016 A 
ATOM     11  C   UNL A   1      43.178  27.434  27.466  1.00  0.00     0.010 A 
ATOM     12  C   UNL A   1      41.894  25.454  27.959  1.00  0.00     0.010 A 
ATOM     13  C   UNL A   1      42.221  26.784  28.240  1.00  0.00    -0.014 A 
BRANCH  13  14
ATOM     14  C   UNL A   1      41.691  27.509  29.407  1.00  0.00     0.031 A 
ATOM     15  C   UNL A   1      42.497  27.505  30.669  1.00  0.00     0.074 A 
ATOM     16  C   UNL A   1      40.611  28.296  29.260  1.00  0.00     0.049 A 
ATOM     17  N   UNL A   1      42.279  28.128  31.795  1.00  0.00    -0.248 NA
ATOM     18  C   UNL A   1      43.735  26.706  30.651  1.00  0.00     0.031 C 
ATOM     19  C   UNL A   1      39.846  28.447  28.020  1.00  0.00     0.029 A 
ATOM     20  N   UNL A   1      40.001  29.153  30.135  1.00  0.00    -0.354 N 
ATOM     21  C   UNL A   1      43.336  27.779  32.625  1.00  0.00     0.074 A 
ATOM     22  C   UNL A   1      44.194  26.886  31.880  1.00  0.00     0.031 C 
ATOM     23  C   UNL A   1      38.893  29.376  28.204  1.00  0.00     0.029 A 
ATOM     24  C   UNL A   1      38.944  29.838  29.587  1.00  0.00     0.049 A 
ATOM     25  H   UNL A   1      40.293  29.268  31.069  1.00  0.00     0.167 HD
ATOM     26  C   UNL A   1      43.558  28.169  33.901  1.00  0.00     0.037 A 
ATOM     27  C   UNL A   1      38.108  30.725  30.156  1.00  0.00     0.037 A 
ATOM     28  C   UNL A   1      42.684  29.059  34.618  1.00  0.00     0.049 A 
ATOM     29  C   UNL A   1      38.330  31.074  31.603  1.00  0.00     0.074 A 
ATOM     30  C   UNL A   1      42.762  29.481  35.931  1.00  0.00     0.029 A 
ATOM     31  N   UNL A   1      41.564  29.666  34.063  1.00  0.00    -0.354 N 
ATOM     32  N   UNL A   1      39.297  30.696  32.406  1.00  0.00    -0.248 NA
ATOM     33  C   UNL A   1      37.342  31.961  32.227  1.00  0.00     0.031 C 
ATOM     34  C   UNL A   1      41.660  30.307  36.184  1.00  0.00     0.029 A 
ATOM     35  C   UNL A   1      40.927  30.444  35.014  1.00  0.00     0.049 A 
ATOM     36  H   UNL A   1      41.266  29.557  33.130  1.00  0.00     0.167 HD
ATOM     37  C   UNL A   1      39.048  31.313  33.623  1.00  0.00     0.074 A 
ATOM     38  C   UNL A   1      37.848  32.107  33.444  1.00  0.00     0.031 C 
ATOM     39  C   UNL A   1      39.741  31.230  34.786  1.00  0.00     0.037 A 
BRANCH  26  40
ATOM     40  C   UNL A   1      44.736  27.563  34.603  1.00  0.00     0.064 A 
ATOM     41  C   UNL A   1      44.666  26.317  35.244  1.00  0.00     0.173 A 
ATOM     42  C   UNL A   1      45.946  28.270  34.677  1.00  0.00     0.173 A 
ATOM     43  F   UNL A   1      43.523  25.615  35.232  1.00  0.00    -0.203 F 
ATOM     44  C   UNL A   1      45.751  25.818  35.962  1.00  0.00     0.198 A 
ATOM     45  C   UNL A   1      47.038  27.756  35.371  1.00  0.00     0.198 A 
ATOM     46  F   UNL A   1      46.064  29.470  34.089  1.00  0.00    -0.203 F 
ATOM     47  F   UNL A   1      45.640  24.658  36.624  1.00  0.00    -0.200 F 
ATOM     48  C   UNL A   1      46.936  26.537  36.023  1.00  0.00     0.200 A 
ATOM     49  F   UNL A   1      48.182  28.452  35.427  1.00  0.00    -0.200 F 
ATOM     50  F   UNL A   1      47.976  26.063  36.724  1.00  0.00    -0.200 F 
ENDBRANCH  26  40
BRANCH  27  51
ATOM     51  C   UNL A   1      36.984  31.311  29.376  1.00  0.00     0.064 A 
ATOM     52  C   UNL A   1      36.973  32.666  29.016  1.00  0.00     0.173 A 
ATOM     53  C   UNL A   1      35.883  30.530  28.988  1.00  0.00     0.173 A 
ATOM     54  F   UNL A   1      37.989  33.464  29.381  1.00  0.00    -0.203 F 
ATOM     55  C   UNL A   1      35.902  33.219  28.316  1.00  0.00     0.198 A 
ATOM     56  C   UNL A   1      34.828  31.076  28.261  1.00  0.00     0.198 A 
ATOM     57  F   UNL A   1      35.837  29.229  29.308  1.00  0.00    -0.203 F 
ATOM     58  F   UNL A   1      35.894  34.528  28.029  1.00  0.00    -0.200 F 
ATOM     59  C   UNL A   1      34.833  32.423  27.934  1.00  0.00     0.200 A 
ATOM     60  F   UNL A   1      33.804  30.299  27.883  1.00  0.00    -0.200 F 
ATOM     61  F   UNL A   1      33.803  32.954  27.261  1.00  0.00    -0.200 F 
ENDBRANCH  27  51
BRANCH  39  62
ATOM     62  C   UNL A   1      39.233  32.051  35.933  1.00  0.00     0.064 A 
ATOM     63  C   UNL A   1      38.313  31.536  36.857  1.00  0.00     0.173 A 
ATOM     64  C   UNL A   1      39.707  33.357  36.128  1.00  0.00     0.173 A 
ATOM     65  F   UNL A   1      37.822  30.297  36.703  1.00  0.00    -0.203 F 
ATOM     66  C   UNL A   1      37.864  32.311  37.922  1.00  0.00     0.198 A 
ATOM     67  C   UNL A   1      39.279  34.118  37.211  1.00  0.00     0.198 A 
ATOM     68  F   UNL A   1      40.593  33.890  35.273  1.00  0.00    -0.203 F 
ATOM     69  F   UNL A   1      36.947  31.818  38.766  1.00  0.00    -0.200 F 
ATOM     70  C   UNL A   1      38.352  33.596  38.103  1.00  0.00     0.200 A 
ATOM     71  F   UNL A   1      39.762  35.354  37.391  1.00  0.00    -0.200 F 
ATOM     72  F   UNL A   1      37.923  34.339  39.132  1.00  0.00    -0.200 F 
ENDBRANCH  39  62
ENDBRANCH  13  14
ENDBRANCH   6   8
ENDBRANCH   5   6
ENDBRANCH   4   5
ENDBRANCH   3   4
ENDBRANCH   2   3
ENDBRANCH   1   2
BRANCH   1  73
ATOM     73  C   UNL A   1      40.972  19.694  26.162  1.00  0.00     0.261 C 
BRANCH  73  74
ATOM     74  O   UNL A   1      39.957  20.707  26.238  1.00  0.00    -0.460 OA
BRANCH  74  75
ATOM     75  C   UNL A   1      38.864  20.485  25.464  1.00  0.00     0.338 C 
ATOM     76  O   UNL A   1      38.431  19.414  25.076  1.00  0.00    -0.246 OA
BRANCH  75  77
ATOM     77  C   UNL A   1      38.113  21.754  25.390  1.00  0.00     0.063 A 
ATOM     78  C   UNL A   1      38.482  22.862  26.151  1.00  0.00     0.036 A 
ATOM     79  C   UNL A   1      36.940  21.772  24.637  1.00  0.00     0.046 A 
ATOM     80  C   UNL A   1      37.621  23.937  26.168  1.00  0.00     0.112 A 
ATOM     81  C   UNL A   1      36.120  22.883  24.740  1.00  0.00     0.090 A 
ATOM     82  N   UNL A   1      36.441  23.954  25.516  1.00  0.00    -0.255 NA
BRANCH  81  83
ATOM     83  C   UNL A   1      34.828  22.960  24.059  1.00  0.00     0.092 A 
ATOM     84  C   UNL A   1      34.526  23.986  23.186  1.00  0.00     0.051 A 
ATOM     85  N   UNL A   1      34.006  21.909  24.256  1.00  0.00    -0.228 NA
ATOM     86  C   UNL A   1      33.331  23.876  22.517  1.00  0.00     0.115 A 
ATOM     87  C   UNL A   1      32.906  21.842  23.484  1.00  0.00     0.166 A 
ATOM     88  N   UNL A   1      32.510  22.819  22.641  1.00  0.00    -0.238 NA
BRANCH  87  89
ATOM     89  C   UNL A   1      32.198  20.506  23.395  1.00  0.00     0.306 C 
BRANCH  89  90
ATOM     90  O   UNL A   1      32.110  19.802  24.652  1.00  0.00    -0.486 OA
BRANCH  90  91
ATOM     91  C   UNL A   1      32.671  18.552  24.653  1.00  0.00     0.119 A 
ATOM     92  C   UNL A   1      33.187  18.093  23.442  1.00  0.00     0.046 A 
ATOM     93  C   UNL A   1      32.632  17.691  25.751  1.00  0.00     0.046 A 
ATOM     94  C   UNL A   1      33.710  16.801  23.346  1.00  0.00     0.004 A 
ATOM     95  C   UNL A   1      33.163  16.403  25.661  1.00  0.00     0.004 A 
ATOM     96  C   UNL A   1      33.706  15.959  24.459  1.00  0.00     0.000 A 
ENDBRANCH  90  91
ENDBRANCH  89  90
ENDBRANCH  87  89
ENDBRANCH  81  83
ENDBRANCH  75  77
ENDBRANCH  74  75
ENDBRANCH  73  74
ENDBRANCH   1  73
TORSDOF 18
ENDMDL
MODEL 3
REMARK VINA RESULT:     -11.7      4.288     10.198
REMARK SMILES O=C(OCCOCCOC(=O)c1ccnc(-c2ccnc(COc3ccccc3)n2)c1)c1ccc(-c2c3nc(c(-c4c(F)c(F)c(F)c(F)c4F)c4ccc([nH]4)c(-c4c(F)c(F)c(F)c(F)c4F)c4nc(c(-c5c(F)c(F)c(F)c(F)c5F)c5ccc2[nH]5)C=C4)C=C3)cc1
REMARK SMILES IDX 7 1 6 2 5 3 4 4 3 5 2 6 1 7 32 8 33 9 94 10 34 11 93 12
REMARK SMILES IDX 35 13 36 14 37 15 87 16 38 17 92 18 86 19 88 20 39 21 91 22
REMARK SMILES IDX 85 23 84 24 40 26 72 27 52 28 71 29 53 30 56 31 70 32 89 33
REMARK SMILES IDX 54 34 55 35 69 37 90 38 57 39 41 40 42 41 50 42 43 43 44 44
REMARK SMILES IDX 48 45 51 46 45 47 46 48 49 49 47 50 73 51 74 52 82 53 75 54
REMARK SMILES IDX 76 55 80 56 83 57 77 58 78 59 81 60 79 61 58 62 59 63 67 64
REMARK SMILES IDX 60 65 61 66 65 67 68 68 62 69 63 70 66 71 64 72 8 73 9 74
REMARK SMILES IDX 10 75 11 76 12 77 13 78 31 79 14 80 16 81 15 82 17 83 18 84
REMARK SMILES IDX 30 85 19 86 21 87 20 88 22 89 23 90 24 91 25 92 29 93 26 94
REMARK SMILES IDX 28 95 27 96
REMARK H PARENT 88 25 56 36
REMARK Flexibility Score: inf
ROOT
ATOM      1  C   UNL A   1      34.261  22.996  26.714  1.00  0.00     0.202 C 
ENDROOT
BRANCH   1   2
ATOM      2  O   UNL A   1      34.814  22.402  25.533  1.00  0.00    -0.374 OA
BRANCH   2   3
ATOM      3  C   UNL A   1      35.276  21.059  25.682  1.00  0.00     0.202 C 
BRANCH   3   4
ATOM      4  C   UNL A   1      36.698  20.822  25.160  1.00  0.00     0.261 C 
BRANCH   4   5
ATOM      5  O   UNL A   1      37.535  21.955  25.441  1.00  0.00    -0.460 OA
BRANCH   5   6
ATOM      6  C   UNL A   1      38.731  21.994  26.076  1.00  0.00     0.338 C 
ATOM      7  O   UNL A   1      39.360  20.945  26.201  1.00  0.00    -0.246 OA
BRANCH   6   8
ATOM      8  C   UNL A   1      39.348  23.242  26.622  1.00  0.00     0.060 A 
ATOM      9  C   UNL A   1      38.956  24.541  26.303  1.00  0.00     0.016 A 
ATOM     10  C   UNL A   1      40.359  23.084  27.589  1.00  0.00     0.016 A 
ATOM     11  C   UNL A   1      39.592  25.647  26.845  1.00  0.00     0.010 A 
ATOM     12  C   UNL A   1      40.976  24.192  28.179  1.00  0.00     0.010 A 
ATOM     13  C   UNL A   1      40.609  25.480  27.780  1.00  0.00    -0.014 A 
BRANCH  13  14
ATOM     14  C   UNL A   1      41.335  26.688  28.208  1.00  0.00     0.031 A 
ATOM     15  C   UNL A   1      42.747  26.868  27.741  1.00  0.00     0.074 A 
ATOM     16  C   UNL A   1      40.669  27.670  28.840  1.00  0.00     0.049 A 
ATOM     17  N   UNL A   1      43.559  27.874  27.921  1.00  0.00    -0.248 NA
ATOM     18  C   UNL A   1      43.315  25.770  26.940  1.00  0.00     0.031 C 
ATOM     19  C   UNL A   1      39.254  27.616  29.217  1.00  0.00     0.029 A 
ATOM     20  N   UNL A   1      41.071  28.919  29.229  1.00  0.00    -0.354 N 
ATOM     21  C   UNL A   1      44.738  27.522  27.278  1.00  0.00     0.074 A 
ATOM     22  C   UNL A   1      44.542  26.209  26.706  1.00  0.00     0.031 C 
ATOM     23  C   UNL A   1      38.896  28.797  29.746  1.00  0.00     0.029 A 
ATOM     24  C   UNL A   1      40.068  29.665  29.799  1.00  0.00     0.049 A 
ATOM     25  H   UNL A   1      41.990  29.251  29.111  1.00  0.00     0.167 HD
ATOM     26  C   UNL A   1      45.882  28.237  27.184  1.00  0.00     0.037 A 
ATOM     27  C   UNL A   1      40.110  30.906  30.317  1.00  0.00     0.037 A 
ATOM     28  C   UNL A   1      46.047  29.542  27.764  1.00  0.00     0.049 A 
ATOM     29  C   UNL A   1      41.421  31.643  30.274  1.00  0.00     0.074 A 
ATOM     30  C   UNL A   1      47.173  30.342  27.796  1.00  0.00     0.029 A 
ATOM     31  N   UNL A   1      45.038  30.237  28.421  1.00  0.00    -0.354 N 
ATOM     32  N   UNL A   1      42.554  31.284  29.717  1.00  0.00    -0.248 NA
ATOM     33  C   UNL A   1      41.466  32.950  30.940  1.00  0.00     0.031 C 
ATOM     34  C   UNL A   1      46.856  31.503  28.512  1.00  0.00     0.029 A 
ATOM     35  C   UNL A   1      45.520  31.450  28.879  1.00  0.00     0.049 A 
ATOM     36  H   UNL A   1      44.116  29.913  28.541  1.00  0.00     0.167 HD
ATOM     37  C   UNL A   1      43.441  32.325  29.945  1.00  0.00     0.074 A 
ATOM     38  C   UNL A   1      42.706  33.340  30.675  1.00  0.00     0.031 C 
ATOM     39  C   UNL A   1      44.746  32.436  29.591  1.00  0.00     0.037 A 
BRANCH  26  40
ATOM     40  C   UNL A   1      47.044  27.575  26.505  1.00  0.00     0.064 A 
ATOM     41  C   UNL A   1      47.963  26.777  27.203  1.00  0.00     0.173 A 
ATOM     42  C   UNL A   1      47.269  27.788  25.136  1.00  0.00     0.173 A 
ATOM     43  F   UNL A   1      47.813  26.570  28.520  1.00  0.00    -0.203 F 
ATOM     44  C   UNL A   1      49.081  26.246  26.564  1.00  0.00     0.198 A 
ATOM     45  C   UNL A   1      48.372  27.232  24.494  1.00  0.00     0.198 A 
ATOM     46  F   UNL A   1      46.425  28.550  24.424  1.00  0.00    -0.203 F 
ATOM     47  F   UNL A   1      49.983  25.543  27.265  1.00  0.00    -0.200 F 
ATOM     48  C   UNL A   1      49.284  26.472  25.210  1.00  0.00     0.200 A 
ATOM     49  F   UNL A   1      48.563  27.451  23.185  1.00  0.00    -0.200 F 
ATOM     50  F   UNL A   1      50.366  25.972  24.598  1.00  0.00    -0.200 F 
ENDBRANCH  26  40
BRANCH  27  51
ATOM     51  C   UNL A   1      38.898  31.506  30.939  1.00  0.00     0.064 A 
ATOM     52  C   UNL A   1      38.537  31.218  32.262  1.00  0.00     0.173 A 
ATOM     53  C   UNL A   1      38.061  32.370  30.214  1.00  0.00     0.173 A 
ATOM     54  F   UNL A   1      39.288  30.381  32.994  1.00  0.00    -0.203 F 
ATOM     55  C   UNL A   1      37.381  31.754  32.830  1.00  0.00     0.198 A 
ATOM     56  C   UNL A   1      36.924  32.930  30.791  1.00  0.00     0.198 A 
ATOM     57  F   UNL A   1      38.353  32.678  28.942  1.00  0.00    -0.203 F 
ATOM     58  F   UNL A   1      37.034  31.422  34.080  1.00  0.00    -0.200 F 
ATOM     59  C   UNL A   1      36.579  32.615  32.095  1.00  0.00     0.200 A 
ATOM     60  F   UNL A   1      36.160  33.771  30.080  1.00  0.00    -0.200 F 
ATOM     61  F   UNL A   1      35.468  33.130  32.640  1.00  0.00    -0.200 F 
ENDBRANCH  27  51
BRANCH  39  62
ATOM     62  C   UNL A   1      45.438  33.715  29.958  1.00  0.00     0.064 A 
ATOM     63  C   UNL A   1      46.134  33.855  31.165  1.00  0.00     0.173 A 
ATOM     64  C   UNL A   1      45.433  34.798  29.066  1.00  0.00     0.173 A 
ATOM     65  F   UNL A   1      46.154  32.851  32.055  1.00  0.00    -0.203 F 
ATOM     66  C   UNL A   1      46.780  35.047  31.481  1.00  0.00     0.198 A 
ATOM     67  C   UNL A   1      46.106  35.977  29.371  1.00  0.00     0.198 A 
ATOM     68  F   UNL A   1      44.785  34.708  27.894  1.00  0.00    -0.203 F 
ATOM     69  F   UNL A   1      47.398  35.178  32.663  1.00  0.00    -0.200 F 
ATOM     70  C   UNL A   1      46.772  36.102  30.582  1.00  0.00     0.200 A 
ATOM     71  F   UNL A   1      46.108  36.990  28.495  1.00  0.00    -0.200 F 
ATOM     72  F   UNL A   1      47.399  37.247  30.884  1.00  0.00    -0.200 F 
ENDBRANCH  39  62
ENDBRANCH  13  14
ENDBRANCH   6   8
ENDBRANCH   5   6
ENDBRANCH   4   5
ENDBRANCH   3   4
ENDBRANCH   2   3
ENDBRANCH   1   2
BRANCH   1  73
ATOM     73  C   UNL A   1      33.046  22.194  27.186  1.00  0.00     0.261 C 
BRANCH  73  74
ATOM     74  O   UNL A   1      32.044  22.229  26.159  1.00  0.00    -0.460 OA
BRANCH  74  75
ATOM     75  C   UNL A   1      31.156  23.251  26.256  1.00  0.00     0.338 C 
ATOM     76  O   UNL A   1      30.610  23.670  27.262  1.00  0.00    -0.246 OA
BRANCH  75  77
ATOM     77  C   UNL A   1      31.164  23.964  24.963  1.00  0.00     0.063 A 
ATOM     78  C   UNL A   1      31.699  23.381  23.816  1.00  0.00     0.036 A 
ATOM     79  C   UNL A   1      30.742  25.293  24.952  1.00  0.00     0.046 A 
ATOM     80  C   UNL A   1      31.841  24.182  22.703  1.00  0.00     0.112 A 
ATOM     81  C   UNL A   1      30.953  26.030  23.798  1.00  0.00     0.090 A 
ATOM     82  N   UNL A   1      31.518  25.491  22.684  1.00  0.00    -0.255 NA
BRANCH  81  83
ATOM     83  C   UNL A   1      30.627  27.454  23.716  1.00  0.00     0.092 A 
ATOM     84  C   UNL A   1      29.525  27.908  23.019  1.00  0.00     0.051 A 
ATOM     85  N   UNL A   1      31.405  28.270  24.455  1.00  0.00    -0.228 NA
ATOM     86  C   UNL A   1      29.258  29.252  23.123  1.00  0.00     0.115 A 
ATOM     87  C   UNL A   1      31.008  29.550  24.573  1.00  0.00     0.166 A 
ATOM     88  N   UNL A   1      29.974  30.089  23.893  1.00  0.00    -0.238 NA
BRANCH  87  89
ATOM     89  C   UNL A   1      31.615  30.366  25.695  1.00  0.00     0.306 C 
BRANCH  89  90
ATOM     90  O   UNL A   1      32.112  29.576  26.796  1.00  0.00    -0.486 OA
BRANCH  90  91
ATOM     91  C   UNL A   1      33.393  29.869  27.184  1.00  0.00     0.119 A 
ATOM     92  C   UNL A   1      33.666  31.199  27.499  1.00  0.00     0.046 A 
ATOM     93  C   UNL A   1      34.438  28.945  27.153  1.00  0.00     0.046 A 
ATOM     94  C   UNL A   1      34.965  31.590  27.834  1.00  0.00     0.004 A 
ATOM     95  C   UNL A   1      35.735  29.330  27.497  1.00  0.00     0.004 A 
ATOM     96  C   UNL A   1      35.998  30.652  27.842  1.00  0.00     0.000 A 
ENDBRANCH  90  91
ENDBRANCH  89  90
ENDBRANCH  87  89
ENDBRANCH  81  83
ENDBRANCH  75  77
ENDBRANCH  74  75
ENDBRANCH  73  74
ENDBRANCH   1  73
TORSDOF 18
ENDMDL
