MODEL 1
REMARK VINA RESULT:     -11.7      0.000      0.000
REMARK SMILES Cc1cccc(Nc2ccccc2C(=O)OCCOCCOC(=O)c2ccc(-c3c4nc(c(-c5c(F)c(F)c(F)c(F)c5F)c5ccc([nH]5)c(-c5c(F)c(F)c(F)c(F)c5F)c5nc(c(-c6c(F)c(F)c(F)c(F)c6F)c6ccc3[nH]6)C=C5)C=C4)cc2)c1C
REMARK SMILES IDX 19 1 18 2 17 3 16 4 14 5 15 6 13 7 8 8 9 9 10 10 12 11 11 12
REMARK SMILES IDX 7 13 6 15 1 16 2 17 3 18 88 19 4 20 89 21 5 22 20 23 21 24
REMARK SMILES IDX 22 25 23 26 24 27 25 28 26 29 87 30 27 31 86 32 28 33 29 34
REMARK SMILES IDX 30 35 80 36 31 37 85 38 79 39 81 40 32 41 84 42 78 43 77 44
REMARK SMILES IDX 33 46 65 47 45 48 64 49 46 50 49 51 63 52 82 53 47 54 48 55
REMARK SMILES IDX 62 57 83 58 50 59 34 60 35 61 43 62 36 63 37 64 41 65 44 66
REMARK SMILES IDX 38 67 39 68 42 69 40 70 66 71 67 72 75 73 68 74 69 75 73 76
REMARK SMILES IDX 76 77 70 78 71 79 74 80 72 81 51 82 52 83 60 84 53 85 54 86
REMARK SMILES IDX 58 87 61 88 55 89 56 90 59 91 57 92
REMARK H PARENT 7 14 81 45 49 56
REMARK Flexibility Score: inf
ROOT
ATOM      1  O   UNL A   1      41.120  20.227  25.749  1.00  0.00    -0.374 OA
ENDROOT
BRANCH   1   2
ATOM      2  C   UNL A   1      39.758  20.321  26.156  1.00  0.00     0.202 C 
BRANCH   2   3
ATOM      3  C   UNL A   1      38.949  21.531  25.682  1.00  0.00     0.261 C 
BRANCH   3   4
ATOM      4  O   UNL A   1      37.548  21.251  25.538  1.00  0.00    -0.460 OA
BRANCH   4   5
ATOM      5  C   UNL A   1      36.843  22.220  24.903  1.00  0.00     0.340 C 
ATOM      6  O   UNL A   1      37.292  23.273  24.470  1.00  0.00    -0.246 OA
BRANCH   5   7
ATOM      7  C   UNL A   1      35.453  21.798  24.604  1.00  0.00     0.083 A 
ATOM      8  C   UNL A   1      34.470  22.581  23.972  1.00  0.00     0.053 A 
ATOM      9  C   UNL A   1      33.201  21.991  23.776  1.00  0.00     0.027 A 
ATOM     10  C   UNL A   1      32.920  20.680  24.170  1.00  0.00     0.002 A 
ATOM     11  C   UNL A   1      35.161  20.474  24.999  1.00  0.00     0.018 A 
ATOM     12  C   UNL A   1      33.905  19.917  24.781  1.00  0.00     0.001 A 
BRANCH   8  13
ATOM     13  N   UNL A   1      34.642  23.859  23.401  1.00  0.00    -0.355 N 
ATOM     14  H   UNL A   1      35.531  23.992  22.997  1.00  0.00     0.167 HD
BRANCH  13  15
ATOM     15  C   UNL A   1      33.801  24.982  23.289  1.00  0.00     0.042 A 
ATOM     16  C   UNL A   1      31.721  27.430  25.370  1.00  0.00     0.044 C 
ATOM     17  C   UNL A   1      32.338  26.712  24.199  1.00  0.00    -0.046 A 
ATOM     18  C   UNL A   1      31.821  26.942  22.918  1.00  0.00     0.004 A 
ATOM     19  C   UNL A   1      33.399  25.790  24.376  1.00  0.00    -0.025 A 
ATOM     20  C   UNL A   1      32.314  26.239  21.827  1.00  0.00     0.002 A 
ATOM     21  C   UNL A   1      34.108  25.738  25.709  1.00  0.00     0.047 C 
ATOM     22  C   UNL A   1      33.268  25.246  22.016  1.00  0.00     0.026 A 
ENDBRANCH  13  15
ENDBRANCH   8  13
ENDBRANCH   5   7
ENDBRANCH   4   5
ENDBRANCH   3   4
ENDBRANCH   2   3
ENDBRANCH   1   2
BRANCH   1  23
ATOM     23  C   UNL A   1      42.093  20.969  26.480  1.00  0.00     0.202 C 
BRANCH  23  24
ATOM     24  C   UNL A   1      43.200  21.678  25.688  1.00  0.00     0.261 C 
BRANCH  24  25
ATOM     25  O   UNL A   1      42.732  22.752  24.852  1.00  0.00    -0.460 OA
BRANCH  25  26
ATOM     26  C   UNL A   1      43.482  23.880  24.912  1.00  0.00     0.338 C 
ATOM     27  O   UNL A   1      44.513  24.123  24.300  1.00  0.00    -0.246 OA
BRANCH  26  28
ATOM     28  C   UNL A   1      42.829  24.899  25.750  1.00  0.00     0.060 A 
ATOM     29  C   UNL A   1      43.506  26.107  25.957  1.00  0.00     0.016 A 
ATOM     30  C   UNL A   1      41.651  24.616  26.443  1.00  0.00     0.016 A 
ATOM     31  C   UNL A   1      43.035  27.019  26.900  1.00  0.00     0.010 A 
ATOM     32  C   UNL A   1      41.183  25.529  27.396  1.00  0.00     0.010 A 
ATOM     33  C   UNL A   1      41.894  26.715  27.655  1.00  0.00    -0.014 A 
BRANCH  33  34
ATOM     34  C   UNL A   1      41.522  27.578  28.803  1.00  0.00     0.031 A 
ATOM     35  C   UNL A   1      42.313  27.495  30.075  1.00  0.00     0.074 A 
ATOM     36  C   UNL A   1      40.492  28.437  28.708  1.00  0.00     0.049 A 
ATOM     37  N   UNL A   1      42.141  28.137  31.203  1.00  0.00    -0.248 NA
ATOM     38  C   UNL A   1      43.452  26.565  30.077  1.00  0.00     0.031 C 
ATOM     39  C   UNL A   1      39.677  28.631  27.516  1.00  0.00     0.029 A 
ATOM     40  N   UNL A   1      39.949  29.292  29.633  1.00  0.00    -0.354 N 
ATOM     41  C   UNL A   1      43.145  27.689  32.048  1.00  0.00     0.074 A 
ATOM     42  C   UNL A   1      43.906  26.698  31.315  1.00  0.00     0.031 C 
ATOM     43  C   UNL A   1      38.708  29.521  27.786  1.00  0.00     0.029 A 
ATOM     44  C   UNL A   1      38.834  29.950  29.179  1.00  0.00     0.049 A 
ATOM     45  H   UNL A   1      40.322  29.420  30.535  1.00  0.00     0.167 HD
ATOM     46  C   UNL A   1      43.414  28.078  33.317  1.00  0.00     0.037 A 
ATOM     47  C   UNL A   1      38.000  30.791  29.820  1.00  0.00     0.037 A 
ATOM     48  C   UNL A   1      42.659  29.066  34.041  1.00  0.00     0.049 A 
ATOM     49  C   UNL A   1      38.283  31.165  31.249  1.00  0.00     0.074 A 
ATOM     50  C   UNL A   1      42.884  29.564  35.312  1.00  0.00     0.029 A 
ATOM     51  N   UNL A   1      41.521  29.697  33.560  1.00  0.00    -0.354 N 
ATOM     52  N   UNL A   1      39.263  30.774  32.026  1.00  0.00    -0.248 NA
ATOM     53  C   UNL A   1      37.350  32.104  31.887  1.00  0.00     0.031 C 
ATOM     54  C   UNL A   1      41.853  30.459  35.620  1.00  0.00     0.029 A 
ATOM     55  C   UNL A   1      41.012  30.554  34.523  1.00  0.00     0.049 A 
ATOM     56  H   UNL A   1      41.132  29.556  32.667  1.00  0.00     0.167 HD
ATOM     57  C   UNL A   1      39.081  31.431  33.234  1.00  0.00     0.074 A 
ATOM     58  C   UNL A   1      37.900  32.257  33.085  1.00  0.00     0.031 C 
ATOM     59  C   UNL A   1      39.828  31.361  34.363  1.00  0.00     0.037 A 
BRANCH  46  60
ATOM     60  C   UNL A   1      44.562  27.406  34.011  1.00  0.00     0.064 A 
ATOM     61  C   UNL A   1      45.859  27.941  33.980  1.00  0.00     0.173 A 
ATOM     62  C   UNL A   1      44.358  26.218  34.727  1.00  0.00     0.173 A 
ATOM     63  F   UNL A   1      46.108  29.068  33.297  1.00  0.00    -0.203 F 
ATOM     64  C   UNL A   1      46.915  27.293  34.615  1.00  0.00     0.198 A 
ATOM     65  C   UNL A   1      45.411  25.586  35.383  1.00  0.00     0.198 A 
ATOM     66  F   UNL A   1      43.136  25.667  34.790  1.00  0.00    -0.203 F 
ATOM     67  F   UNL A   1      48.155  27.795  34.531  1.00  0.00    -0.200 F 
ATOM     68  C   UNL A   1      46.690  26.119  35.320  1.00  0.00     0.200 A 
ATOM     69  F   UNL A   1      45.191  24.458  36.070  1.00  0.00    -0.200 F 
ATOM     70  F   UNL A   1      47.708  25.497  35.930  1.00  0.00    -0.200 F 
ENDBRANCH  46  60
BRANCH  47  71
ATOM     71  C   UNL A   1      36.812  31.326  29.107  1.00  0.00     0.064 A 
ATOM     72  C   UNL A   1      35.706  30.514  28.831  1.00  0.00     0.173 A 
ATOM     73  C   UNL A   1      36.756  32.669  28.706  1.00  0.00     0.173 A 
ATOM     74  F   UNL A   1      35.723  29.218  29.175  1.00  0.00    -0.203 F 
ATOM     75  C   UNL A   1      34.586  31.024  28.175  1.00  0.00     0.198 A 
ATOM     76  C   UNL A   1      35.629  33.184  28.072  1.00  0.00     0.198 A 
ATOM     77  F   UNL A   1      37.792  33.486  28.950  1.00  0.00    -0.203 F 
ATOM     78  F   UNL A   1      33.551  30.221  27.898  1.00  0.00    -0.200 F 
ATOM     79  C   UNL A   1      34.547  32.360  27.802  1.00  0.00     0.200 A 
ATOM     80  F   UNL A   1      35.590  34.477  27.723  1.00  0.00    -0.200 F 
ATOM     81  F   UNL A   1      33.466  32.852  27.181  1.00  0.00    -0.200 F 
ENDBRANCH  47  71
BRANCH  59  82
ATOM     82  C   UNL A   1      39.398  32.208  35.525  1.00  0.00     0.064 A 
ATOM     83  C   UNL A   1      39.832  33.535  35.665  1.00  0.00     0.173 A 
ATOM     84  C   UNL A   1      38.509  31.701  36.485  1.00  0.00     0.173 A 
ATOM     85  F   UNL A   1      40.695  34.058  34.782  1.00  0.00    -0.203 F 
ATOM     86  C   UNL A   1      39.407  34.316  36.736  1.00  0.00     0.198 A 
ATOM     87  C   UNL A   1      38.065  32.495  37.540  1.00  0.00     0.198 A 
ATOM     88  F   UNL A   1      38.060  30.441  36.393  1.00  0.00    -0.203 F 
ATOM     89  F   UNL A   1      39.867  35.568  36.873  1.00  0.00    -0.200 F 
ATOM     90  C   UNL A   1      38.519  33.799  37.667  1.00  0.00     0.200 A 
ATOM     91  F   UNL A   1      37.199  31.998  38.432  1.00  0.00    -0.200 F 
ATOM     92  F   UNL A   1      38.106  34.556  38.693  1.00  0.00    -0.200 F 
ENDBRANCH  59  82
ENDBRANCH  33  34
ENDBRANCH  26  28
ENDBRANCH  25  26
ENDBRANCH  24  25
ENDBRANCH  23  24
ENDBRANCH   1  23
TORSDOF 16
ENDMDL
MODEL 2
REMARK VINA RESULT:     -11.6      3.347      8.048
REMARK SMILES Cc1cccc(Nc2ccccc2C(=O)OCCOCCOC(=O)c2ccc(-c3c4nc(c(-c5c(F)c(F)c(F)c(F)c5F)c5ccc([nH]5)c(-c5c(F)c(F)c(F)c(F)c5F)c5nc(c(-c6c(F)c(F)c(F)c(F)c6F)c6ccc3[nH]6)C=C5)C=C4)cc2)c1C
REMARK SMILES IDX 19 1 18 2 17 3 16 4 14 5 15 6 13 7 8 8 9 9 10 10 12 11 11 12
REMARK SMILES IDX 7 13 6 15 1 16 2 17 3 18 88 19 4 20 89 21 5 22 20 23 21 24
REMARK SMILES IDX 22 25 23 26 24 27 25 28 26 29 87 30 27 31 86 32 28 33 29 34
REMARK SMILES IDX 30 35 80 36 31 37 85 38 79 39 81 40 32 41 84 42 78 43 77 44
REMARK SMILES IDX 33 46 65 47 45 48 64 49 46 50 49 51 63 52 82 53 47 54 48 55
REMARK SMILES IDX 62 57 83 58 50 59 34 60 35 61 43 62 36 63 37 64 41 65 44 66
REMARK SMILES IDX 38 67 39 68 42 69 40 70 66 71 67 72 75 73 68 74 69 75 73 76
REMARK SMILES IDX 76 77 70 78 71 79 74 80 72 81 51 82 52 83 60 84 53 85 54 86
REMARK SMILES IDX 58 87 61 88 55 89 56 90 59 91 57 92
REMARK H PARENT 7 14 81 45 49 56
REMARK Flexibility Score: inf
ROOT
ATOM      1  O   UNL A   1      32.906  28.896  25.163  1.00  0.00    -0.374 OA
ENDROOT
BRANCH   1   2
ATOM      2  C   UNL A   1      33.706  28.960  23.986  1.00  0.00     0.202 C 
BRANCH   2   3
ATOM      3  C   UNL A   1      34.043  27.646  23.276  1.00  0.00     0.261 C 
BRANCH   3   4
ATOM      4  O   UNL A   1      33.529  27.582  21.937  1.00  0.00    -0.460 OA
BRANCH   4   5
ATOM      5  C   UNL A   1      32.870  26.433  21.641  1.00  0.00     0.340 C 
ATOM      6  O   UNL A   1      33.280  25.530  20.924  1.00  0.00    -0.246 OA
BRANCH   5   7
ATOM      7  C   UNL A   1      31.631  26.277  22.440  1.00  0.00     0.083 A 
ATOM      8  C   UNL A   1      31.258  25.133  23.170  1.00  0.00     0.053 A 
ATOM      9  C   UNL A   1      30.033  25.185  23.872  1.00  0.00     0.027 A 
ATOM     10  C   UNL A   1      29.219  26.321  23.866  1.00  0.00     0.002 A 
ATOM     11  C   UNL A   1      30.803  27.420  22.441  1.00  0.00     0.018 A 
ATOM     12  C   UNL A   1      29.607  27.445  23.151  1.00  0.00     0.001 A 
BRANCH   8  13
ATOM     13  N   UNL A   1      32.031  23.973  23.380  1.00  0.00    -0.355 N 
ATOM     14  H   UNL A   1      31.877  23.271  22.707  1.00  0.00     0.167 HD
BRANCH  13  15
ATOM     15  C   UNL A   1      32.980  23.615  24.357  1.00  0.00     0.042 A 
ATOM     16  C   UNL A   1      33.297  22.349  27.954  1.00  0.00     0.044 C 
ATOM     17  C   UNL A   1      33.644  22.867  26.584  1.00  0.00    -0.046 A 
ATOM     18  C   UNL A   1      34.944  23.331  26.348  1.00  0.00     0.004 A 
ATOM     19  C   UNL A   1      32.676  22.926  25.552  1.00  0.00    -0.025 A 
ATOM     20  C   UNL A   1      35.277  23.887  25.120  1.00  0.00     0.002 A 
ATOM     21  C   UNL A   1      31.364  22.201  25.738  1.00  0.00     0.047 C 
ATOM     22  C   UNL A   1      34.297  24.060  24.149  1.00  0.00     0.026 A 
ENDBRANCH  13  15
ENDBRANCH   8  13
ENDBRANCH   5   7
ENDBRANCH   4   5
ENDBRANCH   3   4
ENDBRANCH   2   3
ENDBRANCH   1   2
BRANCH   1  23
ATOM     23  C   UNL A   1      31.728  29.697  25.219  1.00  0.00     0.202 C 
BRANCH  23  24
ATOM     24  C   UNL A   1      31.721  30.898  26.174  1.00  0.00     0.261 C 
BRANCH  24  25
ATOM     25  O   UNL A   1      32.663  30.798  27.257  1.00  0.00    -0.460 OA
BRANCH  25  26
ATOM     26  C   UNL A   1      33.480  31.871  27.393  1.00  0.00     0.338 C 
ATOM     27  O   UNL A   1      33.183  33.052  27.286  1.00  0.00    -0.246 OA
BRANCH  26  28
ATOM     28  C   UNL A   1      34.824  31.455  27.829  1.00  0.00     0.060 A 
ATOM     29  C   UNL A   1      35.035  30.097  28.096  1.00  0.00     0.016 A 
ATOM     30  C   UNL A   1      35.811  32.399  28.119  1.00  0.00     0.016 A 
ATOM     31  C   UNL A   1      36.218  29.680  28.704  1.00  0.00     0.010 A 
ATOM     32  C   UNL A   1      36.995  31.980  28.737  1.00  0.00     0.010 A 
ATOM     33  C   UNL A   1      37.187  30.625  29.067  1.00  0.00    -0.014 A 
BRANCH  33  34
ATOM     34  C   UNL A   1      38.338  30.212  29.906  1.00  0.00     0.031 A 
ATOM     35  C   UNL A   1      39.329  29.225  29.363  1.00  0.00     0.074 A 
ATOM     36  C   UNL A   1      38.503  30.721  31.139  1.00  0.00     0.049 A 
ATOM     37  N   UNL A   1      40.387  28.710  29.937  1.00  0.00    -0.248 NA
ATOM     38  C   UNL A   1      39.100  28.756  27.989  1.00  0.00     0.031 C 
ATOM     39  C   UNL A   1      37.629  31.710  31.756  1.00  0.00     0.029 A 
ATOM     40  N   UNL A   1      39.453  30.464  32.095  1.00  0.00    -0.354 N 
ATOM     41  C   UNL A   1      40.947  27.857  28.998  1.00  0.00     0.074 A 
ATOM     42  C   UNL A   1      40.096  27.898  27.827  1.00  0.00     0.031 C 
ATOM     43  C   UNL A   1      38.056  31.954  33.006  1.00  0.00     0.029 A 
ATOM     44  C   UNL A   1      39.231  31.127  33.275  1.00  0.00     0.049 A 
ATOM     45  H   UNL A   1      40.218  29.861  31.949  1.00  0.00     0.167 HD
ATOM     46  C   UNL A   1      42.075  27.114  29.101  1.00  0.00     0.037 A 
ATOM     47  C   UNL A   1      39.892  31.060  34.447  1.00  0.00     0.037 A 
ATOM     48  C   UNL A   1      42.921  27.079  30.265  1.00  0.00     0.049 A 
ATOM     49  C   UNL A   1      41.110  30.184  34.559  1.00  0.00     0.074 A 
ATOM     50  C   UNL A   1      44.111  26.398  30.448  1.00  0.00     0.029 A 
ATOM     51  N   UNL A   1      42.655  27.745  31.453  1.00  0.00    -0.354 N 
ATOM     52  N   UNL A   1      41.661  29.417  33.650  1.00  0.00    -0.248 NA
ATOM     53  C   UNL A   1      41.802  30.171  35.855  1.00  0.00     0.031 C 
ATOM     54  C   UNL A   1      44.539  26.611  31.763  1.00  0.00     0.029 A 
ATOM     55  C   UNL A   1      43.641  27.462  32.386  1.00  0.00     0.049 A 
ATOM     56  H   UNL A   1      41.880  28.331  31.611  1.00  0.00     0.167 HD
ATOM     57  C   UNL A   1      42.774  28.847  34.253  1.00  0.00     0.074 A 
ATOM     58  C   UNL A   1      42.826  29.365  35.605  1.00  0.00     0.031 C 
ATOM     59  C   UNL A   1      43.673  27.977  33.731  1.00  0.00     0.037 A 
BRANCH  46  60
ATOM     60  C   UNL A   1      42.441  26.257  27.926  1.00  0.00     0.064 A 
ATOM     61  C   UNL A   1      43.299  26.717  26.915  1.00  0.00     0.173 A 
ATOM     62  C   UNL A   1      41.936  24.953  27.818  1.00  0.00     0.173 A 
ATOM     63  F   UNL A   1      43.797  27.961  26.967  1.00  0.00    -0.203 F 
ATOM     64  C   UNL A   1      43.612  25.912  25.823  1.00  0.00     0.198 A 
ATOM     65  C   UNL A   1      42.273  24.142  26.737  1.00  0.00     0.198 A 
ATOM     66  F   UNL A   1      41.114  24.466  28.760  1.00  0.00    -0.203 F 
ATOM     67  F   UNL A   1      44.394  26.388  24.844  1.00  0.00    -0.200 F 
ATOM     68  C   UNL A   1      43.103  24.624  25.737  1.00  0.00     0.200 A 
ATOM     69  F   UNL A   1      41.787  22.896  26.660  1.00  0.00    -0.200 F 
ATOM     70  F   UNL A   1      43.405  23.852  24.685  1.00  0.00    -0.200 F 
ENDBRANCH  46  60
BRANCH  47  71
ATOM     71  C   UNL A   1      39.403  31.846  35.607  1.00  0.00     0.064 A 
ATOM     72  C   UNL A   1      38.459  31.317  36.496  1.00  0.00     0.173 A 
ATOM     73  C   UNL A   1      39.889  33.138  35.861  1.00  0.00     0.173 A 
ATOM     74  F   UNL A   1      37.949  30.095  36.281  1.00  0.00    -0.203 F 
ATOM     75  C   UNL A   1      38.013  32.052  37.593  1.00  0.00     0.198 A 
ATOM     76  C   UNL A   1      39.461  33.863  36.969  1.00  0.00     0.198 A 
ATOM     77  F   UNL A   1      40.796  33.687  35.038  1.00  0.00    -0.203 F 
ATOM     78  F   UNL A   1      37.089  31.535  38.412  1.00  0.00    -0.200 F 
ATOM     79  C   UNL A   1      38.520  33.322  37.832  1.00  0.00     0.200 A 
ATOM     80  F   UNL A   1      39.960  35.085  37.203  1.00  0.00    -0.200 F 
ATOM     81  F   UNL A   1      38.099  34.024  38.893  1.00  0.00    -0.200 F 
ENDBRANCH  47  71
BRANCH  59  82
ATOM     82  C   UNL A   1      44.800  27.538  34.621  1.00  0.00     0.064 A 
ATOM     83  C   UNL A   1      45.994  28.268  34.704  1.00  0.00     0.173 A 
ATOM     84  C   UNL A   1      44.666  26.399  35.429  1.00  0.00     0.173 A 
ATOM     85  F   UNL A   1      46.176  29.354  33.939  1.00  0.00    -0.203 F 
ATOM     86  C   UNL A   1      47.022  27.862  35.551  1.00  0.00     0.198 A 
ATOM     87  C   UNL A   1      45.685  26.011  36.294  1.00  0.00     0.198 A 
ATOM     88  F   UNL A   1      43.541  25.670  35.391  1.00  0.00    -0.203 F 
ATOM     89  F   UNL A   1      48.171  28.551  35.584  1.00  0.00    -0.200 F 
ATOM     90  C   UNL A   1      46.864  26.739  36.350  1.00  0.00     0.200 A 
ATOM     91  F   UNL A   1      45.527  24.933  37.074  1.00  0.00    -0.200 F 
ATOM     92  F   UNL A   1      47.852  26.354  37.169  1.00  0.00    -0.200 F 
ENDBRANCH  59  82
ENDBRANCH  33  34
ENDBRANCH  26  28
ENDBRANCH  25  26
ENDBRANCH  24  25
ENDBRANCH  23  24
ENDBRANCH   1  23
TORSDOF 16
ENDMDL
MODEL 3
REMARK VINA RESULT:     -11.6      3.484      8.278
REMARK SMILES Cc1cccc(Nc2ccccc2C(=O)OCCOCCOC(=O)c2ccc(-c3c4nc(c(-c5c(F)c(F)c(F)c(F)c5F)c5ccc([nH]5)c(-c5c(F)c(F)c(F)c(F)c5F)c5nc(c(-c6c(F)c(F)c(F)c(F)c6F)c6ccc3[nH]6)C=C5)C=C4)cc2)c1C
REMARK SMILES IDX 19 1 18 2 17 3 16 4 14 5 15 6 13 7 8 8 9 9 10 10 12 11 11 12
REMARK SMILES IDX 7 13 6 15 1 16 2 17 3 18 88 19 4 20 89 21 5 22 20 23 21 24
REMARK SMILES IDX 22 25 23 26 24 27 25 28 26 29 87 30 27 31 86 32 28 33 29 34
REMARK SMILES IDX 30 35 80 36 31 37 85 38 79 39 81 40 32 41 84 42 78 43 77 44
REMARK SMILES IDX 33 46 65 47 45 48 64 49 46 50 49 51 63 52 82 53 47 54 48 55
REMARK SMILES IDX 62 57 83 58 50 59 34 60 35 61 43 62 36 63 37 64 41 65 44 66
REMARK SMILES IDX 38 67 39 68 42 69 40 70 66 71 67 72 75 73 68 74 69 75 73 76
REMARK SMILES IDX 76 77 70 78 71 79 74 80 72 81 51 82 52 83 60 84 53 85 54 86
REMARK SMILES IDX 58 87 61 88 55 89 56 90 59 91 57 92
REMARK H PARENT 7 14 81 45 49 56
REMARK Flexibility Score: inf
ROOT
ATOM      1  O   UNL A   1      31.124  27.868  25.660  1.00  0.00    -0.374 OA
ENDROOT
BRANCH   1   2
ATOM      2  C   UNL A   1      30.399  26.825  25.016  1.00  0.00     0.202 C 
BRANCH   2   3
ATOM      3  C   UNL A   1      30.009  25.602  25.850  1.00  0.00     0.261 C 
BRANCH   3   4
ATOM      4  O   UNL A   1      30.976  25.277  26.860  1.00  0.00    -0.460 OA
BRANCH   4   5
ATOM      5  C   UNL A   1      31.358  23.974  26.875  1.00  0.00     0.340 C 
ATOM      6  O   UNL A   1      30.686  23.030  27.268  1.00  0.00    -0.246 OA
BRANCH   5   7
ATOM      7  C   UNL A   1      32.649  23.761  26.179  1.00  0.00     0.083 A 
ATOM      8  C   UNL A   1      33.083  22.557  25.595  1.00  0.00     0.053 A 
ATOM      9  C   UNL A   1      34.352  22.561  24.973  1.00  0.00     0.027 A 
ATOM     10  C   UNL A   1      35.149  23.707  24.915  1.00  0.00     0.002 A 
ATOM     11  C   UNL A   1      33.461  24.914  26.115  1.00  0.00     0.018 A 
ATOM     12  C   UNL A   1      34.701  24.889  25.485  1.00  0.00     0.001 A 
BRANCH   8  13
ATOM     13  N   UNL A   1      32.340  21.367  25.454  1.00  0.00    -0.355 N 
ATOM     14  H   UNL A   1      31.441  21.416  25.856  1.00  0.00     0.167 HD
BRANCH  13  15
ATOM     15  C   UNL A   1      32.620  20.124  24.855  1.00  0.00     0.042 A 
ATOM     16  C   UNL A   1      31.999  18.081  21.680  1.00  0.00     0.044 C 
ATOM     17  C   UNL A   1      32.448  18.478  23.061  1.00  0.00    -0.046 A 
ATOM     18  C   UNL A   1      32.886  17.480  23.941  1.00  0.00     0.004 A 
ATOM     19  C   UNL A   1      32.398  19.827  23.493  1.00  0.00    -0.025 A 
ATOM     20  C   UNL A   1      33.233  17.800  25.246  1.00  0.00     0.002 A 
ATOM     21  C   UNL A   1      32.165  20.913  22.470  1.00  0.00     0.047 C 
ATOM     22  C   UNL A   1      33.068  19.100  25.708  1.00  0.00     0.026 A 
ENDBRANCH  13  15
ENDBRANCH   8  13
ENDBRANCH   5   7
ENDBRANCH   4   5
ENDBRANCH   3   4
ENDBRANCH   2   3
ENDBRANCH   1   2
BRANCH   1  23
ATOM     23  C   UNL A   1      31.813  28.811  24.843  1.00  0.00     0.202 C 
BRANCH  23  24
ATOM     24  C   UNL A   1      32.122  30.190  25.441  1.00  0.00     0.261 C 
BRANCH  24  25
ATOM     25  O   UNL A   1      32.601  30.153  26.797  1.00  0.00    -0.460 OA
BRANCH  25  26
ATOM     26  C   UNL A   1      33.227  31.283  27.204  1.00  0.00     0.338 C 
ATOM     27  O   UNL A   1      32.745  32.401  27.322  1.00  0.00    -0.246 OA
BRANCH  26  28
ATOM     28  C   UNL A   1      34.606  30.994  27.634  1.00  0.00     0.060 A 
ATOM     29  C   UNL A   1      34.977  29.653  27.784  1.00  0.00     0.016 A 
ATOM     30  C   UNL A   1      35.466  32.019  28.030  1.00  0.00     0.016 A 
ATOM     31  C   UNL A   1      36.194  29.327  28.381  1.00  0.00     0.010 A 
ATOM     32  C   UNL A   1      36.684  31.691  28.637  1.00  0.00     0.010 A 
ATOM     33  C   UNL A   1      37.035  30.345  28.849  1.00  0.00    -0.014 A 
BRANCH  33  34
ATOM     34  C   UNL A   1      38.217  29.998  29.676  1.00  0.00     0.031 A 
ATOM     35  C   UNL A   1      39.217  29.009  29.153  1.00  0.00     0.074 A 
ATOM     36  C   UNL A   1      38.402  30.568  30.879  1.00  0.00     0.049 A 
ATOM     37  N   UNL A   1      40.301  28.546  29.723  1.00  0.00    -0.248 NA
ATOM     38  C   UNL A   1      38.964  28.470  27.810  1.00  0.00     0.031 C 
ATOM     39  C   UNL A   1      37.520  31.565  31.472  1.00  0.00     0.029 A 
ATOM     40  N   UNL A   1      39.381  30.378  31.821  1.00  0.00    -0.354 N 
ATOM     41  C   UNL A   1      40.858  27.662  28.811  1.00  0.00     0.074 A 
ATOM     42  C   UNL A   1      39.977  27.628  27.661  1.00  0.00     0.031 C 
ATOM     43  C   UNL A   1      37.972  31.878  32.698  1.00  0.00     0.029 A 
ATOM     44  C   UNL A   1      39.174  31.091  32.975  1.00  0.00     0.049 A 
ATOM     45  H   UNL A   1      40.156  29.787  31.683  1.00  0.00     0.167 HD
ATOM     46  C   UNL A   1      42.006  26.951  28.918  1.00  0.00     0.037 A 
ATOM     47  C   UNL A   1      39.866  31.095  34.130  1.00  0.00     0.037 A 
ATOM     48  C   UNL A   1      42.881  26.990  30.060  1.00  0.00     0.049 A 
ATOM     49  C   UNL A   1      41.106  30.252  34.251  1.00  0.00     0.074 A 
ATOM     50  C   UNL A   1      44.092  26.345  30.242  1.00  0.00     0.029 A 
ATOM     51  N   UNL A   1      42.630  27.705  31.222  1.00  0.00    -0.354 N 
ATOM     52  N   UNL A   1      41.653  29.456  33.364  1.00  0.00    -0.248 NA
ATOM     53  C   UNL A   1      41.831  30.317  35.527  1.00  0.00     0.031 C 
ATOM     54  C   UNL A   1      44.548  26.630  31.534  1.00  0.00     0.029 A 
ATOM     55  C   UNL A   1      43.645  27.489  32.140  1.00  0.00     0.049 A 
ATOM     56  H   UNL A   1      41.845  28.280  31.373  1.00  0.00     0.167 HD
ATOM     57  C   UNL A   1      42.793  28.941  33.963  1.00  0.00     0.074 A 
ATOM     58  C   UNL A   1      42.867  29.523  35.288  1.00  0.00     0.031 C 
ATOM     59  C   UNL A   1      43.699  28.068  33.459  1.00  0.00     0.037 A 
BRANCH  46  60
ATOM     60  C   UNL A   1      42.362  26.047  27.775  1.00  0.00     0.064 A 
ATOM     61  C   UNL A   1      43.227  26.460  26.750  1.00  0.00     0.173 A 
ATOM     62  C   UNL A   1      41.840  24.747  27.712  1.00  0.00     0.173 A 
ATOM     63  F   UNL A   1      43.741  27.698  26.758  1.00  0.00    -0.203 F 
ATOM     64  C   UNL A   1      43.531  25.613  25.687  1.00  0.00     0.198 A 
ATOM     65  C   UNL A   1      42.168  23.894  26.662  1.00  0.00     0.198 A 
ATOM     66  F   UNL A   1      41.011  24.304  28.670  1.00  0.00    -0.203 F 
ATOM     67  F   UNL A   1      44.320  26.043  24.694  1.00  0.00    -0.200 F 
ATOM     68  C   UNL A   1      43.006  24.329  25.647  1.00  0.00     0.200 A 
ATOM     69  F   UNL A   1      41.666  22.652  26.629  1.00  0.00    -0.200 F 
ATOM     70  F   UNL A   1      43.299  23.516  24.623  1.00  0.00    -0.200 F 
ENDBRANCH  46  60
BRANCH  47  71
ATOM     71  C   UNL A   1      39.388  31.923  35.265  1.00  0.00     0.064 A 
ATOM     72  C   UNL A   1      39.740  33.274  35.376  1.00  0.00     0.173 A 
ATOM     73  C   UNL A   1      38.549  31.382  36.251  1.00  0.00     0.173 A 
ATOM     74  F   UNL A   1      40.558  33.829  34.469  1.00  0.00    -0.203 F 
ATOM     75  C   UNL A   1      39.276  34.053  36.435  1.00  0.00     0.198 A 
ATOM     76  C   UNL A   1      38.068  32.166  37.296  1.00  0.00     0.198 A 
ATOM     77  F   UNL A   1      38.183  30.093  36.187  1.00  0.00    -0.203 F 
ATOM     78  F   UNL A   1      39.650  35.335  36.534  1.00  0.00    -0.200 F 
ATOM     79  C   UNL A   1      38.436  33.500  37.390  1.00  0.00     0.200 A 
ATOM     80  F   UNL A   1      37.247  31.631  38.211  1.00  0.00    -0.200 F 
ATOM     81  F   UNL A   1      37.982  34.252  38.402  1.00  0.00    -0.200 F 
ENDBRANCH  47  71
BRANCH  59  82
ATOM     82  C   UNL A   1      44.859  27.697  34.338  1.00  0.00     0.064 A 
ATOM     83  C   UNL A   1      44.795  26.600  35.209  1.00  0.00     0.173 A 
ATOM     84  C   UNL A   1      46.059  28.421  34.276  1.00  0.00     0.173 A 
ATOM     85  F   UNL A   1      43.664  25.887  35.315  1.00  0.00    -0.203 F 
ATOM     86  C   UNL A   1      45.886  26.253  36.001  1.00  0.00     0.198 A 
ATOM     87  C   UNL A   1      47.156  28.055  35.051  1.00  0.00     0.198 A 
ATOM     88  F   UNL A   1      46.172  29.475  33.455  1.00  0.00    -0.203 F 
ATOM     89  F   UNL A   1      45.791  25.226  36.857  1.00  0.00    -0.200 F 
ATOM     90  C   UNL A   1      47.067  26.976  35.917  1.00  0.00     0.200 A 
ATOM     91  F   UNL A   1      48.300  28.747  34.959  1.00  0.00    -0.200 F 
ATOM     92  F   UNL A   1      48.118  26.636  36.675  1.00  0.00    -0.200 F 
ENDBRANCH  59  82
ENDBRANCH  33  34
ENDBRANCH  26  28
ENDBRANCH  25  26
ENDBRANCH  24  25
ENDBRANCH  23  24
ENDBRANCH   1  23
TORSDOF 16
ENDMDL
