MODEL 1
REMARK VINA RESULT:     -12.6      0.000      0.000
REMARK SMILES O=C(OCCOCCOC(=O)c1ccc(-n2cc(CSc3nc4ccccc4c(=O)n3-c3ccc(Cl)cc3)nn2)cc1)c1ccc(-c2c3nc(c(-c4c(F)c(F)c(F)c(F)c4F)c4ccc([nH]4)c(-c4c(F)c(F)c(F)c(F)c4F)c4nc(c(-c5c(F)c(F)c(F)c(F)c5F)c5ccc2[nH]5)C=C4)C=C3)cc1
REMARK SMILES IDX 7 1 6 2 5 3 4 4 3 5 2 6 1 7 43 8 44 9 105 10 45 11 104 12
REMARK SMILES IDX 46 13 47 14 48 15 98 16 49 17 103 18 97 19 99 20 50 21
REMARK SMILES IDX 102 22 96 23 95 24 51 26 83 27 63 28 82 29 64 30 67 31 81 32
REMARK SMILES IDX 100 33 65 34 66 35 80 37 101 38 68 39 52 40 53 41 61 42
REMARK SMILES IDX 54 43 55 44 59 45 62 46 56 47 57 48 60 49 58 50 84 51 85 52
REMARK SMILES IDX 93 53 86 54 87 55 91 56 94 57 88 58 89 59 92 60 90 61 69 62
REMARK SMILES IDX 70 63 78 64 71 65 72 66 76 67 79 68 73 69 74 70 77 71 75 72
REMARK SMILES IDX 8 73 9 74 10 75 11 76 12 77 13 78 42 79 14 80 41 81 15 82
REMARK SMILES IDX 16 83 17 84 40 85 18 86 39 87 19 88 20 89 21 90 22 91 31 92
REMARK SMILES IDX 23 93 29 94 24 95 28 96 30 97 25 98 27 99 26 100 32 101
REMARK SMILES IDX 33 102 38 103 34 104 37 105 35 106 36 107
REMARK H PARENT 99 25 67 36
REMARK Flexibility Score: inf
ROOT
ATOM      1  C   UNL A   1      34.505  34.406  29.115  1.00  0.00     0.202 C 
ENDROOT
BRANCH   1   2
ATOM      2  O   UNL A   1      34.311  34.967  30.427  1.00  0.00    -0.374 OA
BRANCH   2   3
ATOM      3  C   UNL A   1      34.473  34.075  31.527  1.00  0.00     0.202 C 
BRANCH   3   4
ATOM      4  C   UNL A   1      35.873  33.919  32.121  1.00  0.00     0.261 C 
BRANCH   4   5
ATOM      5  O   UNL A   1      36.708  32.971  31.429  1.00  0.00    -0.460 OA
BRANCH   5   6
ATOM      6  C   UNL A   1      36.784  31.666  31.780  1.00  0.00     0.338 C 
ATOM      7  O   UNL A   1      35.909  31.133  32.452  1.00  0.00    -0.246 OA
BRANCH   6   8
ATOM      8  C   UNL A   1      37.791  30.839  31.064  1.00  0.00     0.060 A 
ATOM      9  C   UNL A   1      37.666  29.464  30.857  1.00  0.00     0.016 A 
ATOM     10  C   UNL A   1      38.984  31.481  30.708  1.00  0.00     0.016 A 
ATOM     11  C   UNL A   1      38.780  28.698  30.615  1.00  0.00     0.010 A 
ATOM     12  C   UNL A   1      40.094  30.724  30.380  1.00  0.00     0.010 A 
ATOM     13  C   UNL A   1      40.004  29.335  30.481  1.00  0.00    -0.014 A 
BRANCH  13  14
ATOM     14  C   UNL A   1      41.179  28.486  30.542  1.00  0.00     0.031 A 
ATOM     15  C   UNL A   1      41.758  28.266  31.896  1.00  0.00     0.074 A 
ATOM     16  C   UNL A   1      41.639  27.926  29.408  1.00  0.00     0.049 A 
ATOM     17  N   UNL A   1      42.992  28.355  32.282  1.00  0.00    -0.248 NA
ATOM     18  C   UNL A   1      40.808  27.982  32.985  1.00  0.00     0.031 C 
ATOM     19  C   UNL A   1      41.011  27.929  28.080  1.00  0.00     0.029 A 
ATOM     20  N   UNL A   1      42.708  27.109  29.233  1.00  0.00    -0.354 N 
ATOM     21  C   UNL A   1      42.996  27.978  33.624  1.00  0.00     0.074 A 
ATOM     22  C   UNL A   1      41.620  27.869  34.034  1.00  0.00     0.031 C 
ATOM     23  C   UNL A   1      41.546  26.937  27.338  1.00  0.00     0.029 A 
ATOM     24  C   UNL A   1      42.625  26.330  28.093  1.00  0.00     0.049 A 
ATOM     25  H   UNL A   1      43.470  27.075  29.857  1.00  0.00     0.167 HD
ATOM     26  C   UNL A   1      44.122  27.568  34.265  1.00  0.00     0.037 A 
ATOM     27  C   UNL A   1      43.300  25.181  27.866  1.00  0.00     0.037 A 
ATOM     28  C   UNL A   1      45.318  28.074  33.658  1.00  0.00     0.049 A 
ATOM     29  C   UNL A   1      44.459  25.149  28.796  1.00  0.00     0.074 A 
ATOM     30  C   UNL A   1      45.837  29.340  33.460  1.00  0.00     0.029 A 
ATOM     31  N   UNL A   1      46.062  27.246  32.857  1.00  0.00    -0.354 N 
ATOM     32  N   UNL A   1      45.471  25.971  28.727  1.00  0.00    -0.248 NA
ATOM     33  C   UNL A   1      44.277  24.493  30.083  1.00  0.00     0.031 C 
ATOM     34  C   UNL A   1      46.512  29.273  32.207  1.00  0.00     0.029 A 
ATOM     35  C   UNL A   1      46.378  27.967  31.734  1.00  0.00     0.049 A 
ATOM     36  H   UNL A   1      46.319  26.316  33.051  1.00  0.00     0.167 HD
ATOM     37  C   UNL A   1      45.811  26.234  30.047  1.00  0.00     0.074 A 
ATOM     38  C   UNL A   1      45.099  25.230  30.832  1.00  0.00     0.031 C 
ATOM     39  C   UNL A   1      46.408  27.409  30.405  1.00  0.00     0.037 A 
BRANCH  26  40
ATOM     40  C   UNL A   1      44.118  26.436  35.255  1.00  0.00     0.064 A 
ATOM     41  C   UNL A   1      44.585  26.641  36.567  1.00  0.00     0.173 A 
ATOM     42  C   UNL A   1      43.935  25.089  34.870  1.00  0.00     0.173 A 
ATOM     43  F   UNL A   1      44.832  27.879  37.017  1.00  0.00    -0.203 F 
ATOM     44  C   UNL A   1      44.886  25.568  37.412  1.00  0.00     0.198 A 
ATOM     45  C   UNL A   1      44.184  24.026  35.734  1.00  0.00     0.198 A 
ATOM     46  F   UNL A   1      43.615  24.751  33.614  1.00  0.00    -0.203 F 
ATOM     47  F   UNL A   1      45.430  25.802  38.614  1.00  0.00    -0.200 F 
ATOM     48  C   UNL A   1      44.686  24.263  36.994  1.00  0.00     0.200 A 
ATOM     49  F   UNL A   1      44.006  22.770  35.301  1.00  0.00    -0.200 F 
ATOM     50  F   UNL A   1      45.023  23.236  37.785  1.00  0.00    -0.200 F 
ENDBRANCH  26  40
BRANCH  27  51
ATOM     51  C   UNL A   1      42.750  23.981  27.194  1.00  0.00     0.064 A 
ATOM     52  C   UNL A   1      43.462  23.320  26.185  1.00  0.00     0.173 A 
ATOM     53  C   UNL A   1      41.598  23.325  27.680  1.00  0.00     0.173 A 
ATOM     54  F   UNL A   1      44.603  23.846  25.714  1.00  0.00    -0.203 F 
ATOM     55  C   UNL A   1      43.043  22.082  25.686  1.00  0.00     0.198 A 
ATOM     56  C   UNL A   1      41.170  22.101  27.170  1.00  0.00     0.198 A 
ATOM     57  F   UNL A   1      40.908  23.816  28.721  1.00  0.00    -0.203 F 
ATOM     58  F   UNL A   1      43.776  21.456  24.756  1.00  0.00    -0.200 F 
ATOM     59  C   UNL A   1      41.899  21.474  26.178  1.00  0.00     0.200 A 
ATOM     60  F   UNL A   1      40.082  21.511  27.683  1.00  0.00    -0.200 F 
ATOM     61  F   UNL A   1      41.520  20.270  25.728  1.00  0.00    -0.200 F 
ENDBRANCH  27  51
BRANCH  39  62
ATOM     62  C   UNL A   1      46.866  28.317  29.301  1.00  0.00     0.064 A 
ATOM     63  C   UNL A   1      46.036  29.292  28.719  1.00  0.00     0.173 A 
ATOM     64  C   UNL A   1      48.217  28.320  28.932  1.00  0.00     0.173 A 
ATOM     65  F   UNL A   1      44.766  29.432  29.113  1.00  0.00    -0.203 F 
ATOM     66  C   UNL A   1      46.522  30.189  27.771  1.00  0.00     0.198 A 
ATOM     67  C   UNL A   1      48.710  29.241  28.010  1.00  0.00     0.198 A 
ATOM     68  F   UNL A   1      49.073  27.463  29.509  1.00  0.00    -0.203 F 
ATOM     69  F   UNL A   1      45.703  31.101  27.226  1.00  0.00    -0.200 F 
ATOM     70  C   UNL A   1      47.860  30.166  27.421  1.00  0.00     0.200 A 
ATOM     71  F   UNL A   1      50.017  29.256  27.716  1.00  0.00    -0.200 F 
ATOM     72  F   UNL A   1      48.340  31.058  26.542  1.00  0.00    -0.200 F 
ENDBRANCH  39  62
ENDBRANCH  13  14
ENDBRANCH   6   8
ENDBRANCH   5   6
ENDBRANCH   4   5
ENDBRANCH   3   4
ENDBRANCH   2   3
ENDBRANCH   1   2
BRANCH   1  73
ATOM     73  C   UNL A   1      33.984  32.986  28.837  1.00  0.00     0.261 C 
BRANCH  73  74
ATOM     74  O   UNL A   1      34.522  32.450  27.611  1.00  0.00    -0.460 OA
BRANCH  74  75
ATOM     75  C   UNL A   1      34.984  31.169  27.691  1.00  0.00     0.338 C 
ATOM     76  O   UNL A   1      35.959  30.786  28.276  1.00  0.00    -0.246 OA
BRANCH  75  77
ATOM     77  C   UNL A   1      33.920  30.250  27.193  1.00  0.00     0.060 A 
ATOM     78  C   UNL A   1      34.155  28.873  27.352  1.00  0.00     0.018 A 
ATOM     79  C   UNL A   1      32.711  30.699  26.657  1.00  0.00     0.018 A 
ATOM     80  C   UNL A   1      33.205  27.942  26.941  1.00  0.00     0.029 A 
ATOM     81  C   UNL A   1      31.742  29.768  26.261  1.00  0.00     0.029 A 
ATOM     82  C   UNL A   1      32.007  28.394  26.384  1.00  0.00     0.066 A 
BRANCH  82  83
ATOM     83  N   UNL A   1      31.121  27.464  25.801  1.00  0.00    -0.220 N 
ATOM     84  C   UNL A   1      30.777  26.243  26.354  1.00  0.00     0.141 A 
ATOM     85  N   UNL A   1      30.768  27.495  24.506  1.00  0.00    -0.062 NA
ATOM     86  C   UNL A   1      30.391  25.471  25.283  1.00  0.00     0.093 A 
ATOM     87  N   UNL A   1      30.261  26.312  24.196  1.00  0.00    -0.134 NA
BRANCH  86  88
ATOM     88  C   UNL A   1      30.377  24.018  24.977  1.00  0.00     0.138 C 
BRANCH  88  89
ATOM     89  S   UNL A   1      30.928  22.649  25.963  1.00  0.00    -0.081 SA
BRANCH  89  90
ATOM     90  C   UNL A   1      32.202  21.695  25.275  1.00  0.00     0.176 A 
ATOM     91  N   UNL A   1      31.934  20.427  25.387  1.00  0.00    -0.223 NA
ATOM     92  N   UNL A   1      33.357  22.153  24.653  1.00  0.00    -0.255 N 
ATOM     93  C   UNL A   1      32.875  19.493  24.959  1.00  0.00     0.079 A 
ATOM     94  C   UNL A   1      34.465  21.307  24.834  1.00  0.00     0.266 A 
ATOM     95  C   UNL A   1      32.528  18.154  24.783  1.00  0.00     0.029 A 
ATOM     96  C   UNL A   1      34.198  19.866  24.805  1.00  0.00     0.066 A 
ATOM     97  O   UNL A   1      35.618  21.666  25.074  1.00  0.00    -0.268 OA
ATOM     98  C   UNL A   1      33.517  17.200  24.515  1.00  0.00     0.002 A 
ATOM     99  C   UNL A   1      35.206  18.922  24.591  1.00  0.00     0.016 A 
ATOM    100  C   UNL A   1      34.859  17.580  24.452  1.00  0.00     0.001 A 
BRANCH  92 101
ATOM    101  C   UNL A   1      33.565  23.418  23.961  1.00  0.00     0.051 A 
ATOM    102  C   UNL A   1      33.999  24.554  24.680  1.00  0.00     0.028 A 
ATOM    103  C   UNL A   1      33.389  23.615  22.586  1.00  0.00     0.028 A 
ATOM    104  C   UNL A   1      34.036  25.836  24.119  1.00  0.00     0.022 A 
ATOM    105  C   UNL A   1      33.376  24.900  22.019  1.00  0.00     0.022 A 
ATOM    106  C   UNL A   1      33.664  26.012  22.798  1.00  0.00     0.041 A 
ATOM    107  Cl  UNL A   1      33.579  27.590  22.129  1.00  0.00    -0.084 Cl
ENDBRANCH  92 101
ENDBRANCH  89  90
ENDBRANCH  88  89
ENDBRANCH  86  88
ENDBRANCH  82  83
ENDBRANCH  75  77
ENDBRANCH  74  75
ENDBRANCH  73  74
ENDBRANCH   1  73
TORSDOF 19
ENDMDL
MODEL 2
REMARK VINA RESULT:     -12.4      1.436      2.166
REMARK SMILES O=C(OCCOCCOC(=O)c1ccc(-n2cc(CSc3nc4ccccc4c(=O)n3-c3ccc(Cl)cc3)nn2)cc1)c1ccc(-c2c3nc(c(-c4c(F)c(F)c(F)c(F)c4F)c4ccc([nH]4)c(-c4c(F)c(F)c(F)c(F)c4F)c4nc(c(-c5c(F)c(F)c(F)c(F)c5F)c5ccc2[nH]5)C=C4)C=C3)cc1
REMARK SMILES IDX 7 1 6 2 5 3 4 4 3 5 2 6 1 7 43 8 44 9 105 10 45 11 104 12
REMARK SMILES IDX 46 13 47 14 48 15 98 16 49 17 103 18 97 19 99 20 50 21
REMARK SMILES IDX 102 22 96 23 95 24 51 26 83 27 63 28 82 29 64 30 67 31 81 32
REMARK SMILES IDX 100 33 65 34 66 35 80 37 101 38 68 39 52 40 53 41 61 42
REMARK SMILES IDX 54 43 55 44 59 45 62 46 56 47 57 48 60 49 58 50 84 51 85 52
REMARK SMILES IDX 93 53 86 54 87 55 91 56 94 57 88 58 89 59 92 60 90 61 69 62
REMARK SMILES IDX 70 63 78 64 71 65 72 66 76 67 79 68 73 69 74 70 77 71 75 72
REMARK SMILES IDX 8 73 9 74 10 75 11 76 12 77 13 78 42 79 14 80 41 81 15 82
REMARK SMILES IDX 16 83 17 84 40 85 18 86 39 87 19 88 20 89 21 90 22 91 31 92
REMARK SMILES IDX 23 93 29 94 24 95 28 96 30 97 25 98 27 99 26 100 32 101
REMARK SMILES IDX 33 102 38 103 34 104 37 105 35 106 36 107
REMARK H PARENT 99 25 67 36
REMARK Flexibility Score: inf
ROOT
ATOM      1  C   UNL A   1      34.927  34.155  29.091  1.00  0.00     0.202 C 
ENDROOT
BRANCH   1   2
ATOM      2  O   UNL A   1      34.809  34.591  30.458  1.00  0.00    -0.374 OA
BRANCH   2   3
ATOM      3  C   UNL A   1      34.821  33.569  31.451  1.00  0.00     0.202 C 
BRANCH   3   4
ATOM      4  C   UNL A   1      35.843  32.441  31.304  1.00  0.00     0.261 C 
BRANCH   4   5
ATOM      5  O   UNL A   1      37.210  32.888  31.221  1.00  0.00    -0.460 OA
BRANCH   5   6
ATOM      6  C   UNL A   1      38.094  32.387  30.327  1.00  0.00     0.338 C 
ATOM      7  O   UNL A   1      38.214  32.871  29.207  1.00  0.00    -0.246 OA
BRANCH   6   8
ATOM      8  C   UNL A   1      39.118  31.447  30.854  1.00  0.00     0.060 A 
ATOM      9  C   UNL A   1      40.494  31.628  30.702  1.00  0.00     0.016 A 
ATOM     10  C   UNL A   1      38.640  30.255  31.411  1.00  0.00     0.016 A 
ATOM     11  C   UNL A   1      41.346  30.554  30.791  1.00  0.00     0.010 A 
ATOM     12  C   UNL A   1      39.504  29.189  31.586  1.00  0.00     0.010 A 
ATOM     13  C   UNL A   1      40.818  29.319  31.134  1.00  0.00    -0.014 A 
BRANCH  13  14
ATOM     14  C   UNL A   1      41.676  28.171  30.912  1.00  0.00     0.031 A 
ATOM     15  C   UNL A   1      42.495  27.729  32.075  1.00  0.00     0.074 A 
ATOM     16  C   UNL A   1      41.651  27.559  29.712  1.00  0.00     0.049 A 
ATOM     17  N   UNL A   1      43.759  27.447  32.124  1.00  0.00    -0.248 NA
ATOM     18  C   UNL A   1      41.815  27.673  33.380  1.00  0.00     0.031 C 
ATOM     19  C   UNL A   1      40.731  27.804  28.593  1.00  0.00     0.029 A 
ATOM     20  N   UNL A   1      42.360  26.483  29.288  1.00  0.00    -0.354 N 
ATOM     21  C   UNL A   1      43.999  27.019  33.429  1.00  0.00     0.074 A 
ATOM     22  C   UNL A   1      42.802  27.284  34.185  1.00  0.00     0.031 C 
ATOM     23  C   UNL A   1      40.753  26.740  27.764  1.00  0.00     0.029 A 
ATOM     24  C   UNL A   1      41.769  25.816  28.230  1.00  0.00     0.049 A 
ATOM     25  H   UNL A   1      43.214  26.205  29.694  1.00  0.00     0.167 HD
ATOM     26  C   UNL A   1      45.085  26.277  33.767  1.00  0.00     0.037 A 
ATOM     27  C   UNL A   1      42.007  24.535  27.867  1.00  0.00     0.037 A 
ATOM     28  C   UNL A   1      46.179  26.454  32.857  1.00  0.00     0.049 A 
ATOM     29  C   UNL A   1      43.305  24.133  28.465  1.00  0.00     0.074 A 
ATOM     30  C   UNL A   1      46.969  27.529  32.498  1.00  0.00     0.029 A 
ATOM     31  N   UNL A   1      46.424  25.490  31.914  1.00  0.00    -0.354 N 
ATOM     32  N   UNL A   1      44.458  24.637  28.115  1.00  0.00    -0.248 NA
ATOM     33  C   UNL A   1      43.280  23.492  29.773  1.00  0.00     0.031 C 
ATOM     34  C   UNL A   1      47.252  27.336  31.114  1.00  0.00     0.029 A 
ATOM     35  C   UNL A   1      46.635  26.146  30.728  1.00  0.00     0.049 A 
ATOM     36  H   UNL A   1      46.446  24.516  32.059  1.00  0.00     0.167 HD
ATOM     37  C   UNL A   1      45.185  24.728  29.294  1.00  0.00     0.074 A 
ATOM     38  C   UNL A   1      44.442  23.929  30.263  1.00  0.00     0.031 C 
ATOM     39  C   UNL A   1      46.163  25.668  29.453  1.00  0.00     0.037 A 
BRANCH  26  40
ATOM     40  C   UNL A   1      45.013  25.145  34.755  1.00  0.00     0.064 A 
ATOM     41  C   UNL A   1      45.720  25.218  35.969  1.00  0.00     0.173 A 
ATOM     42  C   UNL A   1      44.497  23.873  34.418  1.00  0.00     0.173 A 
ATOM     43  F   UNL A   1      46.284  26.369  36.361  1.00  0.00    -0.203 F 
ATOM     44  C   UNL A   1      45.929  24.086  36.763  1.00  0.00     0.198 A 
ATOM     45  C   UNL A   1      44.662  22.761  35.238  1.00  0.00     0.198 A 
ATOM     46  F   UNL A   1      43.914  23.639  33.235  1.00  0.00    -0.203 F 
ATOM     47  F   UNL A   1      46.699  24.174  37.857  1.00  0.00    -0.200 F 
ATOM     48  C   UNL A   1      45.401  22.860  36.396  1.00  0.00     0.200 A 
ATOM     49  F   UNL A   1      44.162  21.578  34.852  1.00  0.00    -0.200 F 
ATOM     50  F   UNL A   1      45.645  21.766  37.129  1.00  0.00    -0.200 F 
ENDBRANCH  26  40
BRANCH  27  51
ATOM     51  C   UNL A   1      40.983  23.575  27.394  1.00  0.00     0.064 A 
ATOM     52  C   UNL A   1      39.654  23.967  27.192  1.00  0.00     0.173 A 
ATOM     53  C   UNL A   1      41.337  22.293  26.918  1.00  0.00     0.173 A 
ATOM     54  F   UNL A   1      39.254  25.194  27.557  1.00  0.00    -0.203 F 
ATOM     55  C   UNL A   1      38.732  23.125  26.562  1.00  0.00     0.198 A 
ATOM     56  C   UNL A   1      40.414  21.447  26.307  1.00  0.00     0.198 A 
ATOM     57  F   UNL A   1      42.608  21.865  26.958  1.00  0.00    -0.203 F 
ATOM     58  F   UNL A   1      37.481  23.552  26.342  1.00  0.00    -0.200 F 
ATOM     59  C   UNL A   1      39.112  21.867  26.120  1.00  0.00     0.200 A 
ATOM     60  F   UNL A   1      40.808  20.249  25.854  1.00  0.00    -0.200 F 
ATOM     61  F   UNL A   1      38.238  21.077  25.482  1.00  0.00    -0.200 F 
ENDBRANCH  27  51
BRANCH  39  62
ATOM     62  C   UNL A   1      46.563  26.462  28.243  1.00  0.00     0.064 A 
ATOM     63  C   UNL A   1      47.502  26.002  27.303  1.00  0.00     0.173 A 
ATOM     64  C   UNL A   1      45.867  27.638  27.934  1.00  0.00     0.173 A 
ATOM     65  F   UNL A   1      48.114  24.824  27.468  1.00  0.00    -0.203 F 
ATOM     66  C   UNL A   1      47.774  26.713  26.138  1.00  0.00     0.198 A 
ATOM     67  C   UNL A   1      46.114  28.330  26.750  1.00  0.00     0.198 A 
ATOM     68  F   UNL A   1      44.907  28.085  28.755  1.00  0.00    -0.203 F 
ATOM     69  F   UNL A   1      48.683  26.253  25.265  1.00  0.00    -0.200 F 
ATOM     70  C   UNL A   1      47.075  27.874  25.859  1.00  0.00     0.200 A 
ATOM     71  F   UNL A   1      45.396  29.422  26.454  1.00  0.00    -0.200 F 
ATOM     72  F   UNL A   1      47.303  28.538  24.716  1.00  0.00    -0.200 F 
ENDBRANCH  39  62
ENDBRANCH  13  14
ENDBRANCH   6   8
ENDBRANCH   5   6
ENDBRANCH   4   5
ENDBRANCH   3   4
ENDBRANCH   2   3
ENDBRANCH   1   2
BRANCH   1  73
ATOM     73  C   UNL A   1      33.964  33.071  28.578  1.00  0.00     0.261 C 
BRANCH  73  74
ATOM     74  O   UNL A   1      34.494  32.390  27.421  1.00  0.00    -0.460 OA
BRANCH  74  75
ATOM     75  C   UNL A   1      34.913  31.111  27.642  1.00  0.00     0.338 C 
ATOM     76  O   UNL A   1      35.825  30.758  28.338  1.00  0.00    -0.246 OA
BRANCH  75  77
ATOM     77  C   UNL A   1      33.871  30.175  27.130  1.00  0.00     0.060 A 
ATOM     78  C   UNL A   1      34.193  28.807  27.148  1.00  0.00     0.018 A 
ATOM     79  C   UNL A   1      32.606  30.595  26.713  1.00  0.00     0.018 A 
ATOM     80  C   UNL A   1      33.270  27.859  26.713  1.00  0.00     0.029 A 
ATOM     81  C   UNL A   1      31.666  29.643  26.295  1.00  0.00     0.029 A 
ATOM     82  C   UNL A   1      32.014  28.283  26.276  1.00  0.00     0.066 A 
BRANCH  82  83
ATOM     83  N   UNL A   1      31.145  27.355  25.666  1.00  0.00    -0.220 N 
ATOM     84  C   UNL A   1      30.715  26.173  26.245  1.00  0.00     0.141 A 
ATOM     85  N   UNL A   1      30.896  27.334  24.346  1.00  0.00    -0.062 NA
ATOM     86  C   UNL A   1      30.387  25.363  25.182  1.00  0.00     0.093 A 
ATOM     87  N   UNL A   1      30.374  26.155  24.051  1.00  0.00    -0.134 NA
BRANCH  86  88
ATOM     88  C   UNL A   1      30.346  23.899  24.943  1.00  0.00     0.138 C 
BRANCH  88  89
ATOM     89  S   UNL A   1      30.945  22.569  25.954  1.00  0.00    -0.081 SA
BRANCH  89  90
ATOM     90  C   UNL A   1      32.167  21.572  25.234  1.00  0.00     0.176 A 
ATOM     91  N   UNL A   1      31.861  20.314  25.358  1.00  0.00    -0.223 NA
ATOM     92  N   UNL A   1      33.319  21.990  24.579  1.00  0.00    -0.255 N 
ATOM     93  C   UNL A   1      32.759  19.348  24.907  1.00  0.00     0.079 A 
ATOM     94  C   UNL A   1      34.403  21.108  24.732  1.00  0.00     0.266 A 
ATOM     95  C   UNL A   1      32.362  18.021  24.745  1.00  0.00     0.029 A 
ATOM     96  C   UNL A   1      34.088  19.677  24.716  1.00  0.00     0.066 A 
ATOM     97  O   UNL A   1      35.573  21.430  24.939  1.00  0.00    -0.268 OA
ATOM     98  C   UNL A   1      33.312  17.035  24.454  1.00  0.00     0.002 A 
ATOM     99  C   UNL A   1      35.058  18.700  24.477  1.00  0.00     0.016 A 
ATOM    100  C   UNL A   1      34.664  17.370  24.353  1.00  0.00     0.001 A 
BRANCH  92 101
ATOM    101  C   UNL A   1      33.549  23.246  23.877  1.00  0.00     0.051 A 
ATOM    102  C   UNL A   1      34.034  24.370  24.582  1.00  0.00     0.028 A 
ATOM    103  C   UNL A   1      33.347  23.444  22.506  1.00  0.00     0.028 A 
ATOM    104  C   UNL A   1      34.096  25.649  24.015  1.00  0.00     0.022 A 
ATOM    105  C   UNL A   1      33.361  24.727  21.934  1.00  0.00     0.022 A 
ATOM    106  C   UNL A   1      33.700  25.832  22.702  1.00  0.00     0.041 A 
ATOM    107  Cl  UNL A   1      33.648  27.409  22.029  1.00  0.00    -0.084 Cl
ENDBRANCH  92 101
ENDBRANCH  89  90
ENDBRANCH  88  89
ENDBRANCH  86  88
ENDBRANCH  82  83
ENDBRANCH  75  77
ENDBRANCH  74  75
ENDBRANCH  73  74
ENDBRANCH   1  73
TORSDOF 19
ENDMDL
MODEL 3
REMARK VINA RESULT:     -12.1      3.567      9.513
REMARK SMILES O=C(OCCOCCOC(=O)c1ccc(-n2cc(CSc3nc4ccccc4c(=O)n3-c3ccc(Cl)cc3)nn2)cc1)c1ccc(-c2c3nc(c(-c4c(F)c(F)c(F)c(F)c4F)c4ccc([nH]4)c(-c4c(F)c(F)c(F)c(F)c4F)c4nc(c(-c5c(F)c(F)c(F)c(F)c5F)c5ccc2[nH]5)C=C4)C=C3)cc1
REMARK SMILES IDX 7 1 6 2 5 3 4 4 3 5 2 6 1 7 43 8 44 9 105 10 45 11 104 12
REMARK SMILES IDX 46 13 47 14 48 15 98 16 49 17 103 18 97 19 99 20 50 21
REMARK SMILES IDX 102 22 96 23 95 24 51 26 83 27 63 28 82 29 64 30 67 31 81 32
REMARK SMILES IDX 100 33 65 34 66 35 80 37 101 38 68 39 52 40 53 41 61 42
REMARK SMILES IDX 54 43 55 44 59 45 62 46 56 47 57 48 60 49 58 50 84 51 85 52
REMARK SMILES IDX 93 53 86 54 87 55 91 56 94 57 88 58 89 59 92 60 90 61 69 62
REMARK SMILES IDX 70 63 78 64 71 65 72 66 76 67 79 68 73 69 74 70 77 71 75 72
REMARK SMILES IDX 8 73 9 74 10 75 11 76 12 77 13 78 42 79 14 80 41 81 15 82
REMARK SMILES IDX 16 83 17 84 40 85 18 86 39 87 19 88 20 89 21 90 22 91 31 92
REMARK SMILES IDX 23 93 29 94 24 95 28 96 30 97 25 98 27 99 26 100 32 101
REMARK SMILES IDX 33 102 38 103 34 104 37 105 35 106 36 107
REMARK H PARENT 99 25 67 36
REMARK Flexibility Score: inf
ROOT
ATOM      1  C   UNL A   1      38.210  19.530  24.929  1.00  0.00     0.202 C 
ENDROOT
BRANCH   1   2
ATOM      2  O   UNL A   1      38.904  20.062  26.073  1.00  0.00    -0.374 OA
BRANCH   2   3
ATOM      3  C   UNL A   1      40.327  20.060  26.007  1.00  0.00     0.202 C 
BRANCH   3   4
ATOM      4  C   UNL A   1      41.071  21.263  26.590  1.00  0.00     0.261 C 
BRANCH   4   5
ATOM      5  O   UNL A   1      40.249  22.140  27.384  1.00  0.00    -0.460 OA
BRANCH   5   6
ATOM      6  C   UNL A   1      39.701  23.276  26.893  1.00  0.00     0.338 C 
ATOM      7  O   UNL A   1      38.528  23.320  26.540  1.00  0.00    -0.246 OA
BRANCH   6   8
ATOM      8  C   UNL A   1      40.473  24.531  27.092  1.00  0.00     0.060 A 
ATOM      9  C   UNL A   1      41.604  24.629  27.905  1.00  0.00     0.016 A 
ATOM     10  C   UNL A   1      39.933  25.691  26.524  1.00  0.00     0.016 A 
ATOM     11  C   UNL A   1      41.991  25.850  28.403  1.00  0.00     0.010 A 
ATOM     12  C   UNL A   1      40.371  26.929  26.955  1.00  0.00     0.010 A 
ATOM     13  C   UNL A   1      41.298  26.979  27.997  1.00  0.00    -0.014 A 
BRANCH  13  14
ATOM     14  C   UNL A   1      41.526  28.185  28.773  1.00  0.00     0.031 A 
ATOM     15  C   UNL A   1      42.743  28.968  28.424  1.00  0.00     0.074 A 
ATOM     16  C   UNL A   1      40.624  28.539  29.708  1.00  0.00     0.049 A 
ATOM     17  N   UNL A   1      43.655  29.452  29.207  1.00  0.00    -0.248 NA
ATOM     18  C   UNL A   1      43.013  29.169  26.990  1.00  0.00     0.031 C 
ATOM     19  C   UNL A   1      39.310  27.938  29.969  1.00  0.00     0.029 A 
ATOM     20  N   UNL A   1      40.635  29.611  30.540  1.00  0.00    -0.354 N 
ATOM     21  C   UNL A   1      44.526  30.159  28.379  1.00  0.00     0.074 A 
ATOM     22  C   UNL A   1      44.151  29.859  27.021  1.00  0.00     0.031 C 
ATOM     23  C   UNL A   1      38.557  28.810  30.671  1.00  0.00     0.029 A 
ATOM     24  C   UNL A   1      39.379  29.956  31.008  1.00  0.00     0.049 A 
ATOM     25  H   UNL A   1      41.456  30.095  30.787  1.00  0.00     0.167 HD
ATOM     26  C   UNL A   1      45.368  31.116  28.849  1.00  0.00     0.037 A 
ATOM     27  C   UNL A   1      39.021  31.163  31.501  1.00  0.00     0.037 A 
ATOM     28  C   UNL A   1      45.680  30.942  30.237  1.00  0.00     0.049 A 
ATOM     29  C   UNL A   1      40.264  31.877  31.891  1.00  0.00     0.074 A 
ATOM     30  C   UNL A   1      46.321  29.957  30.965  1.00  0.00     0.029 A 
ATOM     31  N   UNL A   1      45.052  31.731  31.166  1.00  0.00    -0.354 N 
ATOM     32  N   UNL A   1      41.043  31.504  32.871  1.00  0.00    -0.248 NA
ATOM     33  C   UNL A   1      40.885  32.747  30.901  1.00  0.00     0.031 C 
ATOM     34  C   UNL A   1      45.643  29.920  32.218  1.00  0.00     0.029 A 
ATOM     35  C   UNL A   1      44.649  30.899  32.179  1.00  0.00     0.049 A 
ATOM     36  H   UNL A   1      44.917  32.705  31.116  1.00  0.00     0.167 HD
ATOM     37  C   UNL A   1      42.332  31.761  32.425  1.00  0.00     0.074 A 
ATOM     38  C   UNL A   1      42.167  32.604  31.245  1.00  0.00     0.031 C 
ATOM     39  C   UNL A   1      43.397  31.038  32.881  1.00  0.00     0.037 A 
BRANCH  26  40
ATOM     40  C   UNL A   1      45.637  32.392  28.099  1.00  0.00     0.064 A 
ATOM     41  C   UNL A   1      44.590  33.295  27.839  1.00  0.00     0.173 A 
ATOM     42  C   UNL A   1      46.835  32.615  27.384  1.00  0.00     0.173 A 
ATOM     43  F   UNL A   1      43.398  33.147  28.435  1.00  0.00    -0.203 F 
ATOM     44  C   UNL A   1      44.726  34.321  26.899  1.00  0.00     0.198 A 
ATOM     45  C   UNL A   1      46.983  33.670  26.488  1.00  0.00     0.198 A 
ATOM     46  F   UNL A   1      47.863  31.758  27.444  1.00  0.00    -0.203 F 
ATOM     47  F   UNL A   1      43.671  35.094  26.601  1.00  0.00    -0.200 F 
ATOM     48  C   UNL A   1      45.920  34.506  26.224  1.00  0.00     0.200 A 
ATOM     49  F   UNL A   1      48.141  33.817  25.829  1.00  0.00    -0.200 F 
ATOM     50  F   UNL A   1      46.033  35.455  25.286  1.00  0.00    -0.200 F 
ENDBRANCH  26  40
BRANCH  27  51
ATOM     51  C   UNL A   1      37.724  31.838  31.259  1.00  0.00     0.064 A 
ATOM     52  C   UNL A   1      36.718  31.851  32.233  1.00  0.00     0.173 A 
ATOM     53  C   UNL A   1      37.525  32.676  30.140  1.00  0.00     0.173 A 
ATOM     54  F   UNL A   1      36.860  31.132  33.356  1.00  0.00    -0.203 F 
ATOM     55  C   UNL A   1      35.576  32.647  32.092  1.00  0.00     0.198 A 
ATOM     56  C   UNL A   1      36.380  33.455  29.991  1.00  0.00     0.198 A 
ATOM     57  F   UNL A   1      38.478  32.824  29.207  1.00  0.00    -0.203 F 
ATOM     58  F   UNL A   1      34.656  32.672  33.065  1.00  0.00    -0.200 F 
ATOM     59  C   UNL A   1      35.408  33.447  30.972  1.00  0.00     0.200 A 
ATOM     60  F   UNL A   1      36.251  34.249  28.920  1.00  0.00    -0.200 F 
ATOM     61  F   UNL A   1      34.333  34.239  30.856  1.00  0.00    -0.200 F 
ENDBRANCH  27  51
BRANCH  39  62
ATOM     62  C   UNL A   1      43.156  30.098  34.026  1.00  0.00     0.064 A 
ATOM     63  C   UNL A   1      42.706  28.777  33.849  1.00  0.00     0.173 A 
ATOM     64  C   UNL A   1      43.542  30.477  35.318  1.00  0.00     0.173 A 
ATOM     65  F   UNL A   1      42.439  28.304  32.627  1.00  0.00    -0.203 F 
ATOM     66  C   UNL A   1      42.593  27.897  34.922  1.00  0.00     0.198 A 
ATOM     67  C   UNL A   1      43.463  29.584  36.385  1.00  0.00     0.198 A 
ATOM     68  F   UNL A   1      44.050  31.699  35.535  1.00  0.00    -0.203 F 
ATOM     69  F   UNL A   1      42.151  26.646  34.722  1.00  0.00    -0.200 F 
ATOM     70  C   UNL A   1      42.977  28.300  36.188  1.00  0.00     0.200 A 
ATOM     71  F   UNL A   1      43.889  29.957  37.599  1.00  0.00    -0.200 F 
ATOM     72  F   UNL A   1      42.912  27.439  37.215  1.00  0.00    -0.200 F 
ENDBRANCH  39  62
ENDBRANCH  13  14
ENDBRANCH   6   8
ENDBRANCH   5   6
ENDBRANCH   4   5
ENDBRANCH   3   4
ENDBRANCH   2   3
ENDBRANCH   1   2
BRANCH   1  73
ATOM     73  C   UNL A   1      36.672  19.492  24.953  1.00  0.00     0.261 C 
BRANCH  73  74
ATOM     74  O   UNL A   1      36.105  20.818  24.991  1.00  0.00    -0.460 OA
BRANCH  74  75
ATOM     75  C   UNL A   1      34.753  20.867  25.168  1.00  0.00     0.338 C 
ATOM     76  O   UNL A   1      34.113  20.302  26.011  1.00  0.00    -0.246 OA
BRANCH  75  77
ATOM     77  C   UNL A   1      34.207  21.979  24.339  1.00  0.00     0.060 A 
ATOM     78  C   UNL A   1      35.020  23.117  24.199  1.00  0.00     0.018 A 
ATOM     79  C   UNL A   1      32.986  21.900  23.663  1.00  0.00     0.018 A 
ATOM     80  C   UNL A   1      34.601  24.193  23.422  1.00  0.00     0.029 A 
ATOM     81  C   UNL A   1      32.570  22.971  22.861  1.00  0.00     0.029 A 
ATOM     82  C   UNL A   1      33.371  24.121  22.766  1.00  0.00     0.066 A 
BRANCH  82  83
ATOM     83  N   UNL A   1      32.859  25.270  22.128  1.00  0.00    -0.220 N 
ATOM     84  C   UNL A   1      32.930  26.556  22.634  1.00  0.00     0.141 A 
ATOM     85  N   UNL A   1      31.961  25.220  21.130  1.00  0.00    -0.062 NA
ATOM     86  C   UNL A   1      31.887  27.225  22.035  1.00  0.00     0.093 A 
ATOM     87  N   UNL A   1      31.411  26.419  21.020  1.00  0.00    -0.134 NA
BRANCH  86  88
ATOM     88  C   UNL A   1      31.030  28.383  22.393  1.00  0.00     0.138 C 
BRANCH  88  89
ATOM     89  S   UNL A   1      30.526  28.968  23.991  1.00  0.00    -0.081 SA
BRANCH  89  90
ATOM     90  C   UNL A   1      31.728  28.875  25.236  1.00  0.00     0.176 A 
ATOM     91  N   UNL A   1      32.080  30.067  25.619  1.00  0.00    -0.223 NA
ATOM     92  N   UNL A   1      32.263  27.727  25.809  1.00  0.00    -0.255 N 
ATOM     93  C   UNL A   1      33.094  30.205  26.565  1.00  0.00     0.079 A 
ATOM     94  C   UNL A   1      33.603  27.872  26.207  1.00  0.00     0.266 A 
ATOM     95  C   UNL A   1      33.304  31.419  27.220  1.00  0.00     0.029 A 
ATOM     96  C   UNL A   1      33.977  29.164  26.788  1.00  0.00     0.066 A 
ATOM     97  O   UNL A   1      34.496  27.038  26.055  1.00  0.00    -0.268 OA
ATOM     98  C   UNL A   1      34.426  31.590  28.040  1.00  0.00     0.002 A 
ATOM     99  C   UNL A   1      35.130  29.332  27.560  1.00  0.00     0.016 A 
ATOM    100  C   UNL A   1      35.355  30.558  28.183  1.00  0.00     0.001 A 
BRANCH  92 101
ATOM    101  C   UNL A   1      31.648  26.413  25.931  1.00  0.00     0.051 A 
ATOM    102  C   UNL A   1      30.246  26.275  25.819  1.00  0.00     0.028 A 
ATOM    103  C   UNL A   1      32.348  25.218  26.137  1.00  0.00     0.028 A 
ATOM    104  C   UNL A   1      29.577  25.081  26.113  1.00  0.00     0.022 A 
ATOM    105  C   UNL A   1      31.691  24.025  26.479  1.00  0.00     0.022 A 
ATOM    106  C   UNL A   1      30.304  23.971  26.502  1.00  0.00     0.041 A 
ATOM    107  Cl  UNL A   1      29.497  22.538  26.989  1.00  0.00    -0.084 Cl
ENDBRANCH  92 101
ENDBRANCH  89  90
ENDBRANCH  88  89
ENDBRANCH  86  88
ENDBRANCH  82  83
ENDBRANCH  75  77
ENDBRANCH  74  75
ENDBRANCH  73  74
ENDBRANCH   1  73
TORSDOF 19
ENDMDL
