MODEL 1
REMARK VINA RESULT:     -10.5      0.000      0.000
REMARK SMILES CCC[C@@](C)(C/C=C/c1ccccc1)C(=O)OCCOCCOC(=O)c1ccc(-c2c3nc(c(-c4c(F)c(F)c(F)c(F)c4F)c4ccc([nH]4)c(-c4c(F)c(F)c(F)c(F)c4F)c4nc(c(-c5c(F)c(F)c(F)c(F)c5F)c5ccc2[nH]5)C=C4)C=C3)cc1
REMARK SMILES IDX 19 1 18 2 17 3 15 4 16 5 4 6 5 7 3 8 2 9 1 10 6 11 7 12 8 13
REMARK SMILES IDX 9 14 10 15 14 16 11 17 13 18 12 19 20 20 21 21 22 22 23 23
REMARK SMILES IDX 24 24 25 25 26 26 27 27 88 28 28 29 87 30 29 31 30 32 31 33
REMARK SMILES IDX 81 34 32 35 86 36 80 37 82 38 33 39 85 40 79 41 78 42 34 44
REMARK SMILES IDX 66 45 46 46 65 47 47 48 50 49 64 50 83 51 48 52 49 53 63 55
REMARK SMILES IDX 84 56 51 57 35 58 36 59 44 60 37 61 38 62 42 63 45 64 39 65
REMARK SMILES IDX 40 66 43 67 41 68 67 69 68 70 76 71 69 72 70 73 74 74 77 75
REMARK SMILES IDX 71 76 72 77 75 78 73 79 52 80 53 81 61 82 54 83 55 84 59 85
REMARK SMILES IDX 62 86 56 87 57 88 60 89 58 90
REMARK H PARENT 82 43 50 54
REMARK Flexibility Score: inf
ROOT
ATOM      1  C   UNL A   1      34.441  21.464  27.078  1.00  0.00     0.202 C 
ENDROOT
BRANCH   1   2
ATOM      2  C   UNL A   1      33.123  22.221  27.295  1.00  0.00     0.261 C 
BRANCH   2   3
ATOM      3  O   UNL A   1      33.079  23.529  26.694  1.00  0.00    -0.463 OA
BRANCH   3   4
ATOM      4  C   UNL A   1      31.836  24.066  26.572  1.00  0.00     0.312 C 
ATOM      5  O   UNL A   1      30.903  23.789  27.320  1.00  0.00    -0.252 OA
BRANCH   4   6
ATOM      6  C   UNL A   1      31.675  25.043  25.395  1.00  0.00     0.069 C 
ATOM      7  C   UNL A   1      31.441  24.133  24.160  1.00  0.00     0.024 C 
BRANCH   6   8
ATOM      8  C   UNL A   1      30.454  25.982  25.615  1.00  0.00     0.018 C 
BRANCH   8   9
ATOM      9  C   UNL A   1      29.665  26.505  24.404  1.00  0.00    -0.002 C 
ATOM     10  C   UNL A   1      30.207  27.806  23.825  1.00  0.00     0.004 C 
ENDBRANCH   8   9
ENDBRANCH   6   8
BRANCH   6  11
ATOM     11  C   UNL A   1      32.970  25.875  25.058  1.00  0.00     0.046 C 
BRANCH  11  12
ATOM     12  C   UNL A   1      33.456  26.907  26.053  1.00  0.00    -0.025 C 
ATOM     13  C   UNL A   1      33.600  28.214  25.775  1.00  0.00     0.004 C 
BRANCH  13  14
ATOM     14  C   UNL A   1      34.118  29.248  26.697  1.00  0.00    -0.026 A 
ATOM     15  C   UNL A   1      33.324  30.378  26.943  1.00  0.00     0.008 A 
ATOM     16  C   UNL A   1      35.411  29.222  27.241  1.00  0.00     0.008 A 
ATOM     17  C   UNL A   1      33.826  31.470  27.657  1.00  0.00     0.001 A 
ATOM     18  C   UNL A   1      35.917  30.318  27.950  1.00  0.00     0.001 A 
ATOM     19  C   UNL A   1      35.129  31.447  28.143  1.00  0.00     0.000 A 
ENDBRANCH  13  14
ENDBRANCH  11  12
ENDBRANCH   6  11
ENDBRANCH   4   6
ENDBRANCH   3   4
ENDBRANCH   2   3
ENDBRANCH   1   2
BRANCH   1  20
ATOM     20  O   UNL A   1      35.233  21.847  25.959  1.00  0.00    -0.374 OA
BRANCH  20  21
ATOM     21  C   UNL A   1      35.687  20.797  25.095  1.00  0.00     0.202 C 
BRANCH  21  22
ATOM     22  C   UNL A   1      37.204  20.663  24.935  1.00  0.00     0.261 C 
BRANCH  22  23
ATOM     23  O   UNL A   1      37.873  21.813  25.484  1.00  0.00    -0.460 OA
BRANCH  23  24
ATOM     24  C   UNL A   1      39.036  21.519  26.106  1.00  0.00     0.338 C 
ATOM     25  O   UNL A   1      39.691  20.496  26.021  1.00  0.00    -0.246 OA
BRANCH  24  26
ATOM     26  C   UNL A   1      39.538  22.740  26.756  1.00  0.00     0.060 A 
ATOM     27  C   UNL A   1      38.950  23.958  26.394  1.00  0.00     0.016 A 
ATOM     28  C   UNL A   1      40.641  22.704  27.608  1.00  0.00     0.016 A 
ATOM     29  C   UNL A   1      39.494  25.155  26.856  1.00  0.00     0.010 A 
ATOM     30  C   UNL A   1      41.184  23.909  28.073  1.00  0.00     0.010 A 
ATOM     31  C   UNL A   1      40.634  25.141  27.673  1.00  0.00    -0.014 A 
BRANCH  31  32
ATOM     32  C   UNL A   1      41.309  26.421  28.005  1.00  0.00     0.031 A 
ATOM     33  C   UNL A   1      42.718  26.658  27.536  1.00  0.00     0.074 A 
ATOM     34  C   UNL A   1      40.656  27.382  28.680  1.00  0.00     0.049 A 
ATOM     35  N   UNL A   1      43.481  27.710  27.698  1.00  0.00    -0.248 NA
ATOM     36  C   UNL A   1      43.353  25.565  26.784  1.00  0.00     0.031 C 
ATOM     37  C   UNL A   1      39.279  27.285  29.163  1.00  0.00     0.029 A 
ATOM     38  N   UNL A   1      41.065  28.631  29.077  1.00  0.00    -0.354 N 
ATOM     39  C   UNL A   1      44.679  27.410  27.063  1.00  0.00     0.074 A 
ATOM     40  C   UNL A   1      44.556  26.065  26.543  1.00  0.00     0.031 C 
ATOM     41  C   UNL A   1      38.960  28.426  29.796  1.00  0.00     0.029 A 
ATOM     42  C   UNL A   1      40.113  29.322  29.784  1.00  0.00     0.049 A 
ATOM     43  H   UNL A   1      41.957  28.995  28.873  1.00  0.00     0.167 HD
ATOM     44  C   UNL A   1      45.778  28.189  26.920  1.00  0.00     0.037 A 
ATOM     45  C   UNL A   1      40.174  30.536  30.366  1.00  0.00     0.037 A 
ATOM     46  C   UNL A   1      45.905  29.525  27.439  1.00  0.00     0.049 A 
ATOM     47  C   UNL A   1      41.432  31.355  30.250  1.00  0.00     0.074 A 
ATOM     48  C   UNL A   1      46.969  30.402  27.317  1.00  0.00     0.029 A 
ATOM     49  N   UNL A   1      44.936  30.174  28.190  1.00  0.00    -0.354 N 
ATOM     50  N   UNL A   1      42.545  31.077  29.616  1.00  0.00    -0.248 NA
ATOM     51  C   UNL A   1      41.440  32.659  30.930  1.00  0.00     0.031 C 
ATOM     52  C   UNL A   1      46.663  31.564  28.034  1.00  0.00     0.029 A 
ATOM     53  C   UNL A   1      45.390  31.429  28.564  1.00  0.00     0.049 A 
ATOM     54  H   UNL A   1      44.056  29.799  28.421  1.00  0.00     0.167 HD
ATOM     55  C   UNL A   1      43.377  32.173  29.805  1.00  0.00     0.074 A 
ATOM     56  C   UNL A   1      42.635  33.129  30.599  1.00  0.00     0.031 C 
ATOM     57  C   UNL A   1      44.643  32.367  29.361  1.00  0.00     0.037 A 
BRANCH  44  58
ATOM     58  C   UNL A   1      46.947  27.606  26.182  1.00  0.00     0.064 A 
ATOM     59  C   UNL A   1      47.069  27.729  24.789  1.00  0.00     0.173 A 
ATOM     60  C   UNL A   1      47.974  26.952  26.878  1.00  0.00     0.173 A 
ATOM     61  F   UNL A   1      46.109  28.335  24.077  1.00  0.00    -0.203 F 
ATOM     62  C   UNL A   1      48.171  27.201  24.119  1.00  0.00     0.198 A 
ATOM     63  C   UNL A   1      49.083  26.446  26.207  1.00  0.00     0.198 A 
ATOM     64  F   UNL A   1      47.905  26.813  28.210  1.00  0.00    -0.203 F 
ATOM     65  F   UNL A   1      48.251  27.297  22.785  1.00  0.00    -0.200 F 
ATOM     66  C   UNL A   1      49.179  26.565  24.828  1.00  0.00     0.200 A 
ATOM     67  F   UNL A   1      50.062  25.840  26.895  1.00  0.00    -0.200 F 
ATOM     68  F   UNL A   1      50.240  26.062  24.183  1.00  0.00    -0.200 F 
ENDBRANCH  44  58
BRANCH  45  69
ATOM     69  C   UNL A   1      39.003  31.049  31.124  1.00  0.00     0.064 A 
ATOM     70  C   UNL A   1      38.068  31.901  30.523  1.00  0.00     0.173 A 
ATOM     71  C   UNL A   1      38.804  30.701  32.468  1.00  0.00     0.173 A 
ATOM     72  F   UNL A   1      38.232  32.284  29.248  1.00  0.00    -0.203 F 
ATOM     73  C   UNL A   1      36.981  32.396  31.243  1.00  0.00     0.198 A 
ATOM     74  C   UNL A   1      37.703  31.177  33.178  1.00  0.00     0.198 A 
ATOM     75  F   UNL A   1      39.674  29.893  33.089  1.00  0.00    -0.203 F 
ATOM     76  F   UNL A   1      36.123  33.241  30.656  1.00  0.00    -0.200 F 
ATOM     77  C   UNL A   1      36.797  32.029  32.566  1.00  0.00     0.200 A 
ATOM     78  F   UNL A   1      37.525  30.812  34.455  1.00  0.00    -0.200 F 
ATOM     79  F   UNL A   1      35.749  32.502  33.256  1.00  0.00    -0.200 F 
ENDBRANCH  45  69
BRANCH  57  80
ATOM     80  C   UNL A   1      45.303  33.668  29.715  1.00  0.00     0.064 A 
ATOM     81  C   UNL A   1      46.087  33.798  30.870  1.00  0.00     0.173 A 
ATOM     82  C   UNL A   1      45.182  34.783  28.873  1.00  0.00     0.173 A 
ATOM     83  F   UNL A   1      46.220  32.765  31.716  1.00  0.00    -0.203 F 
ATOM     84  C   UNL A   1      46.709  35.005  31.180  1.00  0.00     0.198 A 
ATOM     85  C   UNL A   1      45.826  35.980  29.171  1.00  0.00     0.198 A 
ATOM     86  F   UNL A   1      44.447  34.707  27.752  1.00  0.00    -0.203 F 
ATOM     87  F   UNL A   1      47.420  35.120  32.310  1.00  0.00    -0.200 F 
ATOM     88  C   UNL A   1      46.583  36.092  30.328  1.00  0.00     0.200 A 
ATOM     89  F   UNL A   1      45.711  37.027  28.342  1.00  0.00    -0.200 F 
ATOM     90  F   UNL A   1      47.186  37.252  30.625  1.00  0.00    -0.200 F 
ENDBRANCH  57  80
ENDBRANCH  31  32
ENDBRANCH  24  26
ENDBRANCH  23  24
ENDBRANCH  22  23
ENDBRANCH  21  22
ENDBRANCH  20  21
ENDBRANCH   1  20
TORSDOF 19
ENDMDL
MODEL 2
REMARK VINA RESULT:     -10.1      1.172      2.211
REMARK SMILES CCC[C@@](C)(C/C=C/c1ccccc1)C(=O)OCCOCCOC(=O)c1ccc(-c2c3nc(c(-c4c(F)c(F)c(F)c(F)c4F)c4ccc([nH]4)c(-c4c(F)c(F)c(F)c(F)c4F)c4nc(c(-c5c(F)c(F)c(F)c(F)c5F)c5ccc2[nH]5)C=C4)C=C3)cc1
REMARK SMILES IDX 19 1 18 2 17 3 15 4 16 5 4 6 5 7 3 8 2 9 1 10 6 11 7 12 8 13
REMARK SMILES IDX 9 14 10 15 14 16 11 17 13 18 12 19 20 20 21 21 22 22 23 23
REMARK SMILES IDX 24 24 25 25 26 26 27 27 88 28 28 29 87 30 29 31 30 32 31 33
REMARK SMILES IDX 81 34 32 35 86 36 80 37 82 38 33 39 85 40 79 41 78 42 34 44
REMARK SMILES IDX 66 45 46 46 65 47 47 48 50 49 64 50 83 51 48 52 49 53 63 55
REMARK SMILES IDX 84 56 51 57 35 58 36 59 44 60 37 61 38 62 42 63 45 64 39 65
REMARK SMILES IDX 40 66 43 67 41 68 67 69 68 70 76 71 69 72 70 73 74 74 77 75
REMARK SMILES IDX 71 76 72 77 75 78 73 79 52 80 53 81 61 82 54 83 55 84 59 85
REMARK SMILES IDX 62 86 56 87 57 88 60 89 58 90
REMARK H PARENT 82 43 50 54
REMARK Flexibility Score: inf
ROOT
ATOM      1  C   UNL A   1      36.830  22.895  24.613  1.00  0.00     0.202 C 
ENDROOT
BRANCH   1   2
ATOM      2  C   UNL A   1      35.911  23.159  23.412  1.00  0.00     0.261 C 
BRANCH   2   3
ATOM      3  O   UNL A   1      34.504  23.142  23.720  1.00  0.00    -0.463 OA
BRANCH   3   4
ATOM      4  C   UNL A   1      33.708  23.780  22.822  1.00  0.00     0.312 C 
ATOM      5  O   UNL A   1      33.567  23.408  21.660  1.00  0.00    -0.252 OA
BRANCH   4   6
ATOM      6  C   UNL A   1      33.006  25.034  23.368  1.00  0.00     0.069 C 
ATOM      7  C   UNL A   1      33.582  26.204  22.525  1.00  0.00     0.024 C 
BRANCH   6   8
ATOM      8  C   UNL A   1      31.465  24.938  23.177  1.00  0.00     0.018 C 
BRANCH   8   9
ATOM      9  C   UNL A   1      30.545  24.881  24.406  1.00  0.00    -0.002 C 
ATOM     10  C   UNL A   1      29.674  26.118  24.587  1.00  0.00     0.004 C 
ENDBRANCH   8   9
ENDBRANCH   6   8
BRANCH   6  11
ATOM     11  C   UNL A   1      33.367  25.384  24.861  1.00  0.00     0.046 C 
BRANCH  11  12
ATOM     12  C   UNL A   1      33.748  26.808  25.207  1.00  0.00    -0.025 C 
ATOM     13  C   UNL A   1      33.463  27.403  26.378  1.00  0.00     0.004 C 
BRANCH  13  14
ATOM     14  C   UNL A   1      33.769  28.804  26.740  1.00  0.00    -0.026 A 
ATOM     15  C   UNL A   1      35.058  29.104  27.208  1.00  0.00     0.008 A 
ATOM     16  C   UNL A   1      32.808  29.825  26.760  1.00  0.00     0.008 A 
ATOM     17  C   UNL A   1      35.358  30.363  27.734  1.00  0.00     0.001 A 
ATOM     18  C   UNL A   1      33.106  31.085  27.293  1.00  0.00     0.001 A 
ATOM     19  C   UNL A   1      34.377  31.347  27.794  1.00  0.00     0.000 A 
ENDBRANCH  13  14
ENDBRANCH  11  12
ENDBRANCH   6  11
ENDBRANCH   4   6
ENDBRANCH   3   4
ENDBRANCH   2   3
ENDBRANCH   1   2
BRANCH   1  20
ATOM     20  O   UNL A   1      36.560  21.736  25.395  1.00  0.00    -0.374 OA
BRANCH  20  21
ATOM     21  C   UNL A   1      37.039  20.484  24.889  1.00  0.00     0.202 C 
BRANCH  21  22
ATOM     22  C   UNL A   1      38.502  20.150  25.190  1.00  0.00     0.261 C 
BRANCH  22  23
ATOM     23  O   UNL A   1      38.912  20.750  26.432  1.00  0.00    -0.460 OA
BRANCH  23  24
ATOM     24  C   UNL A   1      40.253  20.855  26.567  1.00  0.00     0.338 C 
ATOM     25  O   UNL A   1      41.107  20.086  26.167  1.00  0.00    -0.246 OA
BRANCH  24  26
ATOM     26  C   UNL A   1      40.562  22.193  27.095  1.00  0.00     0.060 A 
ATOM     27  C   UNL A   1      39.974  23.295  26.463  1.00  0.00     0.016 A 
ATOM     28  C   UNL A   1      41.505  22.370  28.109  1.00  0.00     0.016 A 
ATOM     29  C   UNL A   1      40.360  24.587  26.818  1.00  0.00     0.010 A 
ATOM     30  C   UNL A   1      41.888  23.670  28.465  1.00  0.00     0.010 A 
ATOM     31  C   UNL A   1      41.342  24.783  27.799  1.00  0.00    -0.014 A 
BRANCH  31  32
ATOM     32  C   UNL A   1      41.874  26.149  28.035  1.00  0.00     0.031 A 
ATOM     33  C   UNL A   1      43.232  26.517  27.504  1.00  0.00     0.074 A 
ATOM     34  C   UNL A   1      41.134  27.067  28.681  1.00  0.00     0.049 A 
ATOM     35  N   UNL A   1      43.872  27.657  27.580  1.00  0.00    -0.248 NA
ATOM     36  C   UNL A   1      43.966  25.462  26.791  1.00  0.00     0.031 C 
ATOM     37  C   UNL A   1      39.793  26.842  29.218  1.00  0.00     0.029 A 
ATOM     38  N   UNL A   1      41.408  28.376  28.994  1.00  0.00    -0.354 N 
ATOM     39  C   UNL A   1      45.077  27.459  26.920  1.00  0.00     0.074 A 
ATOM     40  C   UNL A   1      45.096  26.081  26.478  1.00  0.00     0.031 C 
ATOM     41  C   UNL A   1      39.362  27.974  29.799  1.00  0.00     0.029 A 
ATOM     42  C   UNL A   1      40.404  28.994  29.695  1.00  0.00     0.049 A 
ATOM     43  H   UNL A   1      42.245  28.827  28.738  1.00  0.00     0.167 HD
ATOM     44  C   UNL A   1      46.074  28.348  26.694  1.00  0.00     0.037 A 
ATOM     45  C   UNL A   1      40.340  30.239  30.208  1.00  0.00     0.037 A 
ATOM     46  C   UNL A   1      46.060  29.718  27.135  1.00  0.00     0.049 A 
ATOM     47  C   UNL A   1      41.491  31.188  30.001  1.00  0.00     0.074 A 
ATOM     48  C   UNL A   1      47.012  30.702  26.926  1.00  0.00     0.029 A 
ATOM     49  N   UNL A   1      45.046  30.295  27.883  1.00  0.00    -0.354 N 
ATOM     50  N   UNL A   1      42.609  31.001  29.344  1.00  0.00    -0.248 NA
ATOM     51  C   UNL A   1      41.368  32.522  30.608  1.00  0.00     0.031 C 
ATOM     52  C   UNL A   1      46.594  31.862  27.589  1.00  0.00     0.029 A 
ATOM     53  C   UNL A   1      45.362  31.614  28.171  1.00  0.00     0.049 A 
ATOM     54  H   UNL A   1      44.222  29.837  28.166  1.00  0.00     0.167 HD
ATOM     55  C   UNL A   1      43.315  32.194  29.442  1.00  0.00     0.074 A 
ATOM     56  C   UNL A   1      42.490  33.105  30.209  1.00  0.00     0.031 C 
ATOM     57  C   UNL A   1      44.535  32.506  28.942  1.00  0.00     0.037 A 
BRANCH  44  58
ATOM     58  C   UNL A   1      47.280  27.860  25.947  1.00  0.00     0.064 A 
ATOM     59  C   UNL A   1      48.426  27.409  26.620  1.00  0.00     0.173 A 
ATOM     60  C   UNL A   1      47.274  27.805  24.546  1.00  0.00     0.173 A 
ATOM     61  F   UNL A   1      48.485  27.453  27.958  1.00  0.00    -0.203 F 
ATOM     62  C   UNL A   1      49.531  26.939  25.913  1.00  0.00     0.198 A 
ATOM     63  C   UNL A   1      48.371  27.314  23.845  1.00  0.00     0.198 A 
ATOM     64  F   UNL A   1      46.201  28.220  23.857  1.00  0.00    -0.203 F 
ATOM     65  F   UNL A   1      50.629  26.548  26.573  1.00  0.00    -0.200 F 
ATOM     66  C   UNL A   1      49.501  26.887  24.527  1.00  0.00     0.200 A 
ATOM     67  F   UNL A   1      48.337  27.253  22.505  1.00  0.00    -0.200 F 
ATOM     68  F   UNL A   1      50.562  26.429  23.849  1.00  0.00    -0.200 F 
ENDBRANCH  44  58
BRANCH  45  69
ATOM     69  C   UNL A   1      39.141  30.658  30.978  1.00  0.00     0.064 A 
ATOM     70  C   UNL A   1      38.078  31.328  30.358  1.00  0.00     0.173 A 
ATOM     71  C   UNL A   1      39.041  30.404  32.354  1.00  0.00     0.173 A 
ATOM     72  F   UNL A   1      38.142  31.618  29.050  1.00  0.00    -0.203 F 
ATOM     73  C   UNL A   1      36.964  31.737  31.087  1.00  0.00     0.198 A 
ATOM     74  C   UNL A   1      37.914  30.792  33.076  1.00  0.00     0.198 A 
ATOM     75  F   UNL A   1      40.034  29.771  32.994  1.00  0.00    -0.203 F 
ATOM     76  F   UNL A   1      35.978  32.411  30.477  1.00  0.00    -0.200 F 
ATOM     77  C   UNL A   1      36.880  31.464  32.444  1.00  0.00     0.200 A 
ATOM     78  F   UNL A   1      37.835  30.517  34.385  1.00  0.00    -0.200 F 
ATOM     79  F   UNL A   1      35.806  31.854  33.144  1.00  0.00    -0.200 F 
ENDBRANCH  45  69
BRANCH  57  80
ATOM     80  C   UNL A   1      45.050  33.891  29.201  1.00  0.00     0.064 A 
ATOM     81  C   UNL A   1      44.819  34.938  28.296  1.00  0.00     0.173 A 
ATOM     82  C   UNL A   1      45.750  34.184  30.381  1.00  0.00     0.173 A 
ATOM     83  F   UNL A   1      44.169  34.705  27.146  1.00  0.00    -0.203 F 
ATOM     84  C   UNL A   1      45.287  36.224  28.555  1.00  0.00     0.198 A 
ATOM     85  C   UNL A   1      46.195  35.475  30.649  1.00  0.00     0.198 A 
ATOM     86  F   UNL A   1      45.992  33.217  31.280  1.00  0.00    -0.203 F 
ATOM     87  F   UNL A   1      45.090  37.200  27.659  1.00  0.00    -0.200 F 
ATOM     88  C   UNL A   1      45.969  36.492  29.733  1.00  0.00     0.200 A 
ATOM     89  F   UNL A   1      46.844  35.735  31.792  1.00  0.00    -0.200 F 
ATOM     90  F   UNL A   1      46.415  37.731  29.983  1.00  0.00    -0.200 F 
ENDBRANCH  57  80
ENDBRANCH  31  32
ENDBRANCH  24  26
ENDBRANCH  23  24
ENDBRANCH  22  23
ENDBRANCH  21  22
ENDBRANCH  20  21
ENDBRANCH   1  20
TORSDOF 19
ENDMDL
MODEL 3
REMARK VINA RESULT:     -10.0      2.222      7.860
REMARK SMILES CCC[C@@](C)(C/C=C/c1ccccc1)C(=O)OCCOCCOC(=O)c1ccc(-c2c3nc(c(-c4c(F)c(F)c(F)c(F)c4F)c4ccc([nH]4)c(-c4c(F)c(F)c(F)c(F)c4F)c4nc(c(-c5c(F)c(F)c(F)c(F)c5F)c5ccc2[nH]5)C=C4)C=C3)cc1
REMARK SMILES IDX 19 1 18 2 17 3 15 4 16 5 4 6 5 7 3 8 2 9 1 10 6 11 7 12 8 13
REMARK SMILES IDX 9 14 10 15 14 16 11 17 13 18 12 19 20 20 21 21 22 22 23 23
REMARK SMILES IDX 24 24 25 25 26 26 27 27 88 28 28 29 87 30 29 31 30 32 31 33
REMARK SMILES IDX 81 34 32 35 86 36 80 37 82 38 33 39 85 40 79 41 78 42 34 44
REMARK SMILES IDX 66 45 46 46 65 47 47 48 50 49 64 50 83 51 48 52 49 53 63 55
REMARK SMILES IDX 84 56 51 57 35 58 36 59 44 60 37 61 38 62 42 63 45 64 39 65
REMARK SMILES IDX 40 66 43 67 41 68 67 69 68 70 76 71 69 72 70 73 74 74 77 75
REMARK SMILES IDX 71 76 72 77 75 78 73 79 52 80 53 81 61 82 54 83 55 84 59 85
REMARK SMILES IDX 62 86 56 87 57 88 60 89 58 90
REMARK H PARENT 82 43 50 54
REMARK Flexibility Score: inf
ROOT
ATOM      1  C   UNL A   1      37.233  21.804  25.415  1.00  0.00     0.202 C 
ENDROOT
BRANCH   1   2
ATOM      2  C   UNL A   1      36.252  22.788  24.762  1.00  0.00     0.261 C 
BRANCH   2   3
ATOM      3  O   UNL A   1      35.424  22.214  23.733  1.00  0.00    -0.463 OA
BRANCH   3   4
ATOM      4  C   UNL A   1      34.304  22.922  23.431  1.00  0.00     0.312 C 
ATOM      5  O   UNL A   1      34.312  23.936  22.738  1.00  0.00    -0.252 OA
BRANCH   4   6
ATOM      6  C   UNL A   1      33.010  22.366  24.047  1.00  0.00     0.069 C 
ATOM      7  C   UNL A   1      31.873  22.959  23.172  1.00  0.00     0.024 C 
BRANCH   6   8
ATOM      8  C   UNL A   1      32.986  20.811  23.985  1.00  0.00     0.018 C 
BRANCH   8   9
ATOM      9  C   UNL A   1      33.156  19.992  25.274  1.00  0.00    -0.002 C 
ATOM     10  C   UNL A   1      32.767  18.525  25.133  1.00  0.00     0.004 C 
ENDBRANCH   8   9
ENDBRANCH   6   8
BRANCH   6  11
ATOM     11  C   UNL A   1      32.714  22.874  25.509  1.00  0.00     0.046 C 
BRANCH  11  12
ATOM     12  C   UNL A   1      33.057  24.304  25.869  1.00  0.00    -0.025 C 
ATOM     13  C   UNL A   1      32.148  25.282  26.022  1.00  0.00     0.004 C 
BRANCH  13  14
ATOM     14  C   UNL A   1      32.437  26.701  26.321  1.00  0.00    -0.026 A 
ATOM     15  C   UNL A   1      33.739  27.175  26.101  1.00  0.00     0.008 A 
ATOM     16  C   UNL A   1      31.516  27.567  26.929  1.00  0.00     0.008 A 
ATOM     17  C   UNL A   1      34.125  28.448  26.530  1.00  0.00     0.001 A 
ATOM     18  C   UNL A   1      31.902  28.840  27.364  1.00  0.00     0.001 A 
ATOM     19  C   UNL A   1      33.212  29.273  27.178  1.00  0.00     0.000 A 
ENDBRANCH  13  14
ENDBRANCH  11  12
ENDBRANCH   6  11
ENDBRANCH   4   6
ENDBRANCH   3   4
ENDBRANCH   2   3
ENDBRANCH   1   2
BRANCH   1  20
ATOM     20  O   UNL A   1      37.161  20.444  25.001  1.00  0.00    -0.374 OA
BRANCH  20  21
ATOM     21  C   UNL A   1      38.367  19.675  25.084  1.00  0.00     0.202 C 
BRANCH  21  22
ATOM     22  C   UNL A   1      39.616  20.427  25.553  1.00  0.00     0.261 C 
BRANCH  22  23
ATOM     23  O   UNL A   1      40.283  19.696  26.598  1.00  0.00    -0.460 OA
BRANCH  23  24
ATOM     24  C   UNL A   1      41.594  19.478  26.356  1.00  0.00     0.338 C 
ATOM     25  O   UNL A   1      42.103  18.518  25.807  1.00  0.00    -0.246 OA
BRANCH  24  26
ATOM     26  C   UNL A   1      42.335  20.711  26.665  1.00  0.00     0.060 A 
ATOM     27  C   UNL A   1      42.228  21.227  27.961  1.00  0.00     0.016 A 
ATOM     28  C   UNL A   1      43.019  21.411  25.671  1.00  0.00     0.016 A 
ATOM     29  C   UNL A   1      42.775  22.475  28.259  1.00  0.00     0.010 A 
ATOM     30  C   UNL A   1      43.570  22.663  25.974  1.00  0.00     0.010 A 
ATOM     31  C   UNL A   1      43.422  23.215  27.260  1.00  0.00    -0.014 A 
BRANCH  31  32
ATOM     32  C   UNL A   1      43.836  24.613  27.541  1.00  0.00     0.031 A 
ATOM     33  C   UNL A   1      42.790  25.644  27.866  1.00  0.00     0.074 A 
ATOM     34  C   UNL A   1      45.137  24.952  27.548  1.00  0.00     0.049 A 
ATOM     35  N   UNL A   1      42.937  26.910  28.163  1.00  0.00    -0.248 NA
ATOM     36  C   UNL A   1      41.393  25.186  27.858  1.00  0.00     0.031 C 
ATOM     37  C   UNL A   1      46.246  24.039  27.278  1.00  0.00     0.029 A 
ATOM     38  N   UNL A   1      45.745  26.158  27.795  1.00  0.00    -0.354 N 
ATOM     39  C   UNL A   1      41.656  27.398  28.383  1.00  0.00     0.074 A 
ATOM     40  C   UNL A   1      40.740  26.301  28.154  1.00  0.00     0.031 C 
ATOM     41  C   UNL A   1      47.401  24.720  27.368  1.00  0.00     0.029 A 
ATOM     42  C   UNL A   1      47.112  26.118  27.679  1.00  0.00     0.049 A 
ATOM     43  H   UNL A   1      45.247  26.973  28.032  1.00  0.00     0.167 HD
ATOM     44  C   UNL A   1      41.278  28.646  28.753  1.00  0.00     0.037 A 
ATOM     45  C   UNL A   1      48.024  27.103  27.798  1.00  0.00     0.037 A 
ATOM     46  C   UNL A   1      42.186  29.740  28.978  1.00  0.00     0.049 A 
ATOM     47  C   UNL A   1      47.572  28.497  28.143  1.00  0.00     0.074 A 
ATOM     48  C   UNL A   1      41.897  31.032  29.385  1.00  0.00     0.029 A 
ATOM     49  N   UNL A   1      43.560  29.673  28.806  1.00  0.00    -0.354 N 
ATOM     50  N   UNL A   1      46.362  28.938  28.386  1.00  0.00    -0.248 NA
ATOM     51  C   UNL A   1      48.615  29.529  28.232  1.00  0.00     0.031 C 
ATOM     52  C   UNL A   1      43.092  31.759  29.413  1.00  0.00     0.029 A 
ATOM     53  C   UNL A   1      44.130  30.908  29.069  1.00  0.00     0.049 A 
ATOM     54  H   UNL A   1      44.056  28.866  28.539  1.00  0.00     0.167 HD
ATOM     55  C   UNL A   1      46.498  30.291  28.672  1.00  0.00     0.074 A 
ATOM     56  C   UNL A   1      47.911  30.595  28.590  1.00  0.00     0.031 C 
ATOM     57  C   UNL A   1      45.538  31.198  28.975  1.00  0.00     0.037 A 
BRANCH  44  58
ATOM     58  C   UNL A   1      39.810  28.902  28.921  1.00  0.00     0.064 A 
ATOM     59  C   UNL A   1      39.016  29.347  27.853  1.00  0.00     0.173 A 
ATOM     60  C   UNL A   1      39.182  28.662  30.152  1.00  0.00     0.173 A 
ATOM     61  F   UNL A   1      39.571  29.602  26.659  1.00  0.00    -0.203 F 
ATOM     62  C   UNL A   1      37.649  29.561  28.018  1.00  0.00     0.198 A 
ATOM     63  C   UNL A   1      37.813  28.855  30.307  1.00  0.00     0.198 A 
ATOM     64  F   UNL A   1      39.896  28.232  31.203  1.00  0.00    -0.203 F 
ATOM     65  F   UNL A   1      36.916  30.021  26.995  1.00  0.00    -0.200 F 
ATOM     66  C   UNL A   1      37.048  29.310  29.242  1.00  0.00     0.200 A 
ATOM     67  F   UNL A   1      37.230  28.602  31.488  1.00  0.00    -0.200 F 
ATOM     68  F   UNL A   1      35.733  29.511  29.399  1.00  0.00    -0.200 F 
ENDBRANCH  44  58
BRANCH  45  69
ATOM     69  C   UNL A   1      49.462  26.805  27.577  1.00  0.00     0.064 A 
ATOM     70  C   UNL A   1      50.300  26.447  28.642  1.00  0.00     0.173 A 
ATOM     71  C   UNL A   1      50.029  26.883  26.297  1.00  0.00     0.173 A 
ATOM     72  F   UNL A   1      49.809  26.387  29.889  1.00  0.00    -0.203 F 
ATOM     73  C   UNL A   1      51.654  26.187  28.435  1.00  0.00     0.198 A 
ATOM     74  C   UNL A   1      51.377  26.599  26.088  1.00  0.00     0.198 A 
ATOM     75  F   UNL A   1      49.270  27.228  25.247  1.00  0.00    -0.203 F 
ATOM     76  F   UNL A   1      52.441  25.884  29.476  1.00  0.00    -0.200 F 
ATOM     77  C   UNL A   1      52.189  26.258  27.158  1.00  0.00     0.200 A 
ATOM     78  F   UNL A   1      51.887  26.661  24.851  1.00  0.00    -0.200 F 
ATOM     79  F   UNL A   1      53.490  26.004  26.959  1.00  0.00    -0.200 F 
ENDBRANCH  45  69
BRANCH  57  80
ATOM     80  C   UNL A   1      45.983  32.605  29.249  1.00  0.00     0.064 A 
ATOM     81  C   UNL A   1      46.021  33.570  28.233  1.00  0.00     0.173 A 
ATOM     82  C   UNL A   1      46.340  33.001  30.546  1.00  0.00     0.173 A 
ATOM     83  F   UNL A   1      45.704  33.237  26.973  1.00  0.00    -0.203 F 
ATOM     84  C   UNL A   1      46.419  34.877  28.503  1.00  0.00     0.198 A 
ATOM     85  C   UNL A   1      46.714  34.314  30.818  1.00  0.00     0.198 A 
ATOM     86  F   UNL A   1      46.316  32.114  31.555  1.00  0.00    -0.203 F 
ATOM     87  F   UNL A   1      46.487  35.774  27.509  1.00  0.00    -0.200 F 
ATOM     88  C   UNL A   1      46.759  35.249  29.795  1.00  0.00     0.200 A 
ATOM     89  F   UNL A   1      47.032  34.674  32.069  1.00  0.00    -0.200 F 
ATOM     90  F   UNL A   1      47.138  36.508  30.054  1.00  0.00    -0.200 F 
ENDBRANCH  57  80
ENDBRANCH  31  32
ENDBRANCH  24  26
ENDBRANCH  23  24
ENDBRANCH  22  23
ENDBRANCH  21  22
ENDBRANCH  20  21
ENDBRANCH   1  20
TORSDOF 19
ENDMDL
