MODEL 1
REMARK VINA RESULT:     -11.6      0.000      0.000
REMARK SMILES C[C@@H](C(=O)OCCOCCOC(=O)c1ccc(-c2c3nc(c(-c4c(F)c(F)c(F)c(F)c4F)c4ccc([nH]4)c(-c4c(F)c(F)c(F)c(F)c4F)c4nc(c(-c5c(F)c(F)c(F)c(F)c5F)c5ccc2[nH]5)C=C4)C=C3)cc1)c1ccc(-c2ccccc2)cc1
REMARK SMILES IDX 8 1 7 2 6 3 5 4 3 5 4 6 2 7 1 8 77 9 78 10 88 11 79 12 87 13
REMARK SMILES IDX 80 14 81 15 82 16 86 17 83 18 85 19 84 20 9 21 10 22 11 23
REMARK SMILES IDX 12 24 13 25 14 26 15 27 76 28 16 29 75 30 17 31 18 32 19 33
REMARK SMILES IDX 69 34 20 35 74 36 68 37 70 38 21 39 73 40 67 41 66 42 22 44
REMARK SMILES IDX 54 45 34 46 53 47 35 48 38 49 52 50 71 51 36 52 37 53 51 55
REMARK SMILES IDX 72 56 39 57 23 58 24 59 32 60 25 61 26 62 30 63 33 64 27 65
REMARK SMILES IDX 28 66 31 67 29 68 55 69 56 70 64 71 57 72 58 73 62 74 65 75
REMARK SMILES IDX 59 76 60 77 63 78 61 79 40 80 41 81 49 82 42 83 43 84 47 85
REMARK SMILES IDX 50 86 44 87 45 88 48 89 46 90
REMARK H PARENT 70 43 38 54
REMARK Flexibility Score: inf
ROOT
ATOM      1  O   UNL A   1      35.210  21.215  25.833  1.00  0.00    -0.374 OA
ENDROOT
BRANCH   1   2
ATOM      2  C   UNL A   1      33.795  21.087  25.672  1.00  0.00     0.202 C 
BRANCH   2   3
ATOM      3  C   UNL A   1      32.952  22.074  26.485  1.00  0.00     0.261 C 
BRANCH   3   4
ATOM      4  O   UNL A   1      31.667  22.236  25.860  1.00  0.00    -0.463 OA
BRANCH   4   5
ATOM      5  C   UNL A   1      30.895  23.246  26.343  1.00  0.00     0.313 C 
ATOM      6  O   UNL A   1      30.365  23.235  27.449  1.00  0.00    -0.252 OA
BRANCH   5   7
ATOM      7  C   UNL A   1      30.815  24.432  25.378  1.00  0.00     0.126 C 
ATOM      8  C   UNL A   1      31.219  24.124  23.931  1.00  0.00     0.025 C 
BRANCH   7   9
ATOM      9  C   UNL A   1      31.565  25.662  25.882  1.00  0.00    -0.034 A 
ATOM     10  C   UNL A   1      32.946  25.761  25.662  1.00  0.00     0.005 A 
ATOM     11  C   UNL A   1      30.931  26.705  26.575  1.00  0.00     0.005 A 
ATOM     12  C   UNL A   1      33.662  26.885  26.088  1.00  0.00     0.009 A 
ATOM     13  C   UNL A   1      31.651  27.824  27.009  1.00  0.00     0.009 A 
ATOM     14  C   UNL A   1      33.023  27.939  26.757  1.00  0.00    -0.018 A 
BRANCH  14  15
ATOM     15  C   UNL A   1      33.758  29.152  27.133  1.00  0.00    -0.018 A 
ATOM     16  C   UNL A   1      35.146  29.100  27.349  1.00  0.00     0.009 A 
ATOM     17  C   UNL A   1      33.111  30.388  27.271  1.00  0.00     0.009 A 
ATOM     18  C   UNL A   1      35.864  30.248  27.689  1.00  0.00     0.001 A 
ATOM     19  C   UNL A   1      33.828  31.538  27.616  1.00  0.00     0.001 A 
ATOM     20  C   UNL A   1      35.205  31.466  27.824  1.00  0.00     0.000 A 
ENDBRANCH  14  15
ENDBRANCH   7   9
ENDBRANCH   5   7
ENDBRANCH   4   5
ENDBRANCH   3   4
ENDBRANCH   2   3
ENDBRANCH   1   2
BRANCH   1  21
ATOM     21  C   UNL A   1      36.031  20.365  25.032  1.00  0.00     0.202 C 
BRANCH  21  22
ATOM     22  C   UNL A   1      37.444  20.874  24.735  1.00  0.00     0.261 C 
BRANCH  22  23
ATOM     23  O   UNL A   1      37.861  21.873  25.681  1.00  0.00    -0.460 OA
BRANCH  23  24
ATOM     24  C   UNL A   1      39.100  21.682  26.189  1.00  0.00     0.338 C 
ATOM     25  O   UNL A   1      39.824  20.707  26.038  1.00  0.00    -0.246 OA
BRANCH  24  26
ATOM     26  C   UNL A   1      39.572  22.915  26.843  1.00  0.00     0.060 A 
ATOM     27  C   UNL A   1      38.948  24.114  26.472  1.00  0.00     0.016 A 
ATOM     28  C   UNL A   1      40.636  22.918  27.747  1.00  0.00     0.016 A 
ATOM     29  C   UNL A   1      39.423  25.327  26.958  1.00  0.00     0.010 A 
ATOM     30  C   UNL A   1      41.120  24.139  28.229  1.00  0.00     0.010 A 
ATOM     31  C   UNL A   1      40.542  25.348  27.804  1.00  0.00    -0.014 A 
BRANCH  31  32
ATOM     32  C   UNL A   1      41.199  26.644  28.095  1.00  0.00     0.031 A 
ATOM     33  C   UNL A   1      42.618  26.850  27.646  1.00  0.00     0.074 A 
ATOM     34  C   UNL A   1      40.527  27.634  28.706  1.00  0.00     0.049 A 
ATOM     35  N   UNL A   1      43.394  27.895  27.790  1.00  0.00    -0.248 NA
ATOM     36  C   UNL A   1      43.250  25.726  26.936  1.00  0.00     0.031 C 
ATOM     37  C   UNL A   1      39.137  27.565  29.147  1.00  0.00     0.029 A 
ATOM     38  N   UNL A   1      40.932  28.897  29.060  1.00  0.00    -0.354 N 
ATOM     39  C   UNL A   1      44.601  27.552  27.197  1.00  0.00     0.074 A 
ATOM     40  C   UNL A   1      44.469  26.195  26.714  1.00  0.00     0.031 C 
ATOM     41  C   UNL A   1      38.802  28.735  29.720  1.00  0.00     0.029 A 
ATOM     42  C   UNL A   1      39.964  29.622  29.709  1.00  0.00     0.049 A 
ATOM     43  H   UNL A   1      41.831  29.249  28.867  1.00  0.00     0.167 HD
ATOM     44  C   UNL A   1      45.717  28.307  27.057  1.00  0.00     0.037 A 
ATOM     45  C   UNL A   1      40.020  30.857  30.244  1.00  0.00     0.037 A 
ATOM     46  C   UNL A   1      45.842  29.659  27.533  1.00  0.00     0.049 A 
ATOM     47  C   UNL A   1      41.295  31.651  30.136  1.00  0.00     0.074 A 
ATOM     48  C   UNL A   1      46.921  30.517  27.419  1.00  0.00     0.029 A 
ATOM     49  N   UNL A   1      44.854  30.346  28.220  1.00  0.00    -0.354 N 
ATOM     50  N   UNL A   1      42.423  31.331  29.547  1.00  0.00    -0.248 NA
ATOM     51  C   UNL A   1      41.304  32.979  30.765  1.00  0.00     0.031 C 
ATOM     52  C   UNL A   1      46.603  31.708  28.081  1.00  0.00     0.029 A 
ATOM     53  C   UNL A   1      45.307  31.610  28.564  1.00  0.00     0.049 A 
ATOM     54  H   UNL A   1      43.961  29.990  28.433  1.00  0.00     0.167 HD
ATOM     55  C   UNL A   1      43.263  32.426  29.709  1.00  0.00     0.074 A 
ATOM     56  C   UNL A   1      42.512  33.423  30.442  1.00  0.00     0.031 C 
ATOM     57  C   UNL A   1      44.540  32.591  29.287  1.00  0.00     0.037 A 
BRANCH  44  58
ATOM     58  C   UNL A   1      46.901  27.675  26.387  1.00  0.00     0.064 A 
ATOM     59  C   UNL A   1      47.089  27.746  24.999  1.00  0.00     0.173 A 
ATOM     60  C   UNL A   1      47.874  27.012  27.149  1.00  0.00     0.173 A 
ATOM     61  F   UNL A   1      46.179  28.356  24.225  1.00  0.00    -0.203 F 
ATOM     62  C   UNL A   1      48.198  27.158  24.396  1.00  0.00     0.198 A 
ATOM     63  C   UNL A   1      48.995  26.447  26.546  1.00  0.00     0.198 A 
ATOM     64  F   UNL A   1      47.741  26.916  28.481  1.00  0.00    -0.203 F 
ATOM     65  F   UNL A   1      48.336  27.201  23.063  1.00  0.00    -0.200 F 
ATOM     66  C   UNL A   1      49.153  26.515  25.170  1.00  0.00     0.200 A 
ATOM     67  F   UNL A   1      49.921  25.835  27.297  1.00  0.00    -0.200 F 
ATOM     68  F   UNL A   1      50.221  25.953  24.589  1.00  0.00    -0.200 F 
ENDBRANCH  44  58
BRANCH  45  69
ATOM     69  C   UNL A   1      38.832  31.419  30.938  1.00  0.00     0.064 A 
ATOM     70  C   UNL A   1      37.924  32.246  30.263  1.00  0.00     0.173 A 
ATOM     71  C   UNL A   1      38.590  31.153  32.294  1.00  0.00     0.173 A 
ATOM     72  F   UNL A   1      38.127  32.549  28.973  1.00  0.00    -0.203 F 
ATOM     73  C   UNL A   1      36.827  32.798  30.922  1.00  0.00     0.198 A 
ATOM     74  C   UNL A   1      37.479  31.685  32.944  1.00  0.00     0.198 A 
ATOM     75  F   UNL A   1      39.430  30.371  32.986  1.00  0.00    -0.203 F 
ATOM     76  F   UNL A   1      35.998  33.621  30.264  1.00  0.00    -0.200 F 
ATOM     77  C   UNL A   1      36.602  32.512  32.260  1.00  0.00     0.200 A 
ATOM     78  F   UNL A   1      37.260  31.398  34.235  1.00  0.00    -0.200 F 
ATOM     79  F   UNL A   1      35.545  33.041  32.892  1.00  0.00    -0.200 F 
ENDBRANCH  45  69
BRANCH  57  80
ATOM     80  C   UNL A   1      45.197  33.910  29.576  1.00  0.00     0.064 A 
ATOM     81  C   UNL A   1      45.953  34.116  30.738  1.00  0.00     0.173 A 
ATOM     82  C   UNL A   1      45.103  34.965  28.656  1.00  0.00     0.173 A 
ATOM     83  F   UNL A   1      46.061  33.142  31.655  1.00  0.00    -0.203 F 
ATOM     84  C   UNL A   1      46.573  35.339  30.981  1.00  0.00     0.198 A 
ATOM     85  C   UNL A   1      45.748  36.177  28.887  1.00  0.00     0.198 A 
ATOM     86  F   UNL A   1      44.398  34.816  27.525  1.00  0.00    -0.203 F 
ATOM     87  F   UNL A   1      47.255  35.528  32.119  1.00  0.00    -0.200 F 
ATOM     88  C   UNL A   1      46.477  36.364  30.052  1.00  0.00     0.200 A 
ATOM     89  F   UNL A   1      45.665  37.162  27.983  1.00  0.00    -0.200 F 
ATOM     90  F   UNL A   1      47.081  37.539  30.283  1.00  0.00    -0.200 F 
ENDBRANCH  57  80
ENDBRANCH  31  32
ENDBRANCH  24  26
ENDBRANCH  23  24
ENDBRANCH  22  23
ENDBRANCH  21  22
ENDBRANCH   1  21
TORSDOF 16
ENDMDL
MODEL 2
REMARK VINA RESULT:     -11.6      0.305      1.709
REMARK SMILES C[C@@H](C(=O)OCCOCCOC(=O)c1ccc(-c2c3nc(c(-c4c(F)c(F)c(F)c(F)c4F)c4ccc([nH]4)c(-c4c(F)c(F)c(F)c(F)c4F)c4nc(c(-c5c(F)c(F)c(F)c(F)c5F)c5ccc2[nH]5)C=C4)C=C3)cc1)c1ccc(-c2ccccc2)cc1
REMARK SMILES IDX 8 1 7 2 6 3 5 4 3 5 4 6 2 7 1 8 77 9 78 10 88 11 79 12 87 13
REMARK SMILES IDX 80 14 81 15 82 16 86 17 83 18 85 19 84 20 9 21 10 22 11 23
REMARK SMILES IDX 12 24 13 25 14 26 15 27 76 28 16 29 75 30 17 31 18 32 19 33
REMARK SMILES IDX 69 34 20 35 74 36 68 37 70 38 21 39 73 40 67 41 66 42 22 44
REMARK SMILES IDX 54 45 34 46 53 47 35 48 38 49 52 50 71 51 36 52 37 53 51 55
REMARK SMILES IDX 72 56 39 57 23 58 24 59 32 60 25 61 26 62 30 63 33 64 27 65
REMARK SMILES IDX 28 66 31 67 29 68 55 69 56 70 64 71 57 72 58 73 62 74 65 75
REMARK SMILES IDX 59 76 60 77 63 78 61 79 40 80 41 81 49 82 42 83 43 84 47 85
REMARK SMILES IDX 50 86 44 87 45 88 48 89 46 90
REMARK H PARENT 70 43 38 54
REMARK Flexibility Score: inf
ROOT
ATOM      1  O   UNL A   1      35.474  21.934  25.173  1.00  0.00    -0.374 OA
ENDROOT
BRANCH   1   2
ATOM      2  C   UNL A   1      34.106  22.109  24.793  1.00  0.00     0.202 C 
BRANCH   2   3
ATOM      3  C   UNL A   1      33.076  21.687  25.845  1.00  0.00     0.261 C 
BRANCH   3   4
ATOM      4  O   UNL A   1      31.761  22.076  25.413  1.00  0.00    -0.463 OA
BRANCH   4   5
ATOM      5  C   UNL A   1      31.171  23.071  26.128  1.00  0.00     0.313 C 
ATOM      6  O   UNL A   1      30.931  23.002  27.328  1.00  0.00    -0.252 OA
BRANCH   5   7
ATOM      7  C   UNL A   1      30.898  24.317  25.280  1.00  0.00     0.126 C 
ATOM      8  C   UNL A   1      31.136  24.146  23.775  1.00  0.00     0.025 C 
BRANCH   7   9
ATOM      9  C   UNL A   1      31.630  25.556  25.791  1.00  0.00    -0.034 A 
ATOM     10  C   UNL A   1      33.016  25.659  25.605  1.00  0.00     0.005 A 
ATOM     11  C   UNL A   1      30.975  26.603  26.456  1.00  0.00     0.005 A 
ATOM     12  C   UNL A   1      33.716  26.790  26.037  1.00  0.00     0.009 A 
ATOM     13  C   UNL A   1      31.678  27.730  26.896  1.00  0.00     0.009 A 
ATOM     14  C   UNL A   1      33.056  27.849  26.677  1.00  0.00    -0.018 A 
BRANCH  14  15
ATOM     15  C   UNL A   1      33.776  29.068  27.060  1.00  0.00    -0.018 A 
ATOM     16  C   UNL A   1      33.089  30.289  27.177  1.00  0.00     0.009 A 
ATOM     17  C   UNL A   1      35.151  29.052  27.334  1.00  0.00     0.009 A 
ATOM     18  C   UNL A   1      33.755  31.455  27.558  1.00  0.00     0.001 A 
ATOM     19  C   UNL A   1      35.821  30.220  27.711  1.00  0.00     0.001 A 
ATOM     20  C   UNL A   1      35.121  31.421  27.824  1.00  0.00     0.000 A 
ENDBRANCH  14  15
ENDBRANCH   7   9
ENDBRANCH   5   7
ENDBRANCH   4   5
ENDBRANCH   3   4
ENDBRANCH   2   3
ENDBRANCH   1   2
BRANCH   1  21
ATOM     21  C   UNL A   1      36.020  20.622  25.039  1.00  0.00     0.202 C 
BRANCH  21  22
ATOM     22  C   UNL A   1      37.544  20.532  24.932  1.00  0.00     0.261 C 
BRANCH  22  23
ATOM     23  O   UNL A   1      38.185  21.719  25.426  1.00  0.00    -0.460 OA
BRANCH  23  24
ATOM     24  C   UNL A   1      39.310  21.495  26.142  1.00  0.00     0.338 C 
ATOM     25  O   UNL A   1      39.984  20.472  26.168  1.00  0.00    -0.246 OA
BRANCH  24  26
ATOM     26  C   UNL A   1      39.751  22.740  26.793  1.00  0.00     0.060 A 
ATOM     27  C   UNL A   1      39.119  23.926  26.397  1.00  0.00     0.016 A 
ATOM     28  C   UNL A   1      40.796  22.767  27.719  1.00  0.00     0.016 A 
ATOM     29  C   UNL A   1      39.567  25.151  26.880  1.00  0.00     0.010 A 
ATOM     30  C   UNL A   1      41.253  23.999  28.198  1.00  0.00     0.010 A 
ATOM     31  C   UNL A   1      40.667  25.196  27.749  1.00  0.00    -0.014 A 
BRANCH  31  32
ATOM     32  C   UNL A   1      41.300  26.503  28.041  1.00  0.00     0.031 A 
ATOM     33  C   UNL A   1      42.704  26.748  27.564  1.00  0.00     0.074 A 
ATOM     34  C   UNL A   1      40.619  27.471  28.677  1.00  0.00     0.049 A 
ATOM     35  N   UNL A   1      43.458  27.809  27.703  1.00  0.00    -0.248 NA
ATOM     36  C   UNL A   1      43.346  25.647  26.828  1.00  0.00     0.031 C 
ATOM     37  C   UNL A   1      39.240  27.364  29.148  1.00  0.00     0.029 A 
ATOM     38  N   UNL A   1      41.002  28.739  29.037  1.00  0.00    -0.354 N 
ATOM     39  C   UNL A   1      44.660  27.502  27.080  1.00  0.00     0.074 A 
ATOM     40  C   UNL A   1      44.549  26.147  26.585  1.00  0.00     0.031 C 
ATOM     41  C   UNL A   1      38.891  28.519  29.740  1.00  0.00     0.029 A 
ATOM     42  C   UNL A   1      40.032  29.434  29.715  1.00  0.00     0.049 A 
ATOM     43  H   UNL A   1      41.888  29.115  28.829  1.00  0.00     0.167 HD
ATOM     44  C   UNL A   1      45.755  28.284  26.925  1.00  0.00     0.037 A 
ATOM     45  C   UNL A   1      40.070  30.664  30.263  1.00  0.00     0.037 A 
ATOM     46  C   UNL A   1      45.858  29.633  27.414  1.00  0.00     0.049 A 
ATOM     47  C   UNL A   1      41.324  31.489  30.136  1.00  0.00     0.074 A 
ATOM     48  C   UNL A   1      46.915  30.518  27.286  1.00  0.00     0.029 A 
ATOM     49  N   UNL A   1      44.869  30.290  28.130  1.00  0.00    -0.354 N 
ATOM     50  N   UNL A   1      42.446  31.202  29.519  1.00  0.00    -0.248 NA
ATOM     51  C   UNL A   1      41.316  32.810  30.780  1.00  0.00     0.031 C 
ATOM     52  C   UNL A   1      46.583  31.694  27.969  1.00  0.00     0.029 A 
ATOM     53  C   UNL A   1      45.300  31.559  28.478  1.00  0.00     0.049 A 
ATOM     54  H   UNL A   1      43.990  29.910  28.358  1.00  0.00     0.167 HD
ATOM     55  C   UNL A   1      43.263  32.315  29.676  1.00  0.00     0.074 A 
ATOM     56  C   UNL A   1      42.505  33.286  30.437  1.00  0.00     0.031 C 
ATOM     57  C   UNL A   1      44.527  32.514  29.229  1.00  0.00     0.037 A 
BRANCH  44  58
ATOM     58  C   UNL A   1      46.938  27.687  26.223  1.00  0.00     0.064 A 
ATOM     59  C   UNL A   1      47.080  27.752  24.829  1.00  0.00     0.173 A 
ATOM     60  C   UNL A   1      47.958  27.066  26.959  1.00  0.00     0.173 A 
ATOM     61  F   UNL A   1      46.124  28.322  24.079  1.00  0.00    -0.203 F 
ATOM     62  C   UNL A   1      48.188  27.198  24.195  1.00  0.00     0.198 A 
ATOM     63  C   UNL A   1      49.078  26.535  26.324  1.00  0.00     0.198 A 
ATOM     64  F   UNL A   1      47.871  26.978  28.295  1.00  0.00    -0.203 F 
ATOM     65  F   UNL A   1      48.282  27.233  22.859  1.00  0.00    -0.200 F 
ATOM     66  C   UNL A   1      49.190  26.596  24.944  1.00  0.00     0.200 A 
ATOM     67  F   UNL A   1      50.049  25.963  27.050  1.00  0.00    -0.200 F 
ATOM     68  F   UNL A   1      50.258  26.066  24.333  1.00  0.00    -0.200 F 
ENDBRANCH  44  58
BRANCH  45  69
ATOM     69  C   UNL A   1      38.884  31.190  30.989  1.00  0.00     0.064 A 
ATOM     70  C   UNL A   1      38.683  30.907  32.346  1.00  0.00     0.173 A 
ATOM     71  C   UNL A   1      37.921  31.973  30.334  1.00  0.00     0.173 A 
ATOM     72  F   UNL A   1      39.563  30.141  33.008  1.00  0.00    -0.203 F 
ATOM     73  C   UNL A   1      37.555  31.374  33.019  1.00  0.00     0.198 A 
ATOM     74  C   UNL A   1      36.808  32.461  31.015  1.00  0.00     0.198 A 
ATOM     75  F   UNL A   1      38.066  32.269  29.035  1.00  0.00    -0.203 F 
ATOM     76  F   UNL A   1      37.365  31.052  34.306  1.00  0.00    -0.200 F 
ATOM     77  C   UNL A   1      36.622  32.156  32.354  1.00  0.00     0.200 A 
ATOM     78  F   UNL A   1      35.914  33.224  30.371  1.00  0.00    -0.200 F 
ATOM     79  F   UNL A   1      35.540  32.607  33.003  1.00  0.00    -0.200 F 
ENDBRANCH  45  69
BRANCH  57  80
ATOM     80  C   UNL A   1      45.159  33.845  29.519  1.00  0.00     0.064 A 
ATOM     81  C   UNL A   1      45.020  34.932  28.645  1.00  0.00     0.173 A 
ATOM     82  C   UNL A   1      45.874  34.045  30.710  1.00  0.00     0.173 A 
ATOM     83  F   UNL A   1      44.357  34.787  27.487  1.00  0.00    -0.203 F 
ATOM     84  C   UNL A   1      45.594  36.166  28.940  1.00  0.00     0.198 A 
ATOM     85  C   UNL A   1      46.422  35.288  31.015  1.00  0.00     0.198 A 
ATOM     86  F   UNL A   1      46.028  33.040  31.583  1.00  0.00    -0.203 F 
ATOM     87  F   UNL A   1      45.486  37.179  28.069  1.00  0.00    -0.200 F 
ATOM     88  C   UNL A   1      46.287  36.344  30.128  1.00  0.00     0.200 A 
ATOM     89  F   UNL A   1      47.080  35.462  32.169  1.00  0.00    -0.200 F 
ATOM     90  F   UNL A   1      46.833  37.535  30.414  1.00  0.00    -0.200 F 
ENDBRANCH  57  80
ENDBRANCH  31  32
ENDBRANCH  24  26
ENDBRANCH  23  24
ENDBRANCH  22  23
ENDBRANCH  21  22
ENDBRANCH   1  21
TORSDOF 16
ENDMDL
MODEL 3
REMARK VINA RESULT:     -11.6      4.804     10.412
REMARK SMILES C[C@@H](C(=O)OCCOCCOC(=O)c1ccc(-c2c3nc(c(-c4c(F)c(F)c(F)c(F)c4F)c4ccc([nH]4)c(-c4c(F)c(F)c(F)c(F)c4F)c4nc(c(-c5c(F)c(F)c(F)c(F)c5F)c5ccc2[nH]5)C=C4)C=C3)cc1)c1ccc(-c2ccccc2)cc1
REMARK SMILES IDX 8 1 7 2 6 3 5 4 3 5 4 6 2 7 1 8 77 9 78 10 88 11 79 12 87 13
REMARK SMILES IDX 80 14 81 15 82 16 86 17 83 18 85 19 84 20 9 21 10 22 11 23
REMARK SMILES IDX 12 24 13 25 14 26 15 27 76 28 16 29 75 30 17 31 18 32 19 33
REMARK SMILES IDX 69 34 20 35 74 36 68 37 70 38 21 39 73 40 67 41 66 42 22 44
REMARK SMILES IDX 54 45 34 46 53 47 35 48 38 49 52 50 71 51 36 52 37 53 51 55
REMARK SMILES IDX 72 56 39 57 23 58 24 59 32 60 25 61 26 62 30 63 33 64 27 65
REMARK SMILES IDX 28 66 31 67 29 68 55 69 56 70 64 71 57 72 58 73 62 74 65 75
REMARK SMILES IDX 59 76 60 77 63 78 61 79 40 80 41 81 49 82 42 83 43 84 47 85
REMARK SMILES IDX 50 86 44 87 45 88 48 89 46 90
REMARK H PARENT 70 43 38 54
REMARK Flexibility Score: inf
ROOT
ATOM      1  O   UNL A   1      34.134  35.828  28.600  1.00  0.00    -0.374 OA
ENDROOT
BRANCH   1   2
ATOM      2  C   UNL A   1      32.853  35.859  29.236  1.00  0.00     0.202 C 
BRANCH   2   3
ATOM      3  C   UNL A   1      32.884  35.992  30.762  1.00  0.00     0.261 C 
BRANCH   3   4
ATOM      4  O   UNL A   1      33.337  34.756  31.342  1.00  0.00    -0.463 OA
BRANCH   4   5
ATOM      5  C   UNL A   1      34.495  34.823  32.052  1.00  0.00     0.313 C 
ATOM      6  O   UNL A   1      34.808  35.772  32.763  1.00  0.00    -0.252 OA
BRANCH   5   7
ATOM      7  C   UNL A   1      35.336  33.551  31.918  1.00  0.00     0.126 C 
ATOM      8  C   UNL A   1      35.480  32.726  33.203  1.00  0.00     0.025 C 
BRANCH   7   9
ATOM      9  C   UNL A   1      36.710  33.808  31.302  1.00  0.00    -0.034 A 
ATOM     10  C   UNL A   1      37.727  34.353  32.097  1.00  0.00     0.005 A 
ATOM     11  C   UNL A   1      37.000  33.532  29.957  1.00  0.00     0.005 A 
ATOM     12  C   UNL A   1      39.005  34.578  31.573  1.00  0.00     0.009 A 
ATOM     13  C   UNL A   1      38.276  33.767  29.432  1.00  0.00     0.009 A 
ATOM     14  C   UNL A   1      39.302  34.277  30.237  1.00  0.00    -0.018 A 
BRANCH  14  15
ATOM     15  C   UNL A   1      40.662  34.440  29.709  1.00  0.00    -0.018 A 
ATOM     16  C   UNL A   1      41.698  33.601  30.153  1.00  0.00     0.009 A 
ATOM     17  C   UNL A   1      40.962  35.413  28.745  1.00  0.00     0.009 A 
ATOM     18  C   UNL A   1      42.994  33.730  29.648  1.00  0.00     0.001 A 
ATOM     19  C   UNL A   1      42.260  35.547  28.242  1.00  0.00     0.001 A 
ATOM     20  C   UNL A   1      43.274  34.704  28.693  1.00  0.00     0.000 A 
ENDBRANCH  14  15
ENDBRANCH   7   9
ENDBRANCH   5   7
ENDBRANCH   4   5
ENDBRANCH   3   4
ENDBRANCH   2   3
ENDBRANCH   1   2
BRANCH   1  21
ATOM     21  C   UNL A   1      34.462  34.650  27.864  1.00  0.00     0.202 C 
BRANCH  21  22
ATOM     22  C   UNL A   1      33.534  33.448  28.063  1.00  0.00     0.261 C 
BRANCH  22  23
ATOM     23  O   UNL A   1      34.211  32.351  28.698  1.00  0.00    -0.460 OA
BRANCH  23  24
ATOM     24  C   UNL A   1      34.302  31.233  27.942  1.00  0.00     0.338 C 
ATOM     25  O   UNL A   1      33.564  30.893  27.026  1.00  0.00    -0.246 OA
BRANCH  24  26
ATOM     26  C   UNL A   1      35.551  30.515  28.251  1.00  0.00     0.060 A 
ATOM     27  C   UNL A   1      35.585  29.776  29.441  1.00  0.00     0.016 A 
ATOM     28  C   UNL A   1      36.682  30.607  27.438  1.00  0.00     0.016 A 
ATOM     29  C   UNL A   1      36.768  29.174  29.854  1.00  0.00     0.010 A 
ATOM     30  C   UNL A   1      37.875  30.009  27.858  1.00  0.00     0.010 A 
ATOM     31  C   UNL A   1      37.931  29.326  29.087  1.00  0.00    -0.014 A 
BRANCH  31  32
ATOM     32  C   UNL A   1      39.233  28.915  29.664  1.00  0.00     0.031 A 
ATOM     33  C   UNL A   1      39.755  29.652  30.865  1.00  0.00     0.074 A 
ATOM     34  C   UNL A   1      39.914  27.874  29.155  1.00  0.00     0.049 A 
ATOM     35  N   UNL A   1      40.864  29.471  31.536  1.00  0.00    -0.248 NA
ATOM     36  C   UNL A   1      38.910  30.741  31.382  1.00  0.00     0.031 C 
ATOM     37  C   UNL A   1      39.486  27.058  28.021  1.00  0.00     0.029 A 
ATOM     38  N   UNL A   1      41.114  27.326  29.533  1.00  0.00    -0.354 N 
ATOM     39  C   UNL A   1      40.852  30.423  32.547  1.00  0.00     0.074 A 
ATOM     40  C   UNL A   1      39.642  31.199  32.387  1.00  0.00     0.031 C 
ATOM     41  C   UNL A   1      40.414  26.114  27.790  1.00  0.00     0.029 A 
ATOM     42  C   UNL A   1      41.512  26.277  28.742  1.00  0.00     0.049 A 
ATOM     43  H   UNL A   1      41.639  27.653  30.298  1.00  0.00     0.167 HD
ATOM     44  C   UNL A   1      41.765  30.625  33.527  1.00  0.00     0.037 A 
ATOM     45  C   UNL A   1      42.642  25.546  28.778  1.00  0.00     0.037 A 
ATOM     46  C   UNL A   1      42.964  29.846  33.685  1.00  0.00     0.049 A 
ATOM     47  C   UNL A   1      43.675  25.835  29.836  1.00  0.00     0.074 A 
ATOM     48  C   UNL A   1      43.941  29.955  34.660  1.00  0.00     0.029 A 
ATOM     49  N   UNL A   1      43.353  28.818  32.841  1.00  0.00    -0.354 N 
ATOM     50  N   UNL A   1      43.642  26.717  30.806  1.00  0.00    -0.248 NA
ATOM     51  C   UNL A   1      44.899  25.023  29.806  1.00  0.00     0.031 C 
ATOM     52  C   UNL A   1      44.945  29.023  34.377  1.00  0.00     0.029 A 
ATOM     53  C   UNL A   1      44.570  28.300  33.254  1.00  0.00     0.049 A 
ATOM     54  H   UNL A   1      42.840  28.501  32.063  1.00  0.00     0.167 HD
ATOM     55  C   UNL A   1      44.824  26.548  31.516  1.00  0.00     0.074 A 
ATOM     56  C   UNL A   1      45.547  25.471  30.873  1.00  0.00     0.031 C 
ATOM     57  C   UNL A   1      45.270  27.222  32.604  1.00  0.00     0.037 A 
BRANCH  44  58
ATOM     58  C   UNL A   1      41.514  31.751  34.485  1.00  0.00     0.064 A 
ATOM     59  C   UNL A   1      42.031  33.036  34.266  1.00  0.00     0.173 A 
ATOM     60  C   UNL A   1      40.723  31.547  35.625  1.00  0.00     0.173 A 
ATOM     61  F   UNL A   1      42.806  33.279  33.198  1.00  0.00    -0.203 F 
ATOM     62  C   UNL A   1      41.783  34.071  35.164  1.00  0.00     0.198 A 
ATOM     63  C   UNL A   1      40.456  32.589  36.509  1.00  0.00     0.198 A 
ATOM     64  F   UNL A   1      40.205  30.336  35.881  1.00  0.00    -0.203 F 
ATOM     65  F   UNL A   1      42.322  35.280  34.957  1.00  0.00    -0.200 F 
ATOM     66  C   UNL A   1      40.990  33.848  36.281  1.00  0.00     0.200 A 
ATOM     67  F   UNL A   1      39.681  32.375  37.581  1.00  0.00    -0.200 F 
ATOM     68  F   UNL A   1      40.749  34.845  37.142  1.00  0.00    -0.200 F 
ENDBRANCH  44  58
BRANCH  45  69
ATOM     69  C   UNL A   1      42.862  24.471  27.775  1.00  0.00     0.064 A 
ATOM     70  C   UNL A   1      43.450  24.748  26.534  1.00  0.00     0.173 A 
ATOM     71  C   UNL A   1      42.474  23.147  28.033  1.00  0.00     0.173 A 
ATOM     72  F   UNL A   1      43.815  26.003  26.232  1.00  0.00    -0.203 F 
ATOM     73  C   UNL A   1      43.628  23.747  25.582  1.00  0.00     0.198 A 
ATOM     74  C   UNL A   1      42.676  22.142  27.090  1.00  0.00     0.198 A 
ATOM     75  F   UNL A   1      41.903  22.830  29.204  1.00  0.00    -0.203 F 
ATOM     76  F   UNL A   1      44.153  24.048  24.386  1.00  0.00    -0.200 F 
ATOM     77  C   UNL A   1      43.246  22.443  25.863  1.00  0.00     0.200 A 
ATOM     78  F   UNL A   1      42.315  20.882  27.370  1.00  0.00    -0.200 F 
ATOM     79  F   UNL A   1      43.420  21.480  24.948  1.00  0.00    -0.200 F 
ENDBRANCH  45  69
BRANCH  57  80
ATOM     80  C   UNL A   1      46.584  26.794  33.190  1.00  0.00     0.064 A 
ATOM     81  C   UNL A   1      46.664  25.781  34.156  1.00  0.00     0.173 A 
ATOM     82  C   UNL A   1      47.781  27.375  32.745  1.00  0.00     0.173 A 
ATOM     83  F   UNL A   1      45.547  25.204  34.624  1.00  0.00    -0.203 F 
ATOM     84  C   UNL A   1      47.894  25.382  34.673  1.00  0.00     0.198 A 
ATOM     85  C   UNL A   1      49.011  26.953  33.243  1.00  0.00     0.198 A 
ATOM     86  F   UNL A   1      47.759  28.343  31.817  1.00  0.00    -0.203 F 
ATOM     87  F   UNL A   1      47.943  24.442  35.628  1.00  0.00    -0.200 F 
ATOM     88  C   UNL A   1      49.065  25.962  34.211  1.00  0.00     0.200 A 
ATOM     89  F   UNL A   1      50.142  27.505  32.786  1.00  0.00    -0.200 F 
ATOM     90  F   UNL A   1      50.249  25.570  34.704  1.00  0.00    -0.200 F 
ENDBRANCH  57  80
ENDBRANCH  31  32
ENDBRANCH  24  26
ENDBRANCH  23  24
ENDBRANCH  22  23
ENDBRANCH  21  22
ENDBRANCH   1  21
TORSDOF 16
ENDMDL
