MODEL 1
REMARK VINA RESULT:     -11.8      0.000      0.000
REMARK SMILES O=C(Cc1c[nH]c(=O)n(Cc2ccccc2)c1=O)OCCOCCOC(=O)c1ccc(-c2c3nc(c(-c4c(F)c(F)c(F)c(F)c4F)c4ccc([nH]4)c(-c4c(F)c(F)c(F)c(F)c4F)c4nc(c(-c5c(F)c(F)c(F)c(F)c5F)c5ccc2[nH]5)C=C4)C=C3)cc1
REMARK SMILES IDX 21 1 20 2 19 3 2 4 1 5 3 6 4 7 5 8 17 9 6 10 9 11 18 12 7 13
REMARK SMILES IDX 8 15 10 16 11 17 12 18 16 19 13 20 15 21 14 22 22 23 23 24
REMARK SMILES IDX 24 25 25 26 26 27 27 28 28 29 29 30 90 31 30 32 89 33 31 34
REMARK SMILES IDX 32 35 33 36 83 37 34 38 88 39 82 40 84 41 35 42 87 43 81 44
REMARK SMILES IDX 80 45 36 47 68 48 48 49 67 50 49 51 52 52 66 53 85 54 50 55
REMARK SMILES IDX 51 56 65 58 86 59 53 60 37 61 38 62 46 63 39 64 40 65 44 66
REMARK SMILES IDX 47 67 41 68 42 69 45 70 43 71 69 72 70 73 78 74 71 75 72 76
REMARK SMILES IDX 76 77 79 78 73 79 74 80 77 81 75 82 54 83 55 84 63 85 56 86
REMARK SMILES IDX 57 87 61 88 64 89 58 90 59 91 62 92 60 93
REMARK H PARENT 6 14 84 46 52 57
REMARK Flexibility Score: inf
ROOT
ATOM      1  C   UNL A   1      33.566  28.049  25.580  1.00  0.00     0.202 C 
ENDROOT
BRANCH   1   2
ATOM      2  C   UNL A   1      32.583  26.994  26.059  1.00  0.00     0.261 C 
BRANCH   2   3
ATOM      3  O   UNL A   1      31.796  26.384  25.018  1.00  0.00    -0.463 OA
BRANCH   3   4
ATOM      4  C   UNL A   1      30.832  25.442  25.169  1.00  0.00     0.310 C 
ATOM      5  O   UNL A   1      30.100  25.483  26.158  1.00  0.00    -0.252 OA
BRANCH   4   6
ATOM      6  C   UNL A   1      30.680  24.334  24.144  1.00  0.00     0.165 C 
BRANCH   6   7
ATOM      7  C   UNL A   1      31.909  23.505  23.944  1.00  0.00     0.045 A 
ATOM      8  C   UNL A   1      32.851  23.742  23.022  1.00  0.00     0.097 A 
ATOM      9  C   UNL A   1      32.163  22.440  24.957  1.00  0.00     0.260 A 
ATOM     10  N   UNL A   1      34.089  23.194  23.143  1.00  0.00    -0.314 N 
ATOM     11  N   UNL A   1      33.410  21.847  24.912  1.00  0.00    -0.256 N 
ATOM     12  O   UNL A   1      31.284  22.143  25.763  1.00  0.00    -0.269 OA
ATOM     13  C   UNL A   1      34.448  22.321  24.133  1.00  0.00     0.328 A 
ATOM     14  H   UNL A   1      34.771  23.443  22.478  1.00  0.00     0.171 HD
ATOM     15  O   UNL A   1      35.627  21.996  24.257  1.00  0.00    -0.248 OA
BRANCH  11  16
ATOM     16  C   UNL A   1      33.606  20.587  25.611  1.00  0.00     0.166 C 
BRANCH  16  17
ATOM     17  C   UNL A   1      33.584  19.467  24.581  1.00  0.00    -0.028 A 
ATOM     18  C   UNL A   1      32.504  19.355  23.688  1.00  0.00     0.005 A 
ATOM     19  C   UNL A   1      34.550  18.453  24.600  1.00  0.00     0.005 A 
ATOM     20  C   UNL A   1      32.356  18.232  22.880  1.00  0.00     0.000 A 
ATOM     21  C   UNL A   1      34.417  17.342  23.762  1.00  0.00     0.000 A 
ATOM     22  C   UNL A   1      33.312  17.223  22.919  1.00  0.00     0.000 A 
ENDBRANCH  16  17
ENDBRANCH  11  16
ENDBRANCH   6   7
ENDBRANCH   4   6
ENDBRANCH   3   4
ENDBRANCH   2   3
ENDBRANCH   1   2
BRANCH   1  23
ATOM     23  O   UNL A   1      33.011  29.162  24.898  1.00  0.00    -0.374 OA
BRANCH  23  24
ATOM     24  C   UNL A   1      31.730  29.620  25.345  1.00  0.00     0.202 C 
BRANCH  24  25
ATOM     25  C   UNL A   1      31.708  30.946  26.113  1.00  0.00     0.261 C 
BRANCH  25  26
ATOM     26  O   UNL A   1      32.578  30.910  27.258  1.00  0.00    -0.460 OA
BRANCH  26  27
ATOM     27  C   UNL A   1      33.330  32.019  27.466  1.00  0.00     0.338 C 
ATOM     28  O   UNL A   1      32.952  33.179  27.462  1.00  0.00    -0.246 OA
BRANCH  27  29
ATOM     29  C   UNL A   1      34.665  31.602  27.947  1.00  0.00     0.060 A 
ATOM     30  C   UNL A   1      35.703  32.525  28.084  1.00  0.00     0.016 A 
ATOM     31  C   UNL A   1      34.874  30.249  28.252  1.00  0.00     0.016 A 
ATOM     32  C   UNL A   1      36.935  32.099  28.577  1.00  0.00     0.010 A 
ATOM     33  C   UNL A   1      36.104  29.825  28.758  1.00  0.00     0.010 A 
ATOM     34  C   UNL A   1      37.131  30.757  28.953  1.00  0.00    -0.014 A 
BRANCH  34  35
ATOM     35  C   UNL A   1      38.353  30.399  29.712  1.00  0.00     0.031 A 
ATOM     36  C   UNL A   1      38.576  30.857  31.116  1.00  0.00     0.074 A 
ATOM     37  C   UNL A   1      39.252  29.605  29.101  1.00  0.00     0.049 A 
ATOM     38  N   UNL A   1      39.499  30.479  31.964  1.00  0.00    -0.248 NA
ATOM     39  C   UNL A   1      37.656  31.877  31.639  1.00  0.00     0.031 C 
ATOM     40  C   UNL A   1      39.152  29.150  27.713  1.00  0.00     0.029 A 
ATOM     41  N   UNL A   1      40.398  29.015  29.566  1.00  0.00    -0.354 N 
ATOM     42  C   UNL A   1      39.257  31.188  33.129  1.00  0.00     0.074 A 
ATOM     43  C   UNL A   1      38.138  32.069  32.861  1.00  0.00     0.031 C 
ATOM     44  C   UNL A   1      40.155  28.299  27.458  1.00  0.00     0.029 A 
ATOM     45  C   UNL A   1      40.985  28.175  28.652  1.00  0.00     0.049 A 
ATOM     46  H   UNL A   1      40.763  29.177  30.465  1.00  0.00     0.167 HD
ATOM     47  C   UNL A   1      39.898  31.088  34.319  1.00  0.00     0.037 A 
ATOM     48  C   UNL A   1      42.062  27.375  28.769  1.00  0.00     0.037 A 
ATOM     49  C   UNL A   1      41.023  30.219  34.558  1.00  0.00     0.049 A 
ATOM     50  C   UNL A   1      42.778  27.309  30.088  1.00  0.00     0.074 A 
ATOM     51  C   UNL A   1      41.718  30.012  35.737  1.00  0.00     0.029 A 
ATOM     52  N   UNL A   1      41.631  29.425  33.594  1.00  0.00    -0.354 N 
ATOM     53  N   UNL A   1      42.481  27.907  31.217  1.00  0.00    -0.248 NA
ATOM     54  C   UNL A   1      43.974  26.461  30.153  1.00  0.00     0.031 C 
ATOM     55  C   UNL A   1      42.781  29.144  35.473  1.00  0.00     0.029 A 
ATOM     56  C   UNL A   1      42.716  28.759  34.143  1.00  0.00     0.049 A 
ATOM     57  H   UNL A   1      41.334  29.346  32.658  1.00  0.00     0.167 HD
ATOM     58  C   UNL A   1      43.443  27.498  32.130  1.00  0.00     0.074 A 
ATOM     59  C   UNL A   1      44.320  26.583  31.427  1.00  0.00     0.031 C 
ATOM     60  C   UNL A   1      43.587  27.856  33.429  1.00  0.00     0.037 A 
BRANCH  47  61
ATOM     61  C   UNL A   1      39.398  31.931  35.456  1.00  0.00     0.064 A 
ATOM     62  C   UNL A   1      38.485  31.425  36.395  1.00  0.00     0.173 A 
ATOM     63  C   UNL A   1      39.880  33.235  35.651  1.00  0.00     0.173 A 
ATOM     64  F   UNL A   1      37.989  30.186  36.254  1.00  0.00    -0.203 F 
ATOM     65  C   UNL A   1      38.052  32.200  37.467  1.00  0.00     0.198 A 
ATOM     66  C   UNL A   1      39.468  33.997  36.742  1.00  0.00     0.198 A 
ATOM     67  F   UNL A   1      40.761  33.766  34.791  1.00  0.00    -0.203 F 
ATOM     68  F   UNL A   1      37.146  31.710  38.324  1.00  0.00    -0.200 F 
ATOM     69  C   UNL A   1      38.550  33.482  37.645  1.00  0.00     0.200 A 
ATOM     70  F   UNL A   1      39.962  35.230  36.921  1.00  0.00    -0.200 F 
ATOM     71  F   UNL A   1      38.140  34.224  38.683  1.00  0.00    -0.200 F 
ENDBRANCH  47  61
BRANCH  48  72
ATOM     72  C   UNL A   1      42.477  26.540  27.613  1.00  0.00     0.064 A 
ATOM     73  C   UNL A   1      43.474  26.978  26.730  1.00  0.00     0.173 A 
ATOM     74  C   UNL A   1      41.932  25.265  27.402  1.00  0.00     0.173 A 
ATOM     75  F   UNL A   1      44.016  28.196  26.882  1.00  0.00    -0.203 F 
ATOM     76  C   UNL A   1      43.906  26.173  25.678  1.00  0.00     0.198 A 
ATOM     77  C   UNL A   1      42.386  24.450  26.367  1.00  0.00     0.198 A 
ATOM     78  F   UNL A   1      40.983  24.796  28.225  1.00  0.00    -0.203 F 
ATOM     79  F   UNL A   1      44.843  26.625  24.833  1.00  0.00    -0.200 F 
ATOM     80  C   UNL A   1      43.370  24.906  25.503  1.00  0.00     0.200 A 
ATOM     81  F   UNL A   1      41.880  23.219  26.217  1.00  0.00    -0.200 F 
ATOM     82  F   UNL A   1      43.802  24.125  24.505  1.00  0.00    -0.200 F 
ENDBRANCH  48  72
BRANCH  60  83
ATOM     83  C   UNL A   1      44.741  27.268  34.188  1.00  0.00     0.064 A 
ATOM     84  C   UNL A   1      45.962  27.948  34.301  1.00  0.00     0.173 A 
ATOM     85  C   UNL A   1      44.594  26.060  34.889  1.00  0.00     0.173 A 
ATOM     86  F   UNL A   1      46.158  29.098  33.639  1.00  0.00    -0.203 F 
ATOM     87  C   UNL A   1      46.996  27.439  35.083  1.00  0.00     0.198 A 
ATOM     88  C   UNL A   1      45.618  25.570  35.694  1.00  0.00     0.198 A 
ATOM     89  F   UNL A   1      43.444  25.373  34.818  1.00  0.00    -0.203 F 
ATOM     90  F   UNL A   1      48.163  28.092  35.154  1.00  0.00    -0.200 F 
ATOM     91  C   UNL A   1      46.818  26.259  35.789  1.00  0.00     0.200 A 
ATOM     92  F   UNL A   1      45.438  24.439  36.390  1.00  0.00    -0.200 F 
ATOM     93  F   UNL A   1      47.804  25.785  36.563  1.00  0.00    -0.200 F 
ENDBRANCH  60  83
ENDBRANCH  34  35
ENDBRANCH  27  29
ENDBRANCH  26  27
ENDBRANCH  25  26
ENDBRANCH  24  25
ENDBRANCH  23  24
ENDBRANCH   1  23
TORSDOF 17
ENDMDL
MODEL 2
REMARK VINA RESULT:     -11.7      1.299      2.388
REMARK SMILES O=C(Cc1c[nH]c(=O)n(Cc2ccccc2)c1=O)OCCOCCOC(=O)c1ccc(-c2c3nc(c(-c4c(F)c(F)c(F)c(F)c4F)c4ccc([nH]4)c(-c4c(F)c(F)c(F)c(F)c4F)c4nc(c(-c5c(F)c(F)c(F)c(F)c5F)c5ccc2[nH]5)C=C4)C=C3)cc1
REMARK SMILES IDX 21 1 20 2 19 3 2 4 1 5 3 6 4 7 5 8 17 9 6 10 9 11 18 12 7 13
REMARK SMILES IDX 8 15 10 16 11 17 12 18 16 19 13 20 15 21 14 22 22 23 23 24
REMARK SMILES IDX 24 25 25 26 26 27 27 28 28 29 29 30 90 31 30 32 89 33 31 34
REMARK SMILES IDX 32 35 33 36 83 37 34 38 88 39 82 40 84 41 35 42 87 43 81 44
REMARK SMILES IDX 80 45 36 47 68 48 48 49 67 50 49 51 52 52 66 53 85 54 50 55
REMARK SMILES IDX 51 56 65 58 86 59 53 60 37 61 38 62 46 63 39 64 40 65 44 66
REMARK SMILES IDX 47 67 41 68 42 69 45 70 43 71 69 72 70 73 78 74 71 75 72 76
REMARK SMILES IDX 76 77 79 78 73 79 74 80 77 81 75 82 54 83 55 84 63 85 56 86
REMARK SMILES IDX 57 87 61 88 64 89 58 90 59 91 62 92 60 93
REMARK H PARENT 6 14 84 46 52 57
REMARK Flexibility Score: inf
ROOT
ATOM      1  C   UNL A   1      30.619  28.338  23.863  1.00  0.00     0.202 C 
ENDROOT
BRANCH   1   2
ATOM      2  C   UNL A   1      29.834  27.085  24.210  1.00  0.00     0.261 C 
BRANCH   2   3
ATOM      3  O   UNL A   1      30.640  25.954  24.595  1.00  0.00    -0.463 OA
BRANCH   3   4
ATOM      4  C   UNL A   1      30.781  25.439  25.841  1.00  0.00     0.310 C 
ATOM      5  O   UNL A   1      29.785  25.042  26.446  1.00  0.00    -0.252 OA
BRANCH   4   6
ATOM      6  C   UNL A   1      32.150  25.382  26.493  1.00  0.00     0.165 C 
BRANCH   6   7
ATOM      7  C   UNL A   1      32.912  24.124  26.220  1.00  0.00     0.045 A 
ATOM      8  C   UNL A   1      32.746  22.970  26.879  1.00  0.00     0.097 A 
ATOM      9  C   UNL A   1      33.800  24.133  25.022  1.00  0.00     0.260 A 
ATOM     10  N   UNL A   1      33.185  21.800  26.343  1.00  0.00    -0.314 N 
ATOM     11  N   UNL A   1      34.306  22.908  24.635  1.00  0.00    -0.256 N 
ATOM     12  O   UNL A   1      34.038  25.193  24.447  1.00  0.00    -0.269 OA
ATOM     13  C   UNL A   1      33.879  21.707  25.169  1.00  0.00     0.328 A 
ATOM     14  H   UNL A   1      32.988  20.967  26.831  1.00  0.00     0.171 HD
ATOM     15  O   UNL A   1      34.101  20.601  24.682  1.00  0.00    -0.248 OA
BRANCH  11  16
ATOM     16  C   UNL A   1      35.436  22.880  23.719  1.00  0.00     0.166 C 
BRANCH  16  17
ATOM     17  C   UNL A   1      36.712  22.814  24.546  1.00  0.00    -0.028 A 
ATOM     18  C   UNL A   1      37.457  21.623  24.595  1.00  0.00     0.005 A 
ATOM     19  C   UNL A   1      37.085  23.875  25.381  1.00  0.00     0.005 A 
ATOM     20  C   UNL A   1      38.505  21.469  25.497  1.00  0.00     0.000 A 
ATOM     21  C   UNL A   1      38.159  23.731  26.262  1.00  0.00     0.000 A 
ATOM     22  C   UNL A   1      38.855  22.524  26.334  1.00  0.00     0.000 A 
ENDBRANCH  16  17
ENDBRANCH  11  16
ENDBRANCH   6   7
ENDBRANCH   4   6
ENDBRANCH   3   4
ENDBRANCH   2   3
ENDBRANCH   1   2
BRANCH   1  23
ATOM     23  O   UNL A   1      32.030  28.250  23.984  1.00  0.00    -0.374 OA
BRANCH  23  24
ATOM     24  C   UNL A   1      32.606  28.751  25.195  1.00  0.00     0.202 C 
BRANCH  24  25
ATOM     25  C   UNL A   1      32.046  30.077  25.721  1.00  0.00     0.261 C 
BRANCH  25  26
ATOM     26  O   UNL A   1      32.465  30.331  27.073  1.00  0.00    -0.460 OA
BRANCH  26  27
ATOM     27  C   UNL A   1      33.135  31.491  27.279  1.00  0.00     0.338 C 
ATOM     28  O   UNL A   1      32.677  32.621  27.268  1.00  0.00    -0.246 OA
BRANCH  27  29
ATOM     29  C   UNL A   1      34.496  31.171  27.766  1.00  0.00     0.060 A 
ATOM     30  C   UNL A   1      35.438  32.177  27.988  1.00  0.00     0.016 A 
ATOM     31  C   UNL A   1      34.827  29.827  27.991  1.00  0.00     0.016 A 
ATOM     32  C   UNL A   1      36.694  31.838  28.484  1.00  0.00     0.010 A 
ATOM     33  C   UNL A   1      36.082  29.488  28.499  1.00  0.00     0.010 A 
ATOM     34  C   UNL A   1      37.012  30.499  28.779  1.00  0.00    -0.014 A 
BRANCH  34  35
ATOM     35  C   UNL A   1      38.247  30.210  29.545  1.00  0.00     0.031 A 
ATOM     36  C   UNL A   1      38.457  30.720  30.933  1.00  0.00     0.074 A 
ATOM     37  C   UNL A   1      39.172  29.429  28.956  1.00  0.00     0.049 A 
ATOM     38  N   UNL A   1      39.395  30.402  31.789  1.00  0.00    -0.248 NA
ATOM     39  C   UNL A   1      37.503  31.722  31.426  1.00  0.00     0.031 C 
ATOM     40  C   UNL A   1      39.085  28.925  27.584  1.00  0.00     0.029 A 
ATOM     41  N   UNL A   1      40.339  28.894  29.436  1.00  0.00    -0.354 N 
ATOM     42  C   UNL A   1      39.130  31.139  32.932  1.00  0.00     0.074 A 
ATOM     43  C   UNL A   1      37.981  31.971  32.639  1.00  0.00     0.031 C 
ATOM     44  C   UNL A   1      40.117  28.103  27.353  1.00  0.00     0.029 A 
ATOM     45  C   UNL A   1      40.954  28.047  28.547  1.00  0.00     0.049 A 
ATOM     46  H   UNL A   1      40.701  29.098  30.328  1.00  0.00     0.167 HD
ATOM     47  C   UNL A   1      39.778  31.101  34.122  1.00  0.00     0.037 A 
ATOM     48  C   UNL A   1      42.059  27.289  28.686  1.00  0.00     0.037 A 
ATOM     49  C   UNL A   1      40.934  30.280  34.385  1.00  0.00     0.049 A 
ATOM     50  C   UNL A   1      42.780  27.292  30.004  1.00  0.00     0.074 A 
ATOM     51  C   UNL A   1      41.638  30.136  35.567  1.00  0.00     0.029 A 
ATOM     52  N   UNL A   1      41.567  29.477  33.444  1.00  0.00    -0.354 N 
ATOM     53  N   UNL A   1      42.464  27.914  31.114  1.00  0.00    -0.248 NA
ATOM     54  C   UNL A   1      44.006  26.489  30.091  1.00  0.00     0.031 C 
ATOM     55  C   UNL A   1      42.731  29.298  35.327  1.00  0.00     0.029 A 
ATOM     56  C   UNL A   1      42.677  28.868  34.010  1.00  0.00     0.049 A 
ATOM     57  H   UNL A   1      41.271  29.358  32.512  1.00  0.00     0.167 HD
ATOM     58  C   UNL A   1      43.443  27.570  32.036  1.00  0.00     0.074 A 
ATOM     59  C   UNL A   1      44.350  26.665  31.360  1.00  0.00     0.031 C 
ATOM     60  C   UNL A   1      43.577  27.974  33.323  1.00  0.00     0.037 A 
BRANCH  47  61
ATOM     61  C   UNL A   1      39.251  31.961  35.233  1.00  0.00     0.064 A 
ATOM     62  C   UNL A   1      38.450  31.427  36.255  1.00  0.00     0.173 A 
ATOM     63  C   UNL A   1      39.597  33.319  35.317  1.00  0.00     0.173 A 
ATOM     64  F   UNL A   1      38.086  30.136  36.222  1.00  0.00    -0.203 F 
ATOM     65  C   UNL A   1      37.994  32.223  37.302  1.00  0.00     0.198 A 
ATOM     66  C   UNL A   1      39.164  34.106  36.382  1.00  0.00     0.198 A 
ATOM     67  F   UNL A   1      40.367  33.880  34.374  1.00  0.00    -0.203 F 
ATOM     68  F   UNL A   1      37.195  31.699  38.241  1.00  0.00    -0.200 F 
ATOM     69  C   UNL A   1      38.358  33.559  37.369  1.00  0.00     0.200 A 
ATOM     70  F   UNL A   1      39.530  35.393  36.454  1.00  0.00    -0.200 F 
ATOM     71  F   UNL A   1      37.926  34.323  38.383  1.00  0.00    -0.200 F 
ENDBRANCH  47  61
BRANCH  48  72
ATOM     72  C   UNL A   1      42.501  26.434  27.555  1.00  0.00     0.064 A 
ATOM     73  C   UNL A   1      43.478  26.879  26.655  1.00  0.00     0.173 A 
ATOM     74  C   UNL A   1      42.001  25.134  27.388  1.00  0.00     0.173 A 
ATOM     75  F   UNL A   1      43.976  28.119  26.766  1.00  0.00    -0.203 F 
ATOM     76  C   UNL A   1      43.936  26.056  25.628  1.00  0.00     0.198 A 
ATOM     77  C   UNL A   1      42.481  24.303  26.378  1.00  0.00     0.198 A 
ATOM     78  F   UNL A   1      41.072  24.657  28.230  1.00  0.00    -0.203 F 
ATOM     79  F   UNL A   1      44.854  26.514  24.765  1.00  0.00    -0.200 F 
ATOM     80  C   UNL A   1      43.445  24.765  25.496  1.00  0.00     0.200 A 
ATOM     81  F   UNL A   1      42.020  23.050  26.270  1.00  0.00    -0.200 F 
ATOM     82  F   UNL A   1      43.903  23.968  24.522  1.00  0.00    -0.200 F 
ENDBRANCH  48  72
BRANCH  60  83
ATOM     83  C   UNL A   1      44.753  27.452  34.096  1.00  0.00     0.064 A 
ATOM     84  C   UNL A   1      44.691  26.232  34.785  1.00  0.00     0.173 A 
ATOM     85  C   UNL A   1      45.983  28.129  34.067  1.00  0.00     0.173 A 
ATOM     86  F   UNL A   1      43.535  25.555  34.854  1.00  0.00    -0.203 F 
ATOM     87  C   UNL A   1      45.814  25.711  35.422  1.00  0.00     0.198 A 
ATOM     88  C   UNL A   1      47.112  27.590  34.679  1.00  0.00     0.198 A 
ATOM     89  F   UNL A   1      46.098  29.297  33.417  1.00  0.00    -0.203 F 
ATOM     90  F   UNL A   1      45.724  24.558  36.097  1.00  0.00    -0.200 F 
ATOM     91  C   UNL A   1      47.026  26.383  35.356  1.00  0.00     0.200 A 
ATOM     92  F   UNL A   1      48.285  28.231  34.600  1.00  0.00    -0.200 F 
ATOM     93  F   UNL A   1      48.112  25.866  35.947  1.00  0.00    -0.200 F 
ENDBRANCH  60  83
ENDBRANCH  34  35
ENDBRANCH  27  29
ENDBRANCH  26  27
ENDBRANCH  25  26
ENDBRANCH  24  25
ENDBRANCH  23  24
ENDBRANCH   1  23
TORSDOF 17
ENDMDL
MODEL 3
REMARK VINA RESULT:     -11.4      5.164      9.168
REMARK SMILES O=C(Cc1c[nH]c(=O)n(Cc2ccccc2)c1=O)OCCOCCOC(=O)c1ccc(-c2c3nc(c(-c4c(F)c(F)c(F)c(F)c4F)c4ccc([nH]4)c(-c4c(F)c(F)c(F)c(F)c4F)c4nc(c(-c5c(F)c(F)c(F)c(F)c5F)c5ccc2[nH]5)C=C4)C=C3)cc1
REMARK SMILES IDX 21 1 20 2 19 3 2 4 1 5 3 6 4 7 5 8 17 9 6 10 9 11 18 12 7 13
REMARK SMILES IDX 8 15 10 16 11 17 12 18 16 19 13 20 15 21 14 22 22 23 23 24
REMARK SMILES IDX 24 25 25 26 26 27 27 28 28 29 29 30 90 31 30 32 89 33 31 34
REMARK SMILES IDX 32 35 33 36 83 37 34 38 88 39 82 40 84 41 35 42 87 43 81 44
REMARK SMILES IDX 80 45 36 47 68 48 48 49 67 50 49 51 52 52 66 53 85 54 50 55
REMARK SMILES IDX 51 56 65 58 86 59 53 60 37 61 38 62 46 63 39 64 40 65 44 66
REMARK SMILES IDX 47 67 41 68 42 69 45 70 43 71 69 72 70 73 78 74 71 75 72 76
REMARK SMILES IDX 76 77 79 78 73 79 74 80 77 81 75 82 54 83 55 84 63 85 56 86
REMARK SMILES IDX 57 87 61 88 64 89 58 90 59 91 62 92 60 93
REMARK H PARENT 6 14 84 46 52 57
REMARK Flexibility Score: inf
ROOT
ATOM      1  C   UNL A   1      40.958  21.281  26.213  1.00  0.00     0.202 C 
ENDROOT
BRANCH   1   2
ATOM      2  C   UNL A   1      39.442  21.296  26.116  1.00  0.00     0.261 C 
BRANCH   2   3
ATOM      3  O   UNL A   1      38.863  22.596  25.893  1.00  0.00    -0.463 OA
BRANCH   3   4
ATOM      4  C   UNL A   1      37.596  22.868  25.493  1.00  0.00     0.310 C 
ATOM      5  O   UNL A   1      36.893  23.609  26.181  1.00  0.00    -0.252 OA
BRANCH   4   6
ATOM      6  C   UNL A   1      37.043  22.238  24.229  1.00  0.00     0.165 C 
BRANCH   6   7
ATOM      7  C   UNL A   1      35.563  22.380  24.064  1.00  0.00     0.045 A 
ATOM      8  C   UNL A   1      34.962  23.314  23.315  1.00  0.00     0.097 A 
ATOM      9  C   UNL A   1      34.723  21.298  24.654  1.00  0.00     0.260 A 
ATOM     10  N   UNL A   1      33.672  23.154  22.916  1.00  0.00    -0.314 N 
ATOM     11  N   UNL A   1      33.390  21.302  24.292  1.00  0.00    -0.256 N 
ATOM     12  O   UNL A   1      35.232  20.477  25.413  1.00  0.00    -0.269 OA
ATOM     13  C   UNL A   1      32.876  22.108  23.295  1.00  0.00     0.328 A 
ATOM     14  H   UNL A   1      33.287  23.833  22.316  1.00  0.00     0.171 HD
ATOM     15  O   UNL A   1      31.777  21.960  22.766  1.00  0.00    -0.248 OA
BRANCH  11  16
ATOM     16  C   UNL A   1      32.453  20.520  25.084  1.00  0.00     0.166 C 
BRANCH  16  17
ATOM     17  C   UNL A   1      32.627  19.055  24.710  1.00  0.00    -0.028 A 
ATOM     18  C   UNL A   1      32.718  18.079  25.717  1.00  0.00     0.005 A 
ATOM     19  C   UNL A   1      32.847  18.673  23.380  1.00  0.00     0.005 A 
ATOM     20  C   UNL A   1      33.082  16.770  25.416  1.00  0.00     0.000 A 
ATOM     21  C   UNL A   1      33.178  17.350  23.076  1.00  0.00     0.000 A 
ATOM     22  C   UNL A   1      33.314  16.405  24.094  1.00  0.00     0.000 A 
ENDBRANCH  16  17
ENDBRANCH  11  16
ENDBRANCH   6   7
ENDBRANCH   4   6
ENDBRANCH   3   4
ENDBRANCH   2   3
ENDBRANCH   1   2
BRANCH   1  23
ATOM     23  O   UNL A   1      41.622  20.240  25.514  1.00  0.00    -0.374 OA
BRANCH  23  24
ATOM     24  C   UNL A   1      42.227  19.214  26.308  1.00  0.00     0.202 C 
BRANCH  24  25
ATOM     25  C   UNL A   1      43.394  18.454  25.669  1.00  0.00     0.261 C 
BRANCH  25  26
ATOM     26  O   UNL A   1      43.770  19.025  24.404  1.00  0.00    -0.460 OA
BRANCH  26  27
ATOM     27  C   UNL A   1      45.007  19.579  24.348  1.00  0.00     0.338 C 
ATOM     28  O   UNL A   1      46.006  19.104  23.833  1.00  0.00    -0.246 OA
BRANCH  27  29
ATOM     29  C   UNL A   1      44.918  20.983  24.803  1.00  0.00     0.060 A 
ATOM     30  C   UNL A   1      45.246  21.340  26.112  1.00  0.00     0.016 A 
ATOM     31  C   UNL A   1      44.484  21.956  23.890  1.00  0.00     0.016 A 
ATOM     32  C   UNL A   1      45.187  22.679  26.490  1.00  0.00     0.010 A 
ATOM     33  C   UNL A   1      44.437  23.300  24.266  1.00  0.00     0.010 A 
ATOM     34  C   UNL A   1      44.820  23.671  25.561  1.00  0.00    -0.014 A 
BRANCH  34  35
ATOM     35  C   UNL A   1      45.022  25.095  25.919  1.00  0.00     0.031 A 
ATOM     36  C   UNL A   1      43.931  25.926  26.511  1.00  0.00     0.074 A 
ATOM     37  C   UNL A   1      46.250  25.613  25.728  1.00  0.00     0.049 A 
ATOM     38  N   UNL A   1      44.008  27.121  27.041  1.00  0.00    -0.248 NA
ATOM     39  C   UNL A   1      42.578  25.355  26.501  1.00  0.00     0.031 C 
ATOM     40  C   UNL A   1      47.367  24.899  25.107  1.00  0.00     0.029 A 
ATOM     41  N   UNL A   1      46.776  26.834  26.062  1.00  0.00    -0.354 N 
ATOM     42  C   UNL A   1      42.723  27.435  27.454  1.00  0.00     0.074 A 
ATOM     43  C   UNL A   1      41.872  26.332  27.057  1.00  0.00     0.031 C 
ATOM     44  C   UNL A   1      48.463  25.668  25.163  1.00  0.00     0.029 A 
ATOM     45  C   UNL A   1      48.119  26.938  25.794  1.00  0.00     0.049 A 
ATOM     46  H   UNL A   1      46.244  27.563  26.455  1.00  0.00     0.167 HD
ATOM     47  C   UNL A   1      42.306  28.535  28.127  1.00  0.00     0.037 A 
ATOM     48  C   UNL A   1      48.984  27.938  26.048  1.00  0.00     0.037 A 
ATOM     49  C   UNL A   1      43.167  29.631  28.495  1.00  0.00     0.049 A 
ATOM     50  C   UNL A   1      48.488  29.162  26.764  1.00  0.00     0.074 A 
ATOM     51  C   UNL A   1      42.853  30.771  29.213  1.00  0.00     0.029 A 
ATOM     52  N   UNL A   1      44.511  29.732  28.156  1.00  0.00    -0.354 N 
ATOM     53  N   UNL A   1      47.293  29.409  27.243  1.00  0.00    -0.248 NA
ATOM     54  C   UNL A   1      49.457  30.246  26.975  1.00  0.00     0.031 C 
ATOM     55  C   UNL A   1      43.986  31.589  29.255  1.00  0.00     0.029 A 
ATOM     56  C   UNL A   1      45.027  30.934  28.616  1.00  0.00     0.049 A 
ATOM     57  H   UNL A   1      45.021  29.050  27.662  1.00  0.00     0.167 HD
ATOM     58  C   UNL A   1      47.367  30.667  27.824  1.00  0.00     0.074 A 
ATOM     59  C   UNL A   1      48.731  31.123  27.656  1.00  0.00     0.031 C 
ATOM     60  C   UNL A   1      46.388  31.379  28.435  1.00  0.00     0.037 A 
BRANCH  47  61
ATOM     61  C   UNL A   1      40.858  28.608  28.518  1.00  0.00     0.064 A 
ATOM     62  C   UNL A   1      40.429  28.248  29.805  1.00  0.00     0.173 A 
ATOM     63  C   UNL A   1      39.896  29.100  27.623  1.00  0.00     0.173 A 
ATOM     64  F   UNL A   1      41.307  27.768  30.700  1.00  0.00    -0.203 F 
ATOM     65  C   UNL A   1      39.090  28.352  30.172  1.00  0.00     0.198 A 
ATOM     66  C   UNL A   1      38.562  29.232  28.003  1.00  0.00     0.198 A 
ATOM     67  F   UNL A   1      40.250  29.468  26.383  1.00  0.00    -0.203 F 
ATOM     68  F   UNL A   1      38.699  27.960  31.393  1.00  0.00    -0.200 F 
ATOM     69  C   UNL A   1      38.159  28.851  29.275  1.00  0.00     0.200 A 
ATOM     70  F   UNL A   1      37.666  29.729  27.139  1.00  0.00    -0.200 F 
ATOM     71  F   UNL A   1      36.872  28.960  29.632  1.00  0.00    -0.200 F 
ENDBRANCH  47  61
BRANCH  48  72
ATOM     72  C   UNL A   1      50.410  27.781  25.666  1.00  0.00     0.064 A 
ATOM     73  C   UNL A   1      51.373  27.411  26.615  1.00  0.00     0.173 A 
ATOM     74  C   UNL A   1      50.829  27.937  24.336  1.00  0.00     0.173 A 
ATOM     75  F   UNL A   1      51.024  27.263  27.901  1.00  0.00    -0.203 F 
ATOM     76  C   UNL A   1      52.702  27.207  26.247  1.00  0.00     0.198 A 
ATOM     77  C   UNL A   1      52.151  27.703  23.966  1.00  0.00     0.198 A 
ATOM     78  F   UNL A   1      49.943  28.280  23.389  1.00  0.00    -0.203 F 
ATOM     79  F   UNL A   1      53.608  26.877  27.178  1.00  0.00    -0.200 F 
ATOM     80  C   UNL A   1      53.088  27.342  24.923  1.00  0.00     0.200 A 
ATOM     81  F   UNL A   1      52.514  27.815  22.682  1.00  0.00    -0.200 F 
ATOM     82  F   UNL A   1      54.361  27.123  24.568  1.00  0.00    -0.200 F 
ENDBRANCH  48  72
BRANCH  60  83
ATOM     83  C   UNL A   1      46.745  32.737  28.965  1.00  0.00     0.064 A 
ATOM     84  C   UNL A   1      46.575  33.892  28.188  1.00  0.00     0.173 A 
ATOM     85  C   UNL A   1      47.169  32.896  30.294  1.00  0.00     0.173 A 
ATOM     86  F   UNL A   1      46.186  33.792  26.908  1.00  0.00    -0.203 F 
ATOM     87  C   UNL A   1      46.820  35.156  28.719  1.00  0.00     0.198 A 
ATOM     88  C   UNL A   1      47.384  34.162  30.831  1.00  0.00     0.198 A 
ATOM     89  F   UNL A   1      47.341  31.824  31.082  1.00  0.00    -0.203 F 
ATOM     90  F   UNL A   1      46.677  36.243  27.950  1.00  0.00    -0.200 F 
ATOM     91  C   UNL A   1      47.211  35.290  30.043  1.00  0.00     0.200 A 
ATOM     92  F   UNL A   1      47.743  34.291  32.115  1.00  0.00    -0.200 F 
ATOM     93  F   UNL A   1      47.421  36.509  30.560  1.00  0.00    -0.200 F 
ENDBRANCH  60  83
ENDBRANCH  34  35
ENDBRANCH  27  29
ENDBRANCH  26  27
ENDBRANCH  25  26
ENDBRANCH  24  25
ENDBRANCH  23  24
ENDBRANCH   1  23
TORSDOF 17
ENDMDL
