MODEL 1
REMARK VINA RESULT:     -12.0      0.000      0.000
REMARK SMILES C/C(=N/[NH+]=C1\NC(=O)[C@H](CC(=O)OCCOCCOC(=O)c2ccc(-c3c4nc(c(-c5c(F)c(F)c(F)c(F)c5F)c5ccc([nH]5)c(-c5c(F)c(F)c(F)c(F)c5F)c5nc(c(-c6c(F)c(F)c(F)c(F)c6F)c6ccc3[nH]6)C=C5)C=C4)cc2)S1)c1ccc(OC(C)C)cc1
REMARK SMILES IDX 14 1 13 2 11 3 12 4 10 5 9 6 4 7 5 8 6 10 85 11 7 12 8 14
REMARK SMILES IDX 3 15 1 16 2 17 86 18 87 19 95 20 88 21 94 22 89 23 90 24
REMARK SMILES IDX 91 25 92 26 93 27 15 28 16 29 17 30 18 31 19 32 20 33 21 34
REMARK SMILES IDX 22 35 23 36 84 37 24 38 83 39 25 40 26 41 27 42 77 43 28 44
REMARK SMILES IDX 82 45 76 46 78 47 29 48 81 49 75 50 74 51 30 53 62 54 42 55
REMARK SMILES IDX 61 56 43 57 46 58 60 59 79 60 44 61 45 62 59 64 80 65 47 66
REMARK SMILES IDX 31 67 32 68 40 69 33 70 34 71 38 72 41 73 35 74 36 75 39 76
REMARK SMILES IDX 37 77 63 78 64 79 72 80 65 81 66 82 70 83 73 84 67 85 68 86
REMARK SMILES IDX 71 87 69 88 48 89 49 90 57 91 50 92 51 93 55 94 58 95 52 96
REMARK SMILES IDX 53 97 56 98 54 99
REMARK H PARENT 4 9 6 13 78 52 46 63
REMARK Flexibility Score: inf
ROOT
ATOM      1  C   UNL A   1      34.355  30.941  27.621  1.00  0.00     0.261 C 
ENDROOT
BRANCH   1   2
ATOM      2  O   UNL A   1      33.577  30.427  26.521  1.00  0.00    -0.463 OA
BRANCH   2   3
ATOM      3  C   UNL A   1      33.206  29.126  26.595  1.00  0.00     0.307 C 
ATOM      4  O   UNL A   1      33.953  28.195  26.866  1.00  0.00    -0.252 OA
BRANCH   3   5
ATOM      5  C   UNL A   1      31.756  28.928  26.234  1.00  0.00     0.150 C 
BRANCH   5   6
ATOM      6  C   UNL A   1      31.540  28.143  24.949  1.00  0.00     0.184 C 
ATOM      7  N   UNL A   1      33.353  24.776  24.917  1.00  0.00    -0.142 N 
ATOM      8  C   UNL A   1      32.764  25.887  24.639  1.00  0.00     0.337 C 
ATOM      9  H   UNL A   1      32.954  24.131  25.546  1.00  0.00     0.343 HD
ATOM     10  N   UNL A   1      33.239  26.858  23.834  1.00  0.00    -0.202 N 
ATOM     11  S   UNL A   1      31.275  26.373  25.377  1.00  0.00    -0.020 SA
ATOM     12  C   UNL A   1      32.773  28.118  24.051  1.00  0.00     0.322 C 
ATOM     13  H   UNL A   1      33.891  26.665  23.124  1.00  0.00     0.316 HD
ATOM     14  O   UNL A   1      33.360  29.101  23.622  1.00  0.00    -0.246 OA
BRANCH   7  15
ATOM     15  N   UNL A   1      34.582  24.516  24.294  1.00  0.00    -0.090 NA
ATOM     16  C   UNL A   1      36.131  23.085  23.134  1.00  0.00     0.071 C 
ATOM     17  C   UNL A   1      34.858  23.296  23.923  1.00  0.00     0.088 C 
BRANCH  17  18
ATOM     18  C   UNL A   1      34.117  22.068  24.308  1.00  0.00    -0.000 A 
ATOM     19  C   UNL A   1      34.551  21.226  25.327  1.00  0.00     0.014 A 
ATOM     20  C   UNL A   1      33.033  21.691  23.506  1.00  0.00     0.014 A 
ATOM     21  C   UNL A   1      33.907  20.000  25.521  1.00  0.00     0.047 A 
ATOM     22  C   UNL A   1      32.408  20.456  23.698  1.00  0.00     0.047 A 
ATOM     23  C   UNL A   1      32.838  19.600  24.705  1.00  0.00     0.119 A 
BRANCH  23  24
ATOM     24  O   UNL A   1      32.361  18.354  24.977  1.00  0.00    -0.491 OA
BRANCH  24  25
ATOM     25  C   UNL A   1      33.136  17.158  24.832  1.00  0.00     0.167 C 
ATOM     26  C   UNL A   1      32.531  15.931  25.505  1.00  0.00     0.052 C 
ATOM     27  C   UNL A   1      33.627  16.924  23.407  1.00  0.00     0.052 C 
ENDBRANCH  24  25
ENDBRANCH  23  24
ENDBRANCH  17  18
ENDBRANCH   7  15
ENDBRANCH   5   6
ENDBRANCH   3   5
ENDBRANCH   2   3
ENDBRANCH   1   2
BRANCH   1  28
ATOM     28  C   UNL A   1      33.895  32.341  28.030  1.00  0.00     0.202 C 
BRANCH  28  29
ATOM     29  O   UNL A   1      34.757  33.026  28.937  1.00  0.00    -0.374 OA
BRANCH  29  30
ATOM     30  C   UNL A   1      34.147  33.960  29.825  1.00  0.00     0.202 C 
BRANCH  30  31
ATOM     31  C   UNL A   1      34.521  33.811  31.303  1.00  0.00     0.261 C 
BRANCH  31  32
ATOM     32  O   UNL A   1      34.519  32.434  31.732  1.00  0.00    -0.460 OA
BRANCH  32  33
ATOM     33  C   UNL A   1      35.529  32.079  32.550  1.00  0.00     0.338 C 
ATOM     34  O   UNL A   1      35.656  32.376  33.736  1.00  0.00    -0.246 OA
BRANCH  33  35
ATOM     35  C   UNL A   1      36.465  31.143  31.896  1.00  0.00     0.060 A 
ATOM     36  C   UNL A   1      37.645  30.831  32.585  1.00  0.00     0.016 A 
ATOM     37  C   UNL A   1      36.286  30.711  30.578  1.00  0.00     0.016 A 
ATOM     38  C   UNL A   1      38.682  30.164  31.937  1.00  0.00     0.010 A 
ATOM     39  C   UNL A   1      37.334  30.043  29.926  1.00  0.00     0.010 A 
ATOM     40  C   UNL A   1      38.557  29.817  30.585  1.00  0.00    -0.014 A 
BRANCH  40  41
ATOM     41  C   UNL A   1      39.773  29.403  29.836  1.00  0.00     0.031 A 
ATOM     42  C   UNL A   1      40.906  30.384  29.683  1.00  0.00     0.074 A 
ATOM     43  C   UNL A   1      39.909  28.152  29.362  1.00  0.00     0.049 A 
ATOM     44  N   UNL A   1      42.074  30.228  29.110  1.00  0.00    -0.248 NA
ATOM     45  C   UNL A   1      40.695  31.723  30.256  1.00  0.00     0.031 C 
ATOM     46  C   UNL A   1      38.911  27.091  29.475  1.00  0.00     0.029 A 
ATOM     47  N   UNL A   1      40.957  27.561  28.697  1.00  0.00    -0.354 N 
ATOM     48  C   UNL A   1      42.733  31.443  29.254  1.00  0.00     0.074 A 
ATOM     49  C   UNL A   1      41.824  32.339  29.937  1.00  0.00     0.031 C 
ATOM     50  C   UNL A   1      39.394  25.977  28.898  1.00  0.00     0.029 A 
ATOM     51  C   UNL A   1      40.726  26.251  28.360  1.00  0.00     0.049 A 
ATOM     52  H   UNL A   1      41.793  28.034  28.482  1.00  0.00     0.167 HD
ATOM     53  C   UNL A   1      43.987  31.781  28.868  1.00  0.00     0.037 A 
ATOM     54  C   UNL A   1      41.501  25.376  27.689  1.00  0.00     0.037 A 
ATOM     55  C   UNL A   1      44.904  30.896  28.199  1.00  0.00     0.049 A 
ATOM     56  C   UNL A   1      42.873  25.792  27.225  1.00  0.00     0.074 A 
ATOM     57  C   UNL A   1      46.199  31.149  27.781  1.00  0.00     0.029 A 
ATOM     58  N   UNL A   1      44.619  29.587  27.845  1.00  0.00    -0.354 N 
ATOM     59  N   UNL A   1      43.494  26.935  27.388  1.00  0.00    -0.248 NA
ATOM     60  C   UNL A   1      43.656  24.787  26.487  1.00  0.00     0.031 C 
ATOM     61  C   UNL A   1      46.685  30.004  27.140  1.00  0.00     0.029 A 
ATOM     62  C   UNL A   1      45.707  29.024  27.198  1.00  0.00     0.049 A 
ATOM     63  H   UNL A   1      43.770  29.125  28.028  1.00  0.00     0.167 HD
ATOM     64  C   UNL A   1      44.745  26.778  26.803  1.00  0.00     0.074 A 
ATOM     65  C   UNL A   1      44.801  25.425  26.291  1.00  0.00     0.031 C 
ATOM     66  C   UNL A   1      45.756  27.675  26.700  1.00  0.00     0.037 A 
BRANCH  53  67
ATOM     67  C   UNL A   1      44.439  33.184  29.148  1.00  0.00     0.064 A 
ATOM     68  C   UNL A   1      45.064  33.527  30.356  1.00  0.00     0.173 A 
ATOM     69  C   UNL A   1      44.275  34.189  28.183  1.00  0.00     0.173 A 
ATOM     70  F   UNL A   1      45.231  32.605  31.315  1.00  0.00    -0.203 F 
ATOM     71  C   UNL A   1      45.487  34.832  30.597  1.00  0.00     0.198 A 
ATOM     72  C   UNL A   1      44.722  35.487  28.418  1.00  0.00     0.198 A 
ATOM     73  F   UNL A   1      43.688  33.910  27.011  1.00  0.00    -0.203 F 
ATOM     74  F   UNL A   1      46.045  35.148  31.774  1.00  0.00    -0.200 F 
ATOM     75  C   UNL A   1      45.322  35.809  29.626  1.00  0.00     0.200 A 
ATOM     76  F   UNL A   1      44.571  36.426  27.474  1.00  0.00    -0.200 F 
ATOM     77  F   UNL A   1      45.734  37.063  29.857  1.00  0.00    -0.200 F 
ENDBRANCH  53  67
BRANCH  54  78
ATOM     78  C   UNL A   1      41.000  24.004  27.412  1.00  0.00     0.064 A 
ATOM     79  C   UNL A   1      41.571  22.884  28.032  1.00  0.00     0.173 A 
ATOM     80  C   UNL A   1      39.959  23.787  26.497  1.00  0.00     0.173 A 
ATOM     81  F   UNL A   1      42.587  23.042  28.893  1.00  0.00    -0.203 F 
ATOM     82  C   UNL A   1      41.132  21.596  27.733  1.00  0.00     0.198 A 
ATOM     83  C   UNL A   1      39.504  22.500  26.219  1.00  0.00     0.198 A 
ATOM     84  F   UNL A   1      39.382  24.826  25.877  1.00  0.00    -0.203 F 
ATOM     85  F   UNL A   1      41.726  20.540  28.305  1.00  0.00    -0.200 F 
ATOM     86  C   UNL A   1      40.095  21.405  26.832  1.00  0.00     0.200 A 
ATOM     87  F   UNL A   1      38.495  22.321  25.355  1.00  0.00    -0.200 F 
ATOM     88  F   UNL A   1      39.673  20.166  26.546  1.00  0.00    -0.200 F 
ENDBRANCH  54  78
BRANCH  66  89
ATOM     89  C   UNL A   1      47.023  27.214  26.038  1.00  0.00     0.064 A 
ATOM     90  C   UNL A   1      47.244  27.394  24.664  1.00  0.00     0.173 A 
ATOM     91  C   UNL A   1      48.042  26.613  26.793  1.00  0.00     0.173 A 
ATOM     92  F   UNL A   1      46.296  27.952  23.896  1.00  0.00    -0.203 F 
ATOM     93  C   UNL A   1      48.426  26.963  24.067  1.00  0.00     0.198 A 
ATOM     94  C   UNL A   1      49.233  26.207  26.197  1.00  0.00     0.198 A 
ATOM     95  F   UNL A   1      47.884  26.424  28.112  1.00  0.00    -0.203 F 
ATOM     96  F   UNL A   1      48.595  27.102  22.744  1.00  0.00    -0.200 F 
ATOM     97  C   UNL A   1      49.421  26.376  24.834  1.00  0.00     0.200 A 
ATOM     98  F   UNL A   1      50.197  25.649  26.942  1.00  0.00    -0.200 F 
ATOM     99  F   UNL A   1      50.558  25.963  24.257  1.00  0.00    -0.200 F 
ENDBRANCH  66  89
ENDBRANCH  40  41
ENDBRANCH  33  35
ENDBRANCH  32  33
ENDBRANCH  31  32
ENDBRANCH  30  31
ENDBRANCH  29  30
ENDBRANCH  28  29
ENDBRANCH   1  28
TORSDOF 19
ENDMDL
MODEL 2
REMARK VINA RESULT:     -11.2      5.083     10.582
REMARK SMILES C/C(=N/[NH+]=C1\NC(=O)[C@H](CC(=O)OCCOCCOC(=O)c2ccc(-c3c4nc(c(-c5c(F)c(F)c(F)c(F)c5F)c5ccc([nH]5)c(-c5c(F)c(F)c(F)c(F)c5F)c5nc(c(-c6c(F)c(F)c(F)c(F)c6F)c6ccc3[nH]6)C=C5)C=C4)cc2)S1)c1ccc(OC(C)C)cc1
REMARK SMILES IDX 14 1 13 2 11 3 12 4 10 5 9 6 4 7 5 8 6 10 85 11 7 12 8 14
REMARK SMILES IDX 3 15 1 16 2 17 86 18 87 19 95 20 88 21 94 22 89 23 90 24
REMARK SMILES IDX 91 25 92 26 93 27 15 28 16 29 17 30 18 31 19 32 20 33 21 34
REMARK SMILES IDX 22 35 23 36 84 37 24 38 83 39 25 40 26 41 27 42 77 43 28 44
REMARK SMILES IDX 82 45 76 46 78 47 29 48 81 49 75 50 74 51 30 53 62 54 42 55
REMARK SMILES IDX 61 56 43 57 46 58 60 59 79 60 44 61 45 62 59 64 80 65 47 66
REMARK SMILES IDX 31 67 32 68 40 69 33 70 34 71 38 72 41 73 35 74 36 75 39 76
REMARK SMILES IDX 37 77 63 78 64 79 72 80 65 81 66 82 70 83 73 84 67 85 68 86
REMARK SMILES IDX 71 87 69 88 48 89 49 90 57 91 50 92 51 93 55 94 58 95 52 96
REMARK SMILES IDX 53 97 56 98 54 99
REMARK H PARENT 4 9 6 13 78 52 46 63
REMARK Flexibility Score: inf
ROOT
ATOM      1  C   UNL A   1      38.547  20.789  25.444  1.00  0.00     0.261 C 
ENDROOT
BRANCH   1   2
ATOM      2  O   UNL A   1      37.437  20.795  24.525  1.00  0.00    -0.463 OA
BRANCH   2   3
ATOM      3  C   UNL A   1      36.910  22.004  24.215  1.00  0.00     0.307 C 
ATOM      4  O   UNL A   1      37.044  22.578  23.143  1.00  0.00    -0.252 OA
BRANCH   3   5
ATOM      5  C   UNL A   1      36.176  22.617  25.381  1.00  0.00     0.150 C 
BRANCH   5   6
ATOM      6  C   UNL A   1      34.688  22.822  25.136  1.00  0.00     0.184 C 
ATOM      7  N   UNL A   1      33.606  26.480  25.398  1.00  0.00    -0.142 N 
ATOM      8  C   UNL A   1      33.693  25.195  25.380  1.00  0.00     0.337 C 
ATOM      9  H   UNL A   1      33.949  27.026  24.654  1.00  0.00     0.343 HD
ATOM     10  N   UNL A   1      33.302  24.358  26.360  1.00  0.00    -0.202 N 
ATOM     11  S   UNL A   1      34.463  24.324  24.097  1.00  0.00    -0.020 SA
ATOM     12  C   UNL A   1      33.912  23.142  26.409  1.00  0.00     0.322 C 
ATOM     13  H   UNL A   1      32.609  24.613  27.010  1.00  0.00     0.316 HD
ATOM     14  O   UNL A   1      33.884  22.451  27.417  1.00  0.00    -0.246 OA
BRANCH   7  15
ATOM     15  N   UNL A   1      33.005  27.075  26.518  1.00  0.00    -0.090 NA
ATOM     16  C   UNL A   1      31.190  28.206  27.621  1.00  0.00     0.071 C 
ATOM     17  C   UNL A   1      31.868  27.698  26.369  1.00  0.00     0.088 C 
BRANCH  17  18
ATOM     18  C   UNL A   1      31.232  28.077  25.082  1.00  0.00    -0.000 A 
ATOM     19  C   UNL A   1      31.435  29.320  24.490  1.00  0.00     0.014 A 
ATOM     20  C   UNL A   1      30.287  27.195  24.545  1.00  0.00     0.014 A 
ATOM     21  C   UNL A   1      30.671  29.678  23.374  1.00  0.00     0.047 A 
ATOM     22  C   UNL A   1      29.517  27.570  23.440  1.00  0.00     0.047 A 
ATOM     23  C   UNL A   1      29.701  28.812  22.846  1.00  0.00     0.119 A 
BRANCH  23  24
ATOM     24  O   UNL A   1      28.997  29.330  21.801  1.00  0.00    -0.491 OA
BRANCH  24  25
ATOM     25  C   UNL A   1      27.975  30.322  21.948  1.00  0.00     0.167 C 
ATOM     26  C   UNL A   1      27.593  30.624  23.393  1.00  0.00     0.052 C 
ATOM     27  C   UNL A   1      28.199  31.555  21.078  1.00  0.00     0.052 C 
ENDBRANCH  24  25
ENDBRANCH  23  24
ENDBRANCH  17  18
ENDBRANCH   7  15
ENDBRANCH   5   6
ENDBRANCH   3   5
ENDBRANCH   2   3
ENDBRANCH   1   2
BRANCH   1  28
ATOM     28  C   UNL A   1      39.094  19.378  25.659  1.00  0.00     0.202 C 
BRANCH  28  29
ATOM     29  O   UNL A   1      40.511  19.284  25.790  1.00  0.00    -0.374 OA
BRANCH  29  30
ATOM     30  C   UNL A   1      41.180  20.405  26.365  1.00  0.00     0.202 C 
BRANCH  30  31
ATOM     31  C   UNL A   1      42.575  20.702  25.805  1.00  0.00     0.261 C 
BRANCH  31  32
ATOM     32  O   UNL A   1      43.140  21.909  26.356  1.00  0.00    -0.460 OA
BRANCH  32  33
ATOM     33  C   UNL A   1      43.040  23.005  25.578  1.00  0.00     0.338 C 
ATOM     34  O   UNL A   1      43.280  23.078  24.374  1.00  0.00    -0.246 OA
BRANCH  33  35
ATOM     35  C   UNL A   1      42.465  24.151  26.310  1.00  0.00     0.060 A 
ATOM     36  C   UNL A   1      43.224  25.329  26.354  1.00  0.00     0.016 A 
ATOM     37  C   UNL A   1      41.301  24.037  27.077  1.00  0.00     0.016 A 
ATOM     38  C   UNL A   1      42.873  26.358  27.224  1.00  0.00     0.010 A 
ATOM     39  C   UNL A   1      40.952  25.073  27.955  1.00  0.00     0.010 A 
ATOM     40  C   UNL A   1      41.768  26.214  28.074  1.00  0.00    -0.014 A 
BRANCH  40  41
ATOM     41  C   UNL A   1      41.602  27.169  29.202  1.00  0.00     0.031 A 
ATOM     42  C   UNL A   1      40.447  28.136  29.175  1.00  0.00     0.074 A 
ATOM     43  C   UNL A   1      42.414  27.133  30.274  1.00  0.00     0.049 A 
ATOM     44  N   UNL A   1      40.082  29.026  30.066  1.00  0.00    -0.248 NA
ATOM     45  C   UNL A   1      39.583  28.093  27.985  1.00  0.00     0.031 C 
ATOM     46  C   UNL A   1      43.543  26.222  30.448  1.00  0.00     0.029 A 
ATOM     47  N   UNL A   1      42.401  27.882  31.426  1.00  0.00    -0.354 N 
ATOM     48  C   UNL A   1      38.953  29.644  29.543  1.00  0.00     0.074 A 
ATOM     49  C   UNL A   1      38.711  29.055  28.244  1.00  0.00     0.031 C 
ATOM     50  C   UNL A   1      44.116  26.466  31.640  1.00  0.00     0.029 A 
ATOM     51  C   UNL A   1      43.406  27.560  32.302  1.00  0.00     0.049 A 
ATOM     52  H   UNL A   1      41.733  28.583  31.604  1.00  0.00     0.167 HD
ATOM     53  C   UNL A   1      38.176  30.605  30.100  1.00  0.00     0.037 A 
ATOM     54  C   UNL A   1      43.719  28.092  33.500  1.00  0.00     0.037 A 
ATOM     55  C   UNL A   1      38.400  31.190  31.395  1.00  0.00     0.049 A 
ATOM     56  C   UNL A   1      42.869  29.196  34.075  1.00  0.00     0.074 A 
ATOM     57  C   UNL A   1      37.657  32.162  32.045  1.00  0.00     0.029 A 
ATOM     58  N   UNL A   1      39.449  30.861  32.238  1.00  0.00    -0.354 N 
ATOM     59  N   UNL A   1      41.790  29.756  33.584  1.00  0.00    -0.248 NA
ATOM     60  C   UNL A   1      43.280  29.737  35.381  1.00  0.00     0.031 C 
ATOM     61  C   UNL A   1      38.280  32.447  33.265  1.00  0.00     0.029 A 
ATOM     62  C   UNL A   1      39.386  31.622  33.394  1.00  0.00     0.049 A 
ATOM     63  H   UNL A   1      40.139  30.185  32.044  1.00  0.00     0.167 HD
ATOM     64  C   UNL A   1      41.379  30.689  34.528  1.00  0.00     0.074 A 
ATOM     65  C   UNL A   1      42.316  30.613  35.629  1.00  0.00     0.031 C 
ATOM     66  C   UNL A   1      40.318  31.533  34.486  1.00  0.00     0.037 A 
BRANCH  53  67
ATOM     67  C   UNL A   1      37.010  31.099  29.296  1.00  0.00     0.064 A 
ATOM     68  C   UNL A   1      36.988  32.391  28.751  1.00  0.00     0.173 A 
ATOM     69  C   UNL A   1      35.918  30.258  29.038  1.00  0.00     0.173 A 
ATOM     70  F   UNL A   1      38.003  33.238  28.980  1.00  0.00    -0.203 F 
ATOM     71  C   UNL A   1      35.902  32.832  27.998  1.00  0.00     0.198 A 
ATOM     72  C   UNL A   1      34.845  30.692  28.264  1.00  0.00     0.198 A 
ATOM     73  F   UNL A   1      35.894  29.011  29.533  1.00  0.00    -0.203 F 
ATOM     74  F   UNL A   1      35.882  34.084  27.522  1.00  0.00    -0.200 F 
ATOM     75  C   UNL A   1      34.835  31.980  27.750  1.00  0.00     0.200 A 
ATOM     76  F   UNL A   1      33.821  29.865  28.017  1.00  0.00    -0.200 F 
ATOM     77  F   UNL A   1      33.793  32.403  27.021  1.00  0.00    -0.200 F 
ENDBRANCH  53  67
BRANCH  54  78
ATOM     78  C   UNL A   1      44.899  27.588  34.249  1.00  0.00     0.064 A 
ATOM     79  C   UNL A   1      44.799  26.475  35.096  1.00  0.00     0.173 A 
ATOM     80  C   UNL A   1      46.143  28.229  34.154  1.00  0.00     0.173 A 
ATOM     81  F   UNL A   1      43.623  25.847  35.240  1.00  0.00    -0.203 F 
ATOM     82  C   UNL A   1      45.895  26.034  35.835  1.00  0.00     0.198 A 
ATOM     83  C   UNL A   1      47.244  27.770  34.874  1.00  0.00     0.198 A 
ATOM     84  F   UNL A   1      46.289  29.298  33.359  1.00  0.00    -0.203 F 
ATOM     85  F   UNL A   1      45.761  24.997  36.672  1.00  0.00    -0.200 F 
ATOM     86  C   UNL A   1      47.118  26.678  35.719  1.00  0.00     0.200 A 
ATOM     87  F   UNL A   1      48.426  28.390  34.751  1.00  0.00    -0.200 F 
ATOM     88  F   UNL A   1      48.172  26.253  36.429  1.00  0.00    -0.200 F 
ENDBRANCH  54  78
BRANCH  66  89
ATOM     89  C   UNL A   1      40.094  32.419  35.678  1.00  0.00     0.064 A 
ATOM     90  C   UNL A   1      40.771  33.638  35.828  1.00  0.00     0.173 A 
ATOM     91  C   UNL A   1      39.166  32.057  36.668  1.00  0.00     0.173 A 
ATOM     92  F   UNL A   1      41.678  34.022  34.917  1.00  0.00    -0.203 F 
ATOM     93  C   UNL A   1      40.549  34.448  36.939  1.00  0.00     0.198 A 
ATOM     94  C   UNL A   1      38.927  32.883  37.763  1.00  0.00     0.198 A 
ATOM     95  F   UNL A   1      38.486  30.905  36.568  1.00  0.00    -0.203 F 
ATOM     96  F   UNL A   1      41.244  35.585  37.085  1.00  0.00    -0.200 F 
ATOM     97  C   UNL A   1      39.624  34.073  37.902  1.00  0.00     0.200 A 
ATOM     98  F   UNL A   1      38.025  32.524  38.687  1.00  0.00    -0.200 F 
ATOM     99  F   UNL A   1      39.411  34.855  38.969  1.00  0.00    -0.200 F 
ENDBRANCH  66  89
ENDBRANCH  40  41
ENDBRANCH  33  35
ENDBRANCH  32  33
ENDBRANCH  31  32
ENDBRANCH  30  31
ENDBRANCH  29  30
ENDBRANCH  28  29
ENDBRANCH   1  28
TORSDOF 19
ENDMDL
MODEL 3
REMARK VINA RESULT:     -10.9      4.185      6.279
REMARK SMILES C/C(=N/[NH+]=C1\NC(=O)[C@H](CC(=O)OCCOCCOC(=O)c2ccc(-c3c4nc(c(-c5c(F)c(F)c(F)c(F)c5F)c5ccc([nH]5)c(-c5c(F)c(F)c(F)c(F)c5F)c5nc(c(-c6c(F)c(F)c(F)c(F)c6F)c6ccc3[nH]6)C=C5)C=C4)cc2)S1)c1ccc(OC(C)C)cc1
REMARK SMILES IDX 14 1 13 2 11 3 12 4 10 5 9 6 4 7 5 8 6 10 85 11 7 12 8 14
REMARK SMILES IDX 3 15 1 16 2 17 86 18 87 19 95 20 88 21 94 22 89 23 90 24
REMARK SMILES IDX 91 25 92 26 93 27 15 28 16 29 17 30 18 31 19 32 20 33 21 34
REMARK SMILES IDX 22 35 23 36 84 37 24 38 83 39 25 40 26 41 27 42 77 43 28 44
REMARK SMILES IDX 82 45 76 46 78 47 29 48 81 49 75 50 74 51 30 53 62 54 42 55
REMARK SMILES IDX 61 56 43 57 46 58 60 59 79 60 44 61 45 62 59 64 80 65 47 66
REMARK SMILES IDX 31 67 32 68 40 69 33 70 34 71 38 72 41 73 35 74 36 75 39 76
REMARK SMILES IDX 37 77 63 78 64 79 72 80 65 81 66 82 70 83 73 84 67 85 68 86
REMARK SMILES IDX 71 87 69 88 48 89 49 90 57 91 50 92 51 93 55 94 58 95 52 96
REMARK SMILES IDX 53 97 56 98 54 99
REMARK H PARENT 4 9 6 13 78 52 46 63
REMARK Flexibility Score: inf
ROOT
ATOM      1  C   UNL A   1      29.182  30.722  22.869  1.00  0.00     0.261 C 
ENDROOT
BRANCH   1   2
ATOM      2  O   UNL A   1      28.405  29.629  23.396  1.00  0.00    -0.463 OA
BRANCH   2   3
ATOM      3  C   UNL A   1      28.964  28.397  23.325  1.00  0.00     0.307 C 
ATOM      4  O   UNL A   1      28.458  27.423  22.782  1.00  0.00    -0.252 OA
BRANCH   3   5
ATOM      5  C   UNL A   1      30.278  28.327  24.061  1.00  0.00     0.150 C 
BRANCH   5   6
ATOM      6  C   UNL A   1      31.478  28.080  23.159  1.00  0.00     0.184 C 
ATOM      7  N   UNL A   1      33.406  24.899  24.050  1.00  0.00    -0.142 N 
ATOM      8  C   UNL A   1      33.012  26.055  23.640  1.00  0.00     0.337 C 
ATOM      9  H   UNL A   1      32.898  24.083  23.838  1.00  0.00     0.343 HD
ATOM     10  N   UNL A   1      33.600  27.237  23.911  1.00  0.00    -0.202 N 
ATOM     11  S   UNL A   1      31.547  26.288  22.747  1.00  0.00    -0.020 SA
ATOM     12  C   UNL A   1      32.811  28.344  23.853  1.00  0.00     0.322 C 
ATOM     13  H   UNL A   1      34.555  27.297  24.141  1.00  0.00     0.316 HD
ATOM     14  O   UNL A   1      33.139  29.395  24.385  1.00  0.00    -0.246 OA
BRANCH   7  15
ATOM     15  N   UNL A   1      34.583  24.845  24.811  1.00  0.00    -0.090 NA
ATOM     16  C   UNL A   1      36.459  23.678  25.764  1.00  0.00     0.071 C 
ATOM     17  C   UNL A   1      35.122  23.682  25.059  1.00  0.00     0.088 C 
BRANCH  17  18
ATOM     18  C   UNL A   1      34.495  22.354  24.838  1.00  0.00    -0.000 A 
ATOM     19  C   UNL A   1      33.117  22.167  24.879  1.00  0.00     0.014 A 
ATOM     20  C   UNL A   1      35.347  21.248  24.737  1.00  0.00     0.014 A 
ATOM     21  C   UNL A   1      32.603  20.866  24.839  1.00  0.00     0.047 A 
ATOM     22  C   UNL A   1      34.823  19.952  24.715  1.00  0.00     0.047 A 
ATOM     23  C   UNL A   1      33.449  19.750  24.765  1.00  0.00     0.119 A 
BRANCH  23  24
ATOM     24  O   UNL A   1      32.801  18.552  24.801  1.00  0.00    -0.491 OA
BRANCH  24  25
ATOM     25  C   UNL A   1      32.894  17.569  23.764  1.00  0.00     0.167 C 
ATOM     26  C   UNL A   1      32.525  18.081  22.375  1.00  0.00     0.052 C 
ATOM     27  C   UNL A   1      34.179  16.750  23.819  1.00  0.00     0.052 C 
ENDBRANCH  24  25
ENDBRANCH  23  24
ENDBRANCH  17  18
ENDBRANCH   7  15
ENDBRANCH   5   6
ENDBRANCH   3   5
ENDBRANCH   2   3
ENDBRANCH   1   2
BRANCH   1  28
ATOM     28  C   UNL A   1      29.420  31.804  23.923  1.00  0.00     0.202 C 
BRANCH  28  29
ATOM     29  O   UNL A   1      30.282  31.432  24.997  1.00  0.00    -0.374 OA
BRANCH  29  30
ATOM     30  C   UNL A   1      30.864  32.492  25.753  1.00  0.00     0.202 C 
BRANCH  30  31
ATOM     31  C   UNL A   1      31.404  32.102  27.133  1.00  0.00     0.261 C 
BRANCH  31  32
ATOM     32  O   UNL A   1      32.812  31.791  27.103  1.00  0.00    -0.460 OA
BRANCH  32  33
ATOM     33  C   UNL A   1      33.622  32.711  27.660  1.00  0.00     0.338 C 
ATOM     34  O   UNL A   1      33.301  33.829  28.062  1.00  0.00    -0.246 OA
BRANCH  33  35
ATOM     35  C   UNL A   1      34.986  32.189  27.875  1.00  0.00     0.060 A 
ATOM     36  C   UNL A   1      35.137  30.796  27.931  1.00  0.00     0.016 A 
ATOM     37  C   UNL A   1      36.064  33.024  28.183  1.00  0.00     0.016 A 
ATOM     38  C   UNL A   1      36.332  30.237  28.376  1.00  0.00     0.010 A 
ATOM     39  C   UNL A   1      37.265  32.459  28.636  1.00  0.00     0.010 A 
ATOM     40  C   UNL A   1      37.386  31.065  28.788  1.00  0.00    -0.014 A 
BRANCH  40  41
ATOM     41  C   UNL A   1      38.514  30.465  29.549  1.00  0.00     0.031 A 
ATOM     42  C   UNL A   1      38.699  30.840  30.996  1.00  0.00     0.074 A 
ATOM     43  C   UNL A   1      39.318  29.542  28.993  1.00  0.00     0.049 A 
ATOM     44  N   UNL A   1      39.583  30.411  31.863  1.00  0.00    -0.248 NA
ATOM     45  C   UNL A   1      37.759  31.831  31.542  1.00  0.00     0.031 C 
ATOM     46  C   UNL A   1      39.226  29.057  27.618  1.00  0.00     0.029 A 
ATOM     47  N   UNL A   1      40.370  28.839  29.529  1.00  0.00    -0.354 N 
ATOM     48  C   UNL A   1      39.306  31.078  33.049  1.00  0.00     0.074 A 
ATOM     49  C   UNL A   1      38.194  31.966  32.785  1.00  0.00     0.031 C 
ATOM     50  C   UNL A   1      40.184  28.134  27.417  1.00  0.00     0.029 A 
ATOM     51  C   UNL A   1      40.966  27.977  28.643  1.00  0.00     0.049 A 
ATOM     52  H   UNL A   1      40.668  28.945  30.462  1.00  0.00     0.167 HD
ATOM     53  C   UNL A   1      39.910  30.953  34.256  1.00  0.00     0.037 A 
ATOM     54  C   UNL A   1      42.025  27.159  28.803  1.00  0.00     0.037 A 
ATOM     55  C   UNL A   1      41.008  30.065  34.533  1.00  0.00     0.049 A 
ATOM     56  C   UNL A   1      42.713  27.076  30.142  1.00  0.00     0.074 A 
ATOM     57  C   UNL A   1      41.675  29.863  35.730  1.00  0.00     0.029 A 
ATOM     58  N   UNL A   1      41.604  29.233  33.600  1.00  0.00    -0.354 N 
ATOM     59  N   UNL A   1      42.426  27.693  31.263  1.00  0.00    -0.248 NA
ATOM     60  C   UNL A   1      43.870  26.172  30.237  1.00  0.00     0.031 C 
ATOM     61  C   UNL A   1      42.700  28.937  35.510  1.00  0.00     0.029 A 
ATOM     62  C   UNL A   1      42.644  28.530  34.187  1.00  0.00     0.049 A 
ATOM     63  H   UNL A   1      41.330  29.154  32.658  1.00  0.00     0.167 HD
ATOM     64  C   UNL A   1      43.344  27.232  32.199  1.00  0.00     0.074 A 
ATOM     65  C   UNL A   1      44.190  26.273  31.519  1.00  0.00     0.031 C 
ATOM     66  C   UNL A   1      43.473  27.573  33.505  1.00  0.00     0.037 A 
BRANCH  53  67
ATOM     67  C   UNL A   1      39.401  31.816  35.373  1.00  0.00     0.064 A 
ATOM     68  C   UNL A   1      38.477  31.334  36.311  1.00  0.00     0.173 A 
ATOM     69  C   UNL A   1      39.871  33.128  35.526  1.00  0.00     0.173 A 
ATOM     70  F   UNL A   1      37.987  30.090  36.199  1.00  0.00    -0.203 F 
ATOM     71  C   UNL A   1      38.021  32.145  37.348  1.00  0.00     0.198 A 
ATOM     72  C   UNL A   1      39.434  33.928  36.579  1.00  0.00     0.198 A 
ATOM     73  F   UNL A   1      40.760  33.634  34.658  1.00  0.00    -0.203 F 
ATOM     74  F   UNL A   1      37.106  31.679  38.209  1.00  0.00    -0.200 F 
ATOM     75  C   UNL A   1      38.505  33.438  37.485  1.00  0.00     0.200 A 
ATOM     76  F   UNL A   1      39.910  35.173  36.716  1.00  0.00    -0.200 F 
ATOM     77  F   UNL A   1      38.071  34.215  38.487  1.00  0.00    -0.200 F 
ENDBRANCH  53  67
BRANCH  54  78
ATOM     78  C   UNL A   1      42.509  26.343  27.660  1.00  0.00     0.064 A 
ATOM     79  C   UNL A   1      42.031  25.043  27.442  1.00  0.00     0.173 A 
ATOM     80  C   UNL A   1      43.484  26.837  26.781  1.00  0.00     0.173 A 
ATOM     81  F   UNL A   1      41.118  24.519  28.274  1.00  0.00    -0.203 F 
ATOM     82  C   UNL A   1      42.522  24.262  26.399  1.00  0.00     0.198 A 
ATOM     83  C   UNL A   1      43.956  26.064  25.722  1.00  0.00     0.198 A 
ATOM     84  F   UNL A   1      43.974  28.073  26.948  1.00  0.00    -0.203 F 
ATOM     85  F   UNL A   1      42.081  23.007  26.241  1.00  0.00    -0.200 F 
ATOM     86  C   UNL A   1      43.480  24.774  25.536  1.00  0.00     0.200 A 
ATOM     87  F   UNL A   1      44.874  26.567  24.885  1.00  0.00    -0.200 F 
ATOM     88  F   UNL A   1      43.951  24.023  24.532  1.00  0.00    -0.200 F 
ENDBRANCH  54  78
BRANCH  66  89
ATOM     89  C   UNL A   1      44.547  26.881  34.295  1.00  0.00     0.064 A 
ATOM     90  C   UNL A   1      44.313  25.658  34.942  1.00  0.00     0.173 A 
ATOM     91  C   UNL A   1      45.834  27.434  34.382  1.00  0.00     0.173 A 
ATOM     92  F   UNL A   1      43.096  25.095  34.901  1.00  0.00    -0.203 F 
ATOM     93  C   UNL A   1      45.321  25.029  35.670  1.00  0.00     0.198 A 
ATOM     94  C   UNL A   1      46.846  26.788  35.088  1.00  0.00     0.198 A 
ATOM     95  F   UNL A   1      46.112  28.598  33.775  1.00  0.00    -0.203 F 
ATOM     96  F   UNL A   1      45.061  23.886  36.319  1.00  0.00    -0.200 F 
ATOM     97  C   UNL A   1      46.587  25.591  35.737  1.00  0.00     0.200 A 
ATOM     98  F   UNL A   1      48.072  27.328  35.142  1.00  0.00    -0.200 F 
ATOM     99  F   UNL A   1      47.555  24.984  36.436  1.00  0.00    -0.200 F 
ENDBRANCH  66  89
ENDBRANCH  40  41
ENDBRANCH  33  35
ENDBRANCH  32  33
ENDBRANCH  31  32
ENDBRANCH  30  31
ENDBRANCH  29  30
ENDBRANCH  28  29
ENDBRANCH   1  28
TORSDOF 19
ENDMDL
