MODEL 1
REMARK VINA RESULT:     -11.9      0.000      0.000
REMARK SMILES Cc1ncccc1NC(=O)NC[C@H]1CCC[C@H]1C(=O)OCCOCCOC(=O)c1ccc(-c2c3nc(c(-c4c(F)c(F)c(F)c(F)c4F)c4ccc([nH]4)c(-c4c(F)c(F)c(F)c(F)c4F)c4nc(c(-c5c(F)c(F)c(F)c(F)c5F)c5ccc2[nH]5)C=C4)C=C3)cc1
REMARK SMILES IDX 22 1 21 2 20 3 18 4 19 5 17 6 13 7 14 8 15 9 16 10 12 11
REMARK SMILES IDX 11 12 8 13 9 14 10 16 7 18 1 19 2 20 3 21 4 22 6 23 5 24
REMARK SMILES IDX 23 25 24 26 25 27 26 28 27 29 28 30 29 31 30 32 91 33 31 34
REMARK SMILES IDX 90 35 32 36 33 37 34 38 84 39 35 40 89 41 83 42 85 43 36 44
REMARK SMILES IDX 88 45 82 46 81 47 37 49 69 50 49 51 68 52 50 53 53 54 67 55
REMARK SMILES IDX 86 56 51 57 52 58 66 60 87 61 54 62 38 63 39 64 47 65 40 66
REMARK SMILES IDX 41 67 45 68 48 69 42 70 43 71 46 72 44 73 70 74 71 75 79 76
REMARK SMILES IDX 72 77 73 78 77 79 80 80 74 81 75 82 78 83 76 84 55 85 56 86
REMARK SMILES IDX 64 87 57 88 58 89 62 90 65 91 59 92 60 93 63 94 61 95
REMARK H PARENT 8 15 11 17 85 48 53 59
REMARK Flexibility Score: inf
ROOT
ATOM      1  C   UNL A   1      40.720  20.440  26.392  1.00  0.00     0.202 C 
ENDROOT
BRANCH   1   2
ATOM      2  C   UNL A   1      39.922  21.743  26.292  1.00  0.00     0.261 C 
BRANCH   2   3
ATOM      3  O   UNL A   1      38.593  21.465  25.805  1.00  0.00    -0.463 OA
BRANCH   3   4
ATOM      4  C   UNL A   1      37.754  22.522  25.697  1.00  0.00     0.309 C 
ATOM      5  O   UNL A   1      37.939  23.616  26.216  1.00  0.00    -0.252 OA
BRANCH   4   6
ATOM      6  C   UNL A   1      36.560  22.235  24.812  1.00  0.00     0.104 C 
ATOM      7  C   UNL A   1      35.145  22.257  25.425  1.00  0.00     0.022 C 
ATOM      8  C   UNL A   1      34.297  22.107  24.162  1.00  0.00     0.006 C 
ATOM      9  C   UNL A   1      35.005  22.930  23.089  1.00  0.00     0.001 C 
ATOM     10  C   UNL A   1      36.455  23.095  23.559  1.00  0.00     0.016 C 
BRANCH   7  11
ATOM     11  C   UNL A   1      34.740  23.450  26.312  1.00  0.00     0.122 C 
BRANCH  11  12
ATOM     12  N   UNL A   1      33.381  23.500  26.790  1.00  0.00    -0.338 N 
ATOM     13  N   UNL A   1      32.013  25.382  26.177  1.00  0.00    -0.306 N 
ATOM     14  C   UNL A   1      32.263  24.192  26.701  1.00  0.00     0.319 C 
ATOM     15  H   UNL A   1      31.069  25.606  26.348  1.00  0.00     0.171 HD
ATOM     16  O   UNL A   1      31.289  23.652  27.253  1.00  0.00    -0.249 OA
ATOM     17  H   UNL A   1      33.236  22.745  27.403  1.00  0.00     0.165 HD
BRANCH  13  18
ATOM     18  C   UNL A   1      32.598  26.445  25.466  1.00  0.00     0.064 A 
ATOM     19  C   UNL A   1      32.070  25.304  23.209  1.00  0.00     0.069 C 
ATOM     20  C   UNL A   1      32.629  26.415  24.054  1.00  0.00     0.061 A 
ATOM     21  N   UNL A   1      33.169  27.412  23.296  1.00  0.00    -0.259 NA
ATOM     22  C   UNL A   1      33.702  28.474  23.925  1.00  0.00     0.111 A 
ATOM     23  C   UNL A   1      33.201  27.546  26.053  1.00  0.00     0.030 A 
ATOM     24  C   UNL A   1      33.743  28.582  25.293  1.00  0.00     0.022 A 
ENDBRANCH  13  18
ENDBRANCH  11  12
ENDBRANCH   7  11
ENDBRANCH   4   6
ENDBRANCH   3   4
ENDBRANCH   2   3
ENDBRANCH   1   2
BRANCH   1  25
ATOM     25  O   UNL A   1      41.952  20.422  25.669  1.00  0.00    -0.374 OA
BRANCH  25  26
ATOM     26  C   UNL A   1      43.010  21.241  26.162  1.00  0.00     0.202 C 
BRANCH  26  27
ATOM     27  C   UNL A   1      43.853  21.966  25.097  1.00  0.00     0.261 C 
BRANCH  27  28
ATOM     28  O   UNL A   1      43.241  23.182  24.622  1.00  0.00    -0.460 OA
BRANCH  28  29
ATOM     29  C   UNL A   1      43.933  24.313  24.913  1.00  0.00     0.338 C 
ATOM     30  O   UNL A   1      44.980  24.678  24.408  1.00  0.00    -0.246 OA
BRANCH  29  31
ATOM     31  C   UNL A   1      43.159  25.179  25.830  1.00  0.00     0.060 A 
ATOM     32  C   UNL A   1      43.693  26.445  26.107  1.00  0.00     0.016 A 
ATOM     33  C   UNL A   1      41.993  24.755  26.473  1.00  0.00     0.016 A 
ATOM     34  C   UNL A   1      43.107  27.259  27.074  1.00  0.00     0.010 A 
ATOM     35  C   UNL A   1      41.406  25.577  27.447  1.00  0.00     0.010 A 
ATOM     36  C   UNL A   1      41.985  26.815  27.785  1.00  0.00    -0.014 A 
BRANCH  36  37
ATOM     37  C   UNL A   1      41.527  27.586  28.972  1.00  0.00     0.031 A 
ATOM     38  C   UNL A   1      42.297  27.481  30.263  1.00  0.00     0.074 A 
ATOM     39  C   UNL A   1      40.481  28.428  28.890  1.00  0.00     0.049 A 
ATOM     40  N   UNL A   1      42.090  28.080  31.409  1.00  0.00    -0.248 NA
ATOM     41  C   UNL A   1      43.458  26.577  30.261  1.00  0.00     0.031 C 
ATOM     42  C   UNL A   1      39.676  28.657  27.694  1.00  0.00     0.029 A 
ATOM     43  N   UNL A   1      39.923  29.252  29.837  1.00  0.00    -0.354 N 
ATOM     44  C   UNL A   1      43.085  27.620  32.263  1.00  0.00     0.074 A 
ATOM     45  C   UNL A   1      43.875  26.667  31.514  1.00  0.00     0.031 C 
ATOM     46  C   UNL A   1      38.728  29.568  27.976  1.00  0.00     0.029 A 
ATOM     47  C   UNL A   1      38.837  29.958  29.381  1.00  0.00     0.049 A 
ATOM     48  H   UNL A   1      40.268  29.329  30.756  1.00  0.00     0.167 HD
ATOM     49  C   UNL A   1      43.328  27.969  33.551  1.00  0.00     0.037 A 
ATOM     50  C   UNL A   1      38.014  30.807  30.027  1.00  0.00     0.037 A 
ATOM     51  C   UNL A   1      42.548  28.924  34.297  1.00  0.00     0.049 A 
ATOM     52  C   UNL A   1      38.259  31.122  31.482  1.00  0.00     0.074 A 
ATOM     53  C   UNL A   1      42.736  29.363  35.597  1.00  0.00     0.029 A 
ATOM     54  N   UNL A   1      41.424  29.579  33.815  1.00  0.00    -0.354 N 
ATOM     55  N   UNL A   1      39.221  30.709  32.271  1.00  0.00    -0.248 NA
ATOM     56  C   UNL A   1      37.300  32.028  32.135  1.00  0.00     0.031 C 
ATOM     57  C   UNL A   1      41.690  30.232  35.923  1.00  0.00     0.029 A 
ATOM     58  C   UNL A   1      40.888  30.390  34.803  1.00  0.00     0.049 A 
ATOM     59  H   UNL A   1      41.061  29.482  32.905  1.00  0.00     0.167 HD
ATOM     60  C   UNL A   1      39.002  31.325  33.498  1.00  0.00     0.074 A 
ATOM     61  C   UNL A   1      37.824  32.151  33.346  1.00  0.00     0.031 C 
ATOM     62  C   UNL A   1      39.717  31.215  34.646  1.00  0.00     0.037 A 
BRANCH  49  63
ATOM     63  C   UNL A   1      44.469  27.288  34.252  1.00  0.00     0.064 A 
ATOM     64  C   UNL A   1      45.753  27.853  34.304  1.00  0.00     0.173 A 
ATOM     65  C   UNL A   1      44.266  26.065  34.909  1.00  0.00     0.173 A 
ATOM     66  F   UNL A   1      46.005  29.015  33.683  1.00  0.00    -0.203 F 
ATOM     67  C   UNL A   1      46.796  27.202  34.958  1.00  0.00     0.198 A 
ATOM     68  C   UNL A   1      45.303  25.435  35.592  1.00  0.00     0.198 A 
ATOM     69  F   UNL A   1      43.056  25.484  34.899  1.00  0.00    -0.203 F 
ATOM     70  F   UNL A   1      48.026  27.734  34.948  1.00  0.00    -0.200 F 
ATOM     71  C   UNL A   1      46.569  25.999  35.608  1.00  0.00     0.200 A 
ATOM     72  F   UNL A   1      45.077  24.279  36.233  1.00  0.00    -0.200 F 
ATOM     73  F   UNL A   1      47.573  25.378  36.242  1.00  0.00    -0.200 F 
ENDBRANCH  49  63
BRANCH  50  74
ATOM     74  C   UNL A   1      36.868  31.422  29.305  1.00  0.00     0.064 A 
ATOM     75  C   UNL A   1      36.865  32.783  28.975  1.00  0.00     0.173 A 
ATOM     76  C   UNL A   1      35.744  30.661  28.947  1.00  0.00     0.173 A 
ATOM     77  F   UNL A   1      37.902  33.560  29.322  1.00  0.00    -0.203 F 
ATOM     78  C   UNL A   1      35.775  33.366  28.329  1.00  0.00     0.198 A 
ATOM     79  C   UNL A   1      34.669  31.237  28.274  1.00  0.00     0.198 A 
ATOM     80  F   UNL A   1      35.693  29.356  29.248  1.00  0.00    -0.203 F 
ATOM     81  F   UNL A   1      35.777  34.680  28.070  1.00  0.00    -0.200 F 
ATOM     82  C   UNL A   1      34.682  32.590  27.972  1.00  0.00     0.200 A 
ATOM     83  F   UNL A   1      33.619  30.483  27.923  1.00  0.00    -0.200 F 
ATOM     84  F   UNL A   1      33.637  33.150  27.348  1.00  0.00    -0.200 F 
ENDBRANCH  50  74
BRANCH  62  85
ATOM     85  C   UNL A   1      39.274  32.039  35.823  1.00  0.00     0.064 A 
ATOM     86  C   UNL A   1      39.720  33.354  36.019  1.00  0.00     0.173 A 
ATOM     87  C   UNL A   1      38.353  31.518  36.747  1.00  0.00     0.173 A 
ATOM     88  F   UNL A   1      40.609  33.898  35.173  1.00  0.00    -0.203 F 
ATOM     89  C   UNL A   1      39.286  34.105  37.109  1.00  0.00     0.198 A 
ATOM     90  C   UNL A   1      37.895  32.283  37.816  1.00  0.00     0.198 A 
ATOM     91  F   UNL A   1      37.885  30.269  36.605  1.00  0.00    -0.203 F 
ATOM     92  F   UNL A   1      39.767  35.341  37.303  1.00  0.00    -0.200 F 
ATOM     93  C   UNL A   1      38.368  33.573  38.002  1.00  0.00     0.200 A 
ATOM     94  F   UNL A   1      36.994  31.773  38.668  1.00  0.00    -0.200 F 
ATOM     95  F   UNL A   1      37.944  34.300  39.044  1.00  0.00    -0.200 F 
ENDBRANCH  62  85
ENDBRANCH  36  37
ENDBRANCH  29  31
ENDBRANCH  28  29
ENDBRANCH  27  28
ENDBRANCH  26  27
ENDBRANCH  25  26
ENDBRANCH   1  25
TORSDOF 17
ENDMDL
MODEL 2
REMARK VINA RESULT:     -11.8      0.501      2.014
REMARK SMILES Cc1ncccc1NC(=O)NC[C@H]1CCC[C@H]1C(=O)OCCOCCOC(=O)c1ccc(-c2c3nc(c(-c4c(F)c(F)c(F)c(F)c4F)c4ccc([nH]4)c(-c4c(F)c(F)c(F)c(F)c4F)c4nc(c(-c5c(F)c(F)c(F)c(F)c5F)c5ccc2[nH]5)C=C4)C=C3)cc1
REMARK SMILES IDX 22 1 21 2 20 3 18 4 19 5 17 6 13 7 14 8 15 9 16 10 12 11
REMARK SMILES IDX 11 12 8 13 9 14 10 16 7 18 1 19 2 20 3 21 4 22 6 23 5 24
REMARK SMILES IDX 23 25 24 26 25 27 26 28 27 29 28 30 29 31 30 32 91 33 31 34
REMARK SMILES IDX 90 35 32 36 33 37 34 38 84 39 35 40 89 41 83 42 85 43 36 44
REMARK SMILES IDX 88 45 82 46 81 47 37 49 69 50 49 51 68 52 50 53 53 54 67 55
REMARK SMILES IDX 86 56 51 57 52 58 66 60 87 61 54 62 38 63 39 64 47 65 40 66
REMARK SMILES IDX 41 67 45 68 48 69 42 70 43 71 46 72 44 73 70 74 71 75 79 76
REMARK SMILES IDX 72 77 73 78 77 79 80 80 74 81 75 82 78 83 76 84 55 85 56 86
REMARK SMILES IDX 64 87 57 88 58 89 62 90 65 91 59 92 60 93 63 94 61 95
REMARK H PARENT 8 15 11 17 85 48 53 59
REMARK Flexibility Score: inf
ROOT
ATOM      1  C   UNL A   1      40.606  20.256  26.348  1.00  0.00     0.202 C 
ENDROOT
BRANCH   1   2
ATOM      2  C   UNL A   1      39.834  21.569  26.513  1.00  0.00     0.261 C 
BRANCH   2   3
ATOM      3  O   UNL A   1      38.483  21.403  26.037  1.00  0.00    -0.463 OA
BRANCH   3   4
ATOM      4  C   UNL A   1      37.835  22.527  25.650  1.00  0.00     0.309 C 
ATOM      5  O   UNL A   1      38.226  23.667  25.864  1.00  0.00    -0.252 OA
BRANCH   4   6
ATOM      6  C   UNL A   1      36.574  22.236  24.864  1.00  0.00     0.104 C 
ATOM      7  C   UNL A   1      35.245  22.030  25.620  1.00  0.00     0.022 C 
ATOM      8  C   UNL A   1      34.271  21.959  24.445  1.00  0.00     0.006 C 
ATOM      9  C   UNL A   1      34.771  22.986  23.431  1.00  0.00     0.001 C 
ATOM     10  C   UNL A   1      36.245  23.238  23.764  1.00  0.00     0.016 C 
BRANCH   7  11
ATOM     11  C   UNL A   1      34.845  23.047  26.705  1.00  0.00     0.122 C 
BRANCH  11  12
ATOM     12  N   UNL A   1      33.480  23.030  27.169  1.00  0.00    -0.338 N 
ATOM     13  N   UNL A   1      31.847  24.350  25.994  1.00  0.00    -0.306 N 
ATOM     14  C   UNL A   1      32.269  23.460  26.880  1.00  0.00     0.319 C 
ATOM     15  H   UNL A   1      30.875  24.460  26.101  1.00  0.00     0.171 HD
ATOM     16  O   UNL A   1      31.377  22.983  27.602  1.00  0.00    -0.249 OA
ATOM     17  H   UNL A   1      33.438  22.510  28.003  1.00  0.00     0.165 HD
BRANCH  13  18
ATOM     18  C   UNL A   1      32.276  25.195  24.956  1.00  0.00     0.064 A 
ATOM     19  C   UNL A   1      30.639  24.083  23.294  1.00  0.00     0.069 C 
ATOM     20  C   UNL A   1      31.707  25.074  23.668  1.00  0.00     0.061 A 
ATOM     21  N   UNL A   1      32.064  25.865  22.615  1.00  0.00    -0.259 NA
ATOM     22  C   UNL A   1      33.007  26.801  22.811  1.00  0.00     0.111 A 
ATOM     23  C   UNL A   1      33.272  26.151  25.080  1.00  0.00     0.030 A 
ATOM     24  C   UNL A   1      33.637  26.978  24.019  1.00  0.00     0.022 A 
ENDBRANCH  13  18
ENDBRANCH  11  12
ENDBRANCH   7  11
ENDBRANCH   4   6
ENDBRANCH   3   4
ENDBRANCH   2   3
ENDBRANCH   1   2
BRANCH   1  25
ATOM     25  O   UNL A   1      41.826  20.354  25.610  1.00  0.00    -0.374 OA
BRANCH  25  26
ATOM     26  C   UNL A   1      42.875  21.130  26.184  1.00  0.00     0.202 C 
BRANCH  26  27
ATOM     27  C   UNL A   1      43.731  21.943  25.195  1.00  0.00     0.261 C 
BRANCH  27  28
ATOM     28  O   UNL A   1      43.080  23.145  24.737  1.00  0.00    -0.460 OA
BRANCH  28  29
ATOM     29  C   UNL A   1      43.762  24.289  24.997  1.00  0.00     0.338 C 
ATOM     30  O   UNL A   1      44.799  24.655  24.475  1.00  0.00    -0.246 OA
BRANCH  29  31
ATOM     31  C   UNL A   1      42.988  25.166  25.905  1.00  0.00     0.060 A 
ATOM     32  C   UNL A   1      43.507  26.444  26.146  1.00  0.00     0.016 A 
ATOM     33  C   UNL A   1      41.837  24.740  26.573  1.00  0.00     0.016 A 
ATOM     34  C   UNL A   1      42.923  27.272  27.102  1.00  0.00     0.010 A 
ATOM     35  C   UNL A   1      41.250  25.576  27.536  1.00  0.00     0.010 A 
ATOM     36  C   UNL A   1      41.816  26.829  27.837  1.00  0.00    -0.014 A 
BRANCH  36  37
ATOM     37  C   UNL A   1      41.363  27.621  29.012  1.00  0.00     0.031 A 
ATOM     38  C   UNL A   1      42.147  27.551  30.297  1.00  0.00     0.074 A 
ATOM     39  C   UNL A   1      40.307  28.450  28.924  1.00  0.00     0.049 A 
ATOM     40  N   UNL A   1      41.946  28.173  31.433  1.00  0.00    -0.248 NA
ATOM     41  C   UNL A   1      43.317  26.659  30.302  1.00  0.00     0.031 C 
ATOM     42  C   UNL A   1      39.487  28.645  27.732  1.00  0.00     0.029 A 
ATOM     43  N   UNL A   1      39.750  29.289  29.859  1.00  0.00    -0.354 N 
ATOM     44  C   UNL A   1      42.954  27.742  32.286  1.00  0.00     0.074 A 
ATOM     45  C   UNL A   1      43.746  26.780  31.549  1.00  0.00     0.031 C 
ATOM     46  C   UNL A   1      38.533  29.552  28.005  1.00  0.00     0.029 A 
ATOM     47  C   UNL A   1      38.652  29.974  29.400  1.00  0.00     0.049 A 
ATOM     48  H   UNL A   1      40.105  29.389  30.772  1.00  0.00     0.167 HD
ATOM     49  C   UNL A   1      43.207  28.121  33.563  1.00  0.00     0.037 A 
ATOM     50  C   UNL A   1      37.827  30.828  30.036  1.00  0.00     0.037 A 
ATOM     51  C   UNL A   1      42.425  29.083  34.296  1.00  0.00     0.049 A 
ATOM     52  C   UNL A   1      38.084  31.177  31.481  1.00  0.00     0.074 A 
ATOM     53  C   UNL A   1      42.622  29.551  35.585  1.00  0.00     0.029 A 
ATOM     54  N   UNL A   1      41.289  29.716  33.813  1.00  0.00    -0.354 N 
ATOM     55  N   UNL A   1      39.058  30.791  32.268  1.00  0.00    -0.248 NA
ATOM     56  C   UNL A   1      37.123  32.087  32.124  1.00  0.00     0.031 C 
ATOM     57  C   UNL A   1      41.570  30.417  35.903  1.00  0.00     0.029 A 
ATOM     58  C   UNL A   1      40.755  30.543  34.789  1.00  0.00     0.049 A 
ATOM     59  H   UNL A   1      40.918  29.596  32.909  1.00  0.00     0.167 HD
ATOM     60  C   UNL A   1      38.846  31.430  33.484  1.00  0.00     0.074 A 
ATOM     61  C   UNL A   1      37.658  32.242  33.327  1.00  0.00     0.031 C 
ATOM     62  C   UNL A   1      39.574  31.352  34.627  1.00  0.00     0.037 A 
BRANCH  49  63
ATOM     63  C   UNL A   1      44.362  27.466  34.266  1.00  0.00     0.064 A 
ATOM     64  C   UNL A   1      44.218  26.260  34.969  1.00  0.00     0.173 A 
ATOM     65  C   UNL A   1      45.641  28.040  34.209  1.00  0.00     0.173 A 
ATOM     66  F   UNL A   1      43.014  25.675  35.065  1.00  0.00    -0.203 F 
ATOM     67  C   UNL A   1      45.303  25.673  35.615  1.00  0.00     0.198 A 
ATOM     68  C   UNL A   1      46.731  27.432  34.827  1.00  0.00     0.198 A 
ATOM     69  F   UNL A   1      45.839  29.188  33.543  1.00  0.00    -0.203 F 
ATOM     70  F   UNL A   1      45.129  24.550  36.326  1.00  0.00    -0.200 F 
ATOM     71  C   UNL A   1      46.559  26.254  35.537  1.00  0.00     0.200 A 
ATOM     72  F   UNL A   1      47.948  27.987  34.736  1.00  0.00    -0.200 F 
ATOM     73  F   UNL A   1      47.602  25.683  36.154  1.00  0.00    -0.200 F 
ENDBRANCH  49  63
BRANCH  50  74
ATOM     74  C   UNL A   1      36.668  31.416  29.313  1.00  0.00     0.064 A 
ATOM     75  C   UNL A   1      35.561  30.633  28.961  1.00  0.00     0.173 A 
ATOM     76  C   UNL A   1      36.653  32.770  28.945  1.00  0.00     0.173 A 
ATOM     77  F   UNL A   1      35.540  29.326  29.263  1.00  0.00    -0.203 F 
ATOM     78  C   UNL A   1      34.489  31.176  28.253  1.00  0.00     0.198 A 
ATOM     79  C   UNL A   1      35.568  33.319  28.265  1.00  0.00     0.198 A 
ATOM     80  F   UNL A   1      37.691  33.560  29.251  1.00  0.00    -0.203 F 
ATOM     81  F   UNL A   1      33.467  30.394  27.884  1.00  0.00    -0.200 F 
ATOM     82  C   UNL A   1      34.491  32.521  27.913  1.00  0.00     0.200 A 
ATOM     83  F   UNL A   1      35.570  34.621  27.947  1.00  0.00    -0.200 F 
ATOM     84  F   UNL A   1      33.460  33.043  27.236  1.00  0.00    -0.200 F 
ENDBRANCH  50  74
BRANCH  62  85
ATOM     85  C   UNL A   1      39.135  32.197  35.791  1.00  0.00     0.064 A 
ATOM     86  C   UNL A   1      38.275  31.702  36.783  1.00  0.00     0.173 A 
ATOM     87  C   UNL A   1      39.616  33.508  35.937  1.00  0.00     0.173 A 
ATOM     88  F   UNL A   1      37.776  30.461  36.686  1.00  0.00    -0.203 F 
ATOM     89  C   UNL A   1      37.891  32.498  37.861  1.00  0.00     0.198 A 
ATOM     90  C   UNL A   1      39.257  34.288  37.034  1.00  0.00     0.198 A 
ATOM     91  F   UNL A   1      40.448  34.030  35.024  1.00  0.00    -0.203 F 
ATOM     92  F   UNL A   1      37.027  32.020  38.768  1.00  0.00    -0.200 F 
ATOM     93  C   UNL A   1      38.388  33.785  37.991  1.00  0.00     0.200 A 
ATOM     94  F   UNL A   1      39.752  35.526  37.166  1.00  0.00    -0.200 F 
ATOM     95  F   UNL A   1      38.025  34.545  39.033  1.00  0.00    -0.200 F 
ENDBRANCH  62  85
ENDBRANCH  36  37
ENDBRANCH  29  31
ENDBRANCH  28  29
ENDBRANCH  27  28
ENDBRANCH  26  27
ENDBRANCH  25  26
ENDBRANCH   1  25
TORSDOF 17
ENDMDL
MODEL 3
REMARK VINA RESULT:     -11.8      4.384      6.816
REMARK SMILES Cc1ncccc1NC(=O)NC[C@H]1CCC[C@H]1C(=O)OCCOCCOC(=O)c1ccc(-c2c3nc(c(-c4c(F)c(F)c(F)c(F)c4F)c4ccc([nH]4)c(-c4c(F)c(F)c(F)c(F)c4F)c4nc(c(-c5c(F)c(F)c(F)c(F)c5F)c5ccc2[nH]5)C=C4)C=C3)cc1
REMARK SMILES IDX 22 1 21 2 20 3 18 4 19 5 17 6 13 7 14 8 15 9 16 10 12 11
REMARK SMILES IDX 11 12 8 13 9 14 10 16 7 18 1 19 2 20 3 21 4 22 6 23 5 24
REMARK SMILES IDX 23 25 24 26 25 27 26 28 27 29 28 30 29 31 30 32 91 33 31 34
REMARK SMILES IDX 90 35 32 36 33 37 34 38 84 39 35 40 89 41 83 42 85 43 36 44
REMARK SMILES IDX 88 45 82 46 81 47 37 49 69 50 49 51 68 52 50 53 53 54 67 55
REMARK SMILES IDX 86 56 51 57 52 58 66 60 87 61 54 62 38 63 39 64 47 65 40 66
REMARK SMILES IDX 41 67 45 68 48 69 42 70 43 71 46 72 44 73 70 74 71 75 79 76
REMARK SMILES IDX 72 77 73 78 77 79 80 80 74 81 75 82 78 83 76 84 55 85 56 86
REMARK SMILES IDX 64 87 57 88 58 89 62 90 65 91 59 92 60 93 63 94 61 95
REMARK H PARENT 8 15 11 17 85 48 53 59
REMARK Flexibility Score: inf
ROOT
ATOM      1  C   UNL A   1      33.816  19.625  24.787  1.00  0.00     0.202 C 
ENDROOT
BRANCH   1   2
ATOM      2  C   UNL A   1      32.921  20.241  25.866  1.00  0.00     0.261 C 
BRANCH   2   3
ATOM      3  O   UNL A   1      31.773  20.862  25.252  1.00  0.00    -0.463 OA
BRANCH   3   4
ATOM      4  C   UNL A   1      31.486  22.126  25.644  1.00  0.00     0.309 C 
ATOM      5  O   UNL A   1      30.419  22.483  26.126  1.00  0.00    -0.252 OA
BRANCH   4   6
ATOM      6  C   UNL A   1      32.656  23.073  25.474  1.00  0.00     0.104 C 
ATOM      7  C   UNL A   1      32.993  23.611  24.068  1.00  0.00     0.022 C 
ATOM      8  C   UNL A   1      34.077  24.629  24.417  1.00  0.00     0.006 C 
ATOM      9  C   UNL A   1      33.631  25.276  25.726  1.00  0.00     0.001 C 
ATOM     10  C   UNL A   1      32.632  24.306  26.368  1.00  0.00     0.016 C 
BRANCH   7  11
ATOM     11  C   UNL A   1      31.854  24.181  23.202  1.00  0.00     0.122 C 
BRANCH  11  12
ATOM     12  N   UNL A   1      32.195  24.691  21.897  1.00  0.00    -0.338 N 
ATOM     13  N   UNL A   1      32.781  27.014  21.685  1.00  0.00    -0.306 N 
ATOM     14  C   UNL A   1      32.634  25.764  21.272  1.00  0.00     0.319 C 
ATOM     15  H   UNL A   1      33.081  27.561  20.922  1.00  0.00     0.171 HD
ATOM     16  O   UNL A   1      32.905  25.577  20.074  1.00  0.00    -0.249 OA
ATOM     17  H   UNL A   1      32.045  23.980  21.233  1.00  0.00     0.165 HD
BRANCH  13  18
ATOM     18  C   UNL A   1      32.669  27.849  22.810  1.00  0.00     0.064 A 
ATOM     19  C   UNL A   1      30.138  28.165  22.398  1.00  0.00     0.069 C 
ATOM     20  C   UNL A   1      31.415  28.401  23.156  1.00  0.00     0.061 A 
ATOM     21  N   UNL A   1      31.227  29.211  24.238  1.00  0.00    -0.259 NA
ATOM     22  C   UNL A   1      32.287  29.501  25.010  1.00  0.00     0.111 A 
ATOM     23  C   UNL A   1      33.729  28.221  23.622  1.00  0.00     0.030 A 
ATOM     24  C   UNL A   1      33.551  29.034  24.741  1.00  0.00     0.022 A 
ENDBRANCH  13  18
ENDBRANCH  11  12
ENDBRANCH   7  11
ENDBRANCH   4   6
ENDBRANCH   3   4
ENDBRANCH   2   3
ENDBRANCH   1   2
BRANCH   1  25
ATOM     25  O   UNL A   1      34.848  20.479  24.290  1.00  0.00    -0.374 OA
BRANCH  25  26
ATOM     26  C   UNL A   1      35.753  21.030  25.243  1.00  0.00     0.202 C 
BRANCH  26  27
ATOM     27  C   UNL A   1      37.179  20.447  25.235  1.00  0.00     0.261 C 
BRANCH  27  28
ATOM     28  O   UNL A   1      38.205  21.459  25.250  1.00  0.00    -0.460 OA
BRANCH  28  29
ATOM     29  C   UNL A   1      39.242  21.198  26.085  1.00  0.00     0.338 C 
ATOM     30  O   UNL A   1      39.838  20.142  26.200  1.00  0.00    -0.246 OA
BRANCH  29  31
ATOM     31  C   UNL A   1      39.705  22.437  26.751  1.00  0.00     0.060 A 
ATOM     32  C   UNL A   1      39.030  23.620  26.425  1.00  0.00     0.016 A 
ATOM     33  C   UNL A   1      40.811  22.473  27.604  1.00  0.00     0.016 A 
ATOM     34  C   UNL A   1      39.499  24.848  26.890  1.00  0.00     0.010 A 
ATOM     35  C   UNL A   1      41.280  23.710  28.071  1.00  0.00     0.010 A 
ATOM     36  C   UNL A   1      40.653  24.908  27.681  1.00  0.00    -0.014 A 
BRANCH  36  37
ATOM     37  C   UNL A   1      41.271  26.232  27.960  1.00  0.00     0.031 A 
ATOM     38  C   UNL A   1      42.666  26.516  27.465  1.00  0.00     0.074 A 
ATOM     39  C   UNL A   1      40.579  27.203  28.584  1.00  0.00     0.049 A 
ATOM     40  N   UNL A   1      43.385  27.605  27.575  1.00  0.00    -0.248 NA
ATOM     41  C   UNL A   1      43.341  25.423  26.748  1.00  0.00     0.031 C 
ATOM     42  C   UNL A   1      39.211  27.077  29.077  1.00  0.00     0.029 A 
ATOM     43  N   UNL A   1      40.938  28.490  28.905  1.00  0.00    -0.354 N 
ATOM     44  C   UNL A   1      44.596  27.326  26.953  1.00  0.00     0.074 A 
ATOM     45  C   UNL A   1      44.527  25.954  26.496  1.00  0.00     0.031 C 
ATOM     46  C   UNL A   1      38.840  28.244  29.634  1.00  0.00     0.029 A 
ATOM     47  C   UNL A   1      39.957  29.185  29.568  1.00  0.00     0.049 A 
ATOM     48  H   UNL A   1      41.814  28.877  28.679  1.00  0.00     0.167 HD
ATOM     49  C   UNL A   1      45.663  28.141  26.766  1.00  0.00     0.037 A 
ATOM     50  C   UNL A   1      39.965  30.431  30.081  1.00  0.00     0.037 A 
ATOM     51  C   UNL A   1      45.732  29.509  27.212  1.00  0.00     0.049 A 
ATOM     52  C   UNL A   1      41.193  31.294  29.927  1.00  0.00     0.074 A 
ATOM     53  C   UNL A   1      46.760  30.420  27.042  1.00  0.00     0.029 A 
ATOM     54  N   UNL A   1      44.737  30.160  27.927  1.00  0.00    -0.354 N 
ATOM     55  N   UNL A   1      42.319  31.033  29.309  1.00  0.00    -0.248 NA
ATOM     56  C   UNL A   1      41.148  32.629  30.544  1.00  0.00     0.031 C 
ATOM     57  C   UNL A   1      46.416  31.600  27.710  1.00  0.00     0.029 A 
ATOM     58  C   UNL A   1      45.143  31.449  28.237  1.00  0.00     0.049 A 
ATOM     59  H   UNL A   1      43.871  29.765  28.177  1.00  0.00     0.167 HD
ATOM     60  C   UNL A   1      43.100  32.176  29.434  1.00  0.00     0.074 A 
ATOM     61  C   UNL A   1      42.314  33.138  30.176  1.00  0.00     0.031 C 
ATOM     62  C   UNL A   1      44.355  32.406  28.972  1.00  0.00     0.037 A 
BRANCH  49  63
ATOM     63  C   UNL A   1      46.866  27.563  26.074  1.00  0.00     0.064 A 
ATOM     64  C   UNL A   1      47.032  27.642  24.683  1.00  0.00     0.173 A 
ATOM     65  C   UNL A   1      47.882  26.947  26.820  1.00  0.00     0.173 A 
ATOM     66  F   UNL A   1      46.085  28.211  23.921  1.00  0.00    -0.203 F 
ATOM     67  C   UNL A   1      48.154  27.098  24.062  1.00  0.00     0.198 A 
ATOM     68  C   UNL A   1      49.019  26.435  26.200  1.00  0.00     0.198 A 
ATOM     69  F   UNL A   1      47.779  26.851  28.154  1.00  0.00    -0.203 F 
ATOM     70  F   UNL A   1      48.265  27.138  22.728  1.00  0.00    -0.200 F 
ATOM     71  C   UNL A   1      49.150  26.502  24.822  1.00  0.00     0.200 A 
ATOM     72  F   UNL A   1      49.988  25.873  26.937  1.00  0.00    -0.200 F 
ATOM     73  F   UNL A   1      50.231  25.984  24.224  1.00  0.00    -0.200 F 
ENDBRANCH  49  63
BRANCH  50  74
ATOM     74  C   UNL A   1      38.769  30.945  30.800  1.00  0.00     0.064 A 
ATOM     75  C   UNL A   1      38.666  30.852  32.195  1.00  0.00     0.173 A 
ATOM     76  C   UNL A   1      37.696  31.522  30.104  1.00  0.00     0.173 A 
ATOM     77  F   UNL A   1      39.650  30.281  32.903  1.00  0.00    -0.203 F 
ATOM     78  C   UNL A   1      37.529  31.303  32.864  1.00  0.00     0.198 A 
ATOM     79  C   UNL A   1      36.574  32.000  30.776  1.00  0.00     0.198 A 
ATOM     80  F   UNL A   1      37.742  31.626  28.768  1.00  0.00    -0.203 F 
ATOM     81  F   UNL A   1      37.434  31.156  34.192  1.00  0.00    -0.200 F 
ATOM     82  C   UNL A   1      36.488  31.883  32.155  1.00  0.00     0.200 A 
ATOM     83  F   UNL A   1      35.575  32.569  30.089  1.00  0.00    -0.200 F 
ATOM     84  F   UNL A   1      35.397  32.319  32.800  1.00  0.00    -0.200 F 
ENDBRANCH  50  74
BRANCH  62  85
ATOM     85  C   UNL A   1      44.948  33.766  29.217  1.00  0.00     0.064 A 
ATOM     86  C   UNL A   1      44.759  34.830  28.322  1.00  0.00     0.173 A 
ATOM     87  C   UNL A   1      45.682  34.019  30.387  1.00  0.00     0.173 A 
ATOM     88  F   UNL A   1      44.077  34.640  27.183  1.00  0.00    -0.203 F 
ATOM     89  C   UNL A   1      45.306  36.086  28.576  1.00  0.00     0.198 A 
ATOM     90  C   UNL A   1      46.198  35.285  30.654  1.00  0.00     0.198 A 
ATOM     91  F   UNL A   1      45.887  33.041  31.283  1.00  0.00    -0.203 F 
ATOM     92  F   UNL A   1      45.156  37.073  27.681  1.00  0.00    -0.200 F 
ATOM     93  C   UNL A   1      46.017  36.315  29.744  1.00  0.00     0.200 A 
ATOM     94  F   UNL A   1      46.870  35.508  31.791  1.00  0.00    -0.200 F 
ATOM     95  F   UNL A   1      46.534  37.526  29.990  1.00  0.00    -0.200 F 
ENDBRANCH  62  85
ENDBRANCH  36  37
ENDBRANCH  29  31
ENDBRANCH  28  29
ENDBRANCH  27  28
ENDBRANCH  26  27
ENDBRANCH  25  26
ENDBRANCH   1  25
TORSDOF 17
ENDMDL
