MODEL 1
REMARK VINA RESULT:     -12.3      0.000      0.000
REMARK SMILES CC(=O)Nc1cccc(-c2cc(F)ccc2C(=O)OCCOCCOC(=O)c2ccc(-c3c4nc(c(-c5c(F)c(F)c(F)c(F)c5F)c5ccc([nH]5)c(-c5c(F)c(F)c(F)c(F)c5F)c5nc(c(-c6c(F)c(F)c(F)c(F)c6F)c6ccc3[nH]6)C=C5)C=C4)cc2)c1
REMARK SMILES IDX 22 1 21 2 20 3 19 4 17 5 18 6 16 7 10 8 11 9 12 10 15 11
REMARK SMILES IDX 13 12 14 13 9 14 5 15 6 16 91 17 7 18 8 19 4 20 1 21 2 22
REMARK SMILES IDX 3 23 23 25 24 26 25 27 26 28 27 29 28 30 29 31 90 32 30 33
REMARK SMILES IDX 89 34 31 35 32 36 33 37 83 38 34 39 88 40 82 41 84 42 35 43
REMARK SMILES IDX 87 44 81 45 80 46 36 48 68 49 48 50 67 51 49 52 52 53 66 54
REMARK SMILES IDX 85 55 50 56 51 57 65 59 86 60 53 61 37 62 38 63 46 64 39 65
REMARK SMILES IDX 40 66 44 67 47 68 41 69 42 70 45 71 43 72 69 73 70 74 78 75
REMARK SMILES IDX 71 76 72 77 76 78 79 79 73 80 74 81 77 82 75 83 54 84 55 85
REMARK SMILES IDX 63 86 56 87 57 88 61 89 64 90 58 91 59 92 62 93 60 94
REMARK H PARENT 4 24 84 47 52 58
REMARK Flexibility Score: inf
ROOT
ATOM      1  O   UNL A   1      33.292  30.907  27.025  1.00  0.00    -0.374 OA
ENDROOT
BRANCH   1   2
ATOM      2  C   UNL A   1      33.373  29.482  27.102  1.00  0.00     0.202 C 
BRANCH   2   3
ATOM      3  C   UNL A   1      32.046  28.755  27.310  1.00  0.00     0.261 C 
BRANCH   3   4
ATOM      4  O   UNL A   1      31.456  28.448  26.038  1.00  0.00    -0.460 OA
BRANCH   4   5
ATOM      5  C   UNL A   1      31.148  27.150  25.835  1.00  0.00     0.338 C 
ATOM      6  O   UNL A   1      30.549  26.416  26.608  1.00  0.00    -0.246 OA
BRANCH   5   7
ATOM      7  C   UNL A   1      31.518  26.722  24.461  1.00  0.00     0.068 A 
ATOM      8  C   UNL A   1      30.928  27.209  23.267  1.00  0.00    -0.001 A 
ATOM      9  C   UNL A   1      31.466  26.733  22.050  1.00  0.00     0.048 A 
ATOM     10  C   UNL A   1      32.493  25.791  22.025  1.00  0.00     0.123 A 
ATOM     11  C   UNL A   1      32.552  25.763  24.415  1.00  0.00     0.019 A 
ATOM     12  F   UNL A   1      32.963  25.362  20.847  1.00  0.00    -0.207 F 
ATOM     13  C   UNL A   1      33.031  25.288  23.197  1.00  0.00     0.040 A 
BRANCH   8  14
ATOM     14  C   UNL A   1      29.777  28.142  23.216  1.00  0.00    -0.015 A 
ATOM     15  C   UNL A   1      28.857  30.411  23.306  1.00  0.00     0.041 A 
ATOM     16  C   UNL A   1      27.566  29.874  23.332  1.00  0.00     0.026 A 
ATOM     17  C   UNL A   1      29.947  29.541  23.205  1.00  0.00     0.034 A 
ATOM     18  C   UNL A   1      27.366  28.499  23.264  1.00  0.00     0.003 A 
ATOM     19  C   UNL A   1      28.462  27.641  23.226  1.00  0.00     0.009 A 
BRANCH  15  20
ATOM     20  N   UNL A   1      28.954  31.802  23.481  1.00  0.00    -0.326 N 
ATOM     21  C   UNL A   1      28.069  32.736  21.340  1.00  0.00     0.114 C 
ATOM     22  C   UNL A   1      28.766  32.872  22.663  1.00  0.00     0.221 C 
ATOM     23  O   UNL A   1      29.148  33.976  23.062  1.00  0.00    -0.275 OA
ATOM     24  H   UNL A   1      29.214  32.057  24.395  1.00  0.00     0.169 HD
ENDBRANCH  15  20
ENDBRANCH   8  14
ENDBRANCH   5   7
ENDBRANCH   4   5
ENDBRANCH   3   4
ENDBRANCH   2   3
ENDBRANCH   1   2
BRANCH   1  25
ATOM     25  C   UNL A   1      31.998  31.489  26.870  1.00  0.00     0.202 C 
BRANCH  25  26
ATOM     26  C   UNL A   1      31.874  32.982  27.196  1.00  0.00     0.261 C 
BRANCH  26  27
ATOM     27  O   UNL A   1      33.143  33.637  27.364  1.00  0.00    -0.460 OA
BRANCH  27  28
ATOM     28  C   UNL A   1      33.194  34.506  28.402  1.00  0.00     0.338 C 
ATOM     29  O   UNL A   1      32.391  35.386  28.677  1.00  0.00    -0.246 OA
BRANCH  28  30
ATOM     30  C   UNL A   1      34.320  34.179  29.293  1.00  0.00     0.060 A 
ATOM     31  C   UNL A   1      35.617  34.371  28.802  1.00  0.00     0.016 A 
ATOM     32  C   UNL A   1      34.112  33.585  30.539  1.00  0.00     0.016 A 
ATOM     33  C   UNL A   1      36.714  33.929  29.538  1.00  0.00     0.010 A 
ATOM     34  C   UNL A   1      35.215  33.140  31.276  1.00  0.00     0.010 A 
ATOM     35  C   UNL A   1      36.518  33.278  30.763  1.00  0.00    -0.014 A 
BRANCH  35  36
ATOM     36  C   UNL A   1      37.664  32.627  31.443  1.00  0.00     0.031 A 
ATOM     37  C   UNL A   1      38.337  31.454  30.789  1.00  0.00     0.074 A 
ATOM     38  C   UNL A   1      38.108  33.083  32.628  1.00  0.00     0.049 A 
ATOM     39  N   UNL A   1      39.331  30.719  31.220  1.00  0.00    -0.248 NA
ATOM     40  C   UNL A   1      37.818  31.056  29.472  1.00  0.00     0.031 C 
ATOM     41  C   UNL A   1      37.567  34.237  33.339  1.00  0.00     0.029 A 
ATOM     42  N   UNL A   1      39.110  32.622  33.442  1.00  0.00    -0.354 N 
ATOM     43  C   UNL A   1      39.554  29.771  30.231  1.00  0.00     0.074 A 
ATOM     44  C   UNL A   1      38.568  30.000  29.195  1.00  0.00     0.031 C 
ATOM     45  C   UNL A   1      38.224  34.379  34.503  1.00  0.00     0.029 A 
ATOM     46  C   UNL A   1      39.221  33.316  34.620  1.00  0.00     0.049 A 
ATOM     47  H   UNL A   1      39.693  31.865  33.204  1.00  0.00     0.167 HD
ATOM     48  C   UNL A   1      40.503  28.806  30.185  1.00  0.00     0.037 A 
ATOM     49  C   UNL A   1      40.029  33.108  35.677  1.00  0.00     0.037 A 
ATOM     50  C   UNL A   1      41.487  28.585  31.211  1.00  0.00     0.049 A 
ATOM     51  C   UNL A   1      41.040  31.993  35.632  1.00  0.00     0.074 A 
ATOM     52  C   UNL A   1      42.519  27.663  31.236  1.00  0.00     0.029 A 
ATOM     53  N   UNL A   1      41.554  29.292  32.404  1.00  0.00    -0.354 N 
ATOM     54  N   UNL A   1      41.272  31.127  34.674  1.00  0.00    -0.248 NA
ATOM     55  C   UNL A   1      41.908  31.835  36.807  1.00  0.00     0.031 C 
ATOM     56  C   UNL A   1      43.177  27.775  32.467  1.00  0.00     0.029 A 
ATOM     57  C   UNL A   1      42.588  28.802  33.187  1.00  0.00     0.049 A 
ATOM     58  H   UNL A   1      40.956  30.031  32.656  1.00  0.00     0.167 HD
ATOM     59  C   UNL A   1      42.326  30.339  35.119  1.00  0.00     0.074 A 
ATOM     60  C   UNL A   1      42.694  30.835  36.429  1.00  0.00     0.031 C 
ATOM     61  C   UNL A   1      42.938  29.301  34.494  1.00  0.00     0.037 A 
BRANCH  48  62
ATOM     62  C   UNL A   1      40.498  27.896  28.991  1.00  0.00     0.064 A 
ATOM     63  C   UNL A   1      41.279  28.161  27.855  1.00  0.00     0.173 A 
ATOM     64  C   UNL A   1      39.703  26.740  28.986  1.00  0.00     0.173 A 
ATOM     65  F   UNL A   1      42.044  29.260  27.803  1.00  0.00    -0.203 F 
ATOM     66  C   UNL A   1      41.235  27.321  26.745  1.00  0.00     0.198 A 
ATOM     67  C   UNL A   1      39.684  25.887  27.886  1.00  0.00     0.198 A 
ATOM     68  F   UNL A   1      38.942  26.438  30.048  1.00  0.00    -0.203 F 
ATOM     69  F   UNL A   1      41.945  27.624  25.649  1.00  0.00    -0.200 F 
ATOM     70  C   UNL A   1      40.442  26.183  26.763  1.00  0.00     0.200 A 
ATOM     71  F   UNL A   1      38.925  24.783  27.909  1.00  0.00    -0.200 F 
ATOM     72  F   UNL A   1      40.398  25.377  25.693  1.00  0.00    -0.200 F 
ENDBRANCH  48  62
BRANCH  49  73
ATOM     73  C   UNL A   1      39.905  33.984  36.870  1.00  0.00     0.064 A 
ATOM     74  C   UNL A   1      40.631  35.178  36.973  1.00  0.00     0.173 A 
ATOM     75  C   UNL A   1      39.042  33.649  37.924  1.00  0.00     0.173 A 
ATOM     76  F   UNL A   1      41.489  35.525  36.003  1.00  0.00    -0.203 F 
ATOM     77  C   UNL A   1      40.501  36.002  38.089  1.00  0.00     0.198 A 
ATOM     78  C   UNL A   1      38.896  34.485  39.027  1.00  0.00     0.198 A 
ATOM     79  F   UNL A   1      38.327  32.514  37.871  1.00  0.00    -0.203 F 
ATOM     80  F   UNL A   1      41.233  37.121  38.181  1.00  0.00    -0.200 F 
ATOM     81  C   UNL A   1      39.628  35.659  39.112  1.00  0.00     0.200 A 
ATOM     82  F   UNL A   1      38.047  34.151  40.010  1.00  0.00    -0.200 F 
ATOM     83  F   UNL A   1      39.501  36.454  40.183  1.00  0.00    -0.200 F 
ENDBRANCH  49  73
BRANCH  61  84
ATOM     84  C   UNL A   1      44.081  28.641  35.211  1.00  0.00     0.064 A 
ATOM     85  C   UNL A   1      45.399  29.097  35.065  1.00  0.00     0.173 A 
ATOM     86  C   UNL A   1      43.848  27.572  36.088  1.00  0.00     0.173 A 
ATOM     87  F   UNL A   1      45.676  30.107  34.227  1.00  0.00    -0.203 F 
ATOM     88  C   UNL A   1      46.446  28.490  35.756  1.00  0.00     0.198 A 
ATOM     89  C   UNL A   1      44.893  26.986  36.799  1.00  0.00     0.198 A 
ATOM     90  F   UNL A   1      42.604  27.104  36.270  1.00  0.00    -0.203 F 
ATOM     91  F   UNL A   1      47.704  28.914  35.569  1.00  0.00    -0.200 F 
ATOM     92  C   UNL A   1      46.191  27.441  36.627  1.00  0.00     0.200 A 
ATOM     93  F   UNL A   1      44.643  25.982  37.651  1.00  0.00    -0.200 F 
ATOM     94  F   UNL A   1      47.199  26.865  37.296  1.00  0.00    -0.200 F 
ENDBRANCH  61  84
ENDBRANCH  35  36
ENDBRANCH  28  30
ENDBRANCH  27  28
ENDBRANCH  26  27
ENDBRANCH  25  26
ENDBRANCH   1  25
TORSDOF 16
ENDMDL
MODEL 2
REMARK VINA RESULT:     -12.3      3.376      5.642
REMARK SMILES CC(=O)Nc1cccc(-c2cc(F)ccc2C(=O)OCCOCCOC(=O)c2ccc(-c3c4nc(c(-c5c(F)c(F)c(F)c(F)c5F)c5ccc([nH]5)c(-c5c(F)c(F)c(F)c(F)c5F)c5nc(c(-c6c(F)c(F)c(F)c(F)c6F)c6ccc3[nH]6)C=C5)C=C4)cc2)c1
REMARK SMILES IDX 22 1 21 2 20 3 19 4 17 5 18 6 16 7 10 8 11 9 12 10 15 11
REMARK SMILES IDX 13 12 14 13 9 14 5 15 6 16 91 17 7 18 8 19 4 20 1 21 2 22
REMARK SMILES IDX 3 23 23 25 24 26 25 27 26 28 27 29 28 30 29 31 90 32 30 33
REMARK SMILES IDX 89 34 31 35 32 36 33 37 83 38 34 39 88 40 82 41 84 42 35 43
REMARK SMILES IDX 87 44 81 45 80 46 36 48 68 49 48 50 67 51 49 52 52 53 66 54
REMARK SMILES IDX 85 55 50 56 51 57 65 59 86 60 53 61 37 62 38 63 46 64 39 65
REMARK SMILES IDX 40 66 44 67 47 68 41 69 42 70 45 71 43 72 69 73 70 74 78 75
REMARK SMILES IDX 71 76 72 77 76 78 79 79 73 80 74 81 77 82 75 83 54 84 55 85
REMARK SMILES IDX 63 86 56 87 57 88 61 89 64 90 58 91 59 92 62 93 60 94
REMARK H PARENT 4 24 84 47 52 58
REMARK Flexibility Score: inf
ROOT
ATOM      1  O   UNL A   1      32.471  28.041  25.365  1.00  0.00    -0.374 OA
ENDROOT
BRANCH   1   2
ATOM      2  C   UNL A   1      33.431  27.378  24.539  1.00  0.00     0.202 C 
BRANCH   2   3
ATOM      3  C   UNL A   1      33.241  25.870  24.387  1.00  0.00     0.261 C 
BRANCH   3   4
ATOM      4  O   UNL A   1      34.482  25.196  24.650  1.00  0.00    -0.460 OA
BRANCH   4   5
ATOM      5  C   UNL A   1      34.471  24.336  25.689  1.00  0.00     0.338 C 
ATOM      6  O   UNL A   1      33.570  24.193  26.504  1.00  0.00    -0.246 OA
BRANCH   5   7
ATOM      7  C   UNL A   1      35.665  23.453  25.665  1.00  0.00     0.068 A 
ATOM      8  C   UNL A   1      35.677  22.106  25.225  1.00  0.00    -0.001 A 
ATOM      9  C   UNL A   1      36.929  21.451  25.209  1.00  0.00     0.048 A 
ATOM     10  C   UNL A   1      38.089  22.083  25.652  1.00  0.00     0.123 A 
ATOM     11  C   UNL A   1      36.850  24.074  26.117  1.00  0.00     0.019 A 
ATOM     12  F   UNL A   1      39.251  21.418  25.627  1.00  0.00    -0.207 F 
ATOM     13  C   UNL A   1      38.059  23.385  26.122  1.00  0.00     0.040 A 
BRANCH   8  14
ATOM     14  C   UNL A   1      34.472  21.341  24.823  1.00  0.00    -0.015 A 
ATOM     15  C   UNL A   1      33.114  19.303  24.883  1.00  0.00     0.041 A 
ATOM     16  C   UNL A   1      32.296  19.833  23.880  1.00  0.00     0.026 A 
ATOM     17  C   UNL A   1      34.167  20.080  25.373  1.00  0.00     0.034 A 
ATOM     18  C   UNL A   1      32.526  21.108  23.372  1.00  0.00     0.003 A 
ATOM     19  C   UNL A   1      33.616  21.846  23.827  1.00  0.00     0.009 A 
BRANCH  15  20
ATOM     20  N   UNL A   1      32.857  17.972  25.253  1.00  0.00    -0.326 N 
ATOM     21  C   UNL A   1      34.026  16.628  23.502  1.00  0.00     0.114 C 
ATOM     22  C   UNL A   1      33.091  16.767  24.667  1.00  0.00     0.221 C 
ATOM     23  O   UNL A   1      32.541  15.775  25.155  1.00  0.00    -0.275 OA
ATOM     24  H   UNL A   1      32.413  17.896  26.128  1.00  0.00     0.169 HD
ENDBRANCH  15  20
ENDBRANCH   8  14
ENDBRANCH   5   7
ENDBRANCH   4   5
ENDBRANCH   3   4
ENDBRANCH   2   3
ENDBRANCH   1   2
BRANCH   1  25
ATOM     25  C   UNL A   1      31.800  29.176  24.820  1.00  0.00     0.202 C 
BRANCH  25  26
ATOM     26  C   UNL A   1      31.738  30.427  25.704  1.00  0.00     0.261 C 
BRANCH  26  27
ATOM     27  O   UNL A   1      32.522  30.318  26.904  1.00  0.00    -0.460 OA
BRANCH  27  28
ATOM     28  C   UNL A   1      33.202  31.441  27.236  1.00  0.00     0.338 C 
ATOM     29  O   UNL A   1      32.779  32.588  27.260  1.00  0.00    -0.246 OA
BRANCH  28  30
ATOM     30  C   UNL A   1      34.552  31.104  27.717  1.00  0.00     0.060 A 
ATOM     31  C   UNL A   1      34.828  29.760  27.998  1.00  0.00     0.016 A 
ATOM     32  C   UNL A   1      35.491  32.096  28.001  1.00  0.00     0.016 A 
ATOM     33  C   UNL A   1      36.031  29.407  28.605  1.00  0.00     0.010 A 
ATOM     34  C   UNL A   1      36.698  31.740  28.614  1.00  0.00     0.010 A 
ATOM     35  C   UNL A   1      36.958  30.399  28.950  1.00  0.00    -0.014 A 
BRANCH  35  36
ATOM     36  C   UNL A   1      38.138  30.049  29.778  1.00  0.00     0.031 A 
ATOM     37  C   UNL A   1      39.149  29.076  29.242  1.00  0.00     0.074 A 
ATOM     38  C   UNL A   1      38.311  30.599  30.992  1.00  0.00     0.049 A 
ATOM     39  N   UNL A   1      40.233  28.607  29.807  1.00  0.00    -0.248 NA
ATOM     40  C   UNL A   1      38.905  28.563  27.885  1.00  0.00     0.031 C 
ATOM     41  C   UNL A   1      37.425  31.586  31.601  1.00  0.00     0.029 A 
ATOM     42  N   UNL A   1      39.290  30.397  31.931  1.00  0.00    -0.354 N 
ATOM     43  C   UNL A   1      40.797  27.742  28.879  1.00  0.00     0.074 A 
ATOM     44  C   UNL A   1      39.917  27.723  27.729  1.00  0.00     0.031 C 
ATOM     45  C   UNL A   1      37.882  31.884  32.828  1.00  0.00     0.029 A 
ATOM     46  C   UNL A   1      39.086  31.098  33.093  1.00  0.00     0.049 A 
ATOM     47  H   UNL A   1      40.064  29.807  31.785  1.00  0.00     0.167 HD
ATOM     48  C   UNL A   1      41.951  27.039  28.972  1.00  0.00     0.037 A 
ATOM     49  C   UNL A   1      39.788  31.095  34.243  1.00  0.00     0.037 A 
ATOM     50  C   UNL A   1      42.828  27.066  30.113  1.00  0.00     0.049 A 
ATOM     51  C   UNL A   1      41.037  30.261  34.348  1.00  0.00     0.074 A 
ATOM     52  C   UNL A   1      44.043  26.425  30.285  1.00  0.00     0.029 A 
ATOM     53  N   UNL A   1      42.577  27.768  31.283  1.00  0.00    -0.354 N 
ATOM     54  N   UNL A   1      41.587  29.478  33.451  1.00  0.00    -0.248 NA
ATOM     55  C   UNL A   1      41.769  30.320  35.621  1.00  0.00     0.031 C 
ATOM     56  C   UNL A   1      44.501  26.695  31.580  1.00  0.00     0.029 A 
ATOM     57  C   UNL A   1      43.597  27.546  32.196  1.00  0.00     0.049 A 
ATOM     58  H   UNL A   1      41.792  28.338  31.443  1.00  0.00     0.167 HD
ATOM     59  C   UNL A   1      42.739  28.972  34.038  1.00  0.00     0.074 A 
ATOM     60  C   UNL A   1      42.814  29.543  35.367  1.00  0.00     0.031 C 
ATOM     61  C   UNL A   1      43.655  28.116  33.520  1.00  0.00     0.037 A 
BRANCH  48  62
ATOM     62  C   UNL A   1      42.312  26.156  27.813  1.00  0.00     0.064 A 
ATOM     63  C   UNL A   1      41.724  24.895  27.632  1.00  0.00     0.173 A 
ATOM     64  C   UNL A   1      43.257  26.581  26.868  1.00  0.00     0.173 A 
ATOM     65  F   UNL A   1      40.826  24.435  28.515  1.00  0.00    -0.203 F 
ATOM     66  C   UNL A   1      42.097  24.078  26.568  1.00  0.00     0.198 A 
ATOM     67  C   UNL A   1      43.606  25.774  25.789  1.00  0.00     0.198 A 
ATOM     68  F   UNL A   1      43.846  27.780  26.992  1.00  0.00    -0.203 F 
ATOM     69  F   UNL A   1      41.564  22.853  26.447  1.00  0.00    -0.200 F 
ATOM     70  C   UNL A   1      43.033  24.519  25.645  1.00  0.00     0.200 A 
ATOM     71  F   UNL A   1      44.504  26.206  24.893  1.00  0.00    -0.200 F 
ATOM     72  F   UNL A   1      43.394  23.730  24.623  1.00  0.00    -0.200 F 
ENDBRANCH  48  62
BRANCH  49  73
ATOM     73  C   UNL A   1      39.312  31.913  35.387  1.00  0.00     0.064 A 
ATOM     74  C   UNL A   1      38.507  31.359  36.390  1.00  0.00     0.173 A 
ATOM     75  C   UNL A   1      39.672  33.264  35.506  1.00  0.00     0.173 A 
ATOM     76  F   UNL A   1      38.116  30.080  36.304  1.00  0.00    -0.203 F 
ATOM     77  C   UNL A   1      38.074  32.128  37.468  1.00  0.00     0.198 A 
ATOM     78  C   UNL A   1      39.257  34.025  36.596  1.00  0.00     0.198 A 
ATOM     79  F   UNL A   1      40.440  33.839  34.568  1.00  0.00    -0.203 F 
ATOM     80  F   UNL A   1      37.275  31.585  38.397  1.00  0.00    -0.200 F 
ATOM     81  C   UNL A   1      38.455  33.458  37.575  1.00  0.00     0.200 A 
ATOM     82  F   UNL A   1      39.633  35.307  36.695  1.00  0.00    -0.200 F 
ATOM     83  F   UNL A   1      38.041  34.196  38.614  1.00  0.00    -0.200 F 
ENDBRANCH  49  73
BRANCH  61  84
ATOM     84  C   UNL A   1      44.829  27.756  34.384  1.00  0.00     0.064 A 
ATOM     85  C   UNL A   1      46.000  28.529  34.390  1.00  0.00     0.173 A 
ATOM     86  C   UNL A   1      44.765  26.653  35.249  1.00  0.00     0.173 A 
ATOM     87  F   UNL A   1      46.116  29.585  33.572  1.00  0.00    -0.203 F 
ATOM     88  C   UNL A   1      47.071  28.196  35.216  1.00  0.00     0.198 A 
ATOM     89  C   UNL A   1      45.828  26.341  36.094  1.00  0.00     0.198 A 
ATOM     90  F   UNL A   1      43.665  25.887  35.288  1.00  0.00    -0.203 F 
ATOM     91  F   UNL A   1      48.197  28.924  35.176  1.00  0.00    -0.200 F 
ATOM     92  C   UNL A   1      46.982  27.108  36.072  1.00  0.00     0.200 A 
ATOM     93  F   UNL A   1      45.733  25.298  36.929  1.00  0.00    -0.200 F 
ATOM     94  F   UNL A   1      48.011  26.796  36.871  1.00  0.00    -0.200 F 
ENDBRANCH  61  84
ENDBRANCH  35  36
ENDBRANCH  28  30
ENDBRANCH  27  28
ENDBRANCH  26  27
ENDBRANCH  25  26
ENDBRANCH   1  25
TORSDOF 16
ENDMDL
MODEL 3
REMARK VINA RESULT:     -12.3      1.527      7.549
REMARK SMILES CC(=O)Nc1cccc(-c2cc(F)ccc2C(=O)OCCOCCOC(=O)c2ccc(-c3c4nc(c(-c5c(F)c(F)c(F)c(F)c5F)c5ccc([nH]5)c(-c5c(F)c(F)c(F)c(F)c5F)c5nc(c(-c6c(F)c(F)c(F)c(F)c6F)c6ccc3[nH]6)C=C5)C=C4)cc2)c1
REMARK SMILES IDX 22 1 21 2 20 3 19 4 17 5 18 6 16 7 10 8 11 9 12 10 15 11
REMARK SMILES IDX 13 12 14 13 9 14 5 15 6 16 91 17 7 18 8 19 4 20 1 21 2 22
REMARK SMILES IDX 3 23 23 25 24 26 25 27 26 28 27 29 28 30 29 31 90 32 30 33
REMARK SMILES IDX 89 34 31 35 32 36 33 37 83 38 34 39 88 40 82 41 84 42 35 43
REMARK SMILES IDX 87 44 81 45 80 46 36 48 68 49 48 50 67 51 49 52 52 53 66 54
REMARK SMILES IDX 85 55 50 56 51 57 65 59 86 60 53 61 37 62 38 63 46 64 39 65
REMARK SMILES IDX 40 66 44 67 47 68 41 69 42 70 45 71 43 72 69 73 70 74 78 75
REMARK SMILES IDX 71 76 72 77 76 78 79 79 73 80 74 81 77 82 75 83 54 84 55 85
REMARK SMILES IDX 63 86 56 87 57 88 61 89 64 90 58 91 59 92 62 93 60 94
REMARK H PARENT 4 24 84 47 52 58
REMARK Flexibility Score: inf
ROOT
ATOM      1  O   UNL A   1      32.685  31.098  26.487  1.00  0.00    -0.374 OA
ENDROOT
BRANCH   1   2
ATOM      2  C   UNL A   1      32.713  29.989  27.389  1.00  0.00     0.202 C 
BRANCH   2   3
ATOM      3  C   UNL A   1      31.712  28.874  27.096  1.00  0.00     0.261 C 
BRANCH   3   4
ATOM      4  O   UNL A   1      32.048  28.234  25.855  1.00  0.00    -0.460 OA
BRANCH   4   5
ATOM      5  C   UNL A   1      31.340  27.124  25.560  1.00  0.00     0.338 C 
ATOM      6  O   UNL A   1      30.522  26.571  26.281  1.00  0.00    -0.246 OA
BRANCH   5   7
ATOM      7  C   UNL A   1      31.577  26.697  24.156  1.00  0.00     0.068 A 
ATOM      8  C   UNL A   1      30.827  27.130  23.034  1.00  0.00    -0.001 A 
ATOM      9  C   UNL A   1      31.252  26.668  21.767  1.00  0.00     0.048 A 
ATOM     10  C   UNL A   1      32.324  25.788  21.633  1.00  0.00     0.123 A 
ATOM     11  C   UNL A   1      32.655  25.800  24.001  1.00  0.00     0.019 A 
ATOM     12  F   UNL A   1      32.682  25.369  20.413  1.00  0.00    -0.207 F 
ATOM     13  C   UNL A   1      33.020  25.336  22.740  1.00  0.00     0.040 A 
BRANCH   8  14
ATOM     14  C   UNL A   1      29.624  27.993  23.106  1.00  0.00    -0.015 A 
ATOM     15  C   UNL A   1      28.585  30.207  23.255  1.00  0.00     0.041 A 
ATOM     16  C   UNL A   1      27.343  29.597  23.459  1.00  0.00     0.026 A 
ATOM     17  C   UNL A   1      29.704  29.398  23.038  1.00  0.00     0.034 A 
ATOM     18  C   UNL A   1      27.220  28.212  23.453  1.00  0.00     0.003 A 
ATOM     19  C   UNL A   1      28.354  27.418  23.297  1.00  0.00     0.009 A 
BRANCH  15  20
ATOM     20  N   UNL A   1      28.618  31.606  23.381  1.00  0.00    -0.326 N 
ATOM     21  C   UNL A   1      28.063  32.425  21.087  1.00  0.00     0.114 C 
ATOM     22  C   UNL A   1      28.536  32.636  22.496  1.00  0.00     0.221 C 
ATOM     23  O   UNL A   1      28.821  33.767  22.901  1.00  0.00    -0.275 OA
ATOM     24  H   UNL A   1      28.722  31.906  24.312  1.00  0.00     0.169 HD
ENDBRANCH  15  20
ENDBRANCH   8  14
ENDBRANCH   5   7
ENDBRANCH   4   5
ENDBRANCH   3   4
ENDBRANCH   2   3
ENDBRANCH   1   2
BRANCH   1  25
ATOM     25  C   UNL A   1      31.679  32.090  26.690  1.00  0.00     0.202 C 
BRANCH  25  26
ATOM     26  C   UNL A   1      32.154  33.449  27.217  1.00  0.00     0.261 C 
BRANCH  26  27
ATOM     27  O   UNL A   1      33.146  33.346  28.253  1.00  0.00    -0.460 OA
BRANCH  27  28
ATOM     28  C   UNL A   1      34.304  33.998  27.989  1.00  0.00     0.338 C 
ATOM     29  O   UNL A   1      34.437  35.147  27.592  1.00  0.00    -0.246 OA
BRANCH  28  30
ATOM     30  C   UNL A   1      35.460  33.172  28.374  1.00  0.00     0.060 A 
ATOM     31  C   UNL A   1      35.214  31.857  28.787  1.00  0.00     0.016 A 
ATOM     32  C   UNL A   1      36.746  33.710  28.445  1.00  0.00     0.016 A 
ATOM     33  C   UNL A   1      36.248  31.085  29.313  1.00  0.00     0.010 A 
ATOM     34  C   UNL A   1      37.782  32.935  28.977  1.00  0.00     0.010 A 
ATOM     35  C   UNL A   1      37.531  31.633  29.445  1.00  0.00    -0.014 A 
BRANCH  35  36
ATOM     36  C   UNL A   1      38.575  30.889  30.191  1.00  0.00     0.031 A 
ATOM     37  C   UNL A   1      38.794  31.191  31.646  1.00  0.00     0.074 A 
ATOM     38  C   UNL A   1      39.316  29.948  29.580  1.00  0.00     0.049 A 
ATOM     39  N   UNL A   1      39.670  30.686  32.478  1.00  0.00    -0.248 NA
ATOM     40  C   UNL A   1      37.906  32.199  32.243  1.00  0.00     0.031 C 
ATOM     41  C   UNL A   1      39.168  29.535  28.188  1.00  0.00     0.029 A 
ATOM     42  N   UNL A   1      40.344  29.175  30.055  1.00  0.00    -0.354 N 
ATOM     43  C   UNL A   1      39.441  31.316  33.694  1.00  0.00     0.074 A 
ATOM     44  C   UNL A   1      38.369  32.266  33.482  1.00  0.00     0.031 C 
ATOM     45  C   UNL A   1      40.094  28.604  27.908  1.00  0.00     0.029 A 
ATOM     46  C   UNL A   1      40.907  28.366  29.101  1.00  0.00     0.049 A 
ATOM     47  H   UNL A   1      40.649  29.199  30.991  1.00  0.00     0.167 HD
ATOM     48  C   UNL A   1      40.060  31.110  34.881  1.00  0.00     0.037 A 
ATOM     49  C   UNL A   1      41.965  27.537  29.180  1.00  0.00     0.037 A 
ATOM     50  C   UNL A   1      41.119  30.159  35.091  1.00  0.00     0.049 A 
ATOM     51  C   UNL A   1      42.677  27.365  30.495  1.00  0.00     0.074 A 
ATOM     52  C   UNL A   1      41.778  29.844  36.266  1.00  0.00     0.029 A 
ATOM     53  N   UNL A   1      41.681  29.374  34.094  1.00  0.00    -0.354 N 
ATOM     54  N   UNL A   1      42.428  27.933  31.651  1.00  0.00    -0.248 NA
ATOM     55  C   UNL A   1      43.809  26.427  30.521  1.00  0.00     0.031 C 
ATOM     56  C   UNL A   1      42.776  28.908  35.971  1.00  0.00     0.029 A 
ATOM     57  C   UNL A   1      42.705  28.601  34.621  1.00  0.00     0.049 A 
ATOM     58  H   UNL A   1      41.397  29.366  33.153  1.00  0.00     0.167 HD
ATOM     59  C   UNL A   1      43.352  27.406  32.544  1.00  0.00     0.074 A 
ATOM     60  C   UNL A   1      44.163  26.466  31.799  1.00  0.00     0.031 C 
ATOM     61  C   UNL A   1      43.509  27.674  33.865  1.00  0.00     0.037 A 
BRANCH  48  62
ATOM     62  C   UNL A   1      39.619  31.958  36.039  1.00  0.00     0.064 A 
ATOM     63  C   UNL A   1      38.521  31.607  36.838  1.00  0.00     0.173 A 
ATOM     64  C   UNL A   1      40.311  33.137  36.355  1.00  0.00     0.173 A 
ATOM     65  F   UNL A   1      37.817  30.498  36.568  1.00  0.00    -0.203 F 
ATOM     66  C   UNL A   1      38.109  32.424  37.888  1.00  0.00     0.198 A 
ATOM     67  C   UNL A   1      39.915  33.936  37.424  1.00  0.00     0.198 A 
ATOM     68  F   UNL A   1      41.371  33.515  35.627  1.00  0.00    -0.203 F 
ATOM     69  F   UNL A   1      37.022  32.099  38.602  1.00  0.00    -0.200 F 
ATOM     70  C   UNL A   1      38.808  33.585  38.183  1.00  0.00     0.200 A 
ATOM     71  F   UNL A   1      40.598  35.053  37.714  1.00  0.00    -0.200 F 
ATOM     72  F   UNL A   1      38.409  34.373  39.191  1.00  0.00    -0.200 F 
ENDBRANCH  48  62
BRANCH  49  73
ATOM     73  C   UNL A   1      42.412  26.809  27.965  1.00  0.00     0.064 A 
ATOM     74  C   UNL A   1      41.911  25.538  27.655  1.00  0.00     0.173 A 
ATOM     75  C   UNL A   1      43.335  27.384  27.079  1.00  0.00     0.173 A 
ATOM     76  F   UNL A   1      41.048  24.938  28.487  1.00  0.00    -0.203 F 
ATOM     77  C   UNL A   1      42.324  24.866  26.506  1.00  0.00     0.198 A 
ATOM     78  C   UNL A   1      43.729  26.721  25.920  1.00  0.00     0.198 A 
ATOM     79  F   UNL A   1      43.844  28.600  27.334  1.00  0.00    -0.203 F 
ATOM     80  F   UNL A   1      41.858  23.635  26.251  1.00  0.00    -0.200 F 
ATOM     81  C   UNL A   1      43.226  25.460  25.636  1.00  0.00     0.200 A 
ATOM     82  F   UNL A   1      44.596  27.302  25.080  1.00  0.00    -0.200 F 
ATOM     83  F   UNL A   1      43.619  24.814  24.530  1.00  0.00    -0.200 F 
ENDBRANCH  49  73
BRANCH  61  84
ATOM     84  C   UNL A   1      44.588  26.928  34.596  1.00  0.00     0.064 A 
ATOM     85  C   UNL A   1      44.353  25.667  35.164  1.00  0.00     0.173 A 
ATOM     86  C   UNL A   1      45.883  27.458  34.689  1.00  0.00     0.173 A 
ATOM     87  F   UNL A   1      43.128  25.122  35.114  1.00  0.00    -0.203 F 
ATOM     88  C   UNL A   1      45.370  24.976  35.817  1.00  0.00     0.198 A 
ATOM     89  C   UNL A   1      46.905  26.752  35.319  1.00  0.00     0.198 A 
ATOM     90  F   UNL A   1      46.163  28.657  34.155  1.00  0.00    -0.203 F 
ATOM     91  F   UNL A   1      45.113  23.791  36.390  1.00  0.00    -0.200 F 
ATOM     92  C   UNL A   1      46.647  25.515  35.888  1.00  0.00     0.200 A 
ATOM     93  F   UNL A   1      48.141  27.268  35.373  1.00  0.00    -0.200 F 
ATOM     94  F   UNL A   1      47.625  24.844  36.510  1.00  0.00    -0.200 F 
ENDBRANCH  61  84
ENDBRANCH  35  36
ENDBRANCH  28  30
ENDBRANCH  27  28
ENDBRANCH  26  27
ENDBRANCH  25  26
ENDBRANCH   1  25
TORSDOF 16
ENDMDL
