MODEL 1
REMARK VINA RESULT:     -12.0      0.000      0.000
REMARK SMILES O=C(NCc1ccc(C(=O)OCCOCCOC(=O)c2ccc(-c3c4nc(c(-c5c(F)c(F)c(F)c(F)c5F)c5ccc([nH]5)c(-c5c(F)c(F)c(F)c(F)c5F)c5nc(c(-c6c(F)c(F)c(F)c(F)c6F)c6ccc3[nH]6)C=C5)C=C4)cc2)cc1)Nc1ccccc1Br
REMARK SMILES IDX 13 1 12 2 11 3 9 4 10 5 8 6 5 7 6 8 84 9 7 10 83 11 4 12
REMARK SMILES IDX 3 13 1 14 2 15 85 16 86 19 87 20 91 21 88 22 90 23 92 24
REMARK SMILES IDX 89 25 14 26 15 27 16 28 17 29 18 30 19 31 20 32 21 33 82 34
REMARK SMILES IDX 22 35 81 36 23 37 24 38 25 39 75 40 26 41 80 42 74 43 76 44
REMARK SMILES IDX 27 45 79 46 73 47 72 48 28 50 60 51 40 52 59 53 41 54 44 55
REMARK SMILES IDX 58 56 77 57 42 58 43 59 57 61 78 62 45 63 29 64 30 65 38 66
REMARK SMILES IDX 31 67 32 68 36 69 39 70 33 71 34 72 37 73 35 74 61 75 62 76
REMARK SMILES IDX 70 77 63 78 64 79 68 80 71 81 65 82 66 83 69 84 67 85 46 86
REMARK SMILES IDX 47 87 55 88 48 89 49 90 53 91 56 92 50 93 51 94 54 95 52 96
REMARK H PARENT 3 17 85 18 76 49 44 60
REMARK Flexibility Score: inf
ROOT
ATOM      1  C   UNL A   1      33.742  34.678  29.163  1.00  0.00     0.202 C 
ENDROOT
BRANCH   1   2
ATOM      2  C   UNL A   1      34.406  33.717  28.173  1.00  0.00     0.261 C 
BRANCH   2   3
ATOM      3  O   UNL A   1      34.273  32.353  28.612  1.00  0.00    -0.460 OA
BRANCH   3   4
ATOM      4  C   UNL A   1      34.865  31.437  27.809  1.00  0.00     0.338 C 
ATOM      5  O   UNL A   1      36.061  31.336  27.575  1.00  0.00    -0.246 OA
BRANCH   4   6
ATOM      6  C   UNL A   1      33.876  30.446  27.327  1.00  0.00     0.060 A 
ATOM      7  C   UNL A   1      32.165  28.466  26.310  1.00  0.00    -0.029 A 
ATOM      8  C   UNL A   1      33.388  28.111  26.893  1.00  0.00     0.006 A 
ATOM      9  C   UNL A   1      31.773  29.816  26.311  1.00  0.00     0.006 A 
ATOM     10  C   UNL A   1      34.240  29.095  27.390  1.00  0.00     0.016 A 
ATOM     11  C   UNL A   1      32.625  30.805  26.816  1.00  0.00     0.016 A 
BRANCH   7  12
ATOM     12  C   UNL A   1      31.310  27.417  25.649  1.00  0.00     0.153 C 
BRANCH  12  13
ATOM     13  N   UNL A   1      31.108  26.262  26.490  1.00  0.00    -0.334 N 
ATOM     14  O   UNL A   1      31.312  24.188  27.255  1.00  0.00    -0.248 OA
ATOM     15  C   UNL A   1      31.599  24.998  26.380  1.00  0.00     0.319 C 
ATOM     16  N   UNL A   1      32.423  24.764  25.316  1.00  0.00    -0.307 N 
ATOM     17  H   UNL A   1      30.522  26.412  27.266  1.00  0.00     0.165 HD
ATOM     18  H   UNL A   1      32.757  25.555  24.835  1.00  0.00     0.171 HD
BRANCH  16  19
ATOM     19  C   UNL A   1      32.846  23.504  24.834  1.00  0.00     0.057 A 
ATOM     20  C   UNL A   1      31.853  22.751  24.181  1.00  0.00     0.027 A 
ATOM     21  C   UNL A   1      34.124  22.937  24.980  1.00  0.00     0.041 A 
ATOM     22  C   UNL A   1      32.139  21.505  23.620  1.00  0.00     0.002 A 
ATOM     23  C   UNL A   1      34.409  21.692  24.398  1.00  0.00     0.018 A 
ATOM     24  Br  UNL A   1      35.479  23.621  26.131  1.00  0.00    -0.049 Br
ATOM     25  C   UNL A   1      33.423  20.984  23.712  1.00  0.00     0.001 A 
ENDBRANCH  16  19
ENDBRANCH  12  13
ENDBRANCH   7  12
ENDBRANCH   4   6
ENDBRANCH   3   4
ENDBRANCH   2   3
ENDBRANCH   1   2
BRANCH   1  26
ATOM     26  O   UNL A   1      33.557  34.174  30.487  1.00  0.00    -0.374 OA
BRANCH  26  27
ATOM     27  C   UNL A   1      34.528  34.553  31.465  1.00  0.00     0.202 C 
BRANCH  27  28
ATOM     28  C   UNL A   1      34.518  33.738  32.763  1.00  0.00     0.261 C 
BRANCH  28  29
ATOM     29  O   UNL A   1      35.042  32.412  32.560  1.00  0.00    -0.460 OA
BRANCH  29  30
ATOM     30  C   UNL A   1      36.195  32.151  33.215  1.00  0.00     0.338 C 
ATOM     31  O   UNL A   1      36.445  32.363  34.394  1.00  0.00    -0.246 OA
BRANCH  30  32
ATOM     32  C   UNL A   1      37.112  31.389  32.346  1.00  0.00     0.060 A 
ATOM     33  C   UNL A   1      38.207  30.767  32.960  1.00  0.00     0.016 A 
ATOM     34  C   UNL A   1      36.958  31.344  30.958  1.00  0.00     0.016 A 
ATOM     35  C   UNL A   1      39.189  30.157  32.185  1.00  0.00     0.010 A 
ATOM     36  C   UNL A   1      37.949  30.734  30.179  1.00  0.00     0.010 A 
ATOM     37  C   UNL A   1      39.090  30.178  30.787  1.00  0.00    -0.014 A 
BRANCH  37  38
ATOM     38  C   UNL A   1      40.262  29.766  29.976  1.00  0.00     0.031 A 
ATOM     39  C   UNL A   1      41.358  30.765  29.724  1.00  0.00     0.074 A 
ATOM     40  C   UNL A   1      40.378  28.508  29.520  1.00  0.00     0.049 A 
ATOM     41  N   UNL A   1      42.481  30.621  29.068  1.00  0.00    -0.248 NA
ATOM     42  C   UNL A   1      41.161  32.109  30.290  1.00  0.00     0.031 C 
ATOM     43  C   UNL A   1      39.400  27.442  29.726  1.00  0.00     0.029 A 
ATOM     44  N   UNL A   1      41.375  27.915  28.788  1.00  0.00    -0.354 N 
ATOM     45  C   UNL A   1      43.122  31.851  29.141  1.00  0.00     0.074 A 
ATOM     46  C   UNL A   1      42.248  32.742  29.874  1.00  0.00     0.031 C 
ATOM     47  C   UNL A   1      39.846  26.322  29.130  1.00  0.00     0.029 A 
ATOM     48  C   UNL A   1      41.127  26.600  28.483  1.00  0.00     0.049 A 
ATOM     49  H   UNL A   1      42.193  28.388  28.508  1.00  0.00     0.167 HD
ATOM     50  C   UNL A   1      44.335  32.203  28.653  1.00  0.00     0.037 A 
ATOM     51  C   UNL A   1      41.848  25.726  27.756  1.00  0.00     0.037 A 
ATOM     52  C   UNL A   1      45.206  31.317  27.927  1.00  0.00     0.049 A 
ATOM     53  C   UNL A   1      43.170  26.158  27.176  1.00  0.00     0.074 A 
ATOM     54  C   UNL A   1      46.464  31.574  27.409  1.00  0.00     0.029 A 
ATOM     55  N   UNL A   1      44.906  30.000  27.613  1.00  0.00    -0.354 N 
ATOM     56  N   UNL A   1      43.782  27.312  27.278  1.00  0.00    -0.248 NA
ATOM     57  C   UNL A   1      43.904  25.159  26.385  1.00  0.00     0.031 C 
ATOM     58  C   UNL A   1      46.905  30.427  26.740  1.00  0.00     0.029 A 
ATOM     59  C   UNL A   1      45.943  29.438  26.886  1.00  0.00     0.049 A 
ATOM     60  H   UNL A   1      44.078  29.533  27.868  1.00  0.00     0.167 HD
ATOM     61  C   UNL A   1      44.983  27.171  26.592  1.00  0.00     0.074 A 
ATOM     62  C   UNL A   1      45.018  25.815  26.089  1.00  0.00     0.031 C 
ATOM     63  C   UNL A   1      45.968  28.083  26.399  1.00  0.00     0.037 A 
BRANCH  50  64
ATOM     64  C   UNL A   1      44.783  33.618  28.870  1.00  0.00     0.064 A 
ATOM     65  C   UNL A   1      44.385  34.656  28.014  1.00  0.00     0.173 A 
ATOM     66  C   UNL A   1      45.598  33.945  29.964  1.00  0.00     0.173 A 
ATOM     67  F   UNL A   1      43.619  34.393  26.945  1.00  0.00    -0.203 F 
ATOM     68  C   UNL A   1      44.807  35.966  28.232  1.00  0.00     0.198 A 
ATOM     69  C   UNL A   1      45.994  35.259  30.195  1.00  0.00     0.198 A 
ATOM     70  F   UNL A   1      46.003  32.989  30.814  1.00  0.00    -0.203 F 
ATOM     71  F   UNL A   1      44.451  36.934  27.377  1.00  0.00    -0.200 F 
ATOM     72  C   UNL A   1      45.605  36.267  29.326  1.00  0.00     0.200 A 
ATOM     73  F   UNL A   1      46.757  35.550  31.258  1.00  0.00    -0.200 F 
ATOM     74  F   UNL A   1      46.005  37.528  29.539  1.00  0.00    -0.200 F 
ENDBRANCH  50  64
BRANCH  51  75
ATOM     75  C   UNL A   1      41.337  24.348  27.532  1.00  0.00     0.064 A 
ATOM     76  C   UNL A   1      41.961  23.240  28.122  1.00  0.00     0.173 A 
ATOM     77  C   UNL A   1      40.227  24.111  26.711  1.00  0.00     0.173 A 
ATOM     78  F   UNL A   1      43.042  23.413  28.895  1.00  0.00    -0.203 F 
ATOM     79  C   UNL A   1      41.503  21.946  27.884  1.00  0.00     0.198 A 
ATOM     80  C   UNL A   1      39.753  22.819  26.494  1.00  0.00     0.198 A 
ATOM     81  F   UNL A   1      39.596  25.138  26.121  1.00  0.00    -0.203 F 
ATOM     82  F   UNL A   1      42.144  20.900  28.423  1.00  0.00    -0.200 F 
ATOM     83  C   UNL A   1      40.396  21.737  27.075  1.00  0.00     0.200 A 
ATOM     84  F   UNL A   1      38.676  22.624  25.721  1.00  0.00    -0.200 F 
ATOM     85  F   UNL A   1      39.954  20.493  26.848  1.00  0.00    -0.200 F 
ENDBRANCH  51  75
BRANCH  63  86
ATOM     86  C   UNL A   1      47.183  27.634  25.641  1.00  0.00     0.064 A 
ATOM     87  C   UNL A   1      48.288  27.064  26.290  1.00  0.00     0.173 A 
ATOM     88  C   UNL A   1      47.226  27.741  24.242  1.00  0.00     0.173 A 
ATOM     89  F   UNL A   1      48.302  26.952  27.627  1.00  0.00    -0.203 F 
ATOM     90  C   UNL A   1      49.402  26.642  25.569  1.00  0.00     0.198 A 
ATOM     91  C   UNL A   1      48.331  27.292  23.522  1.00  0.00     0.198 A 
ATOM     92  F   UNL A   1      46.193  28.272  23.572  1.00  0.00    -0.203 F 
ATOM     93  F   UNL A   1      50.467  26.144  26.215  1.00  0.00    -0.200 F 
ATOM     94  C   UNL A   1      49.420  26.750  24.186  1.00  0.00     0.200 A 
ATOM     95  F   UNL A   1      48.340  27.385  22.186  1.00  0.00    -0.200 F 
ATOM     96  F   UNL A   1      50.491  26.339  23.494  1.00  0.00    -0.200 F 
ENDBRANCH  63  86
ENDBRANCH  37  38
ENDBRANCH  30  32
ENDBRANCH  29  30
ENDBRANCH  28  29
ENDBRANCH  27  28
ENDBRANCH  26  27
ENDBRANCH   1  26
TORSDOF 17
ENDMDL
MODEL 2
REMARK VINA RESULT:     -11.7      5.162     10.724
REMARK SMILES O=C(NCc1ccc(C(=O)OCCOCCOC(=O)c2ccc(-c3c4nc(c(-c5c(F)c(F)c(F)c(F)c5F)c5ccc([nH]5)c(-c5c(F)c(F)c(F)c(F)c5F)c5nc(c(-c6c(F)c(F)c(F)c(F)c6F)c6ccc3[nH]6)C=C5)C=C4)cc2)cc1)Nc1ccccc1Br
REMARK SMILES IDX 13 1 12 2 11 3 9 4 10 5 8 6 5 7 6 8 84 9 7 10 83 11 4 12
REMARK SMILES IDX 3 13 1 14 2 15 85 16 86 19 87 20 91 21 88 22 90 23 92 24
REMARK SMILES IDX 89 25 14 26 15 27 16 28 17 29 18 30 19 31 20 32 21 33 82 34
REMARK SMILES IDX 22 35 81 36 23 37 24 38 25 39 75 40 26 41 80 42 74 43 76 44
REMARK SMILES IDX 27 45 79 46 73 47 72 48 28 50 60 51 40 52 59 53 41 54 44 55
REMARK SMILES IDX 58 56 77 57 42 58 43 59 57 61 78 62 45 63 29 64 30 65 38 66
REMARK SMILES IDX 31 67 32 68 36 69 39 70 33 71 34 72 37 73 35 74 61 75 62 76
REMARK SMILES IDX 70 77 63 78 64 79 68 80 71 81 65 82 66 83 69 84 67 85 46 86
REMARK SMILES IDX 47 87 55 88 48 89 49 90 53 91 56 92 50 93 51 94 54 95 52 96
REMARK H PARENT 3 17 85 18 76 49 44 60
REMARK Flexibility Score: inf
ROOT
ATOM      1  C   UNL A   1      40.070  22.126  27.126  1.00  0.00     0.202 C 
ENDROOT
BRANCH   1   2
ATOM      2  C   UNL A   1      39.616  21.487  25.810  1.00  0.00     0.261 C 
BRANCH   2   3
ATOM      3  O   UNL A   1      38.240  21.801  25.532  1.00  0.00    -0.460 OA
BRANCH   3   4
ATOM      4  C   UNL A   1      37.517  20.780  25.015  1.00  0.00     0.338 C 
ATOM      5  O   UNL A   1      37.888  19.625  24.864  1.00  0.00    -0.246 OA
BRANCH   4   6
ATOM      6  C   UNL A   1      36.120  21.204  24.763  1.00  0.00     0.060 A 
ATOM      7  C   UNL A   1      33.519  22.191  24.390  1.00  0.00    -0.029 A 
ATOM      8  C   UNL A   1      34.628  23.008  24.135  1.00  0.00     0.006 A 
ATOM      9  C   UNL A   1      33.727  20.851  24.760  1.00  0.00     0.006 A 
ATOM     10  C   UNL A   1      35.918  22.519  24.328  1.00  0.00     0.016 A 
ATOM     11  C   UNL A   1      35.023  20.357  24.949  1.00  0.00     0.016 A 
BRANCH   7  12
ATOM     12  C   UNL A   1      32.127  22.762  24.317  1.00  0.00     0.153 C 
BRANCH  12  13
ATOM     13  N   UNL A   1      31.774  23.506  25.502  1.00  0.00    -0.334 N 
ATOM     14  O   UNL A   1      31.068  25.190  26.765  1.00  0.00    -0.248 OA
ATOM     15  C   UNL A   1      31.348  24.791  25.640  1.00  0.00     0.319 C 
ATOM     16  N   UNL A   1      31.219  25.507  24.484  1.00  0.00    -0.307 N 
ATOM     17  H   UNL A   1      31.853  23.004  26.345  1.00  0.00     0.165 HD
ATOM     18  H   UNL A   1      31.246  24.997  23.643  1.00  0.00     0.171 HD
BRANCH  16  19
ATOM     19  C   UNL A   1      31.053  26.906  24.369  1.00  0.00     0.057 A 
ATOM     20  C   UNL A   1      29.939  27.314  23.613  1.00  0.00     0.027 A 
ATOM     21  C   UNL A   1      31.900  27.897  24.895  1.00  0.00     0.041 A 
ATOM     22  C   UNL A   1      29.629  28.666  23.449  1.00  0.00     0.002 A 
ATOM     23  C   UNL A   1      31.573  29.253  24.741  1.00  0.00     0.018 A 
ATOM     24  Br  UNL A   1      33.629  27.559  25.621  1.00  0.00    -0.049 Br
ATOM     25  C   UNL A   1      30.436  29.636  24.030  1.00  0.00     0.001 A 
ENDBRANCH  16  19
ENDBRANCH  12  13
ENDBRANCH   7  12
ENDBRANCH   4   6
ENDBRANCH   3   4
ENDBRANCH   2   3
ENDBRANCH   1   2
BRANCH   1  26
ATOM     26  O   UNL A   1      41.476  22.102  27.374  1.00  0.00    -0.374 OA
BRANCH  26  27
ATOM     27  C   UNL A   1      42.274  21.302  26.499  1.00  0.00     0.202 C 
BRANCH  27  28
ATOM     28  C   UNL A   1      43.369  22.048  25.728  1.00  0.00     0.261 C 
BRANCH  28  29
ATOM     29  O   UNL A   1      42.835  23.170  25.001  1.00  0.00    -0.460 OA
BRANCH  29  30
ATOM     30  C   UNL A   1      43.579  24.296  25.067  1.00  0.00     0.338 C 
ATOM     31  O   UNL A   1      44.581  24.564  24.418  1.00  0.00    -0.246 OA
BRANCH  30  32
ATOM     32  C   UNL A   1      42.922  25.290  25.936  1.00  0.00     0.060 A 
ATOM     33  C   UNL A   1      43.728  26.300  26.478  1.00  0.00     0.016 A 
ATOM     34  C   UNL A   1      41.570  25.200  26.282  1.00  0.00     0.016 A 
ATOM     35  C   UNL A   1      43.204  27.182  27.419  1.00  0.00     0.010 A 
ATOM     36  C   UNL A   1      41.047  26.085  27.232  1.00  0.00     0.010 A 
ATOM     37  C   UNL A   1      41.874  27.049  27.837  1.00  0.00    -0.014 A 
BRANCH  37  38
ATOM     38  C   UNL A   1      41.412  27.813  29.022  1.00  0.00     0.031 A 
ATOM     39  C   UNL A   1      42.175  27.684  30.312  1.00  0.00     0.074 A 
ATOM     40  C   UNL A   1      40.367  28.654  28.937  1.00  0.00     0.049 A 
ATOM     41  N   UNL A   1      41.970  28.274  31.462  1.00  0.00    -0.248 NA
ATOM     42  C   UNL A   1      43.325  26.767  30.303  1.00  0.00     0.031 C 
ATOM     43  C   UNL A   1      39.569  28.890  27.735  1.00  0.00     0.029 A 
ATOM     44  N   UNL A   1      39.799  29.467  29.885  1.00  0.00    -0.354 N 
ATOM     45  C   UNL A   1      42.961  27.799  32.311  1.00  0.00     0.074 A 
ATOM     46  C   UNL A   1      43.747  26.847  31.556  1.00  0.00     0.031 C 
ATOM     47  C   UNL A   1      38.610  29.789  28.020  1.00  0.00     0.029 A 
ATOM     48  C   UNL A   1      38.714  30.172  29.427  1.00  0.00     0.049 A 
ATOM     49  H   UNL A   1      40.138  29.539  30.807  1.00  0.00     0.167 HD
ATOM     50  C   UNL A   1      43.204  28.137  33.600  1.00  0.00     0.037 A 
ATOM     51  C   UNL A   1      37.894  31.021  30.075  1.00  0.00     0.037 A 
ATOM     52  C   UNL A   1      42.426  29.087  34.351  1.00  0.00     0.049 A 
ATOM     53  C   UNL A   1      38.151  31.338  31.525  1.00  0.00     0.074 A 
ATOM     54  C   UNL A   1      42.605  29.511  35.656  1.00  0.00     0.029 A 
ATOM     55  N   UNL A   1      41.316  29.758  33.861  1.00  0.00    -0.354 N 
ATOM     56  N   UNL A   1      39.110  30.910  32.310  1.00  0.00    -0.248 NA
ATOM     57  C   UNL A   1      37.214  32.265  32.177  1.00  0.00     0.031 C 
ATOM     58  C   UNL A   1      41.574  30.403  35.972  1.00  0.00     0.029 A 
ATOM     59  C   UNL A   1      40.784  30.574  34.846  1.00  0.00     0.049 A 
ATOM     60  H   UNL A   1      40.958  29.667  32.948  1.00  0.00     0.167 HD
ATOM     61  C   UNL A   1      38.911  31.535  33.535  1.00  0.00     0.074 A 
ATOM     62  C   UNL A   1      37.746  32.381  33.386  1.00  0.00     0.031 C 
ATOM     63  C   UNL A   1      39.629  31.418  34.680  1.00  0.00     0.037 A 
BRANCH  50  64
ATOM     64  C   UNL A   1      44.349  27.455  34.289  1.00  0.00     0.064 A 
ATOM     65  C   UNL A   1      45.639  28.007  34.295  1.00  0.00     0.173 A 
ATOM     66  C   UNL A   1      44.148  26.249  34.977  1.00  0.00     0.173 A 
ATOM     67  F   UNL A   1      45.887  29.150  33.639  1.00  0.00    -0.203 F 
ATOM     68  C   UNL A   1      46.691  27.363  34.943  1.00  0.00     0.198 A 
ATOM     69  C   UNL A   1      45.195  25.623  35.647  1.00  0.00     0.198 A 
ATOM     70  F   UNL A   1      42.932  25.682  35.005  1.00  0.00    -0.203 F 
ATOM     71  F   UNL A   1      47.924  27.885  34.898  1.00  0.00    -0.200 F 
ATOM     72  C   UNL A   1      46.466  26.176  35.624  1.00  0.00     0.200 A 
ATOM     73  F   UNL A   1      44.974  24.481  36.313  1.00  0.00    -0.200 F 
ATOM     74  F   UNL A   1      47.477  25.561  36.253  1.00  0.00    -0.200 F 
ENDBRANCH  50  64
BRANCH  51  75
ATOM     75  C   UNL A   1      36.746  31.635  29.358  1.00  0.00     0.064 A 
ATOM     76  C   UNL A   1      36.731  33.003  29.053  1.00  0.00     0.173 A 
ATOM     77  C   UNL A   1      35.634  30.869  28.979  1.00  0.00     0.173 A 
ATOM     78  F   UNL A   1      37.759  33.782  29.419  1.00  0.00    -0.203 F 
ATOM     79  C   UNL A   1      35.639  33.585  28.412  1.00  0.00     0.198 A 
ATOM     80  C   UNL A   1      34.555  31.447  28.314  1.00  0.00     0.198 A 
ATOM     81  F   UNL A   1      35.599  29.556  29.250  1.00  0.00    -0.203 F 
ATOM     82  F   UNL A   1      35.629  34.903  28.174  1.00  0.00    -0.200 F 
ATOM     83  C   UNL A   1      34.555  32.805  28.039  1.00  0.00     0.200 A 
ATOM     84  F   UNL A   1      33.515  30.687  27.945  1.00  0.00    -0.200 F 
ATOM     85  F   UNL A   1      33.506  33.364  27.419  1.00  0.00    -0.200 F 
ENDBRANCH  51  75
BRANCH  63  86
ATOM     86  C   UNL A   1      39.198  32.253  35.851  1.00  0.00     0.064 A 
ATOM     87  C   UNL A   1      38.330  31.753  36.833  1.00  0.00     0.173 A 
ATOM     88  C   UNL A   1      39.691  33.556  36.013  1.00  0.00     0.173 A 
ATOM     89  F   UNL A   1      37.819  30.517  36.717  1.00  0.00    -0.203 F 
ATOM     90  C   UNL A   1      37.950  32.538  37.919  1.00  0.00     0.198 A 
ATOM     91  C   UNL A   1      39.331  34.328  37.115  1.00  0.00     0.198 A 
ATOM     92  F   UNL A   1      40.530  34.080  35.106  1.00  0.00    -0.203 F 
ATOM     93  F   UNL A   1      37.081  32.057  38.819  1.00  0.00    -0.200 F 
ATOM     94  C   UNL A   1      38.456  33.821  38.062  1.00  0.00     0.200 A 
ATOM     95  F   UNL A   1      39.832  35.563  37.258  1.00  0.00    -0.200 F 
ATOM     96  F   UNL A   1      38.092  34.574  39.110  1.00  0.00    -0.200 F 
ENDBRANCH  63  86
ENDBRANCH  37  38
ENDBRANCH  30  32
ENDBRANCH  29  30
ENDBRANCH  28  29
ENDBRANCH  27  28
ENDBRANCH  26  27
ENDBRANCH   1  26
TORSDOF 17
ENDMDL
MODEL 3
REMARK VINA RESULT:     -11.7      1.154      2.022
REMARK SMILES O=C(NCc1ccc(C(=O)OCCOCCOC(=O)c2ccc(-c3c4nc(c(-c5c(F)c(F)c(F)c(F)c5F)c5ccc([nH]5)c(-c5c(F)c(F)c(F)c(F)c5F)c5nc(c(-c6c(F)c(F)c(F)c(F)c6F)c6ccc3[nH]6)C=C5)C=C4)cc2)cc1)Nc1ccccc1Br
REMARK SMILES IDX 13 1 12 2 11 3 9 4 10 5 8 6 5 7 6 8 84 9 7 10 83 11 4 12
REMARK SMILES IDX 3 13 1 14 2 15 85 16 86 19 87 20 91 21 88 22 90 23 92 24
REMARK SMILES IDX 89 25 14 26 15 27 16 28 17 29 18 30 19 31 20 32 21 33 82 34
REMARK SMILES IDX 22 35 81 36 23 37 24 38 25 39 75 40 26 41 80 42 74 43 76 44
REMARK SMILES IDX 27 45 79 46 73 47 72 48 28 50 60 51 40 52 59 53 41 54 44 55
REMARK SMILES IDX 58 56 77 57 42 58 43 59 57 61 78 62 45 63 29 64 30 65 38 66
REMARK SMILES IDX 31 67 32 68 36 69 39 70 33 71 34 72 37 73 35 74 61 75 62 76
REMARK SMILES IDX 70 77 63 78 64 79 68 80 71 81 65 82 66 83 69 84 67 85 46 86
REMARK SMILES IDX 47 87 55 88 48 89 49 90 53 91 56 92 50 93 51 94 54 95 52 96
REMARK H PARENT 3 17 85 18 76 49 44 60
REMARK Flexibility Score: inf
ROOT
ATOM      1  C   UNL A   1      34.708  32.155  27.897  1.00  0.00     0.202 C 
ENDROOT
BRANCH   1   2
ATOM      2  C   UNL A   1      34.319  30.816  27.266  1.00  0.00     0.261 C 
BRANCH   2   3
ATOM      3  O   UNL A   1      33.001  30.416  27.680  1.00  0.00    -0.460 OA
BRANCH   3   4
ATOM      4  C   UNL A   1      32.031  30.605  26.754  1.00  0.00     0.338 C 
ATOM      5  O   UNL A   1      31.557  31.676  26.402  1.00  0.00    -0.246 OA
BRANCH   4   6
ATOM      6  C   UNL A   1      31.684  29.327  26.090  1.00  0.00     0.060 A 
ATOM      7  C   UNL A   1      30.858  27.011  24.737  1.00  0.00    -0.029 A 
ATOM      8  C   UNL A   1      30.950  28.231  24.056  1.00  0.00     0.006 A 
ATOM      9  C   UNL A   1      31.257  26.947  26.084  1.00  0.00     0.006 A 
ATOM     10  C   UNL A   1      31.353  29.382  24.731  1.00  0.00     0.016 A 
ATOM     11  C   UNL A   1      31.667  28.101  26.761  1.00  0.00     0.016 A 
BRANCH   7  12
ATOM     12  C   UNL A   1      30.291  25.799  24.045  1.00  0.00     0.153 C 
BRANCH  12  13
ATOM     13  N   UNL A   1      31.207  25.236  23.082  1.00  0.00    -0.334 N 
ATOM     14  O   UNL A   1      32.796  23.933  22.241  1.00  0.00    -0.248 OA
ATOM     15  C   UNL A   1      32.161  24.278  23.233  1.00  0.00     0.319 C 
ATOM     16  N   UNL A   1      32.282  23.743  24.483  1.00  0.00    -0.307 N 
ATOM     17  H   UNL A   1      31.129  25.604  22.173  1.00  0.00     0.165 HD
ATOM     18  H   UNL A   1      31.556  23.937  25.119  1.00  0.00     0.171 HD
BRANCH  16  19
ATOM     19  C   UNL A   1      33.344  22.941  24.962  1.00  0.00     0.057 A 
ATOM     20  C   UNL A   1      34.367  23.641  25.627  1.00  0.00     0.027 A 
ATOM     21  C   UNL A   1      33.482  21.552  24.800  1.00  0.00     0.041 A 
ATOM     22  C   UNL A   1      35.458  22.972  26.186  1.00  0.00     0.002 A 
ATOM     23  C   UNL A   1      34.573  20.884  25.379  1.00  0.00     0.018 A 
ATOM     24  Br  UNL A   1      32.413  20.492  23.632  1.00  0.00    -0.049 Br
ATOM     25  C   UNL A   1      35.551  21.590  26.078  1.00  0.00     0.001 A 
ENDBRANCH  16  19
ENDBRANCH  12  13
ENDBRANCH   7  12
ENDBRANCH   4   6
ENDBRANCH   3   4
ENDBRANCH   2   3
ENDBRANCH   1   2
BRANCH   1  26
ATOM     26  O   UNL A   1      34.174  32.407  29.197  1.00  0.00    -0.374 OA
BRANCH  26  27
ATOM     27  C   UNL A   1      34.460  33.681  29.778  1.00  0.00     0.202 C 
BRANCH  27  28
ATOM     28  C   UNL A   1      34.752  33.676  31.283  1.00  0.00     0.261 C 
BRANCH  28  29
ATOM     29  O   UNL A   1      34.774  32.338  31.814  1.00  0.00    -0.460 OA
BRANCH  29  30
ATOM     30  C   UNL A   1      35.793  32.082  32.665  1.00  0.00     0.338 C 
ATOM     31  O   UNL A   1      35.842  32.333  33.861  1.00  0.00    -0.246 OA
BRANCH  30  32
ATOM     32  C   UNL A   1      36.827  31.274  31.992  1.00  0.00     0.060 A 
ATOM     33  C   UNL A   1      38.061  31.143  32.642  1.00  0.00     0.016 A 
ATOM     34  C   UNL A   1      36.632  30.721  30.723  1.00  0.00     0.016 A 
ATOM     35  C   UNL A   1      39.127  30.519  32.000  1.00  0.00     0.010 A 
ATOM     36  C   UNL A   1      37.706  30.098  30.077  1.00  0.00     0.010 A 
ATOM     37  C   UNL A   1      38.969  30.035  30.694  1.00  0.00    -0.014 A 
BRANCH  37  38
ATOM     38  C   UNL A   1      40.171  29.620  29.930  1.00  0.00     0.031 A 
ATOM     39  C   UNL A   1      41.284  30.613  29.732  1.00  0.00     0.074 A 
ATOM     40  C   UNL A   1      40.298  28.364  29.471  1.00  0.00     0.049 A 
ATOM     41  N   UNL A   1      42.433  30.464  29.123  1.00  0.00    -0.248 NA
ATOM     42  C   UNL A   1      41.073  31.954  30.298  1.00  0.00     0.031 C 
ATOM     43  C   UNL A   1      39.304  27.303  29.630  1.00  0.00     0.029 A 
ATOM     44  N   UNL A   1      41.321  27.768  28.778  1.00  0.00    -0.354 N 
ATOM     45  C   UNL A   1      43.079  31.688  29.231  1.00  0.00     0.074 A 
ATOM     46  C   UNL A   1      42.181  32.581  29.933  1.00  0.00     0.031 C 
ATOM     47  C   UNL A   1      39.767  26.184  29.046  1.00  0.00     0.029 A 
ATOM     48  C   UNL A   1      41.076  26.457  28.455  1.00  0.00     0.049 A 
ATOM     49  H   UNL A   1      42.153  28.236  28.536  1.00  0.00     0.167 HD
ATOM     50  C   UNL A   1      44.314  32.035  28.797  1.00  0.00     0.037 A 
ATOM     51  C   UNL A   1      41.822  25.582  27.753  1.00  0.00     0.037 A 
ATOM     52  C   UNL A   1      45.209  31.147  28.103  1.00  0.00     0.049 A 
ATOM     53  C   UNL A   1      43.170  26.008  27.232  1.00  0.00     0.074 A 
ATOM     54  C   UNL A   1      46.489  31.398  27.640  1.00  0.00     0.029 A 
ATOM     55  N   UNL A   1      44.913  29.834  27.767  1.00  0.00    -0.354 N 
ATOM     56  N   UNL A   1      43.785  27.157  27.367  1.00  0.00    -0.248 NA
ATOM     57  C   UNL A   1      43.930  25.009  26.466  1.00  0.00     0.031 C 
ATOM     58  C   UNL A   1      46.949  30.252  26.983  1.00  0.00     0.029 A 
ATOM     59  C   UNL A   1      45.976  29.270  27.081  1.00  0.00     0.049 A 
ATOM     60  H   UNL A   1      44.071  29.372  27.984  1.00  0.00     0.167 HD
ATOM     61  C   UNL A   1      45.013  27.012  26.732  1.00  0.00     0.074 A 
ATOM     62  C   UNL A   1      45.060  25.658  26.222  1.00  0.00     0.031 C 
ATOM     63  C   UNL A   1      46.012  27.918  26.586  1.00  0.00     0.037 A 
BRANCH  50  64
ATOM     64  C   UNL A   1      44.763  33.445  29.042  1.00  0.00     0.064 A 
ATOM     65  C   UNL A   1      44.511  34.469  28.117  1.00  0.00     0.173 A 
ATOM     66  C   UNL A   1      45.428  33.783  30.230  1.00  0.00     0.173 A 
ATOM     67  F   UNL A   1      43.891  34.196  26.959  1.00  0.00    -0.203 F 
ATOM     68  C   UNL A   1      44.931  35.775  28.361  1.00  0.00     0.198 A 
ATOM     69  C   UNL A   1      45.821  35.093  30.484  1.00  0.00     0.198 A 
ATOM     70  F   UNL A   1      45.690  32.841  31.148  1.00  0.00    -0.203 F 
ATOM     71  F   UNL A   1      44.718  36.729  27.444  1.00  0.00    -0.200 F 
ATOM     72  C   UNL A   1      45.578  36.087  29.547  1.00  0.00     0.200 A 
ATOM     73  F   UNL A   1      46.439  35.395  31.635  1.00  0.00    -0.200 F 
ATOM     74  F   UNL A   1      45.976  37.344  29.785  1.00  0.00    -0.200 F 
ENDBRANCH  50  64
BRANCH  51  75
ATOM     75  C   UNL A   1      41.311  24.209  27.499  1.00  0.00     0.064 A 
ATOM     76  C   UNL A   1      41.920  23.090  28.084  1.00  0.00     0.173 A 
ATOM     77  C   UNL A   1      40.215  23.989  26.653  1.00  0.00     0.173 A 
ATOM     78  F   UNL A   1      42.987  23.248  28.879  1.00  0.00    -0.203 F 
ATOM     79  C   UNL A   1      41.462  21.802  27.817  1.00  0.00     0.198 A 
ATOM     80  C   UNL A   1      39.742  22.702  26.408  1.00  0.00     0.198 A 
ATOM     81  F   UNL A   1      39.599  25.027  26.067  1.00  0.00    -0.203 F 
ATOM     82  F   UNL A   1      42.091  20.746  28.352  1.00  0.00    -0.200 F 
ATOM     83  C   UNL A   1      40.370  21.609  26.984  1.00  0.00     0.200 A 
ATOM     84  F   UNL A   1      38.679  22.522  25.612  1.00  0.00    -0.200 F 
ATOM     85  F   UNL A   1      39.929  20.369  26.730  1.00  0.00    -0.200 F 
ENDBRANCH  51  75
BRANCH  63  86
ATOM     86  C   UNL A   1      47.254  27.465  25.877  1.00  0.00     0.064 A 
ATOM     87  C   UNL A   1      47.415  27.628  24.493  1.00  0.00     0.173 A 
ATOM     88  C   UNL A   1      48.314  26.895  26.598  1.00  0.00     0.173 A 
ATOM     89  F   UNL A   1      46.425  28.156  23.756  1.00  0.00    -0.203 F 
ATOM     90  C   UNL A   1      48.580  27.212  23.854  1.00  0.00     0.198 A 
ATOM     91  C   UNL A   1      49.490  26.506  25.960  1.00  0.00     0.198 A 
ATOM     92  F   UNL A   1      48.215  26.722  27.925  1.00  0.00    -0.203 F 
ATOM     93  F   UNL A   1      48.692  27.334  22.524  1.00  0.00    -0.200 F 
ATOM     94  C   UNL A   1      49.618  26.658  24.588  1.00  0.00     0.200 A 
ATOM     95  F   UNL A   1      50.496  25.982  26.673  1.00  0.00    -0.200 F 
ATOM     96  F   UNL A   1      50.741  26.262  23.972  1.00  0.00    -0.200 F 
ENDBRANCH  63  86
ENDBRANCH  37  38
ENDBRANCH  30  32
ENDBRANCH  29  30
ENDBRANCH  28  29
ENDBRANCH  27  28
ENDBRANCH  26  27
ENDBRANCH   1  26
TORSDOF 17
ENDMDL
