MODEL 1
REMARK VINA RESULT:     -10.2      0.000      0.000
REMARK SMILES COc1cc([C@@H]2[NH2+][C@@H](C(=O)OCCOCCOC(=O)c3ccc(-c4c5nc(c(-c6c(F)c(F)c(F)c(F)c6F)c6ccc([nH]6)c(-c6c(F)c(F)c(F)c(F)c6F)c6nc(c(-c7c(F)c(F)c(F)c(F)c7F)c7ccc4[nH]7)C=C6)C=C5)cc3)CS2)cc(Cl)c1O
REMARK SMILES IDX 14 1 13 2 12 3 11 4 9 5 10 6 8 7 6 8 7 9 84 10 83 13 5 14
REMARK SMILES IDX 3 15 4 16 88 17 86 18 85 19 87 20 2 21 1 22 89 23 15 25
REMARK SMILES IDX 16 26 17 27 18 28 19 29 20 30 21 31 82 32 22 33 81 34 23 35
REMARK SMILES IDX 24 36 25 37 75 38 26 39 80 40 74 41 76 42 27 43 79 44 73 45
REMARK SMILES IDX 72 46 28 48 60 49 40 50 59 51 41 52 44 53 58 54 77 55 42 56
REMARK SMILES IDX 43 57 57 59 78 60 45 61 29 62 30 63 38 64 31 65 32 66 36 67
REMARK SMILES IDX 39 68 33 69 34 70 37 71 35 72 61 73 62 74 70 75 63 76 64 77
REMARK SMILES IDX 68 78 71 79 65 80 66 81 69 82 67 83 46 84 47 85 55 86 48 87
REMARK SMILES IDX 49 88 53 89 56 90 50 91 51 92 54 93 52 94
REMARK H PARENT 7 11 7 12 89 24 76 47 44 58
REMARK Flexibility Score: inf
ROOT
ATOM      1  O   UNL A   1      41.906  19.487  25.376  1.00  0.00    -0.374 OA
ENDROOT
BRANCH   1   2
ATOM      2  C   UNL A   1      43.098  18.812  25.768  1.00  0.00     0.202 C 
BRANCH   2   3
ATOM      3  C   UNL A   1      44.249  18.806  24.756  1.00  0.00     0.261 C 
BRANCH   3   4
ATOM      4  O   UNL A   1      44.480  20.109  24.198  1.00  0.00    -0.459 OA
BRANCH   4   5
ATOM      5  C   UNL A   1      45.606  20.733  24.640  1.00  0.00     0.365 C 
ATOM      6  O   UNL A   1      46.715  20.212  24.710  1.00  0.00    -0.245 OA
BRANCH   5   7
ATOM      7  C   UNL A   1      45.393  22.213  24.948  1.00  0.00     0.304 C 
ATOM      8  C   UNL A   1      45.655  23.905  26.634  1.00  0.00     0.274 C 
ATOM      9  N   UNL A   1      46.314  22.768  25.979  1.00  0.00    -0.319 N 
ATOM     10  S   UNL A   1      43.898  23.525  26.747  1.00  0.00    -0.087 SA
ATOM     11  H   UNL A   1      46.527  22.049  26.672  1.00  0.00     0.348 HD
ATOM     12  H   UNL A   1      47.182  23.074  25.542  1.00  0.00     0.348 HD
ATOM     13  C   UNL A   1      43.925  22.397  25.339  1.00  0.00     0.153 C 
BRANCH   8  14
ATOM     14  C   UNL A   1      45.919  25.248  25.973  1.00  0.00     0.025 A 
ATOM     15  C   UNL A   1      45.313  27.547  25.444  1.00  0.00     0.162 A 
ATOM     16  C   UNL A   1      45.041  26.339  26.083  1.00  0.00     0.061 A 
ATOM     17  C   UNL A   1      46.502  27.731  24.745  1.00  0.00     0.176 A 
ATOM     18  C   UNL A   1      47.401  26.674  24.638  1.00  0.00     0.087 A 
ATOM     19  C   UNL A   1      47.109  25.441  25.240  1.00  0.00     0.035 A 
ATOM     20  Cl  UNL A   1      48.888  26.844  23.782  1.00  0.00    -0.080 Cl
BRANCH  15  21
ATOM     21  O   UNL A   1      44.418  28.578  25.555  1.00  0.00    -0.493 OA
ATOM     22  C   UNL A   1      44.473  29.140  26.871  1.00  0.00     0.278 C 
ENDBRANCH  15  21
BRANCH  17  23
ATOM     23  O   UNL A   1      46.767  28.952  24.188  1.00  0.00    -0.503 OA
ATOM     24  H   UNL A   1      46.183  29.671  24.335  1.00  0.00     0.293 HD
ENDBRANCH  17  23
ENDBRANCH   8  14
ENDBRANCH   5   7
ENDBRANCH   4   5
ENDBRANCH   3   4
ENDBRANCH   2   3
ENDBRANCH   1   2
BRANCH   1  25
ATOM     25  C   UNL A   1      40.898  19.689  26.368  1.00  0.00     0.202 C 
BRANCH  25  26
ATOM     26  C   UNL A   1      40.819  21.078  27.017  1.00  0.00     0.261 C 
BRANCH  26  27
ATOM     27  O   UNL A   1      40.613  22.123  26.046  1.00  0.00    -0.460 OA
BRANCH  27  28
ATOM     28  C   UNL A   1      39.387  22.697  26.088  1.00  0.00     0.338 C 
ATOM     29  O   UNL A   1      38.319  22.191  25.771  1.00  0.00    -0.246 OA
BRANCH  28  30
ATOM     30  C   UNL A   1      39.450  24.009  26.760  1.00  0.00     0.060 A 
ATOM     31  C   UNL A   1      40.234  25.003  26.161  1.00  0.00     0.016 A 
ATOM     32  C   UNL A   1      38.851  24.229  28.001  1.00  0.00     0.016 A 
ATOM     33  C   UNL A   1      40.467  26.206  26.826  1.00  0.00     0.010 A 
ATOM     34  C   UNL A   1      39.094  25.434  28.672  1.00  0.00     0.010 A 
ATOM     35  C   UNL A   1      39.933  26.411  28.104  1.00  0.00    -0.014 A 
BRANCH  35  36
ATOM     36  C   UNL A   1      40.381  27.582  28.900  1.00  0.00     0.031 A 
ATOM     37  C   UNL A   1      41.790  27.611  29.426  1.00  0.00     0.074 A 
ATOM     38  C   UNL A   1      39.559  28.624  29.114  1.00  0.00     0.049 A 
ATOM     39  N   UNL A   1      42.388  28.524  30.149  1.00  0.00    -0.248 NA
ATOM     40  C   UNL A   1      42.638  26.457  29.091  1.00  0.00     0.031 C 
ATOM     41  C   UNL A   1      38.189  28.734  28.620  1.00  0.00     0.029 A 
ATOM     42  N   UNL A   1      39.764  29.792  29.807  1.00  0.00    -0.354 N 
ATOM     43  C   UNL A   1      43.679  28.056  30.354  1.00  0.00     0.074 A 
ATOM     44  C   UNL A   1      43.770  26.764  29.708  1.00  0.00     0.031 C 
ATOM     45  C   UNL A   1      37.671  29.903  29.034  1.00  0.00     0.029 A 
ATOM     46  C   UNL A   1      38.662  30.609  29.843  1.00  0.00     0.049 A 
ATOM     47  H   UNL A   1      40.621  30.021  30.236  1.00  0.00     0.167 HD
ATOM     48  C   UNL A   1      44.700  28.653  31.016  1.00  0.00     0.037 A 
ATOM     49  C   UNL A   1      38.474  31.785  30.474  1.00  0.00     0.037 A 
ATOM     50  C   UNL A   1      44.612  29.936  31.659  1.00  0.00     0.049 A 
ATOM     51  C   UNL A   1      39.602  32.394  31.264  1.00  0.00     0.074 A 
ATOM     52  C   UNL A   1      45.597  30.631  32.341  1.00  0.00     0.029 A 
ATOM     53  N   UNL A   1      43.466  30.717  31.708  1.00  0.00    -0.354 N 
ATOM     54  N   UNL A   1      40.826  31.955  31.434  1.00  0.00    -0.248 NA
ATOM     55  C   UNL A   1      39.323  33.664  31.948  1.00  0.00     0.031 C 
ATOM     56  C   UNL A   1      45.035  31.810  32.841  1.00  0.00     0.029 A 
ATOM     57  C   UNL A   1      43.713  31.874  32.429  1.00  0.00     0.049 A 
ATOM     58  H   UNL A   1      42.605  30.483  31.291  1.00  0.00     0.167 HD
ATOM     59  C   UNL A   1      41.468  32.905  32.218  1.00  0.00     0.074 A 
ATOM     60  C   UNL A   1      40.502  33.950  32.481  1.00  0.00     0.031 C 
ATOM     61  C   UNL A   1      42.744  32.910  32.677  1.00  0.00     0.037 A 
BRANCH  48  62
ATOM     62  C   UNL A   1      46.000  27.909  31.094  1.00  0.00     0.064 A 
ATOM     63  C   UNL A   1      46.253  26.973  32.108  1.00  0.00     0.173 A 
ATOM     64  C   UNL A   1      46.994  28.111  30.125  1.00  0.00     0.173 A 
ATOM     65  F   UNL A   1      45.341  26.754  33.068  1.00  0.00    -0.203 F 
ATOM     66  C   UNL A   1      47.461  26.282  32.160  1.00  0.00     0.198 A 
ATOM     67  C   UNL A   1      48.190  27.400  30.164  1.00  0.00     0.198 A 
ATOM     68  F   UNL A   1      46.799  28.992  29.132  1.00  0.00    -0.203 F 
ATOM     69  F   UNL A   1      47.697  25.422  33.161  1.00  0.00    -0.200 F 
ATOM     70  C   UNL A   1      48.425  26.490  31.185  1.00  0.00     0.200 A 
ATOM     71  F   UNL A   1      49.115  27.595  29.216  1.00  0.00    -0.200 F 
ATOM     72  F   UNL A   1      49.585  25.821  31.232  1.00  0.00    -0.200 F 
ENDBRANCH  48  62
BRANCH  49  73
ATOM     73  C   UNL A   1      37.153  32.463  30.395  1.00  0.00     0.064 A 
ATOM     74  C   UNL A   1      36.845  33.325  29.336  1.00  0.00     0.173 A 
ATOM     75  C   UNL A   1      36.182  32.275  31.389  1.00  0.00     0.173 A 
ATOM     76  F   UNL A   1      37.753  33.557  28.376  1.00  0.00    -0.203 F 
ATOM     77  C   UNL A   1      35.620  33.987  29.280  1.00  0.00     0.198 A 
ATOM     78  C   UNL A   1      34.948  32.917  31.319  1.00  0.00     0.198 A 
ATOM     79  F   UNL A   1      36.430  31.462  32.427  1.00  0.00    -0.203 F 
ATOM     80  F   UNL A   1      35.367  34.841  28.278  1.00  0.00    -0.200 F 
ATOM     81  C   UNL A   1      34.670  33.778  30.268  1.00  0.00     0.200 A 
ATOM     82  F   UNL A   1      34.029  32.704  32.271  1.00  0.00    -0.200 F 
ATOM     83  F   UNL A   1      33.491  34.412  30.213  1.00  0.00    -0.200 F 
ENDBRANCH  49  73
BRANCH  61  84
ATOM     84  C   UNL A   1      43.182  34.098  33.484  1.00  0.00     0.064 A 
ATOM     85  C   UNL A   1      43.679  35.259  32.873  1.00  0.00     0.173 A 
ATOM     86  C   UNL A   1      43.064  34.090  34.882  1.00  0.00     0.173 A 
ATOM     87  F   UNL A   1      43.825  35.312  31.541  1.00  0.00    -0.203 F 
ATOM     88  C   UNL A   1      44.063  36.359  33.636  1.00  0.00     0.198 A 
ATOM     89  C   UNL A   1      43.423  35.201  35.639  1.00  0.00     0.198 A 
ATOM     90  F   UNL A   1      42.588  33.006  35.513  1.00  0.00    -0.203 F 
ATOM     91  F   UNL A   1      44.577  37.442  33.035  1.00  0.00    -0.200 F 
ATOM     92  C   UNL A   1      43.928  36.332  35.016  1.00  0.00     0.200 A 
ATOM     93  F   UNL A   1      43.280  35.178  36.971  1.00  0.00    -0.200 F 
ATOM     94  F   UNL A   1      44.292  37.394  35.748  1.00  0.00    -0.200 F 
ENDBRANCH  61  84
ENDBRANCH  35  36
ENDBRANCH  28  30
ENDBRANCH  27  28
ENDBRANCH  26  27
ENDBRANCH  25  26
ENDBRANCH   1  25
TORSDOF 17
ENDMDL
MODEL 2
REMARK VINA RESULT:     -10.2      4.706      9.984
REMARK SMILES COc1cc([C@@H]2[NH2+][C@@H](C(=O)OCCOCCOC(=O)c3ccc(-c4c5nc(c(-c6c(F)c(F)c(F)c(F)c6F)c6ccc([nH]6)c(-c6c(F)c(F)c(F)c(F)c6F)c6nc(c(-c7c(F)c(F)c(F)c(F)c7F)c7ccc4[nH]7)C=C6)C=C5)cc3)CS2)cc(Cl)c1O
REMARK SMILES IDX 14 1 13 2 12 3 11 4 9 5 10 6 8 7 6 8 7 9 84 10 83 13 5 14
REMARK SMILES IDX 3 15 4 16 88 17 86 18 85 19 87 20 2 21 1 22 89 23 15 25
REMARK SMILES IDX 16 26 17 27 18 28 19 29 20 30 21 31 82 32 22 33 81 34 23 35
REMARK SMILES IDX 24 36 25 37 75 38 26 39 80 40 74 41 76 42 27 43 79 44 73 45
REMARK SMILES IDX 72 46 28 48 60 49 40 50 59 51 41 52 44 53 58 54 77 55 42 56
REMARK SMILES IDX 43 57 57 59 78 60 45 61 29 62 30 63 38 64 31 65 32 66 36 67
REMARK SMILES IDX 39 68 33 69 34 70 37 71 35 72 61 73 62 74 70 75 63 76 64 77
REMARK SMILES IDX 68 78 71 79 65 80 66 81 69 82 67 83 46 84 47 85 55 86 48 87
REMARK SMILES IDX 49 88 53 89 56 90 50 91 51 92 54 93 52 94
REMARK H PARENT 7 11 7 12 89 24 76 47 44 58
REMARK Flexibility Score: inf
ROOT
ATOM      1  O   UNL A   1      31.191  29.560  24.252  1.00  0.00    -0.374 OA
ENDROOT
BRANCH   1   2
ATOM      2  C   UNL A   1      32.199  28.972  23.435  1.00  0.00     0.202 C 
BRANCH   2   3
ATOM      3  C   UNL A   1      31.757  27.834  22.510  1.00  0.00     0.261 C 
BRANCH   3   4
ATOM      4  O   UNL A   1      32.080  26.544  23.053  1.00  0.00    -0.459 OA
BRANCH   4   5
ATOM      5  C   UNL A   1      33.210  25.975  22.550  1.00  0.00     0.365 C 
ATOM      6  O   UNL A   1      33.614  26.115  21.400  1.00  0.00    -0.245 OA
BRANCH   5   7
ATOM      7  C   UNL A   1      34.017  25.211  23.597  1.00  0.00     0.304 C 
ATOM      8  C   UNL A   1      34.101  23.190  24.894  1.00  0.00     0.274 C 
ATOM      9  N   UNL A   1      33.843  23.733  23.554  1.00  0.00    -0.319 N 
ATOM     10  S   UNL A   1      33.486  24.385  26.093  1.00  0.00    -0.087 SA
ATOM     11  H   UNL A   1      32.889  23.507  23.270  1.00  0.00     0.348 HD
ATOM     12  H   UNL A   1      34.494  23.325  22.883  1.00  0.00     0.348 HD
ATOM     13  C   UNL A   1      33.656  25.787  24.969  1.00  0.00     0.153 C 
BRANCH   8  14
ATOM     14  C   UNL A   1      35.549  22.804  25.146  1.00  0.00     0.025 A 
ATOM     15  C   UNL A   1      37.423  21.254  25.009  1.00  0.00     0.162 A 
ATOM     16  C   UNL A   1      36.094  21.575  24.738  1.00  0.00     0.061 A 
ATOM     17  C   UNL A   1      38.268  22.175  25.619  1.00  0.00     0.176 A 
ATOM     18  C   UNL A   1      37.761  23.409  26.014  1.00  0.00     0.087 A 
ATOM     19  C   UNL A   1      36.412  23.719  25.786  1.00  0.00     0.035 A 
ATOM     20  Cl  UNL A   1      38.762  24.588  26.776  1.00  0.00    -0.080 Cl
BRANCH  15  21
ATOM     21  O   UNL A   1      37.908  20.034  24.618  1.00  0.00    -0.493 OA
ATOM     22  C   UNL A   1      36.941  19.010  24.881  1.00  0.00     0.278 C 
ENDBRANCH  15  21
BRANCH  17  23
ATOM     23  O   UNL A   1      39.585  21.851  25.806  1.00  0.00    -0.503 OA
ATOM     24  H   UNL A   1      39.864  21.482  26.621  1.00  0.00     0.293 HD
ENDBRANCH  17  23
ENDBRANCH   8  14
ENDBRANCH   5   7
ENDBRANCH   4   5
ENDBRANCH   3   4
ENDBRANCH   2   3
ENDBRANCH   1   2
BRANCH   1  25
ATOM     25  C   UNL A   1      31.415  29.600  25.662  1.00  0.00     0.202 C 
BRANCH  25  26
ATOM     26  C   UNL A   1      31.893  30.931  26.259  1.00  0.00     0.261 C 
BRANCH  26  27
ATOM     27  O   UNL A   1      32.809  30.740  27.355  1.00  0.00    -0.460 OA
BRANCH  27  28
ATOM     28  C   UNL A   1      33.608  31.804  27.614  1.00  0.00     0.338 C 
ATOM     29  O   UNL A   1      33.273  32.977  27.706  1.00  0.00    -0.246 OA
BRANCH  28  30
ATOM     30  C   UNL A   1      34.967  31.358  27.969  1.00  0.00     0.060 A 
ATOM     31  C   UNL A   1      35.157  29.991  28.210  1.00  0.00     0.016 A 
ATOM     32  C   UNL A   1      36.008  32.265  28.173  1.00  0.00     0.016 A 
ATOM     33  C   UNL A   1      36.374  29.530  28.707  1.00  0.00     0.010 A 
ATOM     34  C   UNL A   1      37.229  31.801  28.681  1.00  0.00     0.010 A 
ATOM     35  C   UNL A   1      37.403  30.438  28.986  1.00  0.00    -0.014 A 
BRANCH  35  36
ATOM     36  C   UNL A   1      38.598  29.975  29.735  1.00  0.00     0.031 A 
ATOM     37  C   UNL A   1      38.831  30.490  31.130  1.00  0.00     0.074 A 
ATOM     38  C   UNL A   1      39.441  29.075  29.200  1.00  0.00     0.049 A 
ATOM     39  N   UNL A   1      39.809  30.230  31.960  1.00  0.00    -0.248 NA
ATOM     40  C   UNL A   1      37.824  31.423  31.659  1.00  0.00     0.031 C 
ATOM     41  C   UNL A   1      39.301  28.469  27.879  1.00  0.00     0.029 A 
ATOM     42  N   UNL A   1      40.587  28.516  29.709  1.00  0.00    -0.354 N 
ATOM     43  C   UNL A   1      39.536  30.964  33.106  1.00  0.00     0.074 A 
ATOM     44  C   UNL A   1      38.319  31.705  32.856  1.00  0.00     0.031 C 
ATOM     45  C   UNL A   1      40.328  27.627  27.675  1.00  0.00     0.029 A 
ATOM     46  C   UNL A   1      41.211  27.656  28.840  1.00  0.00     0.049 A 
ATOM     47  H   UNL A   1      40.928  28.712  30.612  1.00  0.00     0.167 HD
ATOM     48  C   UNL A   1      40.234  31.010  34.267  1.00  0.00     0.037 A 
ATOM     49  C   UNL A   1      42.372  26.984  28.967  1.00  0.00     0.037 A 
ATOM     50  C   UNL A   1      41.444  30.274  34.518  1.00  0.00     0.049 A 
ATOM     51  C   UNL A   1      43.167  27.108  30.241  1.00  0.00     0.074 A 
ATOM     52  C   UNL A   1      42.214  30.244  35.669  1.00  0.00     0.029 A 
ATOM     53  N   UNL A   1      42.067  29.443  33.599  1.00  0.00    -0.354 N 
ATOM     54  N   UNL A   1      42.890  27.787  31.327  1.00  0.00    -0.248 NA
ATOM     55  C   UNL A   1      44.436  26.369  30.305  1.00  0.00     0.031 C 
ATOM     56  C   UNL A   1      43.326  29.430  35.429  1.00  0.00     0.029 A 
ATOM     57  C   UNL A   1      43.224  28.915  34.147  1.00  0.00     0.049 A 
ATOM     58  H   UNL A   1      41.734  29.256  32.690  1.00  0.00     0.167 HD
ATOM     59  C   UNL A   1      43.932  27.536  32.212  1.00  0.00     0.074 A 
ATOM     60  C   UNL A   1      44.842  26.633  31.538  1.00  0.00     0.031 C 
ATOM     61  C   UNL A   1      44.116  28.010  33.468  1.00  0.00     0.037 A 
BRANCH  48  62
ATOM     62  C   UNL A   1      39.712  31.906  35.351  1.00  0.00     0.064 A 
ATOM     63  C   UNL A   1      38.752  31.465  36.273  1.00  0.00     0.173 A 
ATOM     64  C   UNL A   1      40.204  33.212  35.491  1.00  0.00     0.173 A 
ATOM     65  F   UNL A   1      38.239  30.228  36.174  1.00  0.00    -0.203 F 
ATOM     66  C   UNL A   1      38.287  32.305  37.282  1.00  0.00     0.198 A 
ATOM     67  C   UNL A   1      39.757  34.042  36.515  1.00  0.00     0.198 A 
ATOM     68  F   UNL A   1      41.127  33.682  34.637  1.00  0.00    -0.203 F 
ATOM     69  F   UNL A   1      37.339  31.876  38.126  1.00  0.00    -0.200 F 
ATOM     70  C   UNL A   1      38.795  33.590  37.406  1.00  0.00     0.200 A 
ATOM     71  F   UNL A   1      40.256  35.279  36.640  1.00  0.00    -0.200 F 
ATOM     72  F   UNL A   1      38.351  34.396  38.380  1.00  0.00    -0.200 F 
ENDBRANCH  48  62
BRANCH  49  73
ATOM     73  C   UNL A   1      42.863  26.137  27.848  1.00  0.00     0.064 A 
ATOM     74  C   UNL A   1      43.729  26.654  26.876  1.00  0.00     0.173 A 
ATOM     75  C   UNL A   1      42.460  24.800  27.720  1.00  0.00     0.173 A 
ATOM     76  F   UNL A   1      44.120  27.936  26.942  1.00  0.00    -0.203 F 
ATOM     77  C   UNL A   1      44.163  25.871  25.809  1.00  0.00     0.198 A 
ATOM     78  C   UNL A   1      42.914  24.010  26.668  1.00  0.00     0.198 A 
ATOM     79  F   UNL A   1      41.628  24.260  28.623  1.00  0.00    -0.203 F 
ATOM     80  F   UNL A   1      44.956  26.402  24.869  1.00  0.00    -0.200 F 
ATOM     81  C   UNL A   1      43.760  24.547  25.709  1.00  0.00     0.200 A 
ATOM     82  F   UNL A   1      42.531  22.728  26.580  1.00  0.00    -0.200 F 
ATOM     83  F   UNL A   1      44.179  23.792  24.684  1.00  0.00    -0.200 F 
ENDBRANCH  49  73
BRANCH  61  84
ATOM     84  C   UNL A   1      45.331  27.538  34.213  1.00  0.00     0.064 A 
ATOM     85  C   UNL A   1      46.540  28.248  34.174  1.00  0.00     0.173 A 
ATOM     86  C   UNL A   1      45.272  26.384  35.009  1.00  0.00     0.173 A 
ATOM     87  F   UNL A   1      46.653  29.349  33.416  1.00  0.00    -0.203 F 
ATOM     88  C   UNL A   1      47.652  27.806  34.887  1.00  0.00     0.198 A 
ATOM     89  C   UNL A   1      46.376  25.960  35.742  1.00  0.00     0.198 A 
ATOM     90  F   UNL A   1      44.137  25.674  35.086  1.00  0.00    -0.203 F 
ATOM     91  F   UNL A   1      48.810  28.475  34.801  1.00  0.00    -0.200 F 
ATOM     92  C   UNL A   1      47.567  26.668  35.675  1.00  0.00     0.200 A 
ATOM     93  F   UNL A   1      46.289  24.868  36.514  1.00  0.00    -0.200 F 
ATOM     94  F   UNL A   1      48.636  26.248  36.366  1.00  0.00    -0.200 F 
ENDBRANCH  61  84
ENDBRANCH  35  36
ENDBRANCH  28  30
ENDBRANCH  27  28
ENDBRANCH  26  27
ENDBRANCH  25  26
ENDBRANCH   1  25
TORSDOF 17
ENDMDL
MODEL 3
REMARK VINA RESULT:     -10.1      4.399      6.841
REMARK SMILES COc1cc([C@@H]2[NH2+][C@@H](C(=O)OCCOCCOC(=O)c3ccc(-c4c5nc(c(-c6c(F)c(F)c(F)c(F)c6F)c6ccc([nH]6)c(-c6c(F)c(F)c(F)c(F)c6F)c6nc(c(-c7c(F)c(F)c(F)c(F)c7F)c7ccc4[nH]7)C=C6)C=C5)cc3)CS2)cc(Cl)c1O
REMARK SMILES IDX 14 1 13 2 12 3 11 4 9 5 10 6 8 7 6 8 7 9 84 10 83 13 5 14
REMARK SMILES IDX 3 15 4 16 88 17 86 18 85 19 87 20 2 21 1 22 89 23 15 25
REMARK SMILES IDX 16 26 17 27 18 28 19 29 20 30 21 31 82 32 22 33 81 34 23 35
REMARK SMILES IDX 24 36 25 37 75 38 26 39 80 40 74 41 76 42 27 43 79 44 73 45
REMARK SMILES IDX 72 46 28 48 60 49 40 50 59 51 41 52 44 53 58 54 77 55 42 56
REMARK SMILES IDX 43 57 57 59 78 60 45 61 29 62 30 63 38 64 31 65 32 66 36 67
REMARK SMILES IDX 39 68 33 69 34 70 37 71 35 72 61 73 62 74 70 75 63 76 64 77
REMARK SMILES IDX 68 78 71 79 65 80 66 81 69 82 67 83 46 84 47 85 55 86 48 87
REMARK SMILES IDX 49 88 53 89 56 90 50 91 51 92 54 93 52 94
REMARK H PARENT 7 11 7 12 89 24 76 47 44 58
REMARK Flexibility Score: inf
ROOT
ATOM      1  O   UNL A   1      42.249  20.674  26.814  1.00  0.00    -0.374 OA
ENDROOT
BRANCH   1   2
ATOM      2  C   UNL A   1      40.850  20.549  26.573  1.00  0.00     0.202 C 
BRANCH   2   3
ATOM      3  C   UNL A   1      39.998  21.800  26.806  1.00  0.00     0.261 C 
BRANCH   3   4
ATOM      4  O   UNL A   1      38.862  21.847  25.929  1.00  0.00    -0.459 OA
BRANCH   4   5
ATOM      5  C   UNL A   1      38.037  22.916  26.111  1.00  0.00     0.365 C 
ATOM      6  O   UNL A   1      38.397  24.020  26.509  1.00  0.00    -0.245 OA
BRANCH   5   7
ATOM      7  C   UNL A   1      36.602  22.652  25.664  1.00  0.00     0.304 C 
ATOM      8  C   UNL A   1      34.559  21.530  26.246  1.00  0.00     0.274 C 
ATOM      9  N   UNL A   1      35.654  22.353  26.773  1.00  0.00    -0.319 N 
ATOM     10  S   UNL A   1      35.255  20.429  25.001  1.00  0.00    -0.087 SA
ATOM     11  H   UNL A   1      36.140  21.845  27.513  1.00  0.00     0.348 HD
ATOM     12  H   UNL A   1      35.282  23.221  27.157  1.00  0.00     0.348 HD
ATOM     13  C   UNL A   1      36.640  21.526  24.629  1.00  0.00     0.153 C 
BRANCH   8  14
ATOM     14  C   UNL A   1      33.373  22.323  25.724  1.00  0.00     0.025 A 
ATOM     15  C   UNL A   1      32.256  23.668  24.027  1.00  0.00     0.162 A 
ATOM     16  C   UNL A   1      33.358  22.931  24.457  1.00  0.00     0.061 A 
ATOM     17  C   UNL A   1      31.108  23.753  24.808  1.00  0.00     0.176 A 
ATOM     18  C   UNL A   1      31.086  23.142  26.058  1.00  0.00     0.087 A 
ATOM     19  C   UNL A   1      32.211  22.439  26.515  1.00  0.00     0.035 A 
ATOM     20  Cl  UNL A   1      29.691  23.217  27.069  1.00  0.00    -0.080 Cl
BRANCH  15  21
ATOM     21  O   UNL A   1      32.293  24.266  22.795  1.00  0.00    -0.493 OA
ATOM     22  C   UNL A   1      32.913  25.554  22.890  1.00  0.00     0.278 C 
ENDBRANCH  15  21
BRANCH  17  23
ATOM     23  O   UNL A   1      30.019  24.427  24.324  1.00  0.00    -0.503 OA
ATOM     24  H   UNL A   1      30.012  25.364  24.321  1.00  0.00     0.293 HD
ENDBRANCH  17  23
ENDBRANCH   8  14
ENDBRANCH   5   7
ENDBRANCH   4   5
ENDBRANCH   3   4
ENDBRANCH   2   3
ENDBRANCH   1   2
BRANCH   1  25
ATOM     25  C   UNL A   1      43.134  20.507  25.706  1.00  0.00     0.202 C 
BRANCH  25  26
ATOM     26  C   UNL A   1      43.966  21.725  25.282  1.00  0.00     0.261 C 
BRANCH  26  27
ATOM     27  O   UNL A   1      43.143  22.866  24.971  1.00  0.00    -0.460 OA
BRANCH  27  28
ATOM     28  C   UNL A   1      43.775  24.061  25.067  1.00  0.00     0.338 C 
ATOM     29  O   UNL A   1      44.736  24.446  24.414  1.00  0.00    -0.246 OA
BRANCH  28  30
ATOM     30  C   UNL A   1      43.038  24.968  25.965  1.00  0.00     0.060 A 
ATOM     31  C   UNL A   1      43.509  26.282  26.086  1.00  0.00     0.016 A 
ATOM     32  C   UNL A   1      41.980  24.519  26.757  1.00  0.00     0.016 A 
ATOM     33  C   UNL A   1      42.959  27.138  27.037  1.00  0.00     0.010 A 
ATOM     34  C   UNL A   1      41.434  25.378  27.719  1.00  0.00     0.010 A 
ATOM     35  C   UNL A   1      41.947  26.677  27.888  1.00  0.00    -0.014 A 
BRANCH  35  36
ATOM     36  C   UNL A   1      41.539  27.509  29.049  1.00  0.00     0.031 A 
ATOM     37  C   UNL A   1      42.326  27.416  30.328  1.00  0.00     0.074 A 
ATOM     38  C   UNL A   1      40.509  28.368  28.953  1.00  0.00     0.049 A 
ATOM     39  N   UNL A   1      42.142  28.039  31.464  1.00  0.00    -0.248 NA
ATOM     40  C   UNL A   1      43.474  26.497  30.323  1.00  0.00     0.031 C 
ATOM     41  C   UNL A   1      39.698  28.582  27.758  1.00  0.00     0.029 A 
ATOM     42  N   UNL A   1      39.971  29.221  29.884  1.00  0.00    -0.354 N 
ATOM     43  C   UNL A   1      43.150  27.589  32.307  1.00  0.00     0.074 A 
ATOM     44  C   UNL A   1      43.924  26.618  31.564  1.00  0.00     0.031 C 
ATOM     45  C   UNL A   1      38.756  29.501  28.030  1.00  0.00     0.029 A 
ATOM     46  C   UNL A   1      38.883  29.920  29.425  1.00  0.00     0.049 A 
ATOM     47  H   UNL A   1      40.333  29.323  30.795  1.00  0.00     0.167 HD
ATOM     48  C   UNL A   1      43.412  27.959  33.584  1.00  0.00     0.037 A 
ATOM     49  C   UNL A   1      38.072  30.785  30.066  1.00  0.00     0.037 A 
ATOM     50  C   UNL A   1      42.645  28.925  34.324  1.00  0.00     0.049 A 
ATOM     51  C   UNL A   1      38.342  31.125  31.508  1.00  0.00     0.074 A 
ATOM     52  C   UNL A   1      42.842  29.377  35.619  1.00  0.00     0.029 A 
ATOM     53  N   UNL A   1      41.525  29.583  33.838  1.00  0.00    -0.354 N 
ATOM     54  N   UNL A   1      39.309  30.713  32.291  1.00  0.00    -0.248 NA
ATOM     55  C   UNL A   1      37.406  32.056  32.156  1.00  0.00     0.031 C 
ATOM     56  C   UNL A   1      41.815  30.275  35.930  1.00  0.00     0.029 A 
ATOM     57  C   UNL A   1      41.006  30.419  34.814  1.00  0.00     0.049 A 
ATOM     58  H   UNL A   1      41.154  29.473  32.932  1.00  0.00     0.167 HD
ATOM     59  C   UNL A   1      39.115  31.351  33.509  1.00  0.00     0.074 A 
ATOM     60  C   UNL A   1      37.944  32.188  33.360  1.00  0.00     0.031 C 
ATOM     61  C   UNL A   1      39.844  31.253  34.648  1.00  0.00     0.037 A 
BRANCH  48  62
ATOM     62  C   UNL A   1      44.570  27.298  34.271  1.00  0.00     0.064 A 
ATOM     63  C   UNL A   1      45.839  27.895  34.314  1.00  0.00     0.173 A 
ATOM     64  C   UNL A   1      44.401  26.069  34.924  1.00  0.00     0.173 A 
ATOM     65  F   UNL A   1      46.056  29.066  33.693  1.00  0.00    -0.203 F 
ATOM     66  C   UNL A   1      46.901  27.275  34.967  1.00  0.00     0.198 A 
ATOM     67  C   UNL A   1      45.458  25.462  35.597  1.00  0.00     0.198 A 
ATOM     68  F   UNL A   1      43.206  25.458  34.915  1.00  0.00    -0.203 F 
ATOM     69  F   UNL A   1      48.114  27.843  34.960  1.00  0.00    -0.200 F 
ATOM     70  C   UNL A   1      46.708  26.063  35.614  1.00  0.00     0.200 A 
ATOM     71  F   UNL A   1      45.267  24.297  36.230  1.00  0.00    -0.200 F 
ATOM     72  F   UNL A   1      47.729  25.469  36.246  1.00  0.00    -0.200 F 
ENDBRANCH  48  62
BRANCH  49  73
ATOM     73  C   UNL A   1      36.916  31.384  29.350  1.00  0.00     0.064 A 
ATOM     74  C   UNL A   1      35.798  30.612  29.007  1.00  0.00     0.173 A 
ATOM     75  C   UNL A   1      36.915  32.737  28.980  1.00  0.00     0.173 A 
ATOM     76  F   UNL A   1      35.765  29.308  29.317  1.00  0.00    -0.203 F 
ATOM     77  C   UNL A   1      34.729  31.167  28.307  1.00  0.00     0.198 A 
ATOM     78  C   UNL A   1      35.835  33.296  28.302  1.00  0.00     0.198 A 
ATOM     79  F   UNL A   1      37.964  33.517  29.281  1.00  0.00    -0.203 F 
ATOM     80  F   UNL A   1      33.691  30.396  27.953  1.00  0.00    -0.200 F 
ATOM     81  C   UNL A   1      34.745  32.510  27.960  1.00  0.00     0.200 A 
ATOM     82  F   UNL A   1      35.850  34.597  27.978  1.00  0.00    -0.200 F 
ATOM     83  F   UNL A   1      33.715  33.044  27.289  1.00  0.00    -0.200 F 
ENDBRANCH  49  73
BRANCH  61  84
ATOM     84  C   UNL A   1      39.417  32.096  35.815  1.00  0.00     0.064 A 
ATOM     85  C   UNL A   1      39.938  33.381  36.024  1.00  0.00     0.173 A 
ATOM     86  C   UNL A   1      38.444  31.628  36.711  1.00  0.00     0.173 A 
ATOM     87  F   UNL A   1      40.881  33.869  35.203  1.00  0.00    -0.203 F 
ATOM     88  C   UNL A   1      39.517  34.157  37.100  1.00  0.00     0.198 A 
ATOM     89  C   UNL A   1      38.005  32.417  37.771  1.00  0.00     0.198 A 
ATOM     90  F   UNL A   1      37.910  30.408  36.552  1.00  0.00    -0.203 F 
ATOM     91  F   UNL A   1      40.060  35.366  37.306  1.00  0.00    -0.200 F 
ATOM     92  C   UNL A   1      38.547  33.678  37.968  1.00  0.00     0.200 A 
ATOM     93  F   UNL A   1      37.059  31.957  38.601  1.00  0.00    -0.200 F 
ATOM     94  F   UNL A   1      38.138  34.429  39.000  1.00  0.00    -0.200 F 
ENDBRANCH  61  84
ENDBRANCH  35  36
ENDBRANCH  28  30
ENDBRANCH  27  28
ENDBRANCH  26  27
ENDBRANCH  25  26
ENDBRANCH   1  25
TORSDOF 17
ENDMDL
