MODEL 1
REMARK VINA RESULT:     -11.6      0.000      0.000
REMARK SMILES Cn1cc(S(=O)(=O)N[C@@H]2C=C[C@@H](C(=O)OCCOCCOC(=O)c3ccc(-c4c5nc(c(-c6c(F)c(F)c(F)c(F)c6F)c6ccc([nH]6)c(-c6c(F)c(F)c(F)c(F)c6F)c6nc(c(-c7c(F)c(F)c(F)c(F)c7F)c7ccc4[nH]7)C=C6)C=C5)cc3)C2)cc1C(N)=O
REMARK SMILES IDX 17 1 16 2 15 3 13 4 14 5 12 6 9 7 10 8 87 9 11 10 8 11 5 13
REMARK SMILES IDX 6 14 7 15 4 16 1 17 2 18 3 19 89 20 88 21 90 22 91 23 92 24
REMARK SMILES IDX 18 27 19 28 20 29 21 30 22 31 23 32 24 33 25 34 86 35 26 36
REMARK SMILES IDX 85 37 27 38 28 39 29 40 79 41 30 42 84 43 78 44 80 45 31 46
REMARK SMILES IDX 83 47 77 48 76 49 32 51 64 52 44 53 63 54 45 55 48 56 62 57
REMARK SMILES IDX 81 58 46 59 47 60 61 62 82 63 49 64 33 65 34 66 42 67 35 68
REMARK SMILES IDX 36 69 40 70 43 71 37 72 38 73 41 74 39 75 65 76 66 77 74 78
REMARK SMILES IDX 67 79 68 80 72 81 75 82 69 83 70 84 73 85 71 86 50 87 51 88
REMARK SMILES IDX 59 89 52 90 53 91 57 92 60 93 54 94 55 95 58 96 56 97
REMARK H PARENT 8 12 91 25 91 26 80 50 48 61
REMARK Flexibility Score: inf
ROOT
ATOM      1  C   UNL A   1      44.079  18.932  24.789  1.00  0.00     0.202 C 
ENDROOT
BRANCH   1   2
ATOM      2  C   UNL A   1      43.166  19.326  25.950  1.00  0.00     0.261 C 
BRANCH   2   3
ATOM      3  O   UNL A   1      41.818  19.531  25.494  1.00  0.00    -0.463 OA
BRANCH   3   4
ATOM      4  C   UNL A   1      40.965  20.086  26.393  1.00  0.00     0.312 C 
ATOM      5  O   UNL A   1      40.962  19.857  27.598  1.00  0.00    -0.252 OA
BRANCH   4   6
ATOM      6  C   UNL A   1      39.933  20.989  25.746  1.00  0.00     0.123 C 
ATOM      7  C   UNL A   1      37.690  21.926  25.792  1.00  0.00     0.093 C 
ATOM      8  C   UNL A   1      38.693  22.847  26.410  1.00  0.00    -0.011 C 
ATOM      9  C   UNL A   1      38.455  20.590  25.862  1.00  0.00     0.043 C 
ATOM     10  C   UNL A   1      39.932  22.344  26.382  1.00  0.00    -0.015 C 
BRANCH   7  11
ATOM     11  N   UNL A   1      37.446  22.233  24.372  1.00  0.00    -0.204 NA
ATOM     12  H   UNL A   1      38.235  22.794  24.051  1.00  0.00     0.142 HD
BRANCH  11  13
ATOM     13  S   UNL A   1      36.045  23.060  23.922  1.00  0.00     0.242 S 
ATOM     14  O   UNL A   1      35.915  22.985  22.485  1.00  0.00    -0.207 OA
ATOM     15  O   UNL A   1      36.066  24.315  24.637  1.00  0.00    -0.207 OA
BRANCH  13  16
ATOM     16  C   UNL A   1      34.679  22.224  24.564  1.00  0.00     0.100 A 
ATOM     17  C   UNL A   1      31.244  21.913  25.624  1.00  0.00     0.150 C 
ATOM     18  N   UNL A   1      32.623  21.707  25.230  1.00  0.00    -0.345 N 
ATOM     19  C   UNL A   1      33.441  22.748  24.853  1.00  0.00     0.107 A 
ATOM     20  C   UNL A   1      33.302  20.501  25.129  1.00  0.00     0.107 A 
ATOM     21  C   UNL A   1      34.622  20.839  24.841  1.00  0.00     0.055 A 
BRANCH  20  22
ATOM     22  C   UNL A   1      32.724  19.179  25.283  1.00  0.00     0.265 C 
ATOM     23  N   UNL A   1      32.906  18.592  26.503  1.00  0.00    -0.364 N 
ATOM     24  O   UNL A   1      32.136  18.554  24.406  1.00  0.00    -0.268 OA
ATOM     25  H   UNL A   1      33.375  19.079  27.218  1.00  0.00     0.160 HD
ATOM     26  H   UNL A   1      32.568  17.682  26.667  1.00  0.00     0.160 HD
ENDBRANCH  20  22
ENDBRANCH  13  16
ENDBRANCH  11  13
ENDBRANCH   7  11
ENDBRANCH   4   6
ENDBRANCH   3   4
ENDBRANCH   2   3
ENDBRANCH   1   2
BRANCH   1  27
ATOM     27  O   UNL A   1      44.551  20.014  23.988  1.00  0.00    -0.374 OA
BRANCH  27  28
ATOM     28  C   UNL A   1      44.803  21.258  24.641  1.00  0.00     0.202 C 
BRANCH  28  29
ATOM     29  C   UNL A   1      44.157  22.492  23.998  1.00  0.00     0.261 C 
BRANCH  29  30
ATOM     30  O   UNL A   1      43.557  23.358  24.980  1.00  0.00    -0.460 OA
BRANCH  30  31
ATOM     31  C   UNL A   1      44.183  24.550  25.147  1.00  0.00     0.338 C 
ATOM     32  O   UNL A   1      45.159  24.963  24.545  1.00  0.00    -0.246 OA
BRANCH  31  33
ATOM     33  C   UNL A   1      43.415  25.402  26.073  1.00  0.00     0.060 A 
ATOM     34  C   UNL A   1      43.813  26.739  26.204  1.00  0.00     0.016 A 
ATOM     35  C   UNL A   1      42.390  24.886  26.868  1.00  0.00     0.016 A 
ATOM     36  C   UNL A   1      43.213  27.556  27.161  1.00  0.00     0.010 A 
ATOM     37  C   UNL A   1      41.797  25.705  27.836  1.00  0.00     0.010 A 
ATOM     38  C   UNL A   1      42.228  27.033  28.008  1.00  0.00    -0.014 A 
BRANCH  38  39
ATOM     39  C   UNL A   1      41.747  27.835  29.158  1.00  0.00     0.031 A 
ATOM     40  C   UNL A   1      42.472  27.739  30.471  1.00  0.00     0.074 A 
ATOM     41  C   UNL A   1      40.688  28.654  29.030  1.00  0.00     0.049 A 
ATOM     42  N   UNL A   1      42.199  28.313  31.615  1.00  0.00    -0.248 NA
ATOM     43  C   UNL A   1      43.667  26.881  30.498  1.00  0.00     0.031 C 
ATOM     44  C   UNL A   1      39.929  28.865  27.801  1.00  0.00     0.029 A 
ATOM     45  N   UNL A   1      40.064  29.454  29.956  1.00  0.00    -0.354 N 
ATOM     46  C   UNL A   1      43.182  27.885  32.496  1.00  0.00     0.074 A 
ATOM     47  C   UNL A   1      44.046  26.984  31.764  1.00  0.00     0.031 C 
ATOM     48  C   UNL A   1      38.928  29.727  28.051  1.00  0.00     0.029 A 
ATOM     49  C   UNL A   1      38.960  30.103  29.463  1.00  0.00     0.049 A 
ATOM     50  H   UNL A   1      40.379  29.552  30.883  1.00  0.00     0.167 HD
ATOM     51  C   UNL A   1      43.354  28.219  33.798  1.00  0.00     0.037 A 
ATOM     52  C   UNL A   1      38.064  30.890  30.089  1.00  0.00     0.037 A 
ATOM     53  C   UNL A   1      42.497  29.115  34.527  1.00  0.00     0.049 A 
ATOM     54  C   UNL A   1      38.231  31.183  31.558  1.00  0.00     0.074 A 
ATOM     55  C   UNL A   1      42.606  29.538  35.841  1.00  0.00     0.029 A 
ATOM     56  N   UNL A   1      41.365  29.723  34.005  1.00  0.00    -0.354 N 
ATOM     57  N   UNL A   1      39.179  30.796  32.376  1.00  0.00    -0.248 NA
ATOM     58  C   UNL A   1      37.200  32.020  32.189  1.00  0.00     0.031 C 
ATOM     59  C   UNL A   1      41.515  30.364  36.126  1.00  0.00     0.029 A 
ATOM     60  C   UNL A   1      40.750  30.492  34.978  1.00  0.00     0.049 A 
ATOM     61  H   UNL A   1      41.046  29.622  33.079  1.00  0.00     0.167 HD
ATOM     62  C   UNL A   1      38.873  31.358  33.609  1.00  0.00     0.074 A 
ATOM     63  C   UNL A   1      37.656  32.122  33.429  1.00  0.00     0.031 C 
ATOM     64  C   UNL A   1      39.541  31.250  34.782  1.00  0.00     0.037 A 
BRANCH  51  65
ATOM     65  C   UNL A   1      44.503  27.591  34.527  1.00  0.00     0.064 A 
ATOM     66  C   UNL A   1      45.734  28.249  34.662  1.00  0.00     0.173 A 
ATOM     67  C   UNL A   1      44.357  26.334  35.132  1.00  0.00     0.173 A 
ATOM     68  F   UNL A   1      45.926  29.446  34.090  1.00  0.00    -0.203 F 
ATOM     69  C   UNL A   1      46.786  27.660  35.361  1.00  0.00     0.198 A 
ATOM     70  C   UNL A   1      45.403  25.760  35.849  1.00  0.00     0.198 A 
ATOM     71  F   UNL A   1      43.198  25.667  35.034  1.00  0.00    -0.203 F 
ATOM     72  F   UNL A   1      47.967  28.289  35.444  1.00  0.00    -0.200 F 
ATOM     73  C   UNL A   1      46.618  26.419  35.958  1.00  0.00     0.200 A 
ATOM     74  F   UNL A   1      45.236  24.565  36.433  1.00  0.00    -0.200 F 
ATOM     75  F   UNL A   1      47.629  25.857  36.634  1.00  0.00    -0.200 F 
ENDBRANCH  51  65
BRANCH  52  76
ATOM     76  C   UNL A   1      36.910  31.442  29.334  1.00  0.00     0.064 A 
ATOM     77  C   UNL A   1      36.867  32.794  28.967  1.00  0.00     0.173 A 
ATOM     78  C   UNL A   1      35.821  30.632  28.980  1.00  0.00     0.173 A 
ATOM     79  F   UNL A   1      37.872  33.612  29.307  1.00  0.00    -0.203 F 
ATOM     80  C   UNL A   1      35.771  33.317  28.283  1.00  0.00     0.198 A 
ATOM     81  C   UNL A   1      34.738  31.151  28.274  1.00  0.00     0.198 A 
ATOM     82  F   UNL A   1      35.814  29.333  29.313  1.00  0.00    -0.203 F 
ATOM     83  F   UNL A   1      35.736  34.622  27.977  1.00  0.00    -0.200 F 
ATOM     84  C   UNL A   1      34.711  32.494  27.932  1.00  0.00     0.200 A 
ATOM     85  F   UNL A   1      33.720  30.350  27.930  1.00  0.00    -0.200 F 
ATOM     86  F   UNL A   1      33.659  32.997  27.272  1.00  0.00    -0.200 F 
ENDBRANCH  52  76
BRANCH  64  87
ATOM     87  C   UNL A   1      38.988  31.993  35.963  1.00  0.00     0.064 A 
ATOM     88  C   UNL A   1      38.159  31.363  36.902  1.00  0.00     0.173 A 
ATOM     89  C   UNL A   1      39.335  33.334  36.185  1.00  0.00     0.173 A 
ATOM     90  F   UNL A   1      37.788  30.086  36.725  1.00  0.00    -0.203 F 
ATOM     91  C   UNL A   1      37.685  32.054  38.014  1.00  0.00     0.198 A 
ATOM     92  C   UNL A   1      38.880  34.014  37.311  1.00  0.00     0.198 A 
ATOM     93  F   UNL A   1      40.131  33.980  35.319  1.00  0.00    -0.203 F 
ATOM     94  F   UNL A   1      36.866  31.443  38.881  1.00  0.00    -0.200 F 
ATOM     95  C   UNL A   1      38.052  33.376  38.222  1.00  0.00     0.200 A 
ATOM     96  F   UNL A   1      39.244  35.288  37.517  1.00  0.00    -0.200 F 
ATOM     97  F   UNL A   1      37.602  34.036  39.298  1.00  0.00    -0.200 F 
ENDBRANCH  64  87
ENDBRANCH  38  39
ENDBRANCH  31  33
ENDBRANCH  30  31
ENDBRANCH  29  30
ENDBRANCH  28  29
ENDBRANCH  27  28
ENDBRANCH   1  27
TORSDOF 18
ENDMDL
MODEL 2
REMARK VINA RESULT:     -11.3      2.126      3.501
REMARK SMILES Cn1cc(S(=O)(=O)N[C@@H]2C=C[C@@H](C(=O)OCCOCCOC(=O)c3ccc(-c4c5nc(c(-c6c(F)c(F)c(F)c(F)c6F)c6ccc([nH]6)c(-c6c(F)c(F)c(F)c(F)c6F)c6nc(c(-c7c(F)c(F)c(F)c(F)c7F)c7ccc4[nH]7)C=C6)C=C5)cc3)C2)cc1C(N)=O
REMARK SMILES IDX 17 1 16 2 15 3 13 4 14 5 12 6 9 7 10 8 87 9 11 10 8 11 5 13
REMARK SMILES IDX 6 14 7 15 4 16 1 17 2 18 3 19 89 20 88 21 90 22 91 23 92 24
REMARK SMILES IDX 18 27 19 28 20 29 21 30 22 31 23 32 24 33 25 34 86 35 26 36
REMARK SMILES IDX 85 37 27 38 28 39 29 40 79 41 30 42 84 43 78 44 80 45 31 46
REMARK SMILES IDX 83 47 77 48 76 49 32 51 64 52 44 53 63 54 45 55 48 56 62 57
REMARK SMILES IDX 81 58 46 59 47 60 61 62 82 63 49 64 33 65 34 66 42 67 35 68
REMARK SMILES IDX 36 69 40 70 43 71 37 72 38 73 41 74 39 75 65 76 66 77 74 78
REMARK SMILES IDX 67 79 68 80 72 81 75 82 69 83 70 84 73 85 71 86 50 87 51 88
REMARK SMILES IDX 59 89 52 90 53 91 57 92 60 93 54 94 55 95 58 96 56 97
REMARK H PARENT 8 12 91 25 91 26 80 50 48 61
REMARK Flexibility Score: inf
ROOT
ATOM      1  C   UNL A   1      40.618  21.562  27.357  1.00  0.00     0.202 C 
ENDROOT
BRANCH   1   2
ATOM      2  C   UNL A   1      39.932  21.272  26.022  1.00  0.00     0.261 C 
BRANCH   2   3
ATOM      3  O   UNL A   1      38.725  22.041  25.889  1.00  0.00    -0.463 OA
BRANCH   3   4
ATOM      4  C   UNL A   1      37.699  21.428  25.244  1.00  0.00     0.312 C 
ATOM      5  O   UNL A   1      37.704  20.265  24.854  1.00  0.00    -0.252 OA
BRANCH   4   6
ATOM      6  C   UNL A   1      36.533  22.359  24.975  1.00  0.00     0.123 C 
ATOM      7  C   UNL A   1      34.617  22.921  23.588  1.00  0.00     0.093 C 
ATOM      8  C   UNL A   1      34.221  22.126  24.790  1.00  0.00    -0.011 C 
ATOM      9  C   UNL A   1      36.121  22.590  23.514  1.00  0.00     0.043 C 
ATOM     10  C   UNL A   1      35.268  21.817  25.565  1.00  0.00    -0.015 C 
BRANCH   7  11
ATOM     11  N   UNL A   1      34.483  24.371  23.805  1.00  0.00    -0.204 NA
ATOM     12  H   UNL A   1      34.287  24.504  24.797  1.00  0.00     0.142 HD
BRANCH  11  13
ATOM     13  S   UNL A   1      33.313  25.242  22.955  1.00  0.00     0.242 S 
ATOM     14  O   UNL A   1      32.254  24.334  22.581  1.00  0.00    -0.207 OA
ATOM     15  O   UNL A   1      34.027  26.046  21.989  1.00  0.00    -0.207 OA
BRANCH  13  16
ATOM     16  C   UNL A   1      32.596  26.392  24.022  1.00  0.00     0.100 A 
ATOM     17  C   UNL A   1      31.843  27.828  27.246  1.00  0.00     0.150 C 
ATOM     18  N   UNL A   1      32.018  27.537  25.838  1.00  0.00    -0.345 N 
ATOM     19  C   UNL A   1      32.600  26.368  25.397  1.00  0.00     0.107 A 
ATOM     20  C   UNL A   1      31.692  28.347  24.759  1.00  0.00     0.107 A 
ATOM     21  C   UNL A   1      31.931  27.575  23.626  1.00  0.00     0.055 A 
BRANCH  20  22
ATOM     22  C   UNL A   1      31.216  29.716  24.833  1.00  0.00     0.265 C 
ATOM     23  N   UNL A   1      30.312  30.080  23.876  1.00  0.00    -0.364 N 
ATOM     24  O   UNL A   1      31.590  30.556  25.645  1.00  0.00    -0.268 OA
ATOM     25  H   UNL A   1      30.000  29.419  23.216  1.00  0.00     0.160 HD
ATOM     26  H   UNL A   1      29.971  31.003  23.845  1.00  0.00     0.160 HD
ENDBRANCH  20  22
ENDBRANCH  13  16
ENDBRANCH  11  13
ENDBRANCH   7  11
ENDBRANCH   4   6
ENDBRANCH   3   4
ENDBRANCH   2   3
ENDBRANCH   1   2
BRANCH   1  27
ATOM     27  O   UNL A   1      42.044  21.587  27.320  1.00  0.00    -0.374 OA
BRANCH  27  28
ATOM     28  C   UNL A   1      42.686  20.966  26.207  1.00  0.00     0.202 C 
BRANCH  28  29
ATOM     29  C   UNL A   1      43.517  21.895  25.312  1.00  0.00     0.261 C 
BRANCH  29  30
ATOM     30  O   UNL A   1      42.835  23.135  25.044  1.00  0.00    -0.460 OA
BRANCH  30  31
ATOM     31  C   UNL A   1      43.593  24.248  25.209  1.00  0.00     0.338 C 
ATOM     32  O   UNL A   1      44.611  24.546  24.608  1.00  0.00    -0.246 OA
BRANCH  31  33
ATOM     33  C   UNL A   1      42.924  25.185  26.130  1.00  0.00     0.060 A 
ATOM     34  C   UNL A   1      43.538  26.424  26.351  1.00  0.00     0.016 A 
ATOM     35  C   UNL A   1      41.774  24.826  26.837  1.00  0.00     0.016 A 
ATOM     36  C   UNL A   1      43.027  27.296  27.311  1.00  0.00     0.010 A 
ATOM     37  C   UNL A   1      41.269  25.699  27.808  1.00  0.00     0.010 A 
ATOM     38  C   UNL A   1      41.911  26.922  28.071  1.00  0.00    -0.014 A 
BRANCH  38  39
ATOM     39  C   UNL A   1      41.501  27.750  29.230  1.00  0.00     0.031 A 
ATOM     40  C   UNL A   1      42.252  27.620  30.526  1.00  0.00     0.074 A 
ATOM     41  C   UNL A   1      40.484  28.623  29.126  1.00  0.00     0.049 A 
ATOM     42  N   UNL A   1      42.037  28.209  31.675  1.00  0.00    -0.248 NA
ATOM     43  C   UNL A   1      43.401  26.700  30.526  1.00  0.00     0.031 C 
ATOM     44  C   UNL A   1      39.707  28.871  27.915  1.00  0.00     0.029 A 
ATOM     45  N   UNL A   1      39.925  29.457  30.063  1.00  0.00    -0.354 N 
ATOM     46  C   UNL A   1      43.018  27.732  32.532  1.00  0.00     0.074 A 
ATOM     47  C   UNL A   1      43.816  26.786  31.782  1.00  0.00     0.031 C 
ATOM     48  C   UNL A   1      38.758  29.785  28.185  1.00  0.00     0.029 A 
ATOM     49  C   UNL A   1      38.844  30.162  29.595  1.00  0.00     0.049 A 
ATOM     50  H   UNL A   1      40.267  29.540  30.983  1.00  0.00     0.167 HD
ATOM     51  C   UNL A   1      43.239  28.059  33.829  1.00  0.00     0.037 A 
ATOM     52  C   UNL A   1      38.006  30.995  30.241  1.00  0.00     0.037 A 
ATOM     53  C   UNL A   1      42.448  29.000  34.575  1.00  0.00     0.049 A 
ATOM     54  C   UNL A   1      38.225  31.282  31.704  1.00  0.00     0.074 A 
ATOM     55  C   UNL A   1      42.611  29.419  35.885  1.00  0.00     0.029 A 
ATOM     56  N   UNL A   1      41.337  29.665  34.079  1.00  0.00    -0.354 N 
ATOM     57  N   UNL A   1      39.171  30.848  32.500  1.00  0.00    -0.248 NA
ATOM     58  C   UNL A   1      37.254  32.174  32.357  1.00  0.00     0.031 C 
ATOM     59  C   UNL A   1      41.572  30.302  36.194  1.00  0.00     0.029 A 
ATOM     60  C   UNL A   1      40.786  30.467  35.065  1.00  0.00     0.049 A 
ATOM     61  H   UNL A   1      40.991  29.579  33.161  1.00  0.00     0.167 HD
ATOM     62  C   UNL A   1      38.924  31.427  33.738  1.00  0.00     0.074 A 
ATOM     63  C   UNL A   1      37.745  32.254  33.586  1.00  0.00     0.031 C 
ATOM     64  C   UNL A   1      39.614  31.287  34.896  1.00  0.00     0.037 A 
BRANCH  51  65
ATOM     65  C   UNL A   1      44.371  27.373  34.532  1.00  0.00     0.064 A 
ATOM     66  C   UNL A   1      44.185  26.165  35.218  1.00  0.00     0.173 A 
ATOM     67  C   UNL A   1      45.665  27.912  34.485  1.00  0.00     0.173 A 
ATOM     68  F   UNL A   1      42.964  25.616  35.302  1.00  0.00    -0.203 F 
ATOM     69  C   UNL A   1      45.252  25.530  35.849  1.00  0.00     0.198 A 
ATOM     70  C   UNL A   1      46.733  27.263  35.098  1.00  0.00     0.198 A 
ATOM     71  F   UNL A   1      45.894  29.065  33.839  1.00  0.00    -0.203 F 
ATOM     72  F   UNL A   1      45.045  24.395  36.532  1.00  0.00    -0.200 F 
ATOM     73  C   UNL A   1      46.526  26.076  35.784  1.00  0.00     0.200 A 
ATOM     74  F   UNL A   1      47.964  27.788  35.026  1.00  0.00    -0.200 F 
ATOM     75  F   UNL A   1      47.552  25.462  36.387  1.00  0.00    -0.200 F 
ENDBRANCH  51  65
BRANCH  52  76
ATOM     76  C   UNL A   1      36.865  31.606  29.512  1.00  0.00     0.064 A 
ATOM     77  C   UNL A   1      36.836  32.979  29.234  1.00  0.00     0.173 A 
ATOM     78  C   UNL A   1      35.774  30.830  29.095  1.00  0.00     0.173 A 
ATOM     79  F   UNL A   1      37.844  33.765  29.637  1.00  0.00    -0.203 F 
ATOM     80  C   UNL A   1      35.751  33.555  28.575  1.00  0.00     0.198 A 
ATOM     81  C   UNL A   1      34.702  31.403  28.414  1.00  0.00     0.198 A 
ATOM     82  F   UNL A   1      35.753  29.512  29.342  1.00  0.00    -0.203 F 
ATOM     83  F   UNL A   1      35.730  34.877  28.355  1.00  0.00    -0.200 F 
ATOM     84  C   UNL A   1      34.689  32.766  28.160  1.00  0.00     0.200 A 
ATOM     85  F   UNL A   1      33.681  30.635  28.008  1.00  0.00    -0.200 F 
ATOM     86  F   UNL A   1      33.648  33.320  27.524  1.00  0.00    -0.200 F 
ENDBRANCH  52  76
BRANCH  64  87
ATOM     87  C   UNL A   1      39.130  32.061  36.087  1.00  0.00     0.064 A 
ATOM     88  C   UNL A   1      39.539  33.381  36.319  1.00  0.00     0.173 A 
ATOM     89  C   UNL A   1      38.204  31.492  36.975  1.00  0.00     0.173 A 
ATOM     90  F   UNL A   1      40.434  33.963  35.505  1.00  0.00    -0.203 F 
ATOM     91  C   UNL A   1      39.050  34.101  37.406  1.00  0.00     0.198 A 
ATOM     92  C   UNL A   1      37.699  32.222  38.047  1.00  0.00     0.198 A 
ATOM     93  F   UNL A   1      37.777  30.233  36.792  1.00  0.00    -0.203 F 
ATOM     94  F   UNL A   1      39.481  35.350  37.629  1.00  0.00    -0.200 F 
ATOM     95  C   UNL A   1      38.125  33.524  38.265  1.00  0.00     0.200 A 
ATOM     96  F   UNL A   1      36.796  31.667  38.868  1.00  0.00    -0.200 F 
ATOM     97  F   UNL A   1      37.649  34.221  39.305  1.00  0.00    -0.200 F 
ENDBRANCH  64  87
ENDBRANCH  38  39
ENDBRANCH  31  33
ENDBRANCH  30  31
ENDBRANCH  29  30
ENDBRANCH  28  29
ENDBRANCH  27  28
ENDBRANCH   1  27
TORSDOF 18
ENDMDL
MODEL 3
REMARK VINA RESULT:     -11.2      2.087      3.140
REMARK SMILES Cn1cc(S(=O)(=O)N[C@@H]2C=C[C@@H](C(=O)OCCOCCOC(=O)c3ccc(-c4c5nc(c(-c6c(F)c(F)c(F)c(F)c6F)c6ccc([nH]6)c(-c6c(F)c(F)c(F)c(F)c6F)c6nc(c(-c7c(F)c(F)c(F)c(F)c7F)c7ccc4[nH]7)C=C6)C=C5)cc3)C2)cc1C(N)=O
REMARK SMILES IDX 17 1 16 2 15 3 13 4 14 5 12 6 9 7 10 8 87 9 11 10 8 11 5 13
REMARK SMILES IDX 6 14 7 15 4 16 1 17 2 18 3 19 89 20 88 21 90 22 91 23 92 24
REMARK SMILES IDX 18 27 19 28 20 29 21 30 22 31 23 32 24 33 25 34 86 35 26 36
REMARK SMILES IDX 85 37 27 38 28 39 29 40 79 41 30 42 84 43 78 44 80 45 31 46
REMARK SMILES IDX 83 47 77 48 76 49 32 51 64 52 44 53 63 54 45 55 48 56 62 57
REMARK SMILES IDX 81 58 46 59 47 60 61 62 82 63 49 64 33 65 34 66 42 67 35 68
REMARK SMILES IDX 36 69 40 70 43 71 37 72 38 73 41 74 39 75 65 76 66 77 74 78
REMARK SMILES IDX 67 79 68 80 72 81 75 82 69 83 70 84 73 85 71 86 50 87 51 88
REMARK SMILES IDX 59 89 52 90 53 91 57 92 60 93 54 94 55 95 58 96 56 97
REMARK H PARENT 8 12 91 25 91 26 80 50 48 61
REMARK Flexibility Score: inf
ROOT
ATOM      1  C   UNL A   1      40.764  21.463  27.379  1.00  0.00     0.202 C 
ENDROOT
BRANCH   1   2
ATOM      2  C   UNL A   1      40.085  20.981  26.096  1.00  0.00     0.261 C 
BRANCH   2   3
ATOM      3  O   UNL A   1      38.804  21.611  25.929  1.00  0.00    -0.463 OA
BRANCH   3   4
ATOM      4  C   UNL A   1      37.896  20.921  25.190  1.00  0.00     0.312 C 
ATOM      5  O   UNL A   1      38.026  19.760  24.815  1.00  0.00    -0.252 OA
BRANCH   4   6
ATOM      6  C   UNL A   1      36.700  21.762  24.792  1.00  0.00     0.123 C 
ATOM      7  C   UNL A   1      34.787  23.093  25.487  1.00  0.00     0.093 C 
ATOM      8  C   UNL A   1      35.983  23.942  25.201  1.00  0.00    -0.011 C 
ATOM      9  C   UNL A   1      35.459  21.721  25.695  1.00  0.00     0.043 C 
ATOM     10  C   UNL A   1      37.040  23.220  24.809  1.00  0.00    -0.015 C 
BRANCH   7  11
ATOM     11  N   UNL A   1      33.885  22.983  24.327  1.00  0.00    -0.204 NA
ATOM     12  H   UNL A   1      34.374  23.396  23.533  1.00  0.00     0.142 HD
BRANCH  11  13
ATOM     13  S   UNL A   1      32.356  23.694  24.383  1.00  0.00     0.242 S 
ATOM     14  O   UNL A   1      31.815  23.505  25.710  1.00  0.00    -0.207 OA
ATOM     15  O   UNL A   1      31.662  23.261  23.191  1.00  0.00    -0.207 OA
BRANCH  13  16
ATOM     16  C   UNL A   1      32.531  25.398  24.182  1.00  0.00     0.100 A 
ATOM     17  C   UNL A   1      33.753  28.387  22.572  1.00  0.00     0.150 C 
ATOM     18  N   UNL A   1      33.067  27.401  23.381  1.00  0.00    -0.345 N 
ATOM     19  C   UNL A   1      33.324  26.052  23.269  1.00  0.00     0.107 A 
ATOM     20  C   UNL A   1      32.067  27.622  24.317  1.00  0.00     0.107 A 
ATOM     21  C   UNL A   1      31.828  26.385  24.910  1.00  0.00     0.055 A 
BRANCH  20  22
ATOM     22  C   UNL A   1      31.415  28.891  24.587  1.00  0.00     0.265 C 
ATOM     23  N   UNL A   1      31.659  29.431  25.819  1.00  0.00    -0.364 N 
ATOM     24  O   UNL A   1      30.652  29.474  23.825  1.00  0.00    -0.268 OA
ATOM     25  H   UNL A   1      32.269  28.976  26.443  1.00  0.00     0.160 HD
ATOM     26  H   UNL A   1      31.224  30.273  26.082  1.00  0.00     0.160 HD
ENDBRANCH  20  22
ENDBRANCH  13  16
ENDBRANCH  11  13
ENDBRANCH   7  11
ENDBRANCH   4   6
ENDBRANCH   3   4
ENDBRANCH   2   3
ENDBRANCH   1   2
BRANCH   1  27
ATOM     27  O   UNL A   1      42.175  21.655  27.289  1.00  0.00    -0.374 OA
BRANCH  27  28
ATOM     28  C   UNL A   1      42.848  21.091  26.163  1.00  0.00     0.202 C 
BRANCH  28  29
ATOM     29  C   UNL A   1      43.638  22.077  25.294  1.00  0.00     0.261 C 
BRANCH  29  30
ATOM     30  O   UNL A   1      42.884  23.271  25.014  1.00  0.00    -0.460 OA
BRANCH  30  31
ATOM     31  C   UNL A   1      43.586  24.427  25.122  1.00  0.00     0.338 C 
ATOM     32  O   UNL A   1      44.561  24.764  24.472  1.00  0.00    -0.246 OA
BRANCH  31  33
ATOM     33  C   UNL A   1      42.908  25.349  26.053  1.00  0.00     0.060 A 
ATOM     34  C   UNL A   1      43.505  26.595  26.279  1.00  0.00     0.016 A 
ATOM     35  C   UNL A   1      41.765  24.969  26.760  1.00  0.00     0.016 A 
ATOM     36  C   UNL A   1      42.985  27.453  27.246  1.00  0.00     0.010 A 
ATOM     37  C   UNL A   1      41.252  25.828  27.739  1.00  0.00     0.010 A 
ATOM     38  C   UNL A   1      41.877  27.059  28.008  1.00  0.00    -0.014 A 
BRANCH  38  39
ATOM     39  C   UNL A   1      41.460  27.874  29.173  1.00  0.00     0.031 A 
ATOM     40  C   UNL A   1      42.215  27.744  30.466  1.00  0.00     0.074 A 
ATOM     41  C   UNL A   1      40.431  28.735  29.077  1.00  0.00     0.049 A 
ATOM     42  N   UNL A   1      41.996  28.323  31.620  1.00  0.00    -0.248 NA
ATOM     43  C   UNL A   1      43.376  26.839  30.458  1.00  0.00     0.031 C 
ATOM     44  C   UNL A   1      39.649  28.981  27.869  1.00  0.00     0.029 A 
ATOM     45  N   UNL A   1      39.864  29.555  30.022  1.00  0.00    -0.354 N 
ATOM     46  C   UNL A   1      42.984  27.851  32.472  1.00  0.00     0.074 A 
ATOM     47  C   UNL A   1      43.792  26.921  31.714  1.00  0.00     0.031 C 
ATOM     48  C   UNL A   1      38.690  29.881  28.149  1.00  0.00     0.029 A 
ATOM     49  C   UNL A   1      38.774  30.250  29.561  1.00  0.00     0.049 A 
ATOM     50  H   UNL A   1      40.208  29.637  30.941  1.00  0.00     0.167 HD
ATOM     51  C   UNL A   1      43.204  28.172  33.770  1.00  0.00     0.037 A 
ATOM     52  C   UNL A   1      37.927  31.069  30.214  1.00  0.00     0.037 A 
ATOM     53  C   UNL A   1      42.403  29.099  34.525  1.00  0.00     0.049 A 
ATOM     54  C   UNL A   1      38.146  31.348  31.679  1.00  0.00     0.074 A 
ATOM     55  C   UNL A   1      42.564  29.511  35.837  1.00  0.00     0.029 A 
ATOM     56  N   UNL A   1      41.283  29.753  34.035  1.00  0.00    -0.354 N 
ATOM     57  N   UNL A   1      39.099  30.920  32.470  1.00  0.00    -0.248 NA
ATOM     58  C   UNL A   1      37.166  32.223  32.340  1.00  0.00     0.031 C 
ATOM     59  C   UNL A   1      41.515  30.379  36.154  1.00  0.00     0.029 A 
ATOM     60  C   UNL A   1      40.725  30.542  35.028  1.00  0.00     0.049 A 
ATOM     61  H   UNL A   1      40.936  29.669  33.118  1.00  0.00     0.167 HD
ATOM     62  C   UNL A   1      38.848  31.488  33.713  1.00  0.00     0.074 A 
ATOM     63  C   UNL A   1      37.659  32.301  33.568  1.00  0.00     0.031 C 
ATOM     64  C   UNL A   1      39.542  31.348  34.867  1.00  0.00     0.037 A 
BRANCH  51  65
ATOM     65  C   UNL A   1      44.346  27.496  34.466  1.00  0.00     0.064 A 
ATOM     66  C   UNL A   1      45.638  28.042  34.457  1.00  0.00     0.173 A 
ATOM     67  C   UNL A   1      44.137  26.309  35.184  1.00  0.00     0.173 A 
ATOM     68  F   UNL A   1      45.891  29.168  33.774  1.00  0.00    -0.203 F 
ATOM     69  C   UNL A   1      46.685  27.411  35.126  1.00  0.00     0.198 A 
ATOM     70  C   UNL A   1      45.180  25.695  35.870  1.00  0.00     0.198 A 
ATOM     71  F   UNL A   1      42.918  25.750  35.224  1.00  0.00    -0.203 F 
ATOM     72  F   UNL A   1      47.919  27.929  35.072  1.00  0.00    -0.200 F 
ATOM     73  C   UNL A   1      46.454  26.242  35.836  1.00  0.00     0.200 A 
ATOM     74  F   UNL A   1      44.954  24.570  36.562  1.00  0.00    -0.200 F 
ATOM     75  F   UNL A   1      47.461  25.640  36.483  1.00  0.00    -0.200 F 
ENDBRANCH  51  65
BRANCH  52  76
ATOM     76  C   UNL A   1      36.777  31.670  29.492  1.00  0.00     0.064 A 
ATOM     77  C   UNL A   1      35.688  30.885  29.086  1.00  0.00     0.173 A 
ATOM     78  C   UNL A   1      36.751  33.037  29.181  1.00  0.00     0.173 A 
ATOM     79  F   UNL A   1      35.681  29.569  29.338  1.00  0.00    -0.203 F 
ATOM     80  C   UNL A   1      34.622  31.445  28.384  1.00  0.00     0.198 A 
ATOM     81  C   UNL A   1      35.673  33.600  28.501  1.00  0.00     0.198 A 
ATOM     82  F   UNL A   1      37.771  33.827  29.544  1.00  0.00    -0.203 F 
ATOM     83  F   UNL A   1      33.612  30.667  27.973  1.00  0.00    -0.200 F 
ATOM     84  C   UNL A   1      34.613  32.802  28.098  1.00  0.00     0.200 A 
ATOM     85  F   UNL A   1      35.665  34.913  28.234  1.00  0.00    -0.200 F 
ATOM     86  F   UNL A   1      33.587  33.341  27.426  1.00  0.00    -0.200 F 
ENDBRANCH  52  76
BRANCH  64  87
ATOM     87  C   UNL A   1      39.051  32.107  36.065  1.00  0.00     0.064 A 
ATOM     88  C   UNL A   1      38.174  31.526  36.991  1.00  0.00     0.173 A 
ATOM     89  C   UNL A   1      39.506  33.411  36.316  1.00  0.00     0.173 A 
ATOM     90  F   UNL A   1      37.700  30.287  36.786  1.00  0.00    -0.203 F 
ATOM     91  C   UNL A   1      37.757  32.228  38.119  1.00  0.00     0.198 A 
ATOM     92  C   UNL A   1      39.107  34.100  37.458  1.00  0.00     0.198 A 
ATOM     93  F   UNL A   1      40.351  34.008  35.463  1.00  0.00    -0.203 F 
ATOM     94  F   UNL A   1      36.891  31.666  38.973  1.00  0.00    -0.200 F 
ATOM     95  C   UNL A   1      38.230  33.511  38.356  1.00  0.00     0.200 A 
ATOM     96  F   UNL A   1      39.573  35.335  37.691  1.00  0.00    -0.200 F 
ATOM     97  F   UNL A   1      37.835  34.181  39.446  1.00  0.00    -0.200 F 
ENDBRANCH  64  87
ENDBRANCH  38  39
ENDBRANCH  31  33
ENDBRANCH  30  31
ENDBRANCH  29  30
ENDBRANCH  28  29
ENDBRANCH  27  28
ENDBRANCH   1  27
TORSDOF 18
ENDMDL
