MODEL 1
REMARK VINA RESULT:     -12.2      0.000      0.000
REMARK SMILES [NH3+][C@@H](Cc1cn(-c2nc(Cl)nc(N3CCOCC3)n2)c2ccccc12)C(=O)OCCOCCOC(=O)c1ccc(-c2c3nc(c(-c4c(F)c(F)c(F)c(F)c4F)c4ccc([nH]4)c(-c4c(F)c(F)c(F)c(F)c4F)c4nc(c(-c5c(F)c(F)c(F)c(F)c5F)c5ccc2[nH]5)C=C4)C=C3)cc1
REMARK SMILES IDX 30 1 29 2 28 3 26 4 27 5 2 6 1 7 3 11 4 12 5 13 25 14 6 15
REMARK SMILES IDX 20 16 24 17 21 18 23 19 22 20 7 21 8 22 19 23 9 24 12 25
REMARK SMILES IDX 10 26 11 27 13 28 14 29 18 30 15 31 17 32 16 33 31 34 32 35
REMARK SMILES IDX 33 36 34 37 35 38 36 39 37 40 38 41 99 42 39 43 98 44 40 45
REMARK SMILES IDX 41 46 42 47 92 48 43 49 97 50 91 51 93 52 44 53 96 54 90 55
REMARK SMILES IDX 89 56 45 58 77 59 57 60 76 61 58 62 61 63 75 64 94 65 59 66
REMARK SMILES IDX 60 67 74 69 95 70 62 71 46 72 47 73 55 74 48 75 49 76 53 77
REMARK SMILES IDX 56 78 50 79 51 80 54 81 52 82 78 83 79 84 87 85 80 86 81 87
REMARK SMILES IDX 85 88 88 89 82 90 83 91 86 92 84 93 63 94 64 95 72 96 65 97
REMARK SMILES IDX 66 98 70 99 73 100 67 101 68 102 71 103 69 104
REMARK H PARENT 1 8 1 9 1 10 93 57 61 68
REMARK Flexibility Score: inf
ROOT
ATOM      1  C   UNL A   1      34.024  36.944  32.988  1.00  0.00     0.202 C 
ENDROOT
BRANCH   1   2
ATOM      2  C   UNL A   1      33.425  37.557  31.724  1.00  0.00     0.261 C 
BRANCH   2   3
ATOM      3  O   UNL A   1      32.710  36.567  30.968  1.00  0.00    -0.459 OA
BRANCH   3   4
ATOM      4  C   UNL A   1      33.159  36.339  29.710  1.00  0.00     0.365 C 
ATOM      5  O   UNL A   1      33.082  37.142  28.785  1.00  0.00    -0.245 OA
BRANCH   4   6
ATOM      6  C   UNL A   1      33.802  34.958  29.552  1.00  0.00     0.296 C 
BRANCH   6   7
ATOM      7  N   UNL A   1      33.629  34.078  30.733  1.00  0.00    -0.346 N 
ATOM      8  H   UNL A   1      34.406  33.419  30.782  1.00  0.00     0.345 HD
ATOM      9  H   UNL A   1      32.751  33.565  30.650  1.00  0.00     0.345 HD
ATOM     10  H   UNL A   1      33.612  34.647  31.580  1.00  0.00     0.345 HD
ENDBRANCH   6   7
BRANCH   6  11
ATOM     11  C   UNL A   1      33.538  34.299  28.201  1.00  0.00     0.115 C 
BRANCH  11  12
ATOM     12  C   UNL A   1      33.803  32.840  27.911  1.00  0.00    -0.015 A 
ATOM     13  C   UNL A   1      32.844  32.094  27.243  1.00  0.00     0.099 A 
ATOM     14  C   UNL A   1      34.928  31.951  28.078  1.00  0.00     0.004 A 
ATOM     15  N   UNL A   1      33.253  30.790  27.138  1.00  0.00    -0.285 N 
ATOM     16  C   UNL A   1      34.538  30.676  27.631  1.00  0.00     0.056 A 
ATOM     17  C   UNL A   1      36.259  32.075  28.534  1.00  0.00     0.010 A 
ATOM     18  C   UNL A   1      35.409  29.568  27.620  1.00  0.00     0.027 A 
ATOM     19  C   UNL A   1      37.155  31.003  28.438  1.00  0.00     0.001 A 
ATOM     20  C   UNL A   1      36.731  29.757  28.004  1.00  0.00     0.002 A 
BRANCH  15  21
ATOM     21  C   UNL A   1      32.536  29.776  26.457  1.00  0.00     0.240 A 
ATOM     22  N   UNL A   1      32.825  28.510  26.724  1.00  0.00    -0.181 NA
ATOM     23  N   UNL A   1      31.646  30.192  25.553  1.00  0.00    -0.176 NA
ATOM     24  C   UNL A   1      32.042  27.669  26.069  1.00  0.00     0.228 A 
ATOM     25  C   UNL A   1      31.019  29.241  24.876  1.00  0.00     0.231 A 
ATOM     26  Cl  UNL A   1      32.260  26.014  26.431  1.00  0.00    -0.041 Cl
ATOM     27  N   UNL A   1      31.122  27.953  25.156  1.00  0.00    -0.182 NA
BRANCH  25  28
ATOM     28  N   UNL A   1      30.298  29.609  23.782  1.00  0.00    -0.336 N 
ATOM     29  C   UNL A   1      29.752  30.955  23.669  1.00  0.00     0.148 C 
ATOM     30  C   UNL A   1      29.842  28.616  22.825  1.00  0.00     0.148 C 
ATOM     31  C   UNL A   1      28.228  30.905  23.512  1.00  0.00     0.181 C 
ATOM     32  C   UNL A   1      28.306  28.670  22.745  1.00  0.00     0.181 C 
ATOM     33  O   UNL A   1      27.835  30.002  22.464  1.00  0.00    -0.378 OA
ENDBRANCH  25  28
ENDBRANCH  15  21
ENDBRANCH  11  12
ENDBRANCH   6  11
ENDBRANCH   4   6
ENDBRANCH   3   4
ENDBRANCH   2   3
ENDBRANCH   1   2
BRANCH   1  34
ATOM     34  O   UNL A   1      34.041  35.516  33.063  1.00  0.00    -0.374 OA
BRANCH  34  35
ATOM     35  C   UNL A   1      35.155  34.954  33.768  1.00  0.00     0.202 C 
BRANCH  35  36
ATOM     36  C   UNL A   1      36.223  34.292  32.881  1.00  0.00     0.261 C 
BRANCH  36  37
ATOM     37  O   UNL A   1      36.479  32.952  33.331  1.00  0.00    -0.460 OA
BRANCH  37  38
ATOM     38  C   UNL A   1      36.114  31.968  32.473  1.00  0.00     0.338 C 
ATOM     39  O   UNL A   1      35.152  31.952  31.725  1.00  0.00    -0.246 OA
BRANCH  38  40
ATOM     40  C   UNL A   1      37.275  31.063  32.360  1.00  0.00     0.060 A 
ATOM     41  C   UNL A   1      38.579  31.559  32.398  1.00  0.00     0.016 A 
ATOM     42  C   UNL A   1      37.028  29.745  31.964  1.00  0.00     0.016 A 
ATOM     43  C   UNL A   1      39.626  30.775  31.934  1.00  0.00     0.010 A 
ATOM     44  C   UNL A   1      38.084  28.941  31.544  1.00  0.00     0.010 A 
ATOM     45  C   UNL A   1      39.381  29.465  31.492  1.00  0.00    -0.014 A 
BRANCH  45  46
ATOM     46  C   UNL A   1      40.551  28.627  31.192  1.00  0.00     0.031 A 
ATOM     47  C   UNL A   1      41.306  28.167  32.404  1.00  0.00     0.074 A 
ATOM     48  C   UNL A   1      40.859  28.112  29.984  1.00  0.00     0.049 A 
ATOM     49  N   UNL A   1      42.578  28.220  32.648  1.00  0.00    -0.248 NA
ATOM     50  C   UNL A   1      40.506  27.637  33.523  1.00  0.00     0.031 C 
ATOM     51  C   UNL A   1      40.087  28.184  28.742  1.00  0.00     0.029 A 
ATOM     52  N   UNL A   1      41.902  27.293  29.651  1.00  0.00    -0.354 N 
ATOM     53  C   UNL A   1      42.757  27.619  33.893  1.00  0.00     0.074 A 
ATOM     54  C   UNL A   1      41.445  27.368  34.427  1.00  0.00     0.031 C 
ATOM     55  C   UNL A   1      40.558  27.259  27.873  1.00  0.00     0.029 A 
ATOM     56  C   UNL A   1      41.732  26.623  28.447  1.00  0.00     0.049 A 
ATOM     57  H   UNL A   1      42.702  27.186  30.215  1.00  0.00     0.167 HD
ATOM     58  C   UNL A   1      43.974  27.215  34.352  1.00  0.00     0.037 A 
ATOM     59  C   UNL A   1      42.452  25.564  28.000  1.00  0.00     0.037 A 
ATOM     60  C   UNL A   1      45.055  27.884  33.690  1.00  0.00     0.049 A 
ATOM     61  C   UNL A   1      43.727  25.523  28.755  1.00  0.00     0.074 A 
ATOM     62  C   UNL A   1      45.472  29.197  33.590  1.00  0.00     0.029 A 
ATOM     63  N   UNL A   1      45.773  27.202  32.742  1.00  0.00    -0.354 N 
ATOM     64  N   UNL A   1      44.696  26.383  28.624  1.00  0.00    -0.248 NA
ATOM     65  C   UNL A   1      43.783  24.691  29.946  1.00  0.00     0.031 C 
ATOM     66  C   UNL A   1      46.027  29.312  32.282  1.00  0.00     0.029 A 
ATOM     67  C   UNL A   1      45.927  28.057  31.683  1.00  0.00     0.049 A 
ATOM     68  H   UNL A   1      46.111  26.280  32.810  1.00  0.00     0.167 HD
ATOM     69  C   UNL A   1      45.239  26.492  29.893  1.00  0.00     0.074 A 
ATOM     70  C   UNL A   1      44.715  25.351  30.635  1.00  0.00     0.031 C 
ATOM     71  C   UNL A   1      45.840  27.646  30.304  1.00  0.00     0.037 A 
BRANCH  58  72
ATOM     72  C   UNL A   1      44.180  25.994  35.212  1.00  0.00     0.064 A 
ATOM     73  C   UNL A   1      44.851  26.110  36.445  1.00  0.00     0.173 A 
ATOM     74  C   UNL A   1      44.001  24.677  34.735  1.00  0.00     0.173 A 
ATOM     75  F   UNL A   1      45.103  27.316  36.977  1.00  0.00    -0.203 F 
ATOM     76  C   UNL A   1      45.355  24.993  37.119  1.00  0.00     0.198 A 
ATOM     77  C   UNL A   1      44.457  23.563  35.436  1.00  0.00     0.198 A 
ATOM     78  F   UNL A   1      43.480  24.427  33.527  1.00  0.00    -0.203 F 
ATOM     79  F   UNL A   1      46.087  25.160  38.228  1.00  0.00    -0.200 F 
ATOM     80  C   UNL A   1      45.160  23.721  36.612  1.00  0.00     0.200 A 
ATOM     81  F   UNL A   1      44.277  22.339  34.919  1.00  0.00    -0.200 F 
ATOM     82  F   UNL A   1      45.689  22.655  37.226  1.00  0.00    -0.200 F 
ENDBRANCH  58  72
BRANCH  59  83
ATOM     83  C   UNL A   1      41.999  24.409  27.187  1.00  0.00     0.064 A 
ATOM     84  C   UNL A   1      42.885  23.747  26.317  1.00  0.00     0.173 A 
ATOM     85  C   UNL A   1      40.785  23.751  27.459  1.00  0.00     0.173 A 
ATOM     86  F   UNL A   1      44.083  24.280  26.038  1.00  0.00    -0.203 F 
ATOM     87  C   UNL A   1      42.587  22.488  25.784  1.00  0.00     0.198 A 
ATOM     88  C   UNL A   1      40.484  22.500  26.917  1.00  0.00     0.198 A 
ATOM     89  F   UNL A   1      39.909  24.257  28.339  1.00  0.00    -0.203 F 
ATOM     90  F   UNL A   1      43.488  21.856  25.019  1.00  0.00    -0.200 F 
ATOM     91  C   UNL A   1      41.392  21.862  26.092  1.00  0.00     0.200 A 
ATOM     92  F   UNL A   1      39.339  21.890  27.252  1.00  0.00    -0.200 F 
ATOM     93  F   UNL A   1      41.133  20.629  25.635  1.00  0.00    -0.200 F 
ENDBRANCH  59  83
BRANCH  71  94
ATOM     94  C   UNL A   1      46.163  28.681  29.268  1.00  0.00     0.064 A 
ATOM     95  C   UNL A   1      47.366  28.711  28.542  1.00  0.00     0.173 A 
ATOM     96  C   UNL A   1      45.155  29.579  28.889  1.00  0.00     0.173 A 
ATOM     97  F   UNL A   1      48.337  27.819  28.778  1.00  0.00    -0.203 F 
ATOM     98  C   UNL A   1      47.562  29.627  27.510  1.00  0.00     0.198 A 
ATOM     99  C   UNL A   1      45.340  30.467  27.834  1.00  0.00     0.198 A 
ATOM    100  F   UNL A   1      43.966  29.559  29.513  1.00  0.00    -0.203 F 
ATOM    101  F   UNL A   1      48.721  29.643  26.837  1.00  0.00    -0.200 F 
ATOM    102  C   UNL A   1      46.545  30.497  27.151  1.00  0.00     0.200 A 
ATOM    103  F   UNL A   1      44.338  31.273  27.457  1.00  0.00    -0.200 F 
ATOM    104  F   UNL A   1      46.717  31.345  26.127  1.00  0.00    -0.200 F 
ENDBRANCH  71  94
ENDBRANCH  45  46
ENDBRANCH  38  40
ENDBRANCH  37  38
ENDBRANCH  36  37
ENDBRANCH  35  36
ENDBRANCH  34  35
ENDBRANCH   1  34
TORSDOF 19
ENDMDL
MODEL 2
REMARK VINA RESULT:     -12.0      4.789     10.311
REMARK SMILES [NH3+][C@@H](Cc1cn(-c2nc(Cl)nc(N3CCOCC3)n2)c2ccccc12)C(=O)OCCOCCOC(=O)c1ccc(-c2c3nc(c(-c4c(F)c(F)c(F)c(F)c4F)c4ccc([nH]4)c(-c4c(F)c(F)c(F)c(F)c4F)c4nc(c(-c5c(F)c(F)c(F)c(F)c5F)c5ccc2[nH]5)C=C4)C=C3)cc1
REMARK SMILES IDX 30 1 29 2 28 3 26 4 27 5 2 6 1 7 3 11 4 12 5 13 25 14 6 15
REMARK SMILES IDX 20 16 24 17 21 18 23 19 22 20 7 21 8 22 19 23 9 24 12 25
REMARK SMILES IDX 10 26 11 27 13 28 14 29 18 30 15 31 17 32 16 33 31 34 32 35
REMARK SMILES IDX 33 36 34 37 35 38 36 39 37 40 38 41 99 42 39 43 98 44 40 45
REMARK SMILES IDX 41 46 42 47 92 48 43 49 97 50 91 51 93 52 44 53 96 54 90 55
REMARK SMILES IDX 89 56 45 58 77 59 57 60 76 61 58 62 61 63 75 64 94 65 59 66
REMARK SMILES IDX 60 67 74 69 95 70 62 71 46 72 47 73 55 74 48 75 49 76 53 77
REMARK SMILES IDX 56 78 50 79 51 80 54 81 52 82 78 83 79 84 87 85 80 86 81 87
REMARK SMILES IDX 85 88 88 89 82 90 83 91 86 92 84 93 63 94 64 95 72 96 65 97
REMARK SMILES IDX 66 98 70 99 73 100 67 101 68 102 71 103 69 104
REMARK H PARENT 1 8 1 9 1 10 93 57 61 68
REMARK Flexibility Score: inf
ROOT
ATOM      1  C   UNL A   1      42.332  19.322  25.752  1.00  0.00     0.202 C 
ENDROOT
BRANCH   1   2
ATOM      2  C   UNL A   1      41.724  20.256  26.796  1.00  0.00     0.261 C 
BRANCH   2   3
ATOM      3  O   UNL A   1      40.713  21.088  26.206  1.00  0.00    -0.459 OA
BRANCH   3   4
ATOM      4  C   UNL A   1      40.192  22.051  27.005  1.00  0.00     0.365 C 
ATOM      5  O   UNL A   1      40.623  22.345  28.116  1.00  0.00    -0.245 OA
BRANCH   4   6
ATOM      6  C   UNL A   1      38.997  22.767  26.368  1.00  0.00     0.296 C 
BRANCH   6   7
ATOM      7  N   UNL A   1      39.288  24.157  25.944  1.00  0.00    -0.346 N 
ATOM      8  H   UNL A   1      39.323  24.201  24.925  1.00  0.00     0.345 HD
ATOM      9  H   UNL A   1      40.187  24.450  26.328  1.00  0.00     0.345 HD
ATOM     10  H   UNL A   1      38.554  24.777  26.286  1.00  0.00     0.345 HD
ENDBRANCH   6   7
BRANCH   6  11
ATOM     11  C   UNL A   1      38.233  21.920  25.354  1.00  0.00     0.115 C 
BRANCH  11  12
ATOM     12  C   UNL A   1      36.784  22.148  24.990  1.00  0.00    -0.015 A 
ATOM     13  C   UNL A   1      36.375  23.408  24.583  1.00  0.00     0.099 A 
ATOM     14  C   UNL A   1      35.619  21.307  24.855  1.00  0.00     0.004 A 
ATOM     15  N   UNL A   1      35.022  23.414  24.364  1.00  0.00    -0.285 N 
ATOM     16  C   UNL A   1      34.533  22.131  24.509  1.00  0.00     0.056 A 
ATOM     17  C   UNL A   1      35.348  19.924  24.956  1.00  0.00     0.010 A 
ATOM     18  C   UNL A   1      33.238  21.630  24.264  1.00  0.00     0.027 A 
ATOM     19  C   UNL A   1      34.089  19.411  24.622  1.00  0.00     0.001 A 
ATOM     20  C   UNL A   1      33.039  20.255  24.298  1.00  0.00     0.002 A 
BRANCH  15  21
ATOM     21  C   UNL A   1      34.292  24.527  23.878  1.00  0.00     0.240 A 
ATOM     22  N   UNL A   1      33.972  24.559  22.591  1.00  0.00    -0.181 NA
ATOM     23  N   UNL A   1      34.026  25.488  24.766  1.00  0.00    -0.176 NA
ATOM     24  C   UNL A   1      33.240  25.618  22.285  1.00  0.00     0.228 A 
ATOM     25  C   UNL A   1      33.394  26.553  24.296  1.00  0.00     0.231 A 
ATOM     26  Cl  UNL A   1      32.681  25.694  20.673  1.00  0.00    -0.041 Cl
ATOM     27  N   UNL A   1      32.903  26.632  23.070  1.00  0.00    -0.182 NA
BRANCH  25  28
ATOM     28  N   UNL A   1      33.325  27.654  25.093  1.00  0.00    -0.336 N 
ATOM     29  C   UNL A   1      33.176  27.520  26.535  1.00  0.00     0.148 C 
ATOM     30  C   UNL A   1      33.145  28.975  24.518  1.00  0.00     0.148 C 
ATOM     31  C   UNL A   1      31.905  28.231  27.013  1.00  0.00     0.181 C 
ATOM     32  C   UNL A   1      31.850  29.591  25.079  1.00  0.00     0.181 C 
ATOM     33  O   UNL A   1      31.839  29.581  26.520  1.00  0.00    -0.378 OA
ENDBRANCH  25  28
ENDBRANCH  15  21
ENDBRANCH  11  12
ENDBRANCH   6  11
ENDBRANCH   4   6
ENDBRANCH   3   4
ENDBRANCH   2   3
ENDBRANCH   1   2
BRANCH   1  34
ATOM     34  O   UNL A   1      43.675  18.888  25.983  1.00  0.00    -0.374 OA
BRANCH  34  35
ATOM     35  C   UNL A   1      44.389  18.462  24.816  1.00  0.00     0.202 C 
BRANCH  35  36
ATOM     36  C   UNL A   1      45.666  19.260  24.503  1.00  0.00     0.261 C 
BRANCH  36  37
ATOM     37  O   UNL A   1      45.579  20.576  25.072  1.00  0.00    -0.460 OA
BRANCH  37  38
ATOM     38  C   UNL A   1      44.944  21.500  24.309  1.00  0.00     0.338 C 
ATOM     39  O   UNL A   1      44.545  21.373  23.165  1.00  0.00    -0.246 OA
BRANCH  38  40
ATOM     40  C   UNL A   1      44.523  22.578  25.226  1.00  0.00     0.060 A 
ATOM     41  C   UNL A   1      43.432  23.393  24.922  1.00  0.00     0.016 A 
ATOM     42  C   UNL A   1      45.392  22.914  26.268  1.00  0.00     0.016 A 
ATOM     43  C   UNL A   1      43.273  24.603  25.584  1.00  0.00     0.010 A 
ATOM     44  C   UNL A   1      45.205  24.104  26.965  1.00  0.00     0.010 A 
ATOM     45  C   UNL A   1      44.167  24.970  26.602  1.00  0.00    -0.014 A 
BRANCH  45  46
ATOM     46  C   UNL A   1      43.837  26.167  27.387  1.00  0.00     0.031 A 
ATOM     47  C   UNL A   1      44.707  27.354  27.096  1.00  0.00     0.074 A 
ATOM     48  C   UNL A   1      42.745  26.321  28.165  1.00  0.00     0.049 A 
ATOM     49  N   UNL A   1      45.338  28.132  27.919  1.00  0.00    -0.248 NA
ATOM     50  C   UNL A   1      44.954  27.663  25.676  1.00  0.00     0.031 C 
ATOM     51  C   UNL A   1      41.619  25.403  28.340  1.00  0.00     0.029 A 
ATOM     52  N   UNL A   1      42.361  27.421  28.881  1.00  0.00    -0.354 N 
ATOM     53  C   UNL A   1      45.960  29.102  27.133  1.00  0.00     0.074 A 
ATOM     54  C   UNL A   1      45.771  28.710  25.761  1.00  0.00     0.031 C 
ATOM     55  C   UNL A   1      40.588  26.069  28.910  1.00  0.00     0.029 A 
ATOM     56  C   UNL A   1      41.022  27.414  29.250  1.00  0.00     0.049 A 
ATOM     57  H   UNL A   1      42.977  28.152  29.114  1.00  0.00     0.167 HD
ATOM     58  C   UNL A   1      46.460  30.260  27.645  1.00  0.00     0.037 A 
ATOM     59  C   UNL A   1      40.306  28.467  29.717  1.00  0.00     0.037 A 
ATOM     60  C   UNL A   1      46.724  30.164  29.050  1.00  0.00     0.049 A 
ATOM     61  C   UNL A   1      41.258  29.488  30.213  1.00  0.00     0.074 A 
ATOM     62  C   UNL A   1      47.564  29.396  29.833  1.00  0.00     0.029 A 
ATOM     63  N   UNL A   1      45.861  30.767  29.929  1.00  0.00    -0.354 N 
ATOM     64  N   UNL A   1      41.990  29.365  31.283  1.00  0.00    -0.248 NA
ATOM     65  C   UNL A   1      41.662  30.541  29.294  1.00  0.00     0.031 C 
ATOM     66  C   UNL A   1      46.853  29.190  31.051  1.00  0.00     0.029 A 
ATOM     67  C   UNL A   1      45.637  29.863  30.934  1.00  0.00     0.049 A 
ATOM     68  H   UNL A   1      45.478  31.670  29.851  1.00  0.00     0.167 HD
ATOM     69  C   UNL A   1      43.168  30.025  30.978  1.00  0.00     0.074 A 
ATOM     70  C   UNL A   1      42.867  30.821  29.794  1.00  0.00     0.031 C 
ATOM     71  C   UNL A   1      44.350  29.654  31.548  1.00  0.00     0.037 A 
BRANCH  58  72
ATOM     72  C   UNL A   1      46.441  31.577  26.911  1.00  0.00     0.064 A 
ATOM     73  C   UNL A   1      47.616  32.348  26.822  1.00  0.00     0.173 A 
ATOM     74  C   UNL A   1      45.247  32.238  26.548  1.00  0.00     0.173 A 
ATOM     75  F   UNL A   1      48.803  31.830  27.172  1.00  0.00    -0.203 F 
ATOM     76  C   UNL A   1      47.588  33.696  26.453  1.00  0.00     0.198 A 
ATOM     77  C   UNL A   1      45.230  33.567  26.128  1.00  0.00     0.198 A 
ATOM     78  F   UNL A   1      44.047  31.661  26.690  1.00  0.00    -0.203 F 
ATOM     79  F   UNL A   1      48.713  34.421  26.494  1.00  0.00    -0.200 F 
ATOM     80  C   UNL A   1      46.394  34.305  26.109  1.00  0.00     0.200 A 
ATOM     81  F   UNL A   1      44.060  34.145  25.818  1.00  0.00    -0.200 F 
ATOM     82  F   UNL A   1      46.357  35.609  25.808  1.00  0.00    -0.200 F 
ENDBRANCH  58  72
BRANCH  59  83
ATOM     83  C   UNL A   1      38.875  28.790  29.493  1.00  0.00     0.064 A 
ATOM     84  C   UNL A   1      38.012  29.030  30.577  1.00  0.00     0.173 A 
ATOM     85  C   UNL A   1      38.396  29.155  28.221  1.00  0.00     0.173 A 
ATOM     86  F   UNL A   1      38.405  28.754  31.828  1.00  0.00    -0.203 F 
ATOM     87  C   UNL A   1      36.761  29.632  30.400  1.00  0.00     0.198 A 
ATOM     88  C   UNL A   1      37.143  29.745  28.044  1.00  0.00     0.198 A 
ATOM     89  F   UNL A   1      39.172  29.044  27.134  1.00  0.00    -0.203 F 
ATOM     90  F   UNL A   1      35.998  29.914  31.465  1.00  0.00    -0.200 F 
ATOM     91  C   UNL A   1      36.333  29.999  29.136  1.00  0.00     0.200 A 
ATOM     92  F   UNL A   1      36.756  30.127  26.819  1.00  0.00    -0.200 F 
ATOM     93  F   UNL A   1      35.165  30.635  28.972  1.00  0.00    -0.200 F 
ENDBRANCH  59  83
BRANCH  71  94
ATOM     94  C   UNL A   1      44.306  28.721  32.722  1.00  0.00     0.064 A 
ATOM     95  C   UNL A   1      44.197  29.151  34.056  1.00  0.00     0.173 A 
ATOM     96  C   UNL A   1      44.211  27.345  32.474  1.00  0.00     0.173 A 
ATOM     97  F   UNL A   1      44.177  30.453  34.363  1.00  0.00    -0.203 F 
ATOM     98  C   UNL A   1      44.042  28.236  35.096  1.00  0.00     0.198 A 
ATOM     99  C   UNL A   1      44.019  26.438  33.512  1.00  0.00     0.198 A 
ATOM    100  F   UNL A   1      44.255  26.883  31.215  1.00  0.00    -0.203 F 
ATOM    101  F   UNL A   1      43.950  28.668  36.362  1.00  0.00    -0.200 F 
ATOM    102  C   UNL A   1      43.944  26.882  34.822  1.00  0.00     0.200 A 
ATOM    103  F   UNL A   1      43.875  25.133  33.239  1.00  0.00    -0.200 F 
ATOM    104  F   UNL A   1      43.746  26.007  35.818  1.00  0.00    -0.200 F 
ENDBRANCH  71  94
ENDBRANCH  45  46
ENDBRANCH  38  40
ENDBRANCH  37  38
ENDBRANCH  36  37
ENDBRANCH  35  36
ENDBRANCH  34  35
ENDBRANCH   1  34
TORSDOF 19
ENDMDL
MODEL 3
REMARK VINA RESULT:     -11.9      3.547      5.525
REMARK SMILES [NH3+][C@@H](Cc1cn(-c2nc(Cl)nc(N3CCOCC3)n2)c2ccccc12)C(=O)OCCOCCOC(=O)c1ccc(-c2c3nc(c(-c4c(F)c(F)c(F)c(F)c4F)c4ccc([nH]4)c(-c4c(F)c(F)c(F)c(F)c4F)c4nc(c(-c5c(F)c(F)c(F)c(F)c5F)c5ccc2[nH]5)C=C4)C=C3)cc1
REMARK SMILES IDX 30 1 29 2 28 3 26 4 27 5 2 6 1 7 3 11 4 12 5 13 25 14 6 15
REMARK SMILES IDX 20 16 24 17 21 18 23 19 22 20 7 21 8 22 19 23 9 24 12 25
REMARK SMILES IDX 10 26 11 27 13 28 14 29 18 30 15 31 17 32 16 33 31 34 32 35
REMARK SMILES IDX 33 36 34 37 35 38 36 39 37 40 38 41 99 42 39 43 98 44 40 45
REMARK SMILES IDX 41 46 42 47 92 48 43 49 97 50 91 51 93 52 44 53 96 54 90 55
REMARK SMILES IDX 89 56 45 58 77 59 57 60 76 61 58 62 61 63 75 64 94 65 59 66
REMARK SMILES IDX 60 67 74 69 95 70 62 71 46 72 47 73 55 74 48 75 49 76 53 77
REMARK SMILES IDX 56 78 50 79 51 80 54 81 52 82 78 83 79 84 87 85 80 86 81 87
REMARK SMILES IDX 85 88 88 89 82 90 83 91 86 92 84 93 63 94 64 95 72 96 65 97
REMARK SMILES IDX 66 98 70 99 73 100 67 101 68 102 71 103 69 104
REMARK H PARENT 1 8 1 9 1 10 93 57 61 68
REMARK Flexibility Score: inf
ROOT
ATOM      1  C   UNL A   1      34.274  30.345  27.065  1.00  0.00     0.202 C 
ENDROOT
BRANCH   1   2
ATOM      2  C   UNL A   1      32.936  30.997  26.725  1.00  0.00     0.261 C 
BRANCH   2   3
ATOM      3  O   UNL A   1      31.851  30.092  26.977  1.00  0.00    -0.459 OA
BRANCH   3   4
ATOM      4  C   UNL A   1      31.784  29.002  26.174  1.00  0.00     0.365 C 
ATOM      5  O   UNL A   1      31.725  29.040  24.949  1.00  0.00    -0.245 OA
BRANCH   4   6
ATOM      6  C   UNL A   1      31.808  27.687  26.958  1.00  0.00     0.296 C 
BRANCH   6   7
ATOM      7  N   UNL A   1      31.403  27.828  28.377  1.00  0.00    -0.346 N 
ATOM      8  H   UNL A   1      30.423  28.109  28.424  1.00  0.00     0.345 HD
ATOM      9  H   UNL A   1      31.982  28.537  28.828  1.00  0.00     0.345 HD
ATOM     10  H   UNL A   1      31.523  26.935  28.855  1.00  0.00     0.345 HD
ENDBRANCH   6   7
BRANCH   6  11
ATOM     11  C   UNL A   1      31.186  26.507  26.215  1.00  0.00     0.115 C 
BRANCH  11  12
ATOM     12  C   UNL A   1      31.939  25.641  25.233  1.00  0.00    -0.015 A 
ATOM     13  C   UNL A   1      32.605  24.515  25.690  1.00  0.00     0.099 A 
ATOM     14  C   UNL A   1      32.093  25.617  23.798  1.00  0.00     0.004 A 
ATOM     15  N   UNL A   1      33.271  23.911  24.657  1.00  0.00    -0.285 N 
ATOM     16  C   UNL A   1      32.962  24.559  23.477  1.00  0.00     0.056 A 
ATOM     17  C   UNL A   1      31.575  26.353  22.710  1.00  0.00     0.010 A 
ATOM     18  C   UNL A   1      33.308  24.225  22.152  1.00  0.00     0.027 A 
ATOM     19  C   UNL A   1      31.840  25.969  21.389  1.00  0.00     0.001 A 
ATOM     20  C   UNL A   1      32.711  24.929  21.112  1.00  0.00     0.002 A 
BRANCH  15  21
ATOM     21  C   UNL A   1      34.000  22.701  24.769  1.00  0.00     0.240 A 
ATOM     22  N   UNL A   1      35.321  22.768  24.877  1.00  0.00    -0.181 NA
ATOM     23  N   UNL A   1      33.285  21.576  24.706  1.00  0.00    -0.176 NA
ATOM     24  C   UNL A   1      35.869  21.575  25.038  1.00  0.00     0.228 A 
ATOM     25  C   UNL A   1      33.976  20.446  24.753  1.00  0.00     0.231 A 
ATOM     26  Cl  UNL A   1      37.557  21.562  25.300  1.00  0.00    -0.041 Cl
ATOM     27  N   UNL A   1      35.273  20.390  25.003  1.00  0.00    -0.182 NA
BRANCH  25  28
ATOM     28  N   UNL A   1      33.326  19.291  24.442  1.00  0.00    -0.336 N 
ATOM     29  C   UNL A   1      33.894  17.999  24.803  1.00  0.00     0.148 C 
ATOM     30  C   UNL A   1      32.194  19.298  23.533  1.00  0.00     0.148 C 
ATOM     31  C   UNL A   1      34.101  17.135  23.554  1.00  0.00     0.181 C 
ATOM     32  C   UNL A   1      32.514  18.390  22.331  1.00  0.00     0.181 C 
ATOM     33  O   UNL A   1      32.908  17.071  22.753  1.00  0.00    -0.378 OA
ENDBRANCH  25  28
ENDBRANCH  15  21
ENDBRANCH  11  12
ENDBRANCH   6  11
ENDBRANCH   4   6
ENDBRANCH   3   4
ENDBRANCH   2   3
ENDBRANCH   1   2
BRANCH   1  34
ATOM     34  O   UNL A   1      35.017  30.925  28.140  1.00  0.00    -0.374 OA
BRANCH  34  35
ATOM     35  C   UNL A   1      35.121  32.355  28.110  1.00  0.00     0.202 C 
BRANCH  35  36
ATOM     36  C   UNL A   1      34.792  33.062  29.435  1.00  0.00     0.261 C 
BRANCH  36  37
ATOM     37  O   UNL A   1      34.551  32.092  30.468  1.00  0.00    -0.460 OA
BRANCH  37  38
ATOM     38  C   UNL A   1      35.188  32.320  31.642  1.00  0.00     0.338 C 
ATOM     39  O   UNL A   1      34.729  32.825  32.652  1.00  0.00    -0.246 OA
BRANCH  38  40
ATOM     40  C   UNL A   1      36.442  31.543  31.594  1.00  0.00     0.060 A 
ATOM     41  C   UNL A   1      37.683  32.181  31.597  1.00  0.00     0.016 A 
ATOM     42  C   UNL A   1      36.344  30.181  31.293  1.00  0.00     0.016 A 
ATOM     43  C   UNL A   1      38.813  31.486  31.190  1.00  0.00     0.010 A 
ATOM     44  C   UNL A   1      37.486  29.471  30.931  1.00  0.00     0.010 A 
ATOM     45  C   UNL A   1      38.718  30.129  30.843  1.00  0.00    -0.014 A 
BRANCH  45  46
ATOM     46  C   UNL A   1      39.974  29.406  30.603  1.00  0.00     0.031 A 
ATOM     47  C   UNL A   1      40.781  29.147  31.841  1.00  0.00     0.074 A 
ATOM     48  C   UNL A   1      40.336  28.823  29.441  1.00  0.00     0.049 A 
ATOM     49  N   UNL A   1      42.040  29.366  32.061  1.00  0.00    -0.248 NA
ATOM     50  C   UNL A   1      40.051  28.632  33.014  1.00  0.00     0.031 C 
ATOM     51  C   UNL A   1      39.557  28.693  28.209  1.00  0.00     0.029 A 
ATOM     52  N   UNL A   1      41.465  28.100  29.169  1.00  0.00    -0.354 N 
ATOM     53  C   UNL A   1      42.291  28.905  33.353  1.00  0.00     0.074 A 
ATOM     54  C   UNL A   1      41.017  28.555  33.926  1.00  0.00     0.031 C 
ATOM     55  C   UNL A   1      40.128  27.753  27.420  1.00  0.00     0.029 A 
ATOM     56  C   UNL A   1      41.369  27.309  28.033  1.00  0.00     0.049 A 
ATOM     57  H   UNL A   1      42.273  28.137  29.729  1.00  0.00     0.167 HD
ATOM     58  C   UNL A   1      43.547  28.685  33.830  1.00  0.00     0.037 A 
ATOM     59  C   UNL A   1      42.204  26.303  27.673  1.00  0.00     0.037 A 
ATOM     60  C   UNL A   1      44.542  29.409  33.096  1.00  0.00     0.049 A 
ATOM     61  C   UNL A   1      43.478  26.476  28.411  1.00  0.00     0.074 A 
ATOM     62  C   UNL A   1      44.806  30.747  32.873  1.00  0.00     0.029 A 
ATOM     63  N   UNL A   1      45.331  28.731  32.204  1.00  0.00    -0.354 N 
ATOM     64  N   UNL A   1      44.341  27.425  28.191  1.00  0.00    -0.248 NA
ATOM     65  C   UNL A   1      43.633  25.767  29.671  1.00  0.00     0.031 C 
ATOM     66  C   UNL A   1      45.339  30.806  31.553  1.00  0.00     0.029 A 
ATOM     67  C   UNL A   1      45.383  29.498  31.070  1.00  0.00     0.049 A 
ATOM     68  H   UNL A   1      45.772  27.863  32.349  1.00  0.00     0.167 HD
ATOM     69  C   UNL A   1      44.872  27.710  29.437  1.00  0.00     0.074 A 
ATOM     70  C   UNL A   1      44.485  26.589  30.285  1.00  0.00     0.031 C 
ATOM     71  C   UNL A   1      45.338  28.957  29.735  1.00  0.00     0.037 A 
BRANCH  58  72
ATOM     72  C   UNL A   1      43.894  27.578  34.793  1.00  0.00     0.064 A 
ATOM     73  C   UNL A   1      43.722  26.234  34.409  1.00  0.00     0.173 A 
ATOM     74  C   UNL A   1      44.113  27.796  36.171  1.00  0.00     0.173 A 
ATOM     75  F   UNL A   1      43.477  25.914  33.129  1.00  0.00    -0.203 F 
ATOM     76  C   UNL A   1      43.711  25.195  35.344  1.00  0.00     0.198 A 
ATOM     77  C   UNL A   1      44.155  26.753  37.093  1.00  0.00     0.198 A 
ATOM     78  F   UNL A   1      44.182  29.029  36.690  1.00  0.00    -0.203 F 
ATOM     79  F   UNL A   1      43.427  23.947  34.949  1.00  0.00    -0.200 F 
ATOM     80  C   UNL A   1      43.925  25.456  36.686  1.00  0.00     0.200 A 
ATOM     81  F   UNL A   1      44.343  27.027  38.392  1.00  0.00    -0.200 F 
ATOM     82  F   UNL A   1      43.859  24.470  37.590  1.00  0.00    -0.200 F 
ENDBRANCH  58  72
BRANCH  59  83
ATOM     83  C   UNL A   1      41.884  25.035  26.973  1.00  0.00     0.064 A 
ATOM     84  C   UNL A   1      42.687  24.573  25.914  1.00  0.00     0.173 A 
ATOM     85  C   UNL A   1      40.969  24.110  27.511  1.00  0.00     0.173 A 
ATOM     86  F   UNL A   1      43.616  25.372  25.372  1.00  0.00    -0.203 F 
ATOM     87  C   UNL A   1      42.602  23.256  25.449  1.00  0.00     0.198 A 
ATOM     88  C   UNL A   1      40.877  22.800  27.037  1.00  0.00     0.198 A 
ATOM     89  F   UNL A   1      40.217  24.424  28.575  1.00  0.00    -0.203 F 
ATOM     90  F   UNL A   1      43.435  22.831  24.488  1.00  0.00    -0.200 F 
ATOM     91  C   UNL A   1      41.704  22.369  26.017  1.00  0.00     0.200 A 
ATOM     92  F   UNL A   1      40.029  21.942  27.621  1.00  0.00    -0.200 F 
ATOM     93  F   UNL A   1      41.668  21.090  25.618  1.00  0.00    -0.200 F 
ENDBRANCH  59  83
BRANCH  71  94
ATOM     94  C   UNL A   1      45.537  29.924  28.607  1.00  0.00     0.064 A 
ATOM     95  C   UNL A   1      44.508  30.710  28.061  1.00  0.00     0.173 A 
ATOM     96  C   UNL A   1      46.846  30.176  28.170  1.00  0.00     0.173 A 
ATOM     97  F   UNL A   1      43.248  30.599  28.499  1.00  0.00    -0.203 F 
ATOM     98  C   UNL A   1      44.776  31.676  27.092  1.00  0.00     0.198 A 
ATOM     99  C   UNL A   1      47.114  31.167  27.231  1.00  0.00     0.198 A 
ATOM    100  F   UNL A   1      47.874  29.492  28.697  1.00  0.00    -0.203 F 
ATOM    101  F   UNL A   1      43.776  32.408  26.579  1.00  0.00    -0.200 F 
ATOM    102  C   UNL A   1      46.079  31.910  26.686  1.00  0.00     0.200 A 
ATOM    103  F   UNL A   1      48.380  31.424  26.875  1.00  0.00    -0.200 F 
ATOM    104  F   UNL A   1      46.342  32.872  25.790  1.00  0.00    -0.200 F 
ENDBRANCH  71  94
ENDBRANCH  45  46
ENDBRANCH  38  40
ENDBRANCH  37  38
ENDBRANCH  36  37
ENDBRANCH  35  36
ENDBRANCH  34  35
ENDBRANCH   1  34
TORSDOF 19
ENDMDL
