MODEL 1
REMARK VINA RESULT:     -13.3      0.000      0.000
REMARK SMILES Cc1c(C(=O)OCCOCCOC(=O)c2ccc(-c3c4nc(c(-c5c(F)c(F)c(F)c(F)c5F)c5ccc([nH]5)c(-c5c(F)c(F)c(F)c(F)c5F)c5nc(c(-c6c(F)c(F)c(F)c(F)c6F)c6ccc3[nH]6)C=C5)C=C4)cc2)oc2c1/C(=N/NC(=O)C(c1ccccc1)c1ccccc1)CCC2
REMARK SMILES IDX 8 1 7 2 6 3 4 4 5 5 3 6 1 7 2 8 80 9 78 10 79 11 81 12
REMARK SMILES IDX 101 13 82 14 99 15 100 16 83 17 84 18 85 20 86 21 87 22
REMARK SMILES IDX 88 23 92 24 89 25 91 26 90 27 93 28 94 29 98 30 95 31 97 32
REMARK SMILES IDX 96 33 9 34 10 35 11 36 12 37 13 38 14 39 15 40 16 41 77 42
REMARK SMILES IDX 17 43 76 44 18 45 19 46 20 47 70 48 21 49 75 50 69 51 71 52
REMARK SMILES IDX 22 53 74 54 68 55 67 56 23 58 55 59 35 60 54 61 36 62 39 63
REMARK SMILES IDX 53 64 72 65 37 66 38 67 52 69 73 70 40 71 24 72 25 73 33 74
REMARK SMILES IDX 26 75 27 76 31 77 34 78 28 79 29 80 32 81 30 82 56 83 57 84
REMARK SMILES IDX 65 85 58 86 59 87 63 88 66 89 60 90 61 91 64 92 62 93 41 94
REMARK SMILES IDX 42 95 50 96 43 97 44 98 48 99 51 100 45 101 46 102 49 103
REMARK SMILES IDX 47 104
REMARK H PARENT 83 19 71 57 39 68
REMARK Flexibility Score: inf
ROOT
ATOM      1  C   UNL A   1      41.015  21.001  27.381  1.00  0.00     0.202 C 
ENDROOT
BRANCH   1   2
ATOM      2  C   UNL A   1      40.521  21.579  26.053  1.00  0.00     0.261 C 
BRANCH   2   3
ATOM      3  O   UNL A   1      39.127  21.338  25.893  1.00  0.00    -0.457 OA
BRANCH   3   4
ATOM      4  C   UNL A   1      38.330  22.444  25.981  1.00  0.00     0.374 C 
ATOM      5  O   UNL A   1      38.706  23.585  26.113  1.00  0.00    -0.242 OA
BRANCH   4   6
ATOM      6  C   UNL A   1      36.977  22.017  25.722  1.00  0.00     0.215 A 
ATOM      7  C   UNL A   1      35.497  24.034  26.413  1.00  0.00     0.049 C 
ATOM      8  C   UNL A   1      35.759  22.654  25.926  1.00  0.00     0.012 A 
ATOM      9  C   UNL A   1      34.791  21.656  25.642  1.00  0.00     0.043 A 
ATOM     10  O   UNL A   1      36.793  20.796  25.135  1.00  0.00    -0.453 OA
ATOM     11  C   UNL A   1      35.469  20.590  25.098  1.00  0.00     0.114 A 
ATOM     12  C   UNL A   1      33.376  21.558  25.956  1.00  0.00     0.072 C 
ATOM     13  C   UNL A   1      34.976  19.264  24.675  1.00  0.00     0.076 C 
ATOM     14  N   UNL A   1      32.847  22.727  26.210  1.00  0.00    -0.177 NA
ATOM     15  C   UNL A   1      33.002  20.058  26.031  1.00  0.00     0.059 C 
ATOM     16  C   UNL A   1      33.457  19.252  24.803  1.00  0.00     0.014 C 
BRANCH  14  17
ATOM     17  N   UNL A   1      31.652  23.256  26.654  1.00  0.00    -0.246 N 
ATOM     18  C   UNL A   1      30.875  24.355  26.331  1.00  0.00     0.252 C 
ATOM     19  H   UNL A   1      31.255  22.720  27.377  1.00  0.00     0.193 HD
ATOM     20  O   UNL A   1      29.811  24.548  26.928  1.00  0.00    -0.272 OA
BRANCH  18  21
ATOM     21  C   UNL A   1      31.358  25.298  25.249  1.00  0.00     0.140 C 
BRANCH  21  22
ATOM     22  C   UNL A   1      32.034  26.546  26.013  1.00  0.00    -0.031 A 
ATOM     23  C   UNL A   1      33.424  26.866  25.876  1.00  0.00     0.005 A 
ATOM     24  C   UNL A   1      31.348  27.384  26.901  1.00  0.00     0.005 A 
ATOM     25  C   UNL A   1      34.041  28.009  26.394  1.00  0.00     0.000 A 
ATOM     26  C   UNL A   1      31.993  28.502  27.501  1.00  0.00     0.000 A 
ATOM     27  C   UNL A   1      33.317  28.839  27.214  1.00  0.00     0.000 A 
ENDBRANCH  21  22
BRANCH  21  28
ATOM     28  C   UNL A   1      31.980  24.369  24.092  1.00  0.00    -0.031 A 
ATOM     29  C   UNL A   1      33.260  24.546  23.550  1.00  0.00     0.005 A 
ATOM     30  C   UNL A   1      31.235  23.311  23.476  1.00  0.00     0.005 A 
ATOM     31  C   UNL A   1      33.768  23.657  22.561  1.00  0.00     0.000 A 
ATOM     32  C   UNL A   1      31.760  22.377  22.576  1.00  0.00     0.000 A 
ATOM     33  C   UNL A   1      33.043  22.549  22.115  1.00  0.00     0.000 A 
ENDBRANCH  21  28
ENDBRANCH  18  21
ENDBRANCH  14  17
ENDBRANCH   4   6
ENDBRANCH   3   4
ENDBRANCH   2   3
ENDBRANCH   1   2
BRANCH   1  34
ATOM     34  O   UNL A   1      42.032  20.001  27.311  1.00  0.00    -0.374 OA
BRANCH  34  35
ATOM     35  C   UNL A   1      42.064  19.105  26.203  1.00  0.00     0.202 C 
BRANCH  35  36
ATOM     36  C   UNL A   1      43.408  18.786  25.574  1.00  0.00     0.261 C 
BRANCH  36  37
ATOM     37  O   UNL A   1      44.335  19.851  25.734  1.00  0.00    -0.460 OA
BRANCH  37  38
ATOM     38  C   UNL A   1      44.583  20.539  24.600  1.00  0.00     0.338 C 
ATOM     39  O   UNL A   1      44.889  20.086  23.510  1.00  0.00    -0.246 OA
BRANCH  38  40
ATOM     40  C   UNL A   1      44.637  21.965  24.935  1.00  0.00     0.060 A 
ATOM     41  C   UNL A   1      45.360  22.299  26.080  1.00  0.00     0.016 A 
ATOM     42  C   UNL A   1      43.774  22.880  24.308  1.00  0.00     0.016 A 
ATOM     43  C   UNL A   1      45.062  23.483  26.713  1.00  0.00     0.010 A 
ATOM     44  C   UNL A   1      43.472  24.059  24.946  1.00  0.00     0.010 A 
ATOM     45  C   UNL A   1      44.061  24.308  26.180  1.00  0.00    -0.014 A 
BRANCH  45  46
ATOM     46  C   UNL A   1      43.756  25.527  26.896  1.00  0.00     0.031 A 
ATOM     47  C   UNL A   1      44.746  26.588  26.622  1.00  0.00     0.074 A 
ATOM     48  C   UNL A   1      42.674  25.684  27.680  1.00  0.00     0.049 A 
ATOM     49  N   UNL A   1      45.641  27.040  27.434  1.00  0.00    -0.248 NA
ATOM     50  C   UNL A   1      44.892  27.058  25.236  1.00  0.00     0.031 C 
ATOM     51  C   UNL A   1      41.516  24.802  27.830  1.00  0.00     0.029 A 
ATOM     52  N   UNL A   1      42.361  26.739  28.481  1.00  0.00    -0.354 N 
ATOM     53  C   UNL A   1      46.343  28.001  26.718  1.00  0.00     0.074 A 
ATOM     54  C   UNL A   1      45.967  27.839  25.339  1.00  0.00     0.031 C 
ATOM     55  C   UNL A   1      40.535  25.462  28.493  1.00  0.00     0.029 A 
ATOM     56  C   UNL A   1      41.049  26.747  28.935  1.00  0.00     0.049 A 
ATOM     57  H   UNL A   1      43.011  27.439  28.717  1.00  0.00     0.167 HD
ATOM     58  C   UNL A   1      46.955  29.022  27.372  1.00  0.00     0.037 A 
ATOM     59  C   UNL A   1      40.435  27.770  29.584  1.00  0.00     0.037 A 
ATOM     60  C   UNL A   1      47.162  28.694  28.761  1.00  0.00     0.049 A 
ATOM     61  C   UNL A   1      41.501  28.627  30.161  1.00  0.00     0.074 A 
ATOM     62  C   UNL A   1      47.881  27.729  29.440  1.00  0.00     0.029 A 
ATOM     63  N   UNL A   1      46.262  29.196  29.666  1.00  0.00    -0.354 N 
ATOM     64  N   UNL A   1      42.277  28.255  31.141  1.00  0.00    -0.248 NA
ATOM     65  C   UNL A   1      42.001  29.729  29.353  1.00  0.00     0.031 C 
ATOM     66  C   UNL A   1      47.081  27.392  30.572  1.00  0.00     0.029 A 
ATOM     67  C   UNL A   1      45.949  28.208  30.559  1.00  0.00     0.049 A 
ATOM     68  H   UNL A   1      45.903  30.112  29.672  1.00  0.00     0.167 HD
ATOM     69  C   UNL A   1      43.528  28.748  30.801  1.00  0.00     0.074 A 
ATOM     70  C   UNL A   1      43.276  29.731  29.751  1.00  0.00     0.031 C 
ATOM     71  C   UNL A   1      44.660  28.100  31.204  1.00  0.00     0.037 A 
BRANCH  58  72
ATOM     72  C   UNL A   1      46.935  30.449  26.876  1.00  0.00     0.064 A 
ATOM     73  C   UNL A   1      48.121  31.206  26.955  1.00  0.00     0.173 A 
ATOM     74  C   UNL A   1      45.755  31.193  26.645  1.00  0.00     0.173 A 
ATOM     75  F   UNL A   1      49.298  30.607  27.185  1.00  0.00    -0.203 F 
ATOM     76  C   UNL A   1      48.108  32.602  26.910  1.00  0.00     0.198 A 
ATOM     77  C   UNL A   1      45.754  32.581  26.548  1.00  0.00     0.198 A 
ATOM     78  F   UNL A   1      44.541  30.632  26.622  1.00  0.00    -0.203 F 
ATOM     79  F   UNL A   1      49.240  33.283  27.134  1.00  0.00    -0.200 F 
ATOM     80  C   UNL A   1      46.924  33.289  26.717  1.00  0.00     0.200 A 
ATOM     81  F   UNL A   1      44.592  33.227  26.381  1.00  0.00    -0.200 F 
ATOM     82  F   UNL A   1      46.898  34.627  26.746  1.00  0.00    -0.200 F 
ENDBRANCH  58  72
BRANCH  59  83
ATOM     83  C   UNL A   1      39.036  28.244  29.457  1.00  0.00     0.064 A 
ATOM     84  C   UNL A   1      38.250  28.491  30.597  1.00  0.00     0.173 A 
ATOM     85  C   UNL A   1      38.549  28.756  28.239  1.00  0.00     0.173 A 
ATOM     86  F   UNL A   1      38.665  28.080  31.804  1.00  0.00    -0.203 F 
ATOM     87  C   UNL A   1      37.066  29.233  30.526  1.00  0.00     0.198 A 
ATOM     88  C   UNL A   1      37.364  29.494  28.170  1.00  0.00     0.198 A 
ATOM     89  F   UNL A   1      39.261  28.641  27.111  1.00  0.00    -0.203 F 
ATOM     90  F   UNL A   1      36.381  29.508  31.646  1.00  0.00    -0.200 F 
ATOM     91  C   UNL A   1      36.632  29.745  29.315  1.00  0.00     0.200 A 
ATOM     92  F   UNL A   1      36.977  30.018  26.999  1.00  0.00    -0.200 F 
ATOM     93  F   UNL A   1      35.535  30.514  29.257  1.00  0.00    -0.200 F 
ENDBRANCH  59  83
BRANCH  71  94
ATOM     94  C   UNL A   1      44.511  27.045  32.265  1.00  0.00     0.064 A 
ATOM     95  C   UNL A   1      44.310  25.677  32.006  1.00  0.00     0.173 A 
ATOM     96  C   UNL A   1      44.686  27.426  33.602  1.00  0.00     0.173 A 
ATOM     97  F   UNL A   1      44.230  25.216  30.750  1.00  0.00    -0.203 F 
ATOM     98  C   UNL A   1      44.237  24.747  33.043  1.00  0.00     0.198 A 
ATOM     99  C   UNL A   1      44.653  26.491  34.632  1.00  0.00     0.198 A 
ATOM    100  F   UNL A   1      44.932  28.710  33.906  1.00  0.00    -0.203 F 
ATOM    101  F   UNL A   1      44.023  23.451  32.772  1.00  0.00    -0.200 F 
ATOM    102  C   UNL A   1      44.415  25.156  34.354  1.00  0.00     0.200 A 
ATOM    103  F   UNL A   1      44.874  26.885  35.893  1.00  0.00    -0.200 F 
ATOM    104  F   UNL A   1      44.381  24.258  35.350  1.00  0.00    -0.200 F 
ENDBRANCH  71  94
ENDBRANCH  45  46
ENDBRANCH  38  40
ENDBRANCH  37  38
ENDBRANCH  36  37
ENDBRANCH  35  36
ENDBRANCH  34  35
ENDBRANCH   1  34
TORSDOF 18
ENDMDL
MODEL 2
REMARK VINA RESULT:     -13.2      1.680      2.341
REMARK SMILES Cc1c(C(=O)OCCOCCOC(=O)c2ccc(-c3c4nc(c(-c5c(F)c(F)c(F)c(F)c5F)c5ccc([nH]5)c(-c5c(F)c(F)c(F)c(F)c5F)c5nc(c(-c6c(F)c(F)c(F)c(F)c6F)c6ccc3[nH]6)C=C5)C=C4)cc2)oc2c1/C(=N/NC(=O)C(c1ccccc1)c1ccccc1)CCC2
REMARK SMILES IDX 8 1 7 2 6 3 4 4 5 5 3 6 1 7 2 8 80 9 78 10 79 11 81 12
REMARK SMILES IDX 101 13 82 14 99 15 100 16 83 17 84 18 85 20 86 21 87 22
REMARK SMILES IDX 88 23 92 24 89 25 91 26 90 27 93 28 94 29 98 30 95 31 97 32
REMARK SMILES IDX 96 33 9 34 10 35 11 36 12 37 13 38 14 39 15 40 16 41 77 42
REMARK SMILES IDX 17 43 76 44 18 45 19 46 20 47 70 48 21 49 75 50 69 51 71 52
REMARK SMILES IDX 22 53 74 54 68 55 67 56 23 58 55 59 35 60 54 61 36 62 39 63
REMARK SMILES IDX 53 64 72 65 37 66 38 67 52 69 73 70 40 71 24 72 25 73 33 74
REMARK SMILES IDX 26 75 27 76 31 77 34 78 28 79 29 80 32 81 30 82 56 83 57 84
REMARK SMILES IDX 65 85 58 86 59 87 63 88 66 89 60 90 61 91 64 92 62 93 41 94
REMARK SMILES IDX 42 95 50 96 43 97 44 98 48 99 51 100 45 101 46 102 49 103
REMARK SMILES IDX 47 104
REMARK H PARENT 83 19 71 57 39 68
REMARK Flexibility Score: inf
ROOT
ATOM      1  C   UNL A   1      40.672  21.189  26.068  1.00  0.00     0.202 C 
ENDROOT
BRANCH   1   2
ATOM      2  C   UNL A   1      39.242  21.574  26.454  1.00  0.00     0.261 C 
BRANCH   2   3
ATOM      3  O   UNL A   1      38.462  21.827  25.290  1.00  0.00    -0.457 OA
BRANCH   3   4
ATOM      4  C   UNL A   1      37.421  20.966  25.086  1.00  0.00     0.374 C 
ATOM      5  O   UNL A   1      37.496  19.763  25.014  1.00  0.00    -0.242 OA
BRANCH   4   6
ATOM      6  C   UNL A   1      36.208  21.743  25.139  1.00  0.00     0.215 A 
ATOM      7  C   UNL A   1      36.317  23.292  23.059  1.00  0.00     0.049 C 
ATOM      8  C   UNL A   1      35.731  22.756  24.315  1.00  0.00     0.012 A 
ATOM      9  C   UNL A   1      34.579  23.240  24.988  1.00  0.00     0.043 A 
ATOM     10  O   UNL A   1      35.305  21.455  26.125  1.00  0.00    -0.453 OA
ATOM     11  C   UNL A   1      34.330  22.369  26.024  1.00  0.00     0.114 A 
ATOM     12  C   UNL A   1      33.813  24.466  24.844  1.00  0.00     0.072 C 
ATOM     13  C   UNL A   1      33.299  22.416  27.079  1.00  0.00     0.076 C 
ATOM     14  N   UNL A   1      33.997  25.027  23.677  1.00  0.00    -0.177 NA
ATOM     15  C   UNL A   1      33.142  24.776  26.204  1.00  0.00     0.059 C 
ATOM     16  C   UNL A   1      32.365  23.586  26.789  1.00  0.00     0.014 C 
BRANCH  14  17
ATOM     17  N   UNL A   1      33.664  26.191  23.016  1.00  0.00    -0.246 N 
ATOM     18  C   UNL A   1      32.860  27.286  23.282  1.00  0.00     0.252 C 
ATOM     19  H   UNL A   1      34.108  26.260  22.140  1.00  0.00     0.193 HD
ATOM     20  O   UNL A   1      32.784  28.203  22.458  1.00  0.00    -0.272 OA
BRANCH  18  21
ATOM     21  C   UNL A   1      32.087  27.324  24.583  1.00  0.00     0.140 C 
BRANCH  21  22
ATOM     22  C   UNL A   1      32.838  28.400  25.519  1.00  0.00    -0.031 A 
ATOM     23  C   UNL A   1      32.242  29.654  25.876  1.00  0.00     0.005 A 
ATOM     24  C   UNL A   1      34.137  28.232  26.017  1.00  0.00     0.005 A 
ATOM     25  C   UNL A   1      32.774  30.565  26.793  1.00  0.00     0.000 A 
ATOM     26  C   UNL A   1      34.721  29.198  26.883  1.00  0.00     0.000 A 
ATOM     27  C   UNL A   1      34.028  30.334  27.305  1.00  0.00     0.000 A 
ENDBRANCH  21  22
BRANCH  21  28
ATOM     28  C   UNL A   1      30.531  27.254  24.180  1.00  0.00    -0.031 A 
ATOM     29  C   UNL A   1      29.690  26.176  24.486  1.00  0.00     0.005 A 
ATOM     30  C   UNL A   1      29.892  28.282  23.412  1.00  0.00     0.005 A 
ATOM     31  C   UNL A   1      28.309  26.199  24.143  1.00  0.00     0.000 A 
ATOM     32  C   UNL A   1      28.518  28.356  23.155  1.00  0.00     0.000 A 
ATOM     33  C   UNL A   1      27.716  27.305  23.527  1.00  0.00     0.000 A 
ENDBRANCH  21  28
ENDBRANCH  18  21
ENDBRANCH  14  17
ENDBRANCH   4   6
ENDBRANCH   3   4
ENDBRANCH   2   3
ENDBRANCH   1   2
BRANCH   1  34
ATOM     34  O   UNL A   1      41.020  19.808  26.180  1.00  0.00    -0.374 OA
BRANCH  34  35
ATOM     35  C   UNL A   1      42.303  19.444  26.683  1.00  0.00     0.202 C 
BRANCH  35  36
ATOM     36  C   UNL A   1      43.269  18.738  25.749  1.00  0.00     0.261 C 
BRANCH  36  37
ATOM     37  O   UNL A   1      43.468  19.464  24.544  1.00  0.00    -0.460 OA
BRANCH  37  38
ATOM     38  C   UNL A   1      44.746  19.850  24.340  1.00  0.00     0.338 C 
ATOM     39  O   UNL A   1      45.703  19.137  24.089  1.00  0.00    -0.246 OA
BRANCH  38  40
ATOM     40  C   UNL A   1      44.853  21.271  24.683  1.00  0.00     0.060 A 
ATOM     41  C   UNL A   1      45.695  21.581  25.750  1.00  0.00     0.016 A 
ATOM     42  C   UNL A   1      43.941  22.203  24.159  1.00  0.00     0.016 A 
ATOM     43  C   UNL A   1      45.480  22.761  26.424  1.00  0.00     0.010 A 
ATOM     44  C   UNL A   1      43.723  23.378  24.838  1.00  0.00     0.010 A 
ATOM     45  C   UNL A   1      44.440  23.604  26.006  1.00  0.00    -0.014 A 
BRANCH  45  46
ATOM     46  C   UNL A   1      44.227  24.818  26.763  1.00  0.00     0.031 A 
ATOM     47  C   UNL A   1      45.309  25.800  26.545  1.00  0.00     0.074 A 
ATOM     48  C   UNL A   1      43.147  25.039  27.536  1.00  0.00     0.049 A 
ATOM     49  N   UNL A   1      46.223  26.143  27.388  1.00  0.00    -0.248 NA
ATOM     50  C   UNL A   1      45.520  26.306  25.181  1.00  0.00     0.031 C 
ATOM     51  C   UNL A   1      41.915  24.256  27.633  1.00  0.00     0.029 A 
ATOM     52  N   UNL A   1      42.911  26.087  28.371  1.00  0.00    -0.354 N 
ATOM     53  C   UNL A   1      47.018  27.065  26.720  1.00  0.00     0.074 A 
ATOM     54  C   UNL A   1      46.656  26.987  25.330  1.00  0.00     0.031 C 
ATOM     55  C   UNL A   1      40.982  24.972  28.305  1.00  0.00     0.029 A 
ATOM     56  C   UNL A   1      41.596  26.192  28.805  1.00  0.00     0.049 A 
ATOM     57  H   UNL A   1      43.613  26.720  28.643  1.00  0.00     0.167 HD
ATOM     58  C   UNL A   1      47.702  28.006  27.422  1.00  0.00     0.037 A 
ATOM     59  C   UNL A   1      41.059  27.239  29.481  1.00  0.00     0.037 A 
ATOM     60  C   UNL A   1      47.855  27.610  28.801  1.00  0.00     0.049 A 
ATOM     61  C   UNL A   1      42.184  27.980  30.108  1.00  0.00     0.074 A 
ATOM     62  C   UNL A   1      48.476  26.563  29.453  1.00  0.00     0.029 A 
ATOM     63  N   UNL A   1      46.984  28.155  29.710  1.00  0.00    -0.354 N 
ATOM     64  N   UNL A   1      42.906  27.507  31.085  1.00  0.00    -0.248 NA
ATOM     65  C   UNL A   1      42.790  29.064  29.351  1.00  0.00     0.031 C 
ATOM     66  C   UNL A   1      47.629  26.255  30.560  1.00  0.00     0.029 A 
ATOM     67  C   UNL A   1      46.571  27.165  30.560  1.00  0.00     0.049 A 
ATOM     68  H   UNL A   1      46.704  29.098  29.745  1.00  0.00     0.167 HD
ATOM     69  C   UNL A   1      44.200  27.902  30.784  1.00  0.00     0.074 A 
ATOM     70  C   UNL A   1      44.053  28.941  29.768  1.00  0.00     0.031 C 
ATOM     71  C   UNL A   1      45.266  27.145  31.179  1.00  0.00     0.037 A 
BRANCH  58  72
ATOM     72  C   UNL A   1      47.814  29.447  26.980  1.00  0.00     0.064 A 
ATOM     73  C   UNL A   1      49.052  30.103  27.132  1.00  0.00     0.173 A 
ATOM     74  C   UNL A   1      46.706  30.289  26.735  1.00  0.00     0.173 A 
ATOM     75  F   UNL A   1      50.168  29.404  27.382  1.00  0.00    -0.203 F 
ATOM     76  C   UNL A   1      49.150  31.497  27.140  1.00  0.00     0.198 A 
ATOM     77  C   UNL A   1      46.818  31.676  26.690  1.00  0.00     0.198 A 
ATOM     78  F   UNL A   1      45.454  29.827  26.645  1.00  0.00    -0.203 F 
ATOM     79  F   UNL A   1      50.321  32.077  27.431  1.00  0.00    -0.200 F 
ATOM     80  C   UNL A   1      48.031  32.282  26.929  1.00  0.00     0.200 A 
ATOM     81  F   UNL A   1      45.717  32.418  26.505  1.00  0.00    -0.200 F 
ATOM     82  F   UNL A   1      48.109  33.615  27.008  1.00  0.00    -0.200 F 
ENDBRANCH  58  72
BRANCH  59  83
ATOM     83  C   UNL A   1      39.709  27.837  29.351  1.00  0.00     0.064 A 
ATOM     84  C   UNL A   1      38.872  27.986  30.472  1.00  0.00     0.173 A 
ATOM     85  C   UNL A   1      39.336  28.548  28.195  1.00  0.00     0.173 A 
ATOM     86  F   UNL A   1      39.180  27.381  31.629  1.00  0.00    -0.203 F 
ATOM     87  C   UNL A   1      37.751  28.823  30.446  1.00  0.00     0.198 A 
ATOM     88  C   UNL A   1      38.214  29.381  28.169  1.00  0.00     0.198 A 
ATOM     89  F   UNL A   1      40.108  28.533  27.100  1.00  0.00    -0.203 F 
ATOM     90  F   UNL A   1      37.019  28.995  31.556  1.00  0.00    -0.200 F 
ATOM     91  C   UNL A   1      37.431  29.529  29.299  1.00  0.00     0.200 A 
ATOM     92  F   UNL A   1      37.940  30.090  27.066  1.00  0.00    -0.200 F 
ATOM     93  F   UNL A   1      36.399  30.384  29.294  1.00  0.00    -0.200 F 
ENDBRANCH  59  83
BRANCH  71  94
ATOM     94  C   UNL A   1      45.006  26.069  32.197  1.00  0.00     0.064 A 
ATOM     95  C   UNL A   1      44.539  24.778  31.891  1.00  0.00     0.173 A 
ATOM     96  C   UNL A   1      45.350  26.327  33.531  1.00  0.00     0.173 A 
ATOM     97  F   UNL A   1      44.280  24.419  30.626  1.00  0.00    -0.203 F 
ATOM     98  C   UNL A   1      44.376  23.813  32.884  1.00  0.00     0.198 A 
ATOM     99  C   UNL A   1      45.224  25.350  34.513  1.00  0.00     0.198 A 
ATOM    100  F   UNL A   1      45.850  27.524  33.875  1.00  0.00    -0.203 F 
ATOM    101  F   UNL A   1      43.907  22.595  32.570  1.00  0.00    -0.200 F 
ATOM    102  C   UNL A   1      44.726  24.099  34.193  1.00  0.00     0.200 A 
ATOM    103  F   UNL A   1      45.610  25.618  35.769  1.00  0.00    -0.200 F 
ATOM    104  F   UNL A   1      44.603  23.161  35.143  1.00  0.00    -0.200 F 
ENDBRANCH  71  94
ENDBRANCH  45  46
ENDBRANCH  38  40
ENDBRANCH  37  38
ENDBRANCH  36  37
ENDBRANCH  35  36
ENDBRANCH  34  35
ENDBRANCH   1  34
TORSDOF 18
ENDMDL
MODEL 3
REMARK VINA RESULT:     -12.9      4.330      9.905
REMARK SMILES Cc1c(C(=O)OCCOCCOC(=O)c2ccc(-c3c4nc(c(-c5c(F)c(F)c(F)c(F)c5F)c5ccc([nH]5)c(-c5c(F)c(F)c(F)c(F)c5F)c5nc(c(-c6c(F)c(F)c(F)c(F)c6F)c6ccc3[nH]6)C=C5)C=C4)cc2)oc2c1/C(=N/NC(=O)C(c1ccccc1)c1ccccc1)CCC2
REMARK SMILES IDX 8 1 7 2 6 3 4 4 5 5 3 6 1 7 2 8 80 9 78 10 79 11 81 12
REMARK SMILES IDX 101 13 82 14 99 15 100 16 83 17 84 18 85 20 86 21 87 22
REMARK SMILES IDX 88 23 92 24 89 25 91 26 90 27 93 28 94 29 98 30 95 31 97 32
REMARK SMILES IDX 96 33 9 34 10 35 11 36 12 37 13 38 14 39 15 40 16 41 77 42
REMARK SMILES IDX 17 43 76 44 18 45 19 46 20 47 70 48 21 49 75 50 69 51 71 52
REMARK SMILES IDX 22 53 74 54 68 55 67 56 23 58 55 59 35 60 54 61 36 62 39 63
REMARK SMILES IDX 53 64 72 65 37 66 38 67 52 69 73 70 40 71 24 72 25 73 33 74
REMARK SMILES IDX 26 75 27 76 31 77 34 78 28 79 29 80 32 81 30 82 56 83 57 84
REMARK SMILES IDX 65 85 58 86 59 87 63 88 66 89 60 90 61 91 64 92 62 93 41 94
REMARK SMILES IDX 42 95 50 96 43 97 44 98 48 99 51 100 45 101 46 102 49 103
REMARK SMILES IDX 47 104
REMARK H PARENT 83 19 71 57 39 68
REMARK Flexibility Score: inf
ROOT
ATOM      1  C   UNL A   1      34.967  33.516  28.019  1.00  0.00     0.202 C 
ENDROOT
BRANCH   1   2
ATOM      2  C   UNL A   1      34.090  32.360  28.504  1.00  0.00     0.261 C 
BRANCH   2   3
ATOM      3  O   UNL A   1      33.564  31.634  27.397  1.00  0.00    -0.457 OA
BRANCH   3   4
ATOM      4  C   UNL A   1      33.998  30.344  27.286  1.00  0.00     0.374 C 
ATOM      5  O   UNL A   1      34.796  29.796  28.009  1.00  0.00    -0.242 OA
BRANCH   4   6
ATOM      6  C   UNL A   1      33.210  29.716  26.255  1.00  0.00     0.215 A 
ATOM      7  C   UNL A   1      34.508  27.553  25.646  1.00  0.00     0.049 C 
ATOM      8  C   UNL A   1      33.417  28.555  25.520  1.00  0.00     0.012 A 
ATOM      9  C   UNL A   1      32.388  28.570  24.545  1.00  0.00     0.043 A 
ATOM     10  O   UNL A   1      32.015  30.293  25.922  1.00  0.00    -0.453 OA
ATOM     11  C   UNL A   1      31.533  29.593  24.886  1.00  0.00     0.114 A 
ATOM     12  C   UNL A   1      32.218  27.841  23.298  1.00  0.00     0.072 C 
ATOM     13  C   UNL A   1      30.330  30.099  24.195  1.00  0.00     0.076 C 
ATOM     14  N   UNL A   1      32.939  26.751  23.265  1.00  0.00    -0.177 NA
ATOM     15  C   UNL A   1      31.341  28.699  22.355  1.00  0.00     0.059 C 
ATOM     16  C   UNL A   1      30.037  29.187  23.008  1.00  0.00     0.014 C 
BRANCH  14  17
ATOM     17  N   UNL A   1      33.281  25.754  22.374  1.00  0.00    -0.246 N 
ATOM     18  C   UNL A   1      33.337  24.372  22.408  1.00  0.00     0.252 C 
ATOM     19  H   UNL A   1      33.550  26.115  21.499  1.00  0.00     0.193 HD
ATOM     20  O   UNL A   1      33.683  23.749  21.399  1.00  0.00    -0.272 OA
BRANCH  18  21
ATOM     21  C   UNL A   1      32.975  23.658  23.694  1.00  0.00     0.140 C 
BRANCH  21  22
ATOM     22  C   UNL A   1      34.371  23.267  24.398  1.00  0.00    -0.031 A 
ATOM     23  C   UNL A   1      34.828  21.912  24.492  1.00  0.00     0.005 A 
ATOM     24  C   UNL A   1      35.223  24.193  25.013  1.00  0.00     0.005 A 
ATOM     25  C   UNL A   1      36.086  21.519  24.959  1.00  0.00     0.000 A 
ATOM     26  C   UNL A   1      36.468  23.788  25.570  1.00  0.00     0.000 A 
ATOM     27  C   UNL A   1      36.918  22.468  25.502  1.00  0.00     0.000 A 
ENDBRANCH  21  22
BRANCH  21  28
ATOM     28  C   UNL A   1      31.725  24.461  24.313  1.00  0.00    -0.031 A 
ATOM     29  C   UNL A   1      31.685  24.959  25.622  1.00  0.00     0.005 A 
ATOM     30  C   UNL A   1      30.514  24.677  23.577  1.00  0.00     0.005 A 
ATOM     31  C   UNL A   1      30.567  25.704  26.091  1.00  0.00     0.000 A 
ATOM     32  C   UNL A   1      29.453  25.488  23.998  1.00  0.00     0.000 A 
ATOM     33  C   UNL A   1      29.481  26.010  25.268  1.00  0.00     0.000 A 
ENDBRANCH  21  28
ENDBRANCH  18  21
ENDBRANCH  14  17
ENDBRANCH   4   6
ENDBRANCH   3   4
ENDBRANCH   2   3
ENDBRANCH   1   2
BRANCH   1  34
ATOM     34  O   UNL A   1      34.617  34.825  28.470  1.00  0.00    -0.374 OA
BRANCH  34  35
ATOM     35  C   UNL A   1      33.280  35.094  28.879  1.00  0.00     0.202 C 
BRANCH  35  36
ATOM     36  C   UNL A   1      33.061  35.819  30.196  1.00  0.00     0.261 C 
BRANCH  36  37
ATOM     37  O   UNL A   1      32.972  34.916  31.290  1.00  0.00    -0.460 OA
BRANCH  37  38
ATOM     38  C   UNL A   1      33.633  35.325  32.394  1.00  0.00     0.338 C 
ATOM     39  O   UNL A   1      33.504  36.384  32.983  1.00  0.00    -0.246 OA
BRANCH  38  40
ATOM     40  C   UNL A   1      34.708  34.365  32.663  1.00  0.00     0.060 A 
ATOM     41  C   UNL A   1      35.971  34.909  32.894  1.00  0.00     0.016 A 
ATOM     42  C   UNL A   1      34.522  32.996  32.409  1.00  0.00     0.016 A 
ATOM     43  C   UNL A   1      37.070  34.113  32.670  1.00  0.00     0.010 A 
ATOM     44  C   UNL A   1      35.623  32.204  32.178  1.00  0.00     0.010 A 
ATOM     45  C   UNL A   1      36.879  32.794  32.234  1.00  0.00    -0.014 A 
BRANCH  45  46
ATOM     46  C   UNL A   1      38.062  32.003  31.977  1.00  0.00     0.031 A 
ATOM     47  C   UNL A   1      38.842  31.762  33.209  1.00  0.00     0.074 A 
ATOM     48  C   UNL A   1      38.386  31.510  30.768  1.00  0.00     0.049 A 
ATOM     49  N   UNL A   1      39.981  32.282  33.517  1.00  0.00    -0.248 NA
ATOM     50  C   UNL A   1      38.194  31.025  34.304  1.00  0.00     0.031 C 
ATOM     51  C   UNL A   1      37.579  31.476  29.547  1.00  0.00     0.029 A 
ATOM     52  N   UNL A   1      39.524  30.860  30.401  1.00  0.00    -0.354 N 
ATOM     53  C   UNL A   1      40.293  31.777  34.773  1.00  0.00     0.074 A 
ATOM     54  C   UNL A   1      39.092  31.168  35.279  1.00  0.00     0.031 C 
ATOM     55  C   UNL A   1      38.164  30.648  28.648  1.00  0.00     0.029 A 
ATOM     56  C   UNL A   1      39.448  30.214  29.174  1.00  0.00     0.049 A 
ATOM     57  H   UNL A   1      40.334  30.848  30.960  1.00  0.00     0.167 HD
ATOM     58  C   UNL A   1      41.591  31.665  35.157  1.00  0.00     0.037 A 
ATOM     59  C   UNL A   1      40.363  29.348  28.670  1.00  0.00     0.037 A 
ATOM     60  C   UNL A   1      42.439  32.520  34.363  1.00  0.00     0.049 A 
ATOM     61  C   UNL A   1      41.644  29.602  29.376  1.00  0.00     0.074 A 
ATOM     62  C   UNL A   1      42.538  33.883  34.162  1.00  0.00     0.029 A 
ATOM     63  N   UNL A   1      43.122  31.938  33.325  1.00  0.00    -0.354 N 
ATOM     64  N   UNL A   1      42.349  30.689  29.228  1.00  0.00    -0.248 NA
ATOM     65  C   UNL A   1      41.917  28.842  30.586  1.00  0.00     0.031 C 
ATOM     66  C   UNL A   1      42.886  34.036  32.787  1.00  0.00     0.029 A 
ATOM     67  C   UNL A   1      43.040  32.763  32.236  1.00  0.00     0.049 A 
ATOM     68  H   UNL A   1      43.592  31.074  33.359  1.00  0.00     0.167 HD
ATOM     69  C   UNL A   1      42.803  30.986  30.504  1.00  0.00     0.074 A 
ATOM     70  C   UNL A   1      42.595  29.763  31.275  1.00  0.00     0.031 C 
ATOM     71  C   UNL A   1      43.032  32.280  30.874  1.00  0.00     0.037 A 
BRANCH  58  72
ATOM     72  C   UNL A   1      42.130  30.469  35.907  1.00  0.00     0.064 A 
ATOM     73  C   UNL A   1      43.066  30.686  36.937  1.00  0.00     0.173 A 
ATOM     74  C   UNL A   1      42.028  29.135  35.451  1.00  0.00     0.173 A 
ATOM     75  F   UNL A   1      43.257  31.916  37.437  1.00  0.00    -0.203 F 
ATOM     76  C   UNL A   1      43.904  29.667  37.398  1.00  0.00     0.198 A 
ATOM     77  C   UNL A   1      42.827  28.112  35.951  1.00  0.00     0.198 A 
ATOM     78  F   UNL A   1      41.242  28.780  34.428  1.00  0.00    -0.203 F 
ATOM     79  F   UNL A   1      44.875  29.954  38.275  1.00  0.00    -0.200 F 
ATOM     80  C   UNL A   1      43.790  28.383  36.897  1.00  0.00     0.200 A 
ATOM     81  F   UNL A   1      42.715  26.879  35.436  1.00  0.00    -0.200 F 
ATOM     82  F   UNL A   1      44.639  27.424  37.284  1.00  0.00    -0.200 F 
ENDBRANCH  58  72
BRANCH  59  83
ATOM     83  C   UNL A   1      40.139  28.112  27.883  1.00  0.00     0.064 A 
ATOM     84  C   UNL A   1      40.859  27.867  26.699  1.00  0.00     0.173 A 
ATOM     85  C   UNL A   1      39.448  27.015  28.431  1.00  0.00     0.173 A 
ATOM     86  F   UNL A   1      41.584  28.844  26.136  1.00  0.00    -0.203 F 
ATOM     87  C   UNL A   1      40.911  26.593  26.121  1.00  0.00     0.198 A 
ATOM     88  C   UNL A   1      39.497  25.746  27.850  1.00  0.00     0.198 A 
ATOM     89  F   UNL A   1      38.796  27.126  29.596  1.00  0.00    -0.203 F 
ATOM     90  F   UNL A   1      41.666  26.383  25.033  1.00  0.00    -0.200 F 
ATOM     91  C   UNL A   1      40.241  25.532  26.704  1.00  0.00     0.200 A 
ATOM     92  F   UNL A   1      38.878  24.718  28.448  1.00  0.00    -0.200 F 
ATOM     93  F   UNL A   1      40.346  24.298  26.191  1.00  0.00    -0.200 F 
ENDBRANCH  59  83
BRANCH  71  94
ATOM     94  C   UNL A   1      43.079  33.312  29.781  1.00  0.00     0.064 A 
ATOM     95  C   UNL A   1      41.990  34.116  29.398  1.00  0.00     0.173 A 
ATOM     96  C   UNL A   1      44.313  33.569  29.170  1.00  0.00     0.173 A 
ATOM     97  F   UNL A   1      40.799  34.001  30.002  1.00  0.00    -0.203 F 
ATOM     98  C   UNL A   1      42.124  35.093  28.412  1.00  0.00     0.198 A 
ATOM     99  C   UNL A   1      44.454  34.572  28.215  1.00  0.00     0.198 A 
ATOM    100  F   UNL A   1      45.400  32.869  29.532  1.00  0.00    -0.203 F 
ATOM    101  F   UNL A   1      41.066  35.832  28.047  1.00  0.00    -0.200 F 
ATOM    102  C   UNL A   1      43.359  35.324  27.827  1.00  0.00     0.200 A 
ATOM    103  F   UNL A   1      45.661  34.822  27.688  1.00  0.00    -0.200 F 
ATOM    104  F   UNL A   1      43.497  36.286  26.904  1.00  0.00    -0.200 F 
ENDBRANCH  71  94
ENDBRANCH  45  46
ENDBRANCH  38  40
ENDBRANCH  37  38
ENDBRANCH  36  37
ENDBRANCH  35  36
ENDBRANCH  34  35
ENDBRANCH   1  34
TORSDOF 18
ENDMDL
