MODEL 1
REMARK VINA RESULT:      -9.8      0.000      0.000
REMARK SMILES O=C(CCCCc1nc(-c2ccccc2)no1)OCCOCCOC(=O)c1ccc(-c2c3nc(c(-c4c(F)c(F)c(F)c(F)c4F)c4ccc([nH]4)c(-c4c(F)c(F)c(F)c(F)c4F)c4nc(c(-c5c(F)c(F)c(F)c(F)c5F)c5ccc2[nH]5)C=C4)C=C3)cc1
REMARK SMILES IDX 19 1 18 2 2 3 1 4 3 5 4 6 5 7 6 8 7 9 8 10 17 11 9 12 16 13
REMARK SMILES IDX 10 14 11 15 15 16 12 17 14 18 13 19 20 20 21 21 22 22 23 23
REMARK SMILES IDX 24 24 25 25 26 26 27 27 28 28 89 29 29 30 88 31 30 32 31 33
REMARK SMILES IDX 32 34 82 35 33 36 87 37 81 38 83 39 34 40 86 41 80 42 79 43
REMARK SMILES IDX 35 45 67 46 47 47 66 48 48 49 51 50 65 51 84 52 49 53 50 54
REMARK SMILES IDX 64 56 85 57 52 58 36 59 37 60 45 61 38 62 39 63 43 64 46 65
REMARK SMILES IDX 40 66 41 67 44 68 42 69 68 70 69 71 77 72 70 73 71 74 75 75
REMARK SMILES IDX 78 76 72 77 73 78 76 79 74 80 53 81 54 82 62 83 55 84 56 85
REMARK SMILES IDX 60 86 63 87 57 88 58 89 61 90 59 91
REMARK H PARENT 83 44 51 55
REMARK Flexibility Score: inf
ROOT
ATOM      1  C   UNL A   1      43.219  18.950  25.378  1.00  0.00     0.261 C 
ENDROOT
BRANCH   1   2
ATOM      2  O   UNL A   1      44.407  18.350  24.852  1.00  0.00    -0.463 OA
BRANCH   2   3
ATOM      3  C   UNL A   1      45.424  18.982  24.231  1.00  0.00     0.305 C 
ATOM      4  O   UNL A   1      45.596  18.777  23.029  1.00  0.00    -0.252 OA
BRANCH   3   5
ATOM      5  C   UNL A   1      46.367  19.901  24.982  1.00  0.00     0.123 C 
BRANCH   5   6
ATOM      6  C   UNL A   1      45.847  21.286  25.355  1.00  0.00     0.012 C 
BRANCH   6   7
ATOM      7  C   UNL A   1      46.008  22.406  24.314  1.00  0.00     0.010 C 
BRANCH   7   8
ATOM      8  C   UNL A   1      46.593  23.737  24.820  1.00  0.00     0.100 C 
BRANCH   8   9
ATOM      9  C   UNL A   1      45.555  24.765  24.998  1.00  0.00     0.226 A 
ATOM     10  N   UNL A   1      45.690  25.975  25.475  1.00  0.00    -0.191 NA
ATOM     11  O   UNL A   1      44.271  24.433  24.692  1.00  0.00    -0.339 OA
ATOM     12  C   UNL A   1      44.387  26.399  25.550  1.00  0.00     0.202 A 
ATOM     13  N   UNL A   1      43.488  25.524  25.073  1.00  0.00    -0.057 NA
BRANCH  12  14
ATOM     14  C   UNL A   1      44.063  27.635  26.231  1.00  0.00     0.023 A 
ATOM     15  C   UNL A   1      44.995  28.241  27.082  1.00  0.00     0.012 A 
ATOM     16  C   UNL A   1      42.859  28.291  25.941  1.00  0.00     0.012 A 
ATOM     17  C   UNL A   1      44.735  29.504  27.613  1.00  0.00     0.001 A 
ATOM     18  C   UNL A   1      42.595  29.546  26.485  1.00  0.00     0.001 A 
ATOM     19  C   UNL A   1      43.539  30.155  27.313  1.00  0.00     0.000 A 
ENDBRANCH  12  14
ENDBRANCH   8   9
ENDBRANCH   7   8
ENDBRANCH   6   7
ENDBRANCH   5   6
ENDBRANCH   3   5
ENDBRANCH   2   3
ENDBRANCH   1   2
BRANCH   1  20
ATOM     20  C   UNL A   1      42.814  18.393  26.731  1.00  0.00     0.202 C 
BRANCH  20  21
ATOM     21  O   UNL A   1      41.869  19.208  27.418  1.00  0.00    -0.374 OA
BRANCH  21  22
ATOM     22  C   UNL A   1      41.022  19.968  26.550  1.00  0.00     0.202 C 
BRANCH  22  23
ATOM     23  C   UNL A   1      40.601  21.314  27.157  1.00  0.00     0.261 C 
BRANCH  23  24
ATOM     24  O   UNL A   1      40.349  22.285  26.127  1.00  0.00    -0.460 OA
BRANCH  24  25
ATOM     25  C   UNL A   1      39.179  22.969  26.248  1.00  0.00     0.338 C 
ATOM     26  O   UNL A   1      38.063  22.569  25.988  1.00  0.00    -0.246 OA
BRANCH  25  27
ATOM     27  C   UNL A   1      39.440  24.237  26.980  1.00  0.00     0.060 A 
ATOM     28  C   UNL A   1      40.122  25.258  26.299  1.00  0.00     0.016 A 
ATOM     29  C   UNL A   1      38.957  24.459  28.271  1.00  0.00     0.016 A 
ATOM     30  C   UNL A   1      40.326  26.498  26.906  1.00  0.00     0.010 A 
ATOM     31  C   UNL A   1      39.177  25.693  28.886  1.00  0.00     0.010 A 
ATOM     32  C   UNL A   1      39.877  26.710  28.214  1.00  0.00    -0.014 A 
BRANCH  32  33
ATOM     33  C   UNL A   1      40.292  27.915  28.971  1.00  0.00     0.031 A 
ATOM     34  C   UNL A   1      41.628  27.887  29.655  1.00  0.00     0.074 A 
ATOM     35  C   UNL A   1      39.483  28.983  29.094  1.00  0.00     0.049 A 
ATOM     36  N   UNL A   1      42.145  28.732  30.507  1.00  0.00    -0.248 NA
ATOM     37  C   UNL A   1      42.492  26.736  29.345  1.00  0.00     0.031 C 
ATOM     38  C   UNL A   1      38.184  29.141  28.446  1.00  0.00     0.029 A 
ATOM     39  N   UNL A   1      39.630  30.127  29.840  1.00  0.00    -0.354 N 
ATOM     40  C   UNL A   1      43.381  28.204  30.853  1.00  0.00     0.074 A 
ATOM     41  C   UNL A   1      43.535  26.962  30.129  1.00  0.00     0.031 C 
ATOM     42  C   UNL A   1      37.634  30.301  28.851  1.00  0.00     0.029 A 
ATOM     43  C   UNL A   1      38.525  30.942  29.819  1.00  0.00     0.049 A 
ATOM     44  H   UNL A   1      40.450  30.342  30.342  1.00  0.00     0.167 HD
ATOM     45  C   UNL A   1      44.302  28.711  31.702  1.00  0.00     0.037 A 
ATOM     46  C   UNL A   1      38.250  32.050  30.536  1.00  0.00     0.037 A 
ATOM     47  C   UNL A   1      44.148  29.954  32.409  1.00  0.00     0.049 A 
ATOM     48  C   UNL A   1      39.267  32.558  31.529  1.00  0.00     0.074 A 
ATOM     49  C   UNL A   1      45.049  30.584  33.248  1.00  0.00     0.029 A 
ATOM     50  N   UNL A   1      43.012  30.746  32.368  1.00  0.00    -0.354 N 
ATOM     51  N   UNL A   1      40.454  32.082  31.817  1.00  0.00    -0.248 NA
ATOM     52  C   UNL A   1      38.902  33.754  32.305  1.00  0.00     0.031 C 
ATOM     53  C   UNL A   1      44.434  31.727  33.765  1.00  0.00     0.029 A 
ATOM     54  C   UNL A   1      43.172  31.839  33.203  1.00  0.00     0.049 A 
ATOM     55  H   UNL A   1      42.211  30.560  31.827  1.00  0.00     0.167 HD
ATOM     56  C   UNL A   1      40.984  32.929  32.785  1.00  0.00     0.074 A 
ATOM     57  C   UNL A   1      39.997  33.959  33.024  1.00  0.00     0.031 C 
ATOM     58  C   UNL A   1      42.180  32.860  33.419  1.00  0.00     0.037 A 
BRANCH  45  59
ATOM     59  C   UNL A   1      45.543  27.908  31.947  1.00  0.00     0.064 A 
ATOM     60  C   UNL A   1      45.586  26.884  32.903  1.00  0.00     0.173 A 
ATOM     61  C   UNL A   1      46.691  28.136  31.174  1.00  0.00     0.173 A 
ATOM     62  F   UNL A   1      44.520  26.639  33.680  1.00  0.00    -0.203 F 
ATOM     63  C   UNL A   1      46.741  26.127  33.087  1.00  0.00     0.198 A 
ATOM     64  C   UNL A   1      47.834  27.360  31.341  1.00  0.00     0.198 A 
ATOM     65  F   UNL A   1      46.700  29.106  30.247  1.00  0.00    -0.203 F 
ATOM     66  F   UNL A   1      46.774  25.177  34.033  1.00  0.00    -0.200 F 
ATOM     67  C   UNL A   1      47.859  26.359  32.300  1.00  0.00     0.200 A 
ATOM     68  F   UNL A   1      48.909  27.579  30.572  1.00  0.00    -0.200 F 
ATOM     69  F   UNL A   1      48.964  25.620  32.468  1.00  0.00    -0.200 F 
ENDBRANCH  45  59
BRANCH  46  70
ATOM     70  C   UNL A   1      36.936  32.736  30.389  1.00  0.00     0.064 A 
ATOM     71  C   UNL A   1      35.900  32.527  31.311  1.00  0.00     0.173 A 
ATOM     72  C   UNL A   1      36.673  33.575  29.295  1.00  0.00     0.173 A 
ATOM     73  F   UNL A   1      36.092  31.711  32.357  1.00  0.00    -0.203 F 
ATOM     74  C   UNL A   1      34.647  33.109  31.132  1.00  0.00     0.198 A 
ATOM     75  C   UNL A   1      35.429  34.181  29.133  1.00  0.00     0.198 A 
ATOM     76  F   UNL A   1      37.625  33.804  28.379  1.00  0.00    -0.203 F 
ATOM     77  F   UNL A   1      33.658  32.845  31.996  1.00  0.00    -0.200 F 
ATOM     78  C   UNL A   1      34.413  33.940  30.046  1.00  0.00     0.200 A 
ATOM     79  F   UNL A   1      35.211  34.991  28.088  1.00  0.00    -0.200 F 
ATOM     80  F   UNL A   1      33.207  34.496  29.872  1.00  0.00    -0.200 F 
ENDBRANCH  46  70
BRANCH  58  81
ATOM     81  C   UNL A   1      42.505  33.936  34.415  1.00  0.00     0.064 A 
ATOM     82  C   UNL A   1      43.051  35.164  34.016  1.00  0.00     0.173 A 
ATOM     83  C   UNL A   1      42.195  33.764  35.772  1.00  0.00     0.173 A 
ATOM     84  F   UNL A   1      43.378  35.372  32.732  1.00  0.00    -0.203 F 
ATOM     85  C   UNL A   1      43.289  36.175  34.943  1.00  0.00     0.198 A 
ATOM     86  C   UNL A   1      42.406  34.788  36.691  1.00  0.00     0.198 A 
ATOM     87  F   UNL A   1      41.662  32.610  36.203  1.00  0.00    -0.203 F 
ATOM     88  F   UNL A   1      43.844  37.329  34.546  1.00  0.00    -0.200 F 
ATOM     89  C   UNL A   1      42.956  35.991  36.277  1.00  0.00     0.200 A 
ATOM     90  F   UNL A   1      42.067  34.613  37.976  1.00  0.00    -0.200 F 
ATOM     91  F   UNL A   1      43.169  36.972  37.165  1.00  0.00    -0.200 F 
ENDBRANCH  58  81
ENDBRANCH  32  33
ENDBRANCH  25  27
ENDBRANCH  24  25
ENDBRANCH  23  24
ENDBRANCH  22  23
ENDBRANCH  21  22
ENDBRANCH  20  21
ENDBRANCH   1  20
TORSDOF 19
ENDMDL
MODEL 2
REMARK VINA RESULT:      -9.7      5.716     11.549
REMARK SMILES O=C(CCCCc1nc(-c2ccccc2)no1)OCCOCCOC(=O)c1ccc(-c2c3nc(c(-c4c(F)c(F)c(F)c(F)c4F)c4ccc([nH]4)c(-c4c(F)c(F)c(F)c(F)c4F)c4nc(c(-c5c(F)c(F)c(F)c(F)c5F)c5ccc2[nH]5)C=C4)C=C3)cc1
REMARK SMILES IDX 19 1 18 2 2 3 1 4 3 5 4 6 5 7 6 8 7 9 8 10 17 11 9 12 16 13
REMARK SMILES IDX 10 14 11 15 15 16 12 17 14 18 13 19 20 20 21 21 22 22 23 23
REMARK SMILES IDX 24 24 25 25 26 26 27 27 28 28 89 29 29 30 88 31 30 32 31 33
REMARK SMILES IDX 32 34 82 35 33 36 87 37 81 38 83 39 34 40 86 41 80 42 79 43
REMARK SMILES IDX 35 45 67 46 47 47 66 48 48 49 51 50 65 51 84 52 49 53 50 54
REMARK SMILES IDX 64 56 85 57 52 58 36 59 37 60 45 61 38 62 39 63 43 64 46 65
REMARK SMILES IDX 40 66 41 67 44 68 42 69 68 70 69 71 77 72 70 73 71 74 75 75
REMARK SMILES IDX 78 76 72 77 73 78 76 79 74 80 53 81 54 82 62 83 55 84 56 85
REMARK SMILES IDX 60 86 63 87 57 88 58 89 61 90 59 91
REMARK H PARENT 83 44 51 55
REMARK Flexibility Score: inf
ROOT
ATOM      1  C   UNL A   1      34.835  33.304  28.622  1.00  0.00     0.261 C 
ENDROOT
BRANCH   1   2
ATOM      2  O   UNL A   1      34.244  32.006  28.511  1.00  0.00    -0.463 OA
BRANCH   2   3
ATOM      3  C   UNL A   1      34.631  31.010  27.688  1.00  0.00     0.305 C 
ATOM      4  O   UNL A   1      35.835  30.783  27.566  1.00  0.00    -0.252 OA
BRANCH   3   5
ATOM      5  C   UNL A   1      33.627  30.198  26.894  1.00  0.00     0.123 C 
BRANCH   5   6
ATOM      6  C   UNL A   1      33.695  28.679  27.022  1.00  0.00     0.012 C 
BRANCH   6   7
ATOM      7  C   UNL A   1      33.361  27.848  25.773  1.00  0.00     0.010 C 
BRANCH   7   8
ATOM      8  C   UNL A   1      31.997  27.135  25.764  1.00  0.00     0.100 C 
BRANCH   8   9
ATOM      9  C   UNL A   1      31.089  27.693  24.750  1.00  0.00     0.226 A 
ATOM     10  N   UNL A   1      31.071  28.905  24.259  1.00  0.00    -0.191 NA
ATOM     11  O   UNL A   1      30.092  26.893  24.280  1.00  0.00    -0.339 OA
ATOM     12  C   UNL A   1      29.933  28.886  23.492  1.00  0.00     0.202 A 
ATOM     13  N   UNL A   1      29.312  27.697  23.446  1.00  0.00    -0.057 NA
BRANCH  12  14
ATOM     14  C   UNL A   1      29.420  30.115  22.924  1.00  0.00     0.023 A 
ATOM     15  C   UNL A   1      29.136  30.198  21.556  1.00  0.00     0.012 A 
ATOM     16  C   UNL A   1      29.091  31.184  23.767  1.00  0.00     0.012 A 
ATOM     17  C   UNL A   1      28.502  31.329  21.044  1.00  0.00     0.001 A 
ATOM     18  C   UNL A   1      28.471  32.320  23.251  1.00  0.00     0.001 A 
ATOM     19  C   UNL A   1      28.168  32.386  21.890  1.00  0.00     0.000 A 
ENDBRANCH  12  14
ENDBRANCH   8   9
ENDBRANCH   7   8
ENDBRANCH   6   7
ENDBRANCH   5   6
ENDBRANCH   3   5
ENDBRANCH   2   3
ENDBRANCH   1   2
BRANCH   1  20
ATOM     20  C   UNL A   1      33.818  34.430  28.607  1.00  0.00     0.202 C 
BRANCH  20  21
ATOM     21  O   UNL A   1      34.387  35.703  28.315  1.00  0.00    -0.374 OA
BRANCH  21  22
ATOM     22  C   UNL A   1      33.597  36.807  28.770  1.00  0.00     0.202 C 
BRANCH  22  23
ATOM     23  C   UNL A   1      32.517  36.390  29.778  1.00  0.00     0.261 C 
BRANCH  23  24
ATOM     24  O   UNL A   1      32.771  36.969  31.070  1.00  0.00    -0.460 OA
BRANCH  24  25
ATOM     25  C   UNL A   1      32.488  36.166  32.131  1.00  0.00     0.338 C 
ATOM     26  O   UNL A   1      31.418  36.033  32.689  1.00  0.00    -0.246 OA
BRANCH  25  27
ATOM     27  C   UNL A   1      33.652  35.275  32.380  1.00  0.00     0.060 A 
ATOM     28  C   UNL A   1      33.399  33.998  32.904  1.00  0.00     0.016 A 
ATOM     29  C   UNL A   1      34.954  35.644  32.034  1.00  0.00     0.016 A 
ATOM     30  C   UNL A   1      34.443  33.088  33.085  1.00  0.00     0.010 A 
ATOM     31  C   UNL A   1      36.001  34.742  32.232  1.00  0.00     0.010 A 
ATOM     32  C   UNL A   1      35.753  33.468  32.775  1.00  0.00    -0.014 A 
BRANCH  32  33
ATOM     33  C   UNL A   1      36.902  32.627  33.185  1.00  0.00     0.031 A 
ATOM     34  C   UNL A   1      37.583  32.956  34.482  1.00  0.00     0.074 A 
ATOM     35  C   UNL A   1      37.364  31.635  32.403  1.00  0.00     0.049 A 
ATOM     36  N   UNL A   1      38.698  32.489  34.978  1.00  0.00    -0.248 NA
ATOM     37  C   UNL A   1      36.919  33.962  35.327  1.00  0.00     0.031 C 
ATOM     38  C   UNL A   1      36.764  31.199  31.144  1.00  0.00     0.029 A 
ATOM     39  N   UNL A   1      38.472  30.836  32.544  1.00  0.00    -0.354 N 
ATOM     40  C   UNL A   1      38.883  33.162  36.178  1.00  0.00     0.074 A 
ATOM     41  C   UNL A   1      37.773  34.076  36.333  1.00  0.00     0.031 C 
ATOM     42  C   UNL A   1      37.532  30.232  30.609  1.00  0.00     0.029 A 
ATOM     43  C   UNL A   1      38.698  30.016  31.466  1.00  0.00     0.049 A 
ATOM     44  H   UNL A   1      39.049  30.849  33.342  1.00  0.00     0.167 HD
ATOM     45  C   UNL A   1      39.891  33.030  37.068  1.00  0.00     0.037 A 
ATOM     46  C   UNL A   1      39.749  29.219  31.186  1.00  0.00     0.037 A 
ATOM     47  C   UNL A   1      40.985  32.110  36.914  1.00  0.00     0.049 A 
ATOM     48  C   UNL A   1      40.897  29.140  32.164  1.00  0.00     0.074 A 
ATOM     49  C   UNL A   1      42.027  31.857  37.788  1.00  0.00     0.029 A 
ATOM     50  N   UNL A   1      41.184  31.302  35.805  1.00  0.00    -0.354 N 
ATOM     51  N   UNL A   1      41.043  29.741  33.320  1.00  0.00    -0.248 NA
ATOM     52  C   UNL A   1      42.031  28.279  31.795  1.00  0.00     0.031 C 
ATOM     53  C   UNL A   1      42.891  30.943  37.181  1.00  0.00     0.029 A 
ATOM     54  C   UNL A   1      42.357  30.582  35.954  1.00  0.00     0.049 A 
ATOM     55  H   UNL A   1      40.582  31.248  35.029  1.00  0.00     0.167 HD
ATOM     56  C   UNL A   1      42.267  29.315  33.824  1.00  0.00     0.074 A 
ATOM     57  C   UNL A   1      42.818  28.391  32.855  1.00  0.00     0.031 C 
ATOM     58  C   UNL A   1      42.882  29.658  34.982  1.00  0.00     0.037 A 
BRANCH  45  59
ATOM     59  C   UNL A   1      39.884  33.924  38.271  1.00  0.00     0.064 A 
ATOM     60  C   UNL A   1      40.556  35.153  38.284  1.00  0.00     0.173 A 
ATOM     61  C   UNL A   1      39.148  33.563  39.409  1.00  0.00     0.173 A 
ATOM     62  F   UNL A   1      41.288  35.535  37.226  1.00  0.00    -0.203 F 
ATOM     63  C   UNL A   1      40.505  35.984  39.400  1.00  0.00     0.198 A 
ATOM     64  C   UNL A   1      39.075  34.408  40.513  1.00  0.00     0.198 A 
ATOM     65  F   UNL A   1      38.488  32.395  39.446  1.00  0.00    -0.203 F 
ATOM     66  F   UNL A   1      41.185  37.139  39.407  1.00  0.00    -0.200 F 
ATOM     67  C   UNL A   1      39.757  35.615  40.509  1.00  0.00     0.200 A 
ATOM     68  F   UNL A   1      38.344  34.054  41.579  1.00  0.00    -0.200 F 
ATOM     69  F   UNL A   1      39.696  36.422  41.577  1.00  0.00    -0.200 F 
ENDBRANCH  45  59
BRANCH  46  70
ATOM     70  C   UNL A   1      39.804  28.466  29.903  1.00  0.00     0.064 A 
ATOM     71  C   UNL A   1      39.268  27.175  29.793  1.00  0.00     0.173 A 
ATOM     72  C   UNL A   1      40.438  29.003  28.772  1.00  0.00     0.173 A 
ATOM     73  F   UNL A   1      38.677  26.606  30.854  1.00  0.00    -0.203 F 
ATOM     74  C   UNL A   1      39.386  26.442  28.614  1.00  0.00     0.198 A 
ATOM     75  C   UNL A   1      40.529  28.282  27.583  1.00  0.00     0.198 A 
ATOM     76  F   UNL A   1      40.975  30.231  28.821  1.00  0.00    -0.203 F 
ATOM     77  F   UNL A   1      38.916  25.188  28.557  1.00  0.00    -0.200 F 
ATOM     78  C   UNL A   1      40.012  26.997  27.508  1.00  0.00     0.200 A 
ATOM     79  F   UNL A   1      41.125  28.826  26.514  1.00  0.00    -0.200 F 
ATOM     80  F   UNL A   1      40.128  26.291  26.376  1.00  0.00    -0.200 F 
ENDBRANCH  46  70
BRANCH  58  81
ATOM     81  C   UNL A   1      44.206  29.017  35.286  1.00  0.00     0.064 A 
ATOM     82  C   UNL A   1      44.290  27.785  35.949  1.00  0.00     0.173 A 
ATOM     83  C   UNL A   1      45.398  29.607  34.841  1.00  0.00     0.173 A 
ATOM     84  F   UNL A   1      43.179  27.187  36.405  1.00  0.00    -0.203 F 
ATOM     85  C   UNL A   1      45.521  27.173  36.168  1.00  0.00     0.198 A 
ATOM     86  C   UNL A   1      46.625  28.979  35.035  1.00  0.00     0.198 A 
ATOM     87  F   UNL A   1      45.371  30.783  34.194  1.00  0.00    -0.203 F 
ATOM     88  F   UNL A   1      45.581  26.012  36.834  1.00  0.00    -0.200 F 
ATOM     89  C   UNL A   1      46.686  27.765  35.701  1.00  0.00     0.200 A 
ATOM     90  F   UNL A   1      47.746  29.545  34.568  1.00  0.00    -0.200 F 
ATOM     91  F   UNL A   1      47.869  27.166  35.897  1.00  0.00    -0.200 F 
ENDBRANCH  58  81
ENDBRANCH  32  33
ENDBRANCH  25  27
ENDBRANCH  24  25
ENDBRANCH  23  24
ENDBRANCH  22  23
ENDBRANCH  21  22
ENDBRANCH  20  21
ENDBRANCH   1  20
TORSDOF 19
ENDMDL
MODEL 3
REMARK VINA RESULT:      -9.7      4.521      8.614
REMARK SMILES O=C(CCCCc1nc(-c2ccccc2)no1)OCCOCCOC(=O)c1ccc(-c2c3nc(c(-c4c(F)c(F)c(F)c(F)c4F)c4ccc([nH]4)c(-c4c(F)c(F)c(F)c(F)c4F)c4nc(c(-c5c(F)c(F)c(F)c(F)c5F)c5ccc2[nH]5)C=C4)C=C3)cc1
REMARK SMILES IDX 19 1 18 2 2 3 1 4 3 5 4 6 5 7 6 8 7 9 8 10 17 11 9 12 16 13
REMARK SMILES IDX 10 14 11 15 15 16 12 17 14 18 13 19 20 20 21 21 22 22 23 23
REMARK SMILES IDX 24 24 25 25 26 26 27 27 28 28 89 29 29 30 88 31 30 32 31 33
REMARK SMILES IDX 32 34 82 35 33 36 87 37 81 38 83 39 34 40 86 41 80 42 79 43
REMARK SMILES IDX 35 45 67 46 47 47 66 48 48 49 51 50 65 51 84 52 49 53 50 54
REMARK SMILES IDX 64 56 85 57 52 58 36 59 37 60 45 61 38 62 39 63 43 64 46 65
REMARK SMILES IDX 40 66 41 67 44 68 42 69 68 70 69 71 77 72 70 73 71 74 75 75
REMARK SMILES IDX 78 76 72 77 73 78 76 79 74 80 53 81 54 82 62 83 55 84 56 85
REMARK SMILES IDX 60 86 63 87 57 88 58 89 61 90 59 91
REMARK H PARENT 83 44 51 55
REMARK Flexibility Score: inf
ROOT
ATOM      1  C   UNL A   1      40.968  21.630  26.294  1.00  0.00     0.261 C 
ENDROOT
BRANCH   1   2
ATOM      2  O   UNL A   1      39.630  21.894  26.726  1.00  0.00    -0.463 OA
BRANCH   2   3
ATOM      3  C   UNL A   1      38.557  22.117  25.940  1.00  0.00     0.305 C 
ATOM      4  O   UNL A   1      38.174  21.213  25.197  1.00  0.00    -0.252 OA
BRANCH   3   5
ATOM      5  C   UNL A   1      37.845  23.456  25.927  1.00  0.00     0.123 C 
BRANCH   5   6
ATOM      6  C   UNL A   1      36.333  23.448  26.127  1.00  0.00     0.012 C 
BRANCH   6   7
ATOM      7  C   UNL A   1      35.469  24.074  25.021  1.00  0.00     0.010 C 
BRANCH   7   8
ATOM      8  C   UNL A   1      35.153  23.184  23.806  1.00  0.00     0.100 C 
BRANCH   8   9
ATOM      9  C   UNL A   1      34.345  22.011  24.175  1.00  0.00     0.226 A 
ATOM     10  N   UNL A   1      34.759  20.811  24.491  1.00  0.00    -0.191 NA
ATOM     11  O   UNL A   1      32.990  22.135  24.139  1.00  0.00    -0.339 OA
ATOM     12  C   UNL A   1      33.579  20.116  24.577  1.00  0.00     0.202 A 
ATOM     13  N   UNL A   1      32.478  20.862  24.397  1.00  0.00    -0.057 NA
BRANCH  12  14
ATOM     14  C   UNL A   1      33.594  18.674  24.709  1.00  0.00     0.023 A 
ATOM     15  C   UNL A   1      34.700  17.934  24.277  1.00  0.00     0.012 A 
ATOM     16  C   UNL A   1      32.548  18.029  25.384  1.00  0.00     0.012 A 
ATOM     17  C   UNL A   1      34.771  16.567  24.543  1.00  0.00     0.001 A 
ATOM     18  C   UNL A   1      32.615  16.661  25.636  1.00  0.00     0.001 A 
ATOM     19  C   UNL A   1      33.732  15.934  25.224  1.00  0.00     0.000 A 
ENDBRANCH  12  14
ENDBRANCH   8   9
ENDBRANCH   7   8
ENDBRANCH   6   7
ENDBRANCH   5   6
ENDBRANCH   3   5
ENDBRANCH   2   3
ENDBRANCH   1   2
BRANCH   1  20
ATOM     20  C   UNL A   1      41.259  20.152  26.110  1.00  0.00     0.202 C 
BRANCH  20  21
ATOM     21  O   UNL A   1      41.903  19.557  27.232  1.00  0.00    -0.374 OA
BRANCH  21  22
ATOM     22  C   UNL A   1      42.821  18.514  26.886  1.00  0.00     0.202 C 
BRANCH  22  23
ATOM     23  C   UNL A   1      43.132  18.469  25.383  1.00  0.00     0.261 C 
BRANCH  23  24
ATOM     24  O   UNL A   1      44.550  18.418  25.154  1.00  0.00    -0.460 OA
BRANCH  24  25
ATOM     25  C   UNL A   1      45.000  19.189  24.128  1.00  0.00     0.338 C 
ATOM     26  O   UNL A   1      45.209  18.842  22.984  1.00  0.00    -0.246 OA
BRANCH  25  27
ATOM     27  C   UNL A   1      44.987  20.612  24.557  1.00  0.00     0.060 A 
ATOM     28  C   UNL A   1      44.438  21.557  23.676  1.00  0.00     0.016 A 
ATOM     29  C   UNL A   1      45.424  21.008  25.823  1.00  0.00     0.016 A 
ATOM     30  C   UNL A   1      44.325  22.896  24.055  1.00  0.00     0.010 A 
ATOM     31  C   UNL A   1      45.329  22.350  26.196  1.00  0.00     0.010 A 
ATOM     32  C   UNL A   1      44.797  23.302  25.308  1.00  0.00    -0.014 A 
BRANCH  32  33
ATOM     33  C   UNL A   1      44.921  24.741  25.641  1.00  0.00     0.031 A 
ATOM     34  C   UNL A   1      46.278  25.372  25.519  1.00  0.00     0.074 A 
ATOM     35  C   UNL A   1      43.873  25.454  26.091  1.00  0.00     0.049 A 
ATOM     36  N   UNL A   1      46.684  26.553  25.905  1.00  0.00    -0.248 NA
ATOM     37  C   UNL A   1      47.323  24.550  24.888  1.00  0.00     0.031 C 
ATOM     38  C   UNL A   1      42.504  24.961  26.214  1.00  0.00     0.029 A 
ATOM     39  N   UNL A   1      43.812  26.743  26.560  1.00  0.00    -0.354 N 
ATOM     40  C   UNL A   1      48.034  26.605  25.588  1.00  0.00     0.074 A 
ATOM     41  C   UNL A   1      48.383  25.338  24.987  1.00  0.00     0.031 C 
ATOM     42  C   UNL A   1      41.742  25.927  26.759  1.00  0.00     0.029 A 
ATOM     43  C   UNL A   1      42.581  27.086  27.063  1.00  0.00     0.049 A 
ATOM     44  H   UNL A   1      44.578  27.362  26.538  1.00  0.00     0.167 HD
ATOM     45  C   UNL A   1      48.904  27.621  25.785  1.00  0.00     0.037 A 
ATOM     46  C   UNL A   1      42.194  28.191  27.732  1.00  0.00     0.037 A 
ATOM     47  C   UNL A   1      48.546  28.884  26.371  1.00  0.00     0.049 A 
ATOM     48  C   UNL A   1      43.201  29.282  28.000  1.00  0.00     0.074 A 
ATOM     49  C   UNL A   1      49.341  30.000  26.561  1.00  0.00     0.029 A 
ATOM     50  N   UNL A   1      47.292  29.191  26.876  1.00  0.00    -0.354 N 
ATOM     51  N   UNL A   1      44.464  29.348  27.655  1.00  0.00    -0.248 NA
ATOM     52  C   UNL A   1      42.732  30.452  28.760  1.00  0.00     0.031 C 
ATOM     53  C   UNL A   1      48.585  30.962  27.237  1.00  0.00     0.029 A 
ATOM     54  C   UNL A   1      47.303  30.466  27.416  1.00  0.00     0.049 A 
ATOM     55  H   UNL A   1      46.511  28.594  26.853  1.00  0.00     0.167 HD
ATOM     56  C   UNL A   1      44.931  30.568  28.132  1.00  0.00     0.074 A 
ATOM     57  C   UNL A   1      43.812  31.219  28.778  1.00  0.00     0.031 C 
ATOM     58  C   UNL A   1      46.174  31.101  28.046  1.00  0.00     0.037 A 
BRANCH  45  59
ATOM     59  C   UNL A   1      50.335  27.401  25.400  1.00  0.00     0.064 A 
ATOM     60  C   UNL A   1      50.791  27.613  24.092  1.00  0.00     0.173 A 
ATOM     61  C   UNL A   1      51.273  27.020  26.371  1.00  0.00     0.173 A 
ATOM     62  F   UNL A   1      49.930  27.962  23.124  1.00  0.00    -0.203 F 
ATOM     63  C   UNL A   1      52.133  27.437  23.766  1.00  0.00     0.198 A 
ATOM     64  C   UNL A   1      52.618  26.871  26.048  1.00  0.00     0.198 A 
ATOM     65  F   UNL A   1      50.885  26.802  27.637  1.00  0.00    -0.203 F 
ATOM     66  F   UNL A   1      52.543  27.610  22.501  1.00  0.00    -0.200 F 
ATOM     67  C   UNL A   1      53.046  27.076  24.746  1.00  0.00     0.200 A 
ATOM     68  F   UNL A   1      53.500  26.532  26.999  1.00  0.00    -0.200 F 
ATOM     69  F   UNL A   1      54.340  26.921  24.434  1.00  0.00    -0.200 F 
ENDBRANCH  45  59
BRANCH  46  70
ATOM     70  C   UNL A   1      40.802  28.310  28.247  1.00  0.00     0.064 A 
ATOM     71  C   UNL A   1      39.787  28.891  27.474  1.00  0.00     0.173 A 
ATOM     72  C   UNL A   1      40.470  27.890  29.545  1.00  0.00     0.173 A 
ATOM     73  F   UNL A   1      40.061  29.335  26.238  1.00  0.00    -0.203 F 
ATOM     74  C   UNL A   1      38.503  29.071  27.985  1.00  0.00     0.198 A 
ATOM     75  C   UNL A   1      39.178  28.042  30.044  1.00  0.00     0.198 A 
ATOM     76  F   UNL A   1      41.402  27.334  30.332  1.00  0.00    -0.203 F 
ATOM     77  F   UNL A   1      37.569  29.683  27.244  1.00  0.00    -0.200 F 
ATOM     78  C   UNL A   1      38.197  28.642  29.268  1.00  0.00     0.200 A 
ATOM     79  F   UNL A   1      38.884  27.617  31.280  1.00  0.00    -0.200 F 
ATOM     80  F   UNL A   1      36.964  28.818  29.760  1.00  0.00    -0.200 F 
ENDBRANCH  46  70
BRANCH  58  81
ATOM     81  C   UNL A   1      46.392  32.464  28.638  1.00  0.00     0.064 A 
ATOM     82  C   UNL A   1      46.850  32.628  29.953  1.00  0.00     0.173 A 
ATOM     83  C   UNL A   1      46.214  33.614  27.854  1.00  0.00     0.173 A 
ATOM     84  F   UNL A   1      47.022  31.560  30.746  1.00  0.00    -0.203 F 
ATOM     85  C   UNL A   1      47.106  33.896  30.467  1.00  0.00     0.198 A 
ATOM     86  C   UNL A   1      46.500  34.878  28.361  1.00  0.00     0.198 A 
ATOM     87  F   UNL A   1      45.786  33.509  26.587  1.00  0.00    -0.203 F 
ATOM     88  F   UNL A   1      47.510  34.033  31.737  1.00  0.00    -0.200 F 
ATOM     89  C   UNL A   1      46.942  35.019  29.667  1.00  0.00     0.200 A 
ATOM     90  F   UNL A   1      46.357  35.958  27.582  1.00  0.00    -0.200 F 
ATOM     91  F   UNL A   1      47.207  36.237  30.158  1.00  0.00    -0.200 F 
ENDBRANCH  58  81
ENDBRANCH  32  33
ENDBRANCH  25  27
ENDBRANCH  24  25
ENDBRANCH  23  24
ENDBRANCH  22  23
ENDBRANCH  21  22
ENDBRANCH  20  21
ENDBRANCH   1  20
TORSDOF 19
ENDMDL
