MODEL 1
REMARK VINA RESULT:     -11.6      0.000      0.000
REMARK SMILES CNc1cc(-c2cncc(SCC(=O)OCCOCCOC(=O)c3ccc(-c4c5nc(c(-c6c(F)c(F)c(F)c(F)c6F)c6ccc([nH]6)c(-c6c(F)c(F)c(F)c(F)c6F)c6nc(c(-c7c(F)c(F)c(F)c(F)c7F)c7ccc4[nH]7)C=C6)C=C5)cc3)n2)c2cc[nH]c2n1
REMARK SMILES IDX 17 1 16 2 15 3 13 4 14 5 12 6 11 7 10 8 6 9 7 10 87 11 8 12
REMARK SMILES IDX 9 13 5 14 3 15 4 16 93 17 92 18 88 19 91 20 89 21 90 22 2 24
REMARK SMILES IDX 1 25 18 27 19 28 20 29 21 30 22 31 23 32 24 33 25 34 86 35
REMARK SMILES IDX 26 36 85 37 27 38 28 39 29 40 79 41 30 42 84 43 78 44 80 45
REMARK SMILES IDX 31 46 83 47 77 48 76 49 32 51 64 52 44 53 63 54 45 55 48 56
REMARK SMILES IDX 62 57 81 58 46 59 47 60 61 62 82 63 49 64 33 65 34 66 42 67
REMARK SMILES IDX 35 68 36 69 40 70 43 71 37 72 38 73 41 74 39 75 65 76 66 77
REMARK SMILES IDX 74 78 67 79 68 80 72 81 75 82 69 83 70 84 73 85 71 86 50 87
REMARK SMILES IDX 51 88 59 89 52 90 53 91 57 92 60 93 54 94 55 95 58 96 56 97
REMARK H PARENT 91 23 2 26 80 50 48 61
REMARK Flexibility Score: inf
ROOT
ATOM      1  C   UNL A   1      31.792  29.467  26.943  1.00  0.00     0.202 C 
ENDROOT
BRANCH   1   2
ATOM      2  C   UNL A   1      32.202  28.074  26.424  1.00  0.00     0.261 C 
BRANCH   2   3
ATOM      3  O   UNL A   1      33.115  28.085  25.298  1.00  0.00    -0.463 OA
BRANCH   3   4
ATOM      4  C   UNL A   1      32.662  27.471  24.164  1.00  0.00     0.316 C 
ATOM      5  O   UNL A   1      33.412  26.946  23.342  1.00  0.00    -0.251 OA
BRANCH   4   6
ATOM      6  C   UNL A   1      31.145  27.348  24.007  1.00  0.00     0.199 C 
BRANCH   6   7
ATOM      7  S   UNL A   1      30.432  25.715  23.670  1.00  0.00    -0.093 SA
BRANCH   7   8
ATOM      8  C   UNL A   1      31.209  24.518  24.816  1.00  0.00     0.116 A 
ATOM      9  C   UNL A   1      33.038  23.292  25.648  1.00  0.00     0.091 A 
ATOM     10  C   UNL A   1      32.495  23.406  26.928  1.00  0.00     0.140 A 
ATOM     11  N   UNL A   1      32.376  23.845  24.556  1.00  0.00    -0.238 NA
ATOM     12  N   UNL A   1      31.321  24.028  27.190  1.00  0.00    -0.260 NA
ATOM     13  C   UNL A   1      30.702  24.576  26.117  1.00  0.00     0.146 A 
BRANCH   9  14
ATOM     14  C   UNL A   1      34.264  22.487  25.431  1.00  0.00     0.016 A 
ATOM     15  C   UNL A   1      36.713  22.382  25.435  1.00  0.00     0.128 A 
ATOM     16  C   UNL A   1      35.529  23.103  25.575  1.00  0.00     0.058 A 
ATOM     17  N   UNL A   1      36.749  21.059  25.256  1.00  0.00    -0.213 NA
ATOM     18  C   UNL A   1      35.554  20.493  25.073  1.00  0.00     0.140 A 
ATOM     19  C   UNL A   1      34.313  21.121  25.021  1.00  0.00     0.028 A 
ATOM     20  N   UNL A   1      35.391  19.144  24.928  1.00  0.00    -0.346 N 
ATOM     21  C   UNL A   1      33.461  20.101  24.490  1.00  0.00     0.030 A 
ATOM     22  C   UNL A   1      34.106  18.883  24.564  1.00  0.00     0.085 A 
ATOM     23  H   UNL A   1      36.091  18.467  25.067  1.00  0.00     0.167 HD
BRANCH  15  24
ATOM     24  N   UNL A   1      37.957  22.946  25.471  1.00  0.00    -0.373 N 
ATOM     25  C   UNL A   1      38.353  23.987  26.372  1.00  0.00     0.141 C 
ATOM     26  H   UNL A   1      38.629  22.613  24.834  1.00  0.00     0.161 HD
ENDBRANCH  15  24
ENDBRANCH   9  14
ENDBRANCH   7   8
ENDBRANCH   6   7
ENDBRANCH   4   6
ENDBRANCH   3   4
ENDBRANCH   2   3
ENDBRANCH   1   2
BRANCH   1  27
ATOM     27  O   UNL A   1      31.938  30.585  26.082  1.00  0.00    -0.374 OA
BRANCH  27  28
ATOM     28  C   UNL A   1      31.321  31.791  26.489  1.00  0.00     0.202 C 
BRANCH  28  29
ATOM     29  C   UNL A   1      32.178  32.918  27.077  1.00  0.00     0.261 C 
BRANCH  29  30
ATOM     30  O   UNL A   1      33.375  32.510  27.688  1.00  0.00    -0.460 OA
BRANCH  30  31
ATOM     31  C   UNL A   1      34.236  33.496  27.971  1.00  0.00     0.338 C 
ATOM     32  O   UNL A   1      34.163  34.697  27.802  1.00  0.00    -0.246 OA
BRANCH  31  33
ATOM     33  C   UNL A   1      35.361  32.771  28.516  1.00  0.00     0.060 A 
ATOM     34  C   UNL A   1      35.165  31.446  28.896  1.00  0.00     0.016 A 
ATOM     35  C   UNL A   1      36.611  33.397  28.513  1.00  0.00     0.016 A 
ATOM     36  C   UNL A   1      36.252  30.740  29.366  1.00  0.00     0.010 A 
ATOM     37  C   UNL A   1      37.701  32.679  28.958  1.00  0.00     0.010 A 
ATOM     38  C   UNL A   1      37.505  31.371  29.426  1.00  0.00    -0.014 A 
BRANCH  38  39
ATOM     39  C   UNL A   1      38.596  30.704  30.137  1.00  0.00     0.031 A 
ATOM     40  C   UNL A   1      38.806  31.046  31.577  1.00  0.00     0.074 A 
ATOM     41  C   UNL A   1      39.340  29.801  29.485  1.00  0.00     0.049 A 
ATOM     42  N   UNL A   1      39.697  30.589  32.412  1.00  0.00    -0.248 NA
ATOM     43  C   UNL A   1      37.894  32.050  32.152  1.00  0.00     0.031 C 
ATOM     44  C   UNL A   1      39.161  29.416  28.085  1.00  0.00     0.029 A 
ATOM     45  N   UNL A   1      40.387  29.042  29.918  1.00  0.00    -0.354 N 
ATOM     46  C   UNL A   1      39.456  31.252  33.607  1.00  0.00     0.074 A 
ATOM     47  C   UNL A   1      38.374  32.182  33.376  1.00  0.00     0.031 C 
ATOM     48  C   UNL A   1      40.062  28.472  27.778  1.00  0.00     0.029 A 
ATOM     49  C   UNL A   1      40.899  28.223  28.947  1.00  0.00     0.049 A 
ATOM     50  H   UNL A   1      40.739  29.080  30.837  1.00  0.00     0.167 HD
ATOM     51  C   UNL A   1      40.081  31.078  34.793  1.00  0.00     0.037 A 
ATOM     52  C   UNL A   1      41.939  27.377  29.015  1.00  0.00     0.037 A 
ATOM     53  C   UNL A   1      41.164  30.149  34.973  1.00  0.00     0.049 A 
ATOM     54  C   UNL A   1      42.666  27.253  30.325  1.00  0.00     0.074 A 
ATOM     55  C   UNL A   1      41.880  29.863  36.120  1.00  0.00     0.029 A 
ATOM     56  N   UNL A   1      41.697  29.361  33.958  1.00  0.00    -0.354 N 
ATOM     57  N   UNL A   1      42.420  27.852  31.468  1.00  0.00    -0.248 NA
ATOM     58  C   UNL A   1      43.809  26.337  30.357  1.00  0.00     0.031 C 
ATOM     59  C   UNL A   1      42.887  28.952  35.783  1.00  0.00     0.029 A 
ATOM     60  C   UNL A   1      42.757  28.613  34.443  1.00  0.00     0.049 A 
ATOM     61  H   UNL A   1      41.369  29.338  33.030  1.00  0.00     0.167 HD
ATOM     62  C   UNL A   1      43.360  27.367  32.365  1.00  0.00     0.074 A 
ATOM     63  C   UNL A   1      44.171  26.413  31.630  1.00  0.00     0.031 C 
ATOM     64  C   UNL A   1      43.541  27.677  33.674  1.00  0.00     0.037 A 
BRANCH  51  65
ATOM     65  C   UNL A   1      39.632  31.937  35.939  1.00  0.00     0.064 A 
ATOM     66  C   UNL A   1      38.539  31.588  36.749  1.00  0.00     0.173 A 
ATOM     67  C   UNL A   1      40.281  33.152  36.210  1.00  0.00     0.173 A 
ATOM     68  F   UNL A   1      37.867  30.449  36.523  1.00  0.00    -0.203 F 
ATOM     69  C   UNL A   1      38.086  32.441  37.753  1.00  0.00     0.198 A 
ATOM     70  C   UNL A   1      39.848  33.984  37.239  1.00  0.00     0.198 A 
ATOM     71  F   UNL A   1      41.328  33.540  35.467  1.00  0.00    -0.203 F 
ATOM     72  F   UNL A   1      36.993  32.120  38.460  1.00  0.00    -0.200 F 
ATOM     73  C   UNL A   1      38.743  33.636  38.000  1.00  0.00     0.200 A 
ATOM     74  F   UNL A   1      40.493  35.134  37.483  1.00  0.00    -0.200 F 
ATOM     75  F   UNL A   1      38.303  34.460  38.962  1.00  0.00    -0.200 F 
ENDBRANCH  51  65
BRANCH  52  76
ATOM     76  C   UNL A   1      42.314  26.581  27.821  1.00  0.00     0.064 A 
ATOM     77  C   UNL A   1      43.167  27.111  26.844  1.00  0.00     0.173 A 
ATOM     78  C   UNL A   1      41.870  25.260  27.655  1.00  0.00     0.173 A 
ATOM     79  F   UNL A   1      43.610  28.371  26.956  1.00  0.00    -0.203 F 
ATOM     80  C   UNL A   1      43.555  26.353  25.742  1.00  0.00     0.198 A 
ATOM     81  C   UNL A   1      42.280  24.494  26.567  1.00  0.00     0.198 A 
ATOM     82  F   UNL A   1      41.063  24.703  28.569  1.00  0.00    -0.203 F 
ATOM     83  F   UNL A   1      44.350  26.893  24.808  1.00  0.00    -0.200 F 
ATOM     84  C   UNL A   1      43.117  25.043  25.607  1.00  0.00     0.200 A 
ATOM     85  F   UNL A   1      41.874  23.223  26.453  1.00  0.00    -0.200 F 
ATOM     86  F   UNL A   1      43.504  24.311  24.554  1.00  0.00    -0.200 F 
ENDBRANCH  52  76
BRANCH  64  87
ATOM     87  C   UNL A   1      44.638  26.948  34.395  1.00  0.00     0.064 A 
ATOM     88  C   UNL A   1      45.929  27.481  34.505  1.00  0.00     0.173 A 
ATOM     89  C   UNL A   1      44.376  25.716  35.016  1.00  0.00     0.173 A 
ATOM     90  F   UNL A   1      46.231  28.648  33.915  1.00  0.00    -0.203 F 
ATOM     91  C   UNL A   1      46.929  26.793  35.185  1.00  0.00     0.198 A 
ATOM     92  C   UNL A   1      45.368  25.051  35.727  1.00  0.00     0.198 A 
ATOM     93  F   UNL A   1      43.153  25.168  34.946  1.00  0.00    -0.203 F 
ATOM     94  F   UNL A   1      48.172  27.293  35.228  1.00  0.00    -0.200 F 
ATOM     95  C   UNL A   1      46.646  25.584  35.802  1.00  0.00     0.200 A 
ATOM     96  F   UNL A   1      45.088  23.892  36.339  1.00  0.00    -0.200 F 
ATOM     97  F   UNL A   1      47.608  24.927  36.464  1.00  0.00    -0.200 F 
ENDBRANCH  64  87
ENDBRANCH  38  39
ENDBRANCH  31  33
ENDBRANCH  30  31
ENDBRANCH  29  30
ENDBRANCH  28  29
ENDBRANCH  27  28
ENDBRANCH   1  27
TORSDOF 18
ENDMDL
MODEL 2
REMARK VINA RESULT:     -11.2      4.491      9.527
REMARK SMILES CNc1cc(-c2cncc(SCC(=O)OCCOCCOC(=O)c3ccc(-c4c5nc(c(-c6c(F)c(F)c(F)c(F)c6F)c6ccc([nH]6)c(-c6c(F)c(F)c(F)c(F)c6F)c6nc(c(-c7c(F)c(F)c(F)c(F)c7F)c7ccc4[nH]7)C=C6)C=C5)cc3)n2)c2cc[nH]c2n1
REMARK SMILES IDX 17 1 16 2 15 3 13 4 14 5 12 6 11 7 10 8 6 9 7 10 87 11 8 12
REMARK SMILES IDX 9 13 5 14 3 15 4 16 93 17 92 18 88 19 91 20 89 21 90 22 2 24
REMARK SMILES IDX 1 25 18 27 19 28 20 29 21 30 22 31 23 32 24 33 25 34 86 35
REMARK SMILES IDX 26 36 85 37 27 38 28 39 29 40 79 41 30 42 84 43 78 44 80 45
REMARK SMILES IDX 31 46 83 47 77 48 76 49 32 51 64 52 44 53 63 54 45 55 48 56
REMARK SMILES IDX 62 57 81 58 46 59 47 60 61 62 82 63 49 64 33 65 34 66 42 67
REMARK SMILES IDX 35 68 36 69 40 70 43 71 37 72 38 73 41 74 39 75 65 76 66 77
REMARK SMILES IDX 74 78 67 79 68 80 72 81 75 82 69 83 70 84 73 85 71 86 50 87
REMARK SMILES IDX 51 88 59 89 52 90 53 91 57 92 60 93 54 94 55 95 58 96 56 97
REMARK H PARENT 91 23 2 26 80 50 48 61
REMARK Flexibility Score: inf
ROOT
ATOM      1  C   UNL A   1      34.851  23.551  23.412  1.00  0.00     0.202 C 
ENDROOT
BRANCH   1   2
ATOM      2  C   UNL A   1      34.037  24.861  23.399  1.00  0.00     0.261 C 
BRANCH   2   3
ATOM      3  O   UNL A   1      33.564  25.275  22.093  1.00  0.00    -0.463 OA
BRANCH   3   4
ATOM      4  C   UNL A   1      32.416  26.016  22.087  1.00  0.00     0.316 C 
ATOM      5  O   UNL A   1      31.721  26.168  21.083  1.00  0.00    -0.251 OA
BRANCH   4   6
ATOM      6  C   UNL A   1      31.944  26.564  23.436  1.00  0.00     0.199 C 
BRANCH   6   7
ATOM      7  S   UNL A   1      30.422  25.900  24.165  1.00  0.00    -0.093 SA
BRANCH   7   8
ATOM      8  C   UNL A   1      30.867  24.402  25.117  1.00  0.00     0.116 A 
ATOM      9  C   UNL A   1      31.868  22.284  25.353  1.00  0.00     0.091 A 
ATOM     10  C   UNL A   1      32.176  22.609  26.674  1.00  0.00     0.140 A 
ATOM     11  N   UNL A   1      31.182  23.192  24.552  1.00  0.00    -0.238 NA
ATOM     12  N   UNL A   1      31.831  23.781  27.257  1.00  0.00    -0.260 NA
ATOM     13  C   UNL A   1      31.180  24.659  26.455  1.00  0.00     0.146 A 
BRANCH   9  14
ATOM     14  C   UNL A   1      32.172  20.930  24.831  1.00  0.00     0.016 A 
ATOM     15  C   UNL A   1      32.807  18.611  25.308  1.00  0.00     0.128 A 
ATOM     16  C   UNL A   1      32.561  19.914  25.735  1.00  0.00     0.058 A 
ATOM     17  N   UNL A   1      32.604  18.200  24.053  1.00  0.00    -0.213 NA
ATOM     18  C   UNL A   1      32.284  19.173  23.197  1.00  0.00     0.140 A 
ATOM     19  C   UNL A   1      32.173  20.536  23.460  1.00  0.00     0.028 A 
ATOM     20  N   UNL A   1      31.988  18.935  21.885  1.00  0.00    -0.346 N 
ATOM     21  C   UNL A   1      32.137  21.112  22.150  1.00  0.00     0.030 A 
ATOM     22  C   UNL A   1      31.898  20.119  21.221  1.00  0.00     0.085 A 
ATOM     23  H   UNL A   1      31.859  18.046  21.483  1.00  0.00     0.167 HD
BRANCH  15  24
ATOM     24  N   UNL A   1      33.273  17.617  26.121  1.00  0.00    -0.373 N 
ATOM     25  C   UNL A   1      33.380  16.239  25.744  1.00  0.00     0.141 C 
ATOM     26  H   UNL A   1      33.556  17.865  27.031  1.00  0.00     0.161 HD
ENDBRANCH  15  24
ENDBRANCH   9  14
ENDBRANCH   7   8
ENDBRANCH   6   7
ENDBRANCH   4   6
ENDBRANCH   3   4
ENDBRANCH   2   3
ENDBRANCH   1   2
BRANCH   1  27
ATOM     27  O   UNL A   1      35.394  23.099  24.641  1.00  0.00    -0.374 OA
BRANCH  27  28
ATOM     28  C   UNL A   1      35.812  21.749  24.699  1.00  0.00     0.202 C 
BRANCH  28  29
ATOM     29  C   UNL A   1      37.303  21.423  24.843  1.00  0.00     0.261 C 
BRANCH  29  30
ATOM     30  O   UNL A   1      37.894  21.822  26.052  1.00  0.00    -0.460 OA
BRANCH  30  31
ATOM     31  C   UNL A   1      39.201  21.554  26.164  1.00  0.00     0.338 C 
ATOM     32  O   UNL A   1      39.826  20.527  25.992  1.00  0.00    -0.246 OA
BRANCH  31  33
ATOM     33  C   UNL A   1      39.735  22.823  26.602  1.00  0.00     0.060 A 
ATOM     34  C   UNL A   1      39.130  23.986  26.137  1.00  0.00     0.016 A 
ATOM     35  C   UNL A   1      40.747  22.813  27.568  1.00  0.00     0.016 A 
ATOM     36  C   UNL A   1      39.607  25.195  26.598  1.00  0.00     0.010 A 
ATOM     37  C   UNL A   1      41.204  24.022  28.047  1.00  0.00     0.010 A 
ATOM     38  C   UNL A   1      40.664  25.206  27.523  1.00  0.00    -0.014 A 
BRANCH  38  39
ATOM     39  C   UNL A   1      41.318  26.478  27.829  1.00  0.00     0.031 A 
ATOM     40  C   UNL A   1      42.715  26.682  27.338  1.00  0.00     0.074 A 
ATOM     41  C   UNL A   1      40.638  27.412  28.507  1.00  0.00     0.049 A 
ATOM     42  N   UNL A   1      43.496  27.717  27.480  1.00  0.00    -0.248 NA
ATOM     43  C   UNL A   1      43.319  25.562  26.596  1.00  0.00     0.031 C 
ATOM     44  C   UNL A   1      39.264  27.268  28.989  1.00  0.00     0.029 A 
ATOM     45  N   UNL A   1      41.009  28.665  28.898  1.00  0.00    -0.354 N 
ATOM     46  C   UNL A   1      44.683  27.371  26.850  1.00  0.00     0.074 A 
ATOM     47  C   UNL A   1      44.542  26.014  26.374  1.00  0.00     0.031 C 
ATOM     48  C   UNL A   1      38.899  28.406  29.599  1.00  0.00     0.029 A 
ATOM     49  C   UNL A   1      40.028  29.331  29.582  1.00  0.00     0.049 A 
ATOM     50  H   UNL A   1      41.896  29.050  28.707  1.00  0.00     0.167 HD
ATOM     51  C   UNL A   1      45.783  28.137  26.676  1.00  0.00     0.037 A 
ATOM     52  C   UNL A   1      40.062  30.554  30.134  1.00  0.00     0.037 A 
ATOM     53  C   UNL A   1      45.885  29.480  27.180  1.00  0.00     0.049 A 
ATOM     54  C   UNL A   1      41.323  31.360  29.990  1.00  0.00     0.074 A 
ATOM     55  C   UNL A   1      46.934  30.372  27.067  1.00  0.00     0.029 A 
ATOM     56  N   UNL A   1      44.889  30.119  27.913  1.00  0.00    -0.354 N 
ATOM     57  N   UNL A   1      42.436  31.051  29.366  1.00  0.00    -0.248 NA
ATOM     58  C   UNL A   1      41.332  32.681  30.624  1.00  0.00     0.031 C 
ATOM     59  C   UNL A   1      46.599  31.524  27.786  1.00  0.00     0.029 A 
ATOM     60  C   UNL A   1      45.313  31.382  28.289  1.00  0.00     0.049 A 
ATOM     61  H   UNL A   1      44.012  29.730  28.132  1.00  0.00     0.167 HD
ATOM     62  C   UNL A   1      43.272  32.149  29.506  1.00  0.00     0.074 A 
ATOM     63  C   UNL A   1      42.525  33.136  30.265  1.00  0.00     0.031 C 
ATOM     64  C   UNL A   1      44.538  32.332  29.051  1.00  0.00     0.037 A 
BRANCH  51  65
ATOM     65  C   UNL A   1      46.948  27.514  25.962  1.00  0.00     0.064 A 
ATOM     66  C   UNL A   1      47.947  26.802  26.645  1.00  0.00     0.173 A 
ATOM     67  C   UNL A   1      47.088  27.662  24.574  1.00  0.00     0.173 A 
ATOM     68  F   UNL A   1      47.876  26.646  27.977  1.00  0.00    -0.203 F 
ATOM     69  C   UNL A   1      49.063  26.305  25.975  1.00  0.00     0.198 A 
ATOM     70  C   UNL A   1      48.187  27.131  23.901  1.00  0.00     0.198 A 
ATOM     71  F   UNL A   1      46.167  28.336  23.868  1.00  0.00    -0.203 F 
ATOM     72  F   UNL A   1      50.040  25.697  26.663  1.00  0.00    -0.200 F 
ATOM     73  C   UNL A   1      49.179  26.466  24.604  1.00  0.00     0.200 A 
ATOM     74  F   UNL A   1      48.291  27.279  22.573  1.00  0.00    -0.200 F 
ATOM     75  F   UNL A   1      50.256  25.993  23.960  1.00  0.00    -0.200 F 
ENDBRANCH  51  65
BRANCH  52  76
ATOM     76  C   UNL A   1      38.862  31.076  30.832  1.00  0.00     0.064 A 
ATOM     77  C   UNL A   1      37.826  31.688  30.115  1.00  0.00     0.173 A 
ATOM     78  C   UNL A   1      38.701  30.928  32.218  1.00  0.00     0.173 A 
ATOM     79  F   UNL A   1      37.938  31.858  28.791  1.00  0.00    -0.203 F 
ATOM     80  C   UNL A   1      36.678  32.142  30.760  1.00  0.00     0.198 A 
ATOM     81  C   UNL A   1      37.541  31.358  32.858  1.00  0.00     0.198 A 
ATOM     82  F   UNL A   1      39.658  30.337  32.947  1.00  0.00    -0.203 F 
ATOM     83  F   UNL A   1      35.713  32.750  30.055  1.00  0.00    -0.200 F 
ATOM     84  C   UNL A   1      36.532  31.971  32.129  1.00  0.00     0.200 A 
ATOM     85  F   UNL A   1      37.395  31.170  34.176  1.00  0.00    -0.200 F 
ATOM     86  F   UNL A   1      35.421  32.394  32.746  1.00  0.00    -0.200 F 
ENDBRANCH  52  76
BRANCH  64  87
ATOM     87  C   UNL A   1      45.173  33.661  29.339  1.00  0.00     0.064 A 
ATOM     88  C   UNL A   1      45.050  34.743  28.457  1.00  0.00     0.173 A 
ATOM     89  C   UNL A   1      45.879  33.861  30.535  1.00  0.00     0.173 A 
ATOM     90  F   UNL A   1      44.398  34.597  27.293  1.00  0.00    -0.203 F 
ATOM     91  C   UNL A   1      45.640  35.970  28.746  1.00  0.00     0.198 A 
ATOM     92  C   UNL A   1      46.433  35.099  30.839  1.00  0.00     0.198 A 
ATOM     93  F   UNL A   1      46.017  32.858  31.416  1.00  0.00    -0.203 F 
ATOM     94  F   UNL A   1      45.561  36.974  27.862  1.00  0.00    -0.200 F 
ATOM     95  C   UNL A   1      46.322  36.149  29.941  1.00  0.00     0.200 A 
ATOM     96  F   UNL A   1      47.077  35.276  32.001  1.00  0.00    -0.200 F 
ATOM     97  F   UNL A   1      46.881  37.334  30.222  1.00  0.00    -0.200 F 
ENDBRANCH  64  87
ENDBRANCH  38  39
ENDBRANCH  31  33
ENDBRANCH  30  31
ENDBRANCH  29  30
ENDBRANCH  28  29
ENDBRANCH  27  28
ENDBRANCH   1  27
TORSDOF 18
ENDMDL
MODEL 3
REMARK VINA RESULT:     -11.2      3.764      8.864
REMARK SMILES CNc1cc(-c2cncc(SCC(=O)OCCOCCOC(=O)c3ccc(-c4c5nc(c(-c6c(F)c(F)c(F)c(F)c6F)c6ccc([nH]6)c(-c6c(F)c(F)c(F)c(F)c6F)c6nc(c(-c7c(F)c(F)c(F)c(F)c7F)c7ccc4[nH]7)C=C6)C=C5)cc3)n2)c2cc[nH]c2n1
REMARK SMILES IDX 17 1 16 2 15 3 13 4 14 5 12 6 11 7 10 8 6 9 7 10 87 11 8 12
REMARK SMILES IDX 9 13 5 14 3 15 4 16 93 17 92 18 88 19 91 20 89 21 90 22 2 24
REMARK SMILES IDX 1 25 18 27 19 28 20 29 21 30 22 31 23 32 24 33 25 34 86 35
REMARK SMILES IDX 26 36 85 37 27 38 28 39 29 40 79 41 30 42 84 43 78 44 80 45
REMARK SMILES IDX 31 46 83 47 77 48 76 49 32 51 64 52 44 53 63 54 45 55 48 56
REMARK SMILES IDX 62 57 81 58 46 59 47 60 61 62 82 63 49 64 33 65 34 66 42 67
REMARK SMILES IDX 35 68 36 69 40 70 43 71 37 72 38 73 41 74 39 75 65 76 66 77
REMARK SMILES IDX 74 78 67 79 68 80 72 81 75 82 69 83 70 84 73 85 71 86 50 87
REMARK SMILES IDX 51 88 59 89 52 90 53 91 57 92 60 93 54 94 55 95 58 96 56 97
REMARK H PARENT 91 23 2 26 80 50 48 61
REMARK Flexibility Score: inf
ROOT
ATOM      1  C   UNL A   1      40.931  21.427  26.171  1.00  0.00     0.202 C 
ENDROOT
BRANCH   1   2
ATOM      2  C   UNL A   1      39.671  20.586  25.885  1.00  0.00     0.261 C 
BRANCH   2   3
ATOM      3  O   UNL A   1      38.467  21.353  25.634  1.00  0.00    -0.463 OA
BRANCH   3   4
ATOM      4  C   UNL A   1      37.449  20.673  25.026  1.00  0.00     0.316 C 
ATOM      5  O   UNL A   1      37.439  19.448  24.906  1.00  0.00    -0.251 OA
BRANCH   4   6
ATOM      6  C   UNL A   1      36.231  21.495  24.597  1.00  0.00     0.199 C 
BRANCH   6   7
ATOM      7  S   UNL A   1      36.403  23.293  24.438  1.00  0.00    -0.093 SA
BRANCH   7   8
ATOM      8  C   UNL A   1      34.827  23.948  23.777  1.00  0.00     0.116 A 
ATOM      9  C   UNL A   1      33.320  25.689  23.284  1.00  0.00     0.091 A 
ATOM     10  C   UNL A   1      32.929  24.988  22.143  1.00  0.00     0.140 A 
ATOM     11  N   UNL A   1      34.280  25.154  24.137  1.00  0.00    -0.238 NA
ATOM     12  N   UNL A   1      33.429  23.776  21.801  1.00  0.00    -0.260 NA
ATOM     13  C   UNL A   1      34.376  23.282  22.634  1.00  0.00     0.146 A 
BRANCH   9  14
ATOM     14  C   UNL A   1      32.633  26.950  23.651  1.00  0.00     0.016 A 
ATOM     15  C   UNL A   1      31.405  28.940  22.916  1.00  0.00     0.128 A 
ATOM     16  C   UNL A   1      32.105  27.771  22.627  1.00  0.00     0.058 A 
ATOM     17  N   UNL A   1      31.094  29.321  24.159  1.00  0.00    -0.213 NA
ATOM     18  C   UNL A   1      31.636  28.569  25.119  1.00  0.00     0.140 A 
ATOM     19  C   UNL A   1      32.490  27.479  24.968  1.00  0.00     0.028 A 
ATOM     20  N   UNL A   1      31.387  28.774  26.447  1.00  0.00    -0.346 N 
ATOM     21  C   UNL A   1      32.996  27.284  26.292  1.00  0.00     0.030 A 
ATOM     22  C   UNL A   1      32.220  27.993  27.187  1.00  0.00     0.085 A 
ATOM     23  H   UNL A   1      30.711  29.389  26.811  1.00  0.00     0.167 HD
BRANCH  15  24
ATOM     24  N   UNL A   1      30.956  29.815  21.967  1.00  0.00    -0.373 N 
ATOM     25  C   UNL A   1      29.577  30.124  21.732  1.00  0.00     0.141 C 
ATOM     26  H   UNL A   1      31.628  30.264  21.405  1.00  0.00     0.161 HD
ENDBRANCH  15  24
ENDBRANCH   9  14
ENDBRANCH   7   8
ENDBRANCH   6   7
ENDBRANCH   4   6
ENDBRANCH   3   4
ENDBRANCH   2   3
ENDBRANCH   1   2
BRANCH   1  27
ATOM     27  O   UNL A   1      42.196  20.910  25.792  1.00  0.00    -0.374 OA
BRANCH  27  28
ATOM     28  C   UNL A   1      43.315  21.755  25.979  1.00  0.00     0.202 C 
BRANCH  28  29
ATOM     29  C   UNL A   1      43.665  22.796  24.909  1.00  0.00     0.261 C 
BRANCH  29  30
ATOM     30  O   UNL A   1      43.061  24.053  25.070  1.00  0.00    -0.460 OA
BRANCH  30  31
ATOM     31  C   UNL A   1      43.909  25.080  25.209  1.00  0.00     0.338 C 
ATOM     32  O   UNL A   1      44.954  25.338  24.646  1.00  0.00    -0.246 OA
BRANCH  31  33
ATOM     33  C   UNL A   1      43.294  25.841  26.272  1.00  0.00     0.060 A 
ATOM     34  C   UNL A   1      43.696  27.161  26.452  1.00  0.00     0.016 A 
ATOM     35  C   UNL A   1      42.240  25.252  26.978  1.00  0.00     0.016 A 
ATOM     36  C   UNL A   1      43.070  27.901  27.433  1.00  0.00     0.010 A 
ATOM     37  C   UNL A   1      41.598  26.004  27.939  1.00  0.00     0.010 A 
ATOM     38  C   UNL A   1      42.049  27.307  28.193  1.00  0.00    -0.014 A 
BRANCH  38  39
ATOM     39  C   UNL A   1      41.554  28.010  29.376  1.00  0.00     0.031 A 
ATOM     40  C   UNL A   1      42.312  27.849  30.654  1.00  0.00     0.074 A 
ATOM     41  C   UNL A   1      40.467  28.783  29.264  1.00  0.00     0.049 A 
ATOM     42  N   UNL A   1      42.073  28.370  31.826  1.00  0.00    -0.248 NA
ATOM     43  C   UNL A   1      43.495  26.973  30.609  1.00  0.00     0.031 C 
ATOM     44  C   UNL A   1      39.703  28.990  28.033  1.00  0.00     0.029 A 
ATOM     45  N   UNL A   1      39.823  29.543  30.197  1.00  0.00    -0.354 N 
ATOM     46  C   UNL A   1      43.071  27.880  32.656  1.00  0.00     0.074 A 
ATOM     47  C   UNL A   1      43.885  26.980  31.872  1.00  0.00     0.031 C 
ATOM     48  C   UNL A   1      38.700  29.843  28.284  1.00  0.00     0.029 A 
ATOM     49  C   UNL A   1      38.732  30.203  29.698  1.00  0.00     0.049 A 
ATOM     50  H   UNL A   1      40.115  29.609  31.136  1.00  0.00     0.167 HD
ATOM     51  C   UNL A   1      43.288  28.178  33.957  1.00  0.00     0.037 A 
ATOM     52  C   UNL A   1      37.861  31.001  30.337  1.00  0.00     0.037 A 
ATOM     53  C   UNL A   1      42.443  29.071  34.703  1.00  0.00     0.049 A 
ATOM     54  C   UNL A   1      38.081  31.261  31.800  1.00  0.00     0.074 A 
ATOM     55  C   UNL A   1      42.552  29.470  36.021  1.00  0.00     0.029 A 
ATOM     56  N   UNL A   1      41.311  29.694  34.185  1.00  0.00    -0.354 N 
ATOM     57  N   UNL A   1      39.043  30.828  32.582  1.00  0.00    -0.248 NA
ATOM     58  C   UNL A   1      37.099  32.118  32.469  1.00  0.00     0.031 C 
ATOM     59  C   UNL A   1      41.451  30.282  36.318  1.00  0.00     0.029 A 
ATOM     60  C   UNL A   1      40.692  30.448  35.168  1.00  0.00     0.049 A 
ATOM     61  H   UNL A   1      40.997  29.611  33.256  1.00  0.00     0.167 HD
ATOM     62  C   UNL A   1      38.801  31.382  33.831  1.00  0.00     0.074 A 
ATOM     63  C   UNL A   1      37.605  32.193  33.692  1.00  0.00     0.031 C 
ATOM     64  C   UNL A   1      39.498  31.238  34.987  1.00  0.00     0.037 A 
BRANCH  51  65
ATOM     65  C   UNL A   1      44.443  27.498  34.634  1.00  0.00     0.064 A 
ATOM     66  C   UNL A   1      44.301  26.262  35.285  1.00  0.00     0.173 A 
ATOM     67  C   UNL A   1      45.705  28.109  34.665  1.00  0.00     0.173 A 
ATOM     68  F   UNL A   1      43.112  25.640  35.306  1.00  0.00    -0.203 F 
ATOM     69  C   UNL A   1      45.364  25.689  35.980  1.00  0.00     0.198 A 
ATOM     70  C   UNL A   1      46.776  27.515  35.329  1.00  0.00     0.198 A 
ATOM     71  F   UNL A   1      45.900  29.293  34.064  1.00  0.00    -0.203 F 
ATOM     72  F   UNL A   1      45.182  24.547  36.659  1.00  0.00    -0.200 F 
ATOM     73  C   UNL A   1      46.601  26.314  35.997  1.00  0.00     0.200 A 
ATOM     74  F   UNL A   1      47.974  28.116  35.335  1.00  0.00    -0.200 F 
ATOM     75  F   UNL A   1      47.623  25.765  36.672  1.00  0.00    -0.200 F 
ENDBRANCH  51  65
BRANCH  52  76
ATOM     76  C   UNL A   1      36.743  31.616  29.580  1.00  0.00     0.064 A 
ATOM     77  C   UNL A   1      36.746  32.984  29.283  1.00  0.00     0.173 A 
ATOM     78  C   UNL A   1      35.676  30.843  29.095  1.00  0.00     0.173 A 
ATOM     79  F   UNL A   1      37.740  33.764  29.731  1.00  0.00    -0.203 F 
ATOM     80  C   UNL A   1      35.719  33.560  28.537  1.00  0.00     0.198 A 
ATOM     81  C   UNL A   1      34.665  31.414  28.327  1.00  0.00     0.198 A 
ATOM     82  F   UNL A   1      35.634  29.526  29.341  1.00  0.00    -0.203 F 
ATOM     83  F   UNL A   1      35.732  34.877  28.290  1.00  0.00    -0.200 F 
ATOM     84  C   UNL A   1      34.684  32.773  28.053  1.00  0.00     0.200 A 
ATOM     85  F   UNL A   1      33.679  30.647  27.843  1.00  0.00    -0.200 F 
ATOM     86  F   UNL A   1      33.706  33.325  27.324  1.00  0.00    -0.200 F 
ENDBRANCH  52  76
BRANCH  64  87
ATOM     87  C   UNL A   1      38.996  32.003  36.177  1.00  0.00     0.064 A 
ATOM     88  C   UNL A   1      38.112  31.430  37.102  1.00  0.00     0.173 A 
ATOM     89  C   UNL A   1      39.440  33.313  36.412  1.00  0.00     0.173 A 
ATOM     90  F   UNL A   1      37.648  30.186  36.912  1.00  0.00    -0.203 F 
ATOM     91  C   UNL A   1      37.665  32.154  38.204  1.00  0.00     0.198 A 
ATOM     92  C   UNL A   1      39.022  34.019  37.534  1.00  0.00     0.198 A 
ATOM     93  F   UNL A   1      40.294  33.902  35.560  1.00  0.00    -0.203 F 
ATOM     94  F   UNL A   1      36.775  31.608  39.043  1.00  0.00    -0.200 F 
ATOM     95  C   UNL A   1      38.128  33.443  38.423  1.00  0.00     0.200 A 
ATOM     96  F   UNL A   1      39.483  35.258  37.755  1.00  0.00    -0.200 F 
ATOM     97  F   UNL A   1      37.703  34.135  39.490  1.00  0.00    -0.200 F 
ENDBRANCH  64  87
ENDBRANCH  38  39
ENDBRANCH  31  33
ENDBRANCH  30  31
ENDBRANCH  29  30
ENDBRANCH  28  29
ENDBRANCH  27  28
ENDBRANCH   1  27
TORSDOF 18
ENDMDL
