MODEL 1
REMARK VINA RESULT:     -11.3      0.000      0.000
REMARK SMILES CCc1cc(Nc2cccc(C(=O)OCCOCCOC(=O)c3ccc(-c4c5nc(c(-c6c(F)c(F)c(F)c(F)c6F)c6ccc([nH]6)c(-c6c(F)c(F)c(F)c(F)c6F)c6nc(c(-c7c(F)c(F)c(F)c(F)c7F)c7ccc4[nH]7)C=C6)C=C5)cc3)c2)nc(C(C)C)n1
REMARK SMILES IDX 16 1 15 2 14 3 12 4 13 5 11 6 7 7 8 8 86 9 9 10 10 11 6 12
REMARK SMILES IDX 5 14 3 15 4 16 92 17 88 18 87 19 2 20 1 21 89 22 90 23 91 24
REMARK SMILES IDX 17 25 18 26 19 27 20 28 21 29 22 30 23 31 24 32 85 33 25 34
REMARK SMILES IDX 84 35 26 36 27 37 28 38 78 39 29 40 83 41 77 42 79 43 30 44
REMARK SMILES IDX 82 45 76 46 75 47 31 49 63 50 43 51 62 52 44 53 47 54 61 55
REMARK SMILES IDX 80 56 45 57 46 58 60 60 81 61 48 62 32 63 33 64 41 65 34 66
REMARK SMILES IDX 35 67 39 68 42 69 36 70 37 71 40 72 38 73 64 74 65 75 73 76
REMARK SMILES IDX 66 77 67 78 71 79 74 80 68 81 69 82 72 83 70 84 49 85 50 86
REMARK SMILES IDX 58 87 51 88 52 89 56 90 59 91 53 92 54 93 57 94 55 95
REMARK H PARENT 6 13 79 48 47 59
REMARK Flexibility Score: inf
ROOT
ATOM      1  C   UNL A   1      37.249  22.624  25.852  1.00  0.00     0.202 C 
ENDROOT
BRANCH   1   2
ATOM      2  C   UNL A   1      35.911  22.158  25.269  1.00  0.00     0.261 C 
BRANCH   2   3
ATOM      3  O   UNL A   1      35.035  23.275  25.043  1.00  0.00    -0.460 OA
BRANCH   3   4
ATOM      4  C   UNL A   1      34.779  23.560  23.743  1.00  0.00     0.338 C 
ATOM      5  O   UNL A   1      35.512  23.344  22.789  1.00  0.00    -0.246 OA
BRANCH   4   6
ATOM      6  C   UNL A   1      33.374  24.005  23.594  1.00  0.00     0.062 A 
ATOM      7  C   UNL A   1      31.699  25.657  22.965  1.00  0.00     0.040 A 
ATOM      8  C   UNL A   1      30.704  24.773  23.411  1.00  0.00     0.026 A 
ATOM      9  C   UNL A   1      33.040  25.269  23.093  1.00  0.00     0.041 A 
ATOM     10  C   UNL A   1      31.033  23.518  23.930  1.00  0.00     0.003 A 
ATOM     11  C   UNL A   1      32.367  23.129  24.007  1.00  0.00     0.016 A 
BRANCH   7  12
ATOM     12  N   UNL A   1      31.314  26.858  22.337  1.00  0.00    -0.340 N 
ATOM     13  H   UNL A   1      31.318  26.853  21.352  1.00  0.00     0.168 HD
BRANCH  12  14
ATOM     14  C   UNL A   1      30.923  28.066  22.949  1.00  0.00     0.134 A 
ATOM     15  C   UNL A   1      29.553  29.990  23.022  1.00  0.00     0.046 A 
ATOM     16  C   UNL A   1      29.899  28.807  22.392  1.00  0.00     0.071 A 
ATOM     17  N   UNL A   1      30.174  30.410  24.142  1.00  0.00    -0.238 NA
ATOM     18  C   UNL A   1      31.153  29.627  24.626  1.00  0.00     0.133 A 
ATOM     19  N   UNL A   1      31.540  28.473  24.068  1.00  0.00    -0.216 NA
BRANCH  15  20
ATOM     20  C   UNL A   1      28.497  30.901  22.451  1.00  0.00     0.053 C 
ATOM     21  C   UNL A   1      27.627  31.567  23.507  1.00  0.00     0.011 C 
ENDBRANCH  15  20
BRANCH  18  22
ATOM     22  C   UNL A   1      31.896  30.052  25.872  1.00  0.00     0.051 C 
ATOM     23  C   UNL A   1      31.391  31.401  26.377  1.00  0.00     0.016 C 
ATOM     24  C   UNL A   1      31.815  28.977  26.953  1.00  0.00     0.016 C 
ENDBRANCH  18  22
ENDBRANCH  12  14
ENDBRANCH   7  12
ENDBRANCH   4   6
ENDBRANCH   3   4
ENDBRANCH   2   3
ENDBRANCH   1   2
BRANCH   1  25
ATOM     25  O   UNL A   1      38.310  21.670  25.836  1.00  0.00    -0.374 OA
BRANCH  25  26
ATOM     26  C   UNL A   1      38.090  20.470  25.092  1.00  0.00     0.202 C 
BRANCH  26  27
ATOM     27  C   UNL A   1      39.092  19.332  25.321  1.00  0.00     0.261 C 
BRANCH  27  28
ATOM     28  O   UNL A   1      39.946  19.582  26.452  1.00  0.00    -0.460 OA
BRANCH  28  29
ATOM     29  C   UNL A   1      41.269  19.433  26.212  1.00  0.00     0.338 C 
ATOM     30  O   UNL A   1      41.836  18.451  25.752  1.00  0.00    -0.246 OA
BRANCH  29  31
ATOM     31  C   UNL A   1      41.965  20.713  26.426  1.00  0.00     0.060 A 
ATOM     32  C   UNL A   1      42.147  21.140  27.747  1.00  0.00     0.016 A 
ATOM     33  C   UNL A   1      42.378  21.515  25.359  1.00  0.00     0.016 A 
ATOM     34  C   UNL A   1      42.714  22.386  28.008  1.00  0.00     0.010 A 
ATOM     35  C   UNL A   1      42.939  22.770  25.622  1.00  0.00     0.010 A 
ATOM     36  C   UNL A   1      43.086  23.223  26.946  1.00  0.00    -0.014 A 
BRANCH  36  37
ATOM     37  C   UNL A   1      43.539  24.608  27.224  1.00  0.00     0.031 A 
ATOM     38  C   UNL A   1      42.557  25.615  27.752  1.00  0.00     0.074 A 
ATOM     39  C   UNL A   1      44.822  24.958  27.016  1.00  0.00     0.049 A 
ATOM     40  N   UNL A   1      42.731  26.886  28.014  1.00  0.00    -0.248 NA
ATOM     41  C   UNL A   1      41.194  25.128  28.020  1.00  0.00     0.031 C 
ATOM     42  C   UNL A   1      45.873  24.064  26.531  1.00  0.00     0.029 A 
ATOM     43  N   UNL A   1      45.455  26.166  27.175  1.00  0.00    -0.354 N 
ATOM     44  C   UNL A   1      41.503  27.352  28.465  1.00  0.00     0.074 A 
ATOM     45  C   UNL A   1      40.585  26.234  28.424  1.00  0.00     0.031 C 
ATOM     46  C   UNL A   1      47.017  24.759  26.415  1.00  0.00     0.029 A 
ATOM     47  C   UNL A   1      46.771  26.152  26.783  1.00  0.00     0.049 A 
ATOM     48  H   UNL A   1      45.008  26.966  27.536  1.00  0.00     0.167 HD
ATOM     49  C   UNL A   1      41.176  28.598  28.881  1.00  0.00     0.037 A 
ATOM     50  C   UNL A   1      47.665  27.157  26.703  1.00  0.00     0.037 A 
ATOM     51  C   UNL A   1      42.097  29.704  28.939  1.00  0.00     0.049 A 
ATOM     52  C   UNL A   1      47.255  28.547  27.121  1.00  0.00     0.074 A 
ATOM     53  C   UNL A   1      41.869  30.991  29.395  1.00  0.00     0.029 A 
ATOM     54  N   UNL A   1      43.417  29.656  28.519  1.00  0.00    -0.354 N 
ATOM     55  N   UNL A   1      46.107  28.965  27.594  1.00  0.00    -0.248 NA
ATOM     56  C   UNL A   1      48.270  29.604  26.998  1.00  0.00     0.031 C 
ATOM     57  C   UNL A   1      43.034  31.738  29.195  1.00  0.00     0.029 A 
ATOM     58  C   UNL A   1      44.005  30.902  28.671  1.00  0.00     0.049 A 
ATOM     59  H   UNL A   1      43.869  28.856  28.165  1.00  0.00     0.167 HD
ATOM     60  C   UNL A   1      46.268  30.322  27.848  1.00  0.00     0.074 A 
ATOM     61  C   UNL A   1      47.632  30.653  27.496  1.00  0.00     0.031 C 
ATOM     62  C   UNL A   1      45.367  31.214  28.325  1.00  0.00     0.037 A 
BRANCH  49  63
ATOM     63  C   UNL A   1      39.757  28.854  29.295  1.00  0.00     0.064 A 
ATOM     64  C   UNL A   1      39.345  28.742  30.630  1.00  0.00     0.173 A 
ATOM     65  C   UNL A   1      38.819  29.301  28.352  1.00  0.00     0.173 A 
ATOM     66  F   UNL A   1      40.202  28.309  31.567  1.00  0.00    -0.203 F 
ATOM     67  C   UNL A   1      38.043  29.062  31.005  1.00  0.00     0.198 A 
ATOM     68  C   UNL A   1      37.525  29.644  28.735  1.00  0.00     0.198 A 
ATOM     69  F   UNL A   1      39.165  29.430  27.062  1.00  0.00    -0.203 F 
ATOM     70  F   UNL A   1      37.662  28.925  32.284  1.00  0.00    -0.200 F 
ATOM     71  C   UNL A   1      37.138  29.523  30.061  1.00  0.00     0.200 A 
ATOM     72  F   UNL A   1      36.657  30.103  27.823  1.00  0.00    -0.200 F 
ATOM     73  F   UNL A   1      35.891  29.851  30.427  1.00  0.00    -0.200 F 
ENDBRANCH  49  63
BRANCH  50  74
ATOM     74  C   UNL A   1      49.032  26.903  26.172  1.00  0.00     0.064 A 
ATOM     75  C   UNL A   1      49.336  27.111  24.820  1.00  0.00     0.173 A 
ATOM     76  C   UNL A   1      50.046  26.397  26.998  1.00  0.00     0.173 A 
ATOM     77  F   UNL A   1      48.393  27.567  23.983  1.00  0.00    -0.203 F 
ATOM     78  C   UNL A   1      50.592  26.792  24.308  1.00  0.00     0.198 A 
ATOM     79  C   UNL A   1      51.313  26.110  26.492  1.00  0.00     0.198 A 
ATOM     80  F   UNL A   1      49.807  26.176  28.299  1.00  0.00    -0.203 F 
ATOM     81  F   UNL A   1      50.837  26.938  22.998  1.00  0.00    -0.200 F 
ATOM     82  C   UNL A   1      51.581  26.296  25.145  1.00  0.00     0.200 A 
ATOM     83  F   UNL A   1      52.268  25.642  27.307  1.00  0.00    -0.200 F 
ATOM     84  F   UNL A   1      52.786  25.983  24.650  1.00  0.00    -0.200 F 
ENDBRANCH  50  74
BRANCH  62  85
ATOM     85  C   UNL A   1      45.835  32.628  28.528  1.00  0.00     0.064 A 
ATOM     86  C   UNL A   1      45.692  33.602  27.529  1.00  0.00     0.173 A 
ATOM     87  C   UNL A   1      46.396  33.021  29.753  1.00  0.00     0.173 A 
ATOM     88  F   UNL A   1      45.173  33.273  26.336  1.00  0.00    -0.203 F 
ATOM     89  C   UNL A   1      46.119  34.910  27.739  1.00  0.00     0.198 A 
ATOM     90  C   UNL A   1      46.793  34.338  29.971  1.00  0.00     0.198 A 
ATOM     91  F   UNL A   1      46.548  32.132  30.746  1.00  0.00    -0.203 F 
ATOM     92  F   UNL A   1      46.019  35.811  26.752  1.00  0.00    -0.200 F 
ATOM     93  C   UNL A   1      46.662  35.278  28.960  1.00  0.00     0.200 A 
ATOM     94  F   UNL A   1      47.303  34.696  31.158  1.00  0.00    -0.200 F 
ATOM     95  F   UNL A   1      47.066  36.541  29.162  1.00  0.00    -0.200 F 
ENDBRANCH  62  85
ENDBRANCH  36  37
ENDBRANCH  29  31
ENDBRANCH  28  29
ENDBRANCH  27  28
ENDBRANCH  26  27
ENDBRANCH  25  26
ENDBRANCH   1  25
TORSDOF 18
ENDMDL
MODEL 2
REMARK VINA RESULT:     -11.1      4.047      8.109
REMARK SMILES CCc1cc(Nc2cccc(C(=O)OCCOCCOC(=O)c3ccc(-c4c5nc(c(-c6c(F)c(F)c(F)c(F)c6F)c6ccc([nH]6)c(-c6c(F)c(F)c(F)c(F)c6F)c6nc(c(-c7c(F)c(F)c(F)c(F)c7F)c7ccc4[nH]7)C=C6)C=C5)cc3)c2)nc(C(C)C)n1
REMARK SMILES IDX 16 1 15 2 14 3 12 4 13 5 11 6 7 7 8 8 86 9 9 10 10 11 6 12
REMARK SMILES IDX 5 14 3 15 4 16 92 17 88 18 87 19 2 20 1 21 89 22 90 23 91 24
REMARK SMILES IDX 17 25 18 26 19 27 20 28 21 29 22 30 23 31 24 32 85 33 25 34
REMARK SMILES IDX 84 35 26 36 27 37 28 38 78 39 29 40 83 41 77 42 79 43 30 44
REMARK SMILES IDX 82 45 76 46 75 47 31 49 63 50 43 51 62 52 44 53 47 54 61 55
REMARK SMILES IDX 80 56 45 57 46 58 60 60 81 61 48 62 32 63 33 64 41 65 34 66
REMARK SMILES IDX 35 67 39 68 42 69 36 70 37 71 40 72 38 73 64 74 65 75 73 76
REMARK SMILES IDX 66 77 67 78 71 79 74 80 68 81 69 82 72 83 70 84 49 85 50 86
REMARK SMILES IDX 58 87 51 88 52 89 56 90 59 91 53 92 54 93 57 94 55 95
REMARK H PARENT 6 13 79 48 47 59
REMARK Flexibility Score: inf
ROOT
ATOM      1  C   UNL A   1      33.338  28.926  23.437  1.00  0.00     0.202 C 
ENDROOT
BRANCH   1   2
ATOM      2  C   UNL A   1      33.621  27.541  22.844  1.00  0.00     0.261 C 
BRANCH   2   3
ATOM      3  O   UNL A   1      32.576  27.150  21.937  1.00  0.00    -0.460 OA
BRANCH   3   4
ATOM      4  C   UNL A   1      31.321  27.179  22.447  1.00  0.00     0.338 C 
ATOM      5  O   UNL A   1      30.394  27.880  22.069  1.00  0.00    -0.246 OA
BRANCH   4   6
ATOM      6  C   UNL A   1      31.152  26.078  23.425  1.00  0.00     0.062 A 
ATOM      7  C   UNL A   1      31.127  23.717  24.019  1.00  0.00     0.040 A 
ATOM      8  C   UNL A   1      30.750  24.079  25.321  1.00  0.00     0.026 A 
ATOM      9  C   UNL A   1      31.294  24.733  23.067  1.00  0.00     0.041 A 
ATOM     10  C   UNL A   1      30.588  25.420  25.679  1.00  0.00     0.003 A 
ATOM     11  C   UNL A   1      30.804  26.420  24.734  1.00  0.00     0.016 A 
BRANCH   7  12
ATOM     12  N   UNL A   1      31.399  22.363  23.738  1.00  0.00    -0.340 N 
ATOM     13  H   UNL A   1      30.699  21.874  23.246  1.00  0.00     0.168 HD
BRANCH  12  14
ATOM     14  C   UNL A   1      32.551  21.625  24.075  1.00  0.00     0.134 A 
ATOM     15  C   UNL A   1      33.609  19.574  24.582  1.00  0.00     0.046 A 
ATOM     16  C   UNL A   1      32.454  20.258  24.244  1.00  0.00     0.071 A 
ATOM     17  N   UNL A   1      34.793  20.203  24.734  1.00  0.00    -0.238 NA
ATOM     18  C   UNL A   1      34.804  21.533  24.543  1.00  0.00     0.133 A 
ATOM     19  N   UNL A   1      33.726  22.256  24.216  1.00  0.00    -0.216 NA
BRANCH  15  20
ATOM     20  C   UNL A   1      33.590  18.092  24.856  1.00  0.00     0.053 C 
ATOM     21  C   UNL A   1      34.291  17.264  23.788  1.00  0.00     0.011 C 
ENDBRANCH  15  20
BRANCH  18  22
ATOM     22  C   UNL A   1      36.097  22.296  24.712  1.00  0.00     0.051 C 
ATOM     23  C   UNL A   1      36.609  22.811  23.369  1.00  0.00     0.016 C 
ATOM     24  C   UNL A   1      35.941  23.425  25.727  1.00  0.00     0.016 C 
ENDBRANCH  18  22
ENDBRANCH  12  14
ENDBRANCH   7  12
ENDBRANCH   4   6
ENDBRANCH   3   4
ENDBRANCH   2   3
ENDBRANCH   1   2
BRANCH   1  25
ATOM     25  O   UNL A   1      33.263  28.999  24.860  1.00  0.00    -0.374 OA
BRANCH  25  26
ATOM     26  C   UNL A   1      32.375  29.973  25.411  1.00  0.00     0.202 C 
BRANCH  26  27
ATOM     27  C   UNL A   1      32.327  30.062  26.941  1.00  0.00     0.261 C 
BRANCH  27  28
ATOM     28  O   UNL A   1      33.551  29.611  27.549  1.00  0.00    -0.460 OA
BRANCH  28  29
ATOM     29  C   UNL A   1      34.354  30.595  28.013  1.00  0.00     0.338 C 
ATOM     30  O   UNL A   1      34.027  31.722  28.360  1.00  0.00    -0.246 OA
BRANCH  29  31
ATOM     31  C   UNL A   1      35.717  30.074  28.221  1.00  0.00     0.060 A 
ATOM     32  C   UNL A   1      36.050  29.623  29.504  1.00  0.00     0.016 A 
ATOM     33  C   UNL A   1      36.672  30.083  27.202  1.00  0.00     0.016 A 
ATOM     34  C   UNL A   1      37.351  29.209  29.783  1.00  0.00     0.010 A 
ATOM     35  C   UNL A   1      37.980  29.675  27.486  1.00  0.00     0.010 A 
ATOM     36  C   UNL A   1      38.333  29.261  28.783  1.00  0.00    -0.014 A 
BRANCH  36  37
ATOM     37  C   UNL A   1      39.748  28.971  29.125  1.00  0.00     0.031 A 
ATOM     38  C   UNL A   1      40.550  29.994  29.880  1.00  0.00     0.074 A 
ATOM     39  C   UNL A   1      40.306  27.799  28.773  1.00  0.00     0.049 A 
ATOM     40  N   UNL A   1      41.809  29.964  30.235  1.00  0.00    -0.248 NA
ATOM     41  C   UNL A   1      39.839  31.216  30.289  1.00  0.00     0.031 C 
ATOM     42  C   UNL A   1      39.623  26.719  28.062  1.00  0.00     0.029 A 
ATOM     43  N   UNL A   1      41.583  27.327  28.955  1.00  0.00    -0.354 N 
ATOM     44  C   UNL A   1      42.046  31.162  30.896  1.00  0.00     0.074 A 
ATOM     45  C   UNL A   1      40.805  31.907  30.878  1.00  0.00     0.031 C 
ATOM     46  C   UNL A   1      40.493  25.716  27.853  1.00  0.00     0.029 A 
ATOM     47  C   UNL A   1      41.801  26.098  28.382  1.00  0.00     0.049 A 
ATOM     48  H   UNL A   1      42.275  27.822  29.450  1.00  0.00     0.167 HD
ATOM     49  C   UNL A   1      43.193  31.594  31.471  1.00  0.00     0.037 A 
ATOM     50  C   UNL A   1      42.935  25.379  28.273  1.00  0.00     0.037 A 
ATOM     51  C   UNL A   1      44.421  30.843  31.503  1.00  0.00     0.049 A 
ATOM     52  C   UNL A   1      44.210  25.913  28.875  1.00  0.00     0.074 A 
ATOM     53  C   UNL A   1      45.620  31.178  32.106  1.00  0.00     0.029 A 
ATOM     54  N   UNL A   1      44.608  29.610  30.898  1.00  0.00    -0.354 N 
ATOM     55  N   UNL A   1      44.411  27.023  29.542  1.00  0.00    -0.248 NA
ATOM     56  C   UNL A   1      45.418  25.090  28.711  1.00  0.00     0.031 C 
ATOM     57  C   UNL A   1      46.551  30.176  31.817  1.00  0.00     0.029 A 
ATOM     58  C   UNL A   1      45.915  29.188  31.084  1.00  0.00     0.049 A 
ATOM     59  H   UNL A   1      43.916  29.108  30.410  1.00  0.00     0.167 HD
ATOM     60  C   UNL A   1      45.753  27.019  29.898  1.00  0.00     0.074 A 
ATOM     61  C   UNL A   1      46.316  25.786  29.392  1.00  0.00     0.031 C 
ATOM     62  C   UNL A   1      46.459  27.954  30.581  1.00  0.00     0.037 A 
BRANCH  49  63
ATOM     63  C   UNL A   1      43.195  32.955  32.102  1.00  0.00     0.064 A 
ATOM     64  C   UNL A   1      43.464  34.114  31.360  1.00  0.00     0.173 A 
ATOM     65  C   UNL A   1      42.837  33.106  33.451  1.00  0.00     0.173 A 
ATOM     66  F   UNL A   1      43.822  34.022  30.071  1.00  0.00    -0.203 F 
ATOM     67  C   UNL A   1      43.382  35.374  31.948  1.00  0.00     0.198 A 
ATOM     68  C   UNL A   1      42.731  34.368  34.028  1.00  0.00     0.198 A 
ATOM     69  F   UNL A   1      42.564  32.028  34.203  1.00  0.00    -0.203 F 
ATOM     70  F   UNL A   1      43.668  36.467  31.227  1.00  0.00    -0.200 F 
ATOM     71  C   UNL A   1      43.005  35.501  33.276  1.00  0.00     0.200 A 
ATOM     72  F   UNL A   1      42.353  34.489  35.308  1.00  0.00    -0.200 F 
ATOM     73  F   UNL A   1      42.906  36.715  33.835  1.00  0.00    -0.200 F 
ENDBRANCH  49  63
BRANCH  50  74
ATOM     74  C   UNL A   1      42.935  24.088  27.533  1.00  0.00     0.064 A 
ATOM     75  C   UNL A   1      43.233  24.035  26.164  1.00  0.00     0.173 A 
ATOM     76  C   UNL A   1      42.585  22.889  28.171  1.00  0.00     0.173 A 
ATOM     77  F   UNL A   1      43.546  25.158  25.503  1.00  0.00    -0.203 F 
ATOM     78  C   UNL A   1      43.149  22.838  25.455  1.00  0.00     0.198 A 
ATOM     79  C   UNL A   1      42.534  21.686  27.468  1.00  0.00     0.198 A 
ATOM     80  F   UNL A   1      42.287  22.884  29.478  1.00  0.00    -0.203 F 
ATOM     81  F   UNL A   1      43.374  22.826  24.134  1.00  0.00    -0.200 F 
ATOM     82  C   UNL A   1      42.804  21.663  26.109  1.00  0.00     0.200 A 
ATOM     83  F   UNL A   1      42.212  20.553  28.106  1.00  0.00    -0.200 F 
ATOM     84  F   UNL A   1      42.716  20.515  25.425  1.00  0.00    -0.200 F 
ENDBRANCH  50  74
BRANCH  62  85
ATOM     85  C   UNL A   1      47.909  27.666  30.849  1.00  0.00     0.064 A 
ATOM     86  C   UNL A   1      48.320  26.943  31.979  1.00  0.00     0.173 A 
ATOM     87  C   UNL A   1      48.896  28.084  29.943  1.00  0.00     0.173 A 
ATOM     88  F   UNL A   1      47.417  26.533  32.883  1.00  0.00    -0.203 F 
ATOM     89  C   UNL A   1      49.667  26.674  32.206  1.00  0.00     0.198 A 
ATOM     90  C   UNL A   1      50.239  27.785  30.156  1.00  0.00     0.198 A 
ATOM     91  F   UNL A   1      48.557  28.770  28.842  1.00  0.00    -0.203 F 
ATOM     92  F   UNL A   1      50.041  26.026  33.318  1.00  0.00    -0.200 F 
ATOM     93  C   UNL A   1      50.624  27.088  31.291  1.00  0.00     0.200 A 
ATOM     94  F   UNL A   1      51.161  28.172  29.263  1.00  0.00    -0.200 F 
ATOM     95  F   UNL A   1      51.920  26.821  31.508  1.00  0.00    -0.200 F 
ENDBRANCH  62  85
ENDBRANCH  36  37
ENDBRANCH  29  31
ENDBRANCH  28  29
ENDBRANCH  27  28
ENDBRANCH  26  27
ENDBRANCH  25  26
ENDBRANCH   1  25
TORSDOF 18
ENDMDL
MODEL 3
REMARK VINA RESULT:     -11.1      5.667     11.131
REMARK SMILES CCc1cc(Nc2cccc(C(=O)OCCOCCOC(=O)c3ccc(-c4c5nc(c(-c6c(F)c(F)c(F)c(F)c6F)c6ccc([nH]6)c(-c6c(F)c(F)c(F)c(F)c6F)c6nc(c(-c7c(F)c(F)c(F)c(F)c7F)c7ccc4[nH]7)C=C6)C=C5)cc3)c2)nc(C(C)C)n1
REMARK SMILES IDX 16 1 15 2 14 3 12 4 13 5 11 6 7 7 8 8 86 9 9 10 10 11 6 12
REMARK SMILES IDX 5 14 3 15 4 16 92 17 88 18 87 19 2 20 1 21 89 22 90 23 91 24
REMARK SMILES IDX 17 25 18 26 19 27 20 28 21 29 22 30 23 31 24 32 85 33 25 34
REMARK SMILES IDX 84 35 26 36 27 37 28 38 78 39 29 40 83 41 77 42 79 43 30 44
REMARK SMILES IDX 82 45 76 46 75 47 31 49 63 50 43 51 62 52 44 53 47 54 61 55
REMARK SMILES IDX 80 56 45 57 46 58 60 60 81 61 48 62 32 63 33 64 41 65 34 66
REMARK SMILES IDX 35 67 39 68 42 69 36 70 37 71 40 72 38 73 64 74 65 75 73 76
REMARK SMILES IDX 66 77 67 78 71 79 74 80 68 81 69 82 72 83 70 84 49 85 50 86
REMARK SMILES IDX 58 87 51 88 52 89 56 90 59 91 53 92 54 93 57 94 55 95
REMARK H PARENT 6 13 79 48 47 59
REMARK Flexibility Score: inf
ROOT
ATOM      1  C   UNL A   1      31.952  28.845  27.197  1.00  0.00     0.202 C 
ENDROOT
BRANCH   1   2
ATOM      2  C   UNL A   1      31.413  27.740  26.283  1.00  0.00     0.261 C 
BRANCH   2   3
ATOM      3  O   UNL A   1      31.283  28.212  24.932  1.00  0.00    -0.460 OA
BRANCH   3   4
ATOM      4  C   UNL A   1      30.525  27.441  24.116  1.00  0.00     0.338 C 
ATOM      5  O   UNL A   1      29.340  27.596  23.856  1.00  0.00    -0.246 OA
BRANCH   4   6
ATOM      6  C   UNL A   1      31.384  26.468  23.402  1.00  0.00     0.062 A 
ATOM      7  C   UNL A   1      32.038  24.193  22.831  1.00  0.00     0.040 A 
ATOM      8  C   UNL A   1      33.093  24.719  22.069  1.00  0.00     0.026 A 
ATOM      9  C   UNL A   1      31.206  25.085  23.522  1.00  0.00     0.041 A 
ATOM     10  C   UNL A   1      33.287  26.098  21.962  1.00  0.00     0.003 A 
ATOM     11  C   UNL A   1      32.423  26.972  22.615  1.00  0.00     0.016 A 
BRANCH   7  12
ATOM     12  N   UNL A   1      31.807  22.802  22.810  1.00  0.00    -0.340 N 
ATOM     13  H   UNL A   1      31.201  22.474  22.106  1.00  0.00     0.168 HD
BRANCH  12  14
ATOM     14  C   UNL A   1      32.340  21.826  23.674  1.00  0.00     0.134 A 
ATOM     15  C   UNL A   1      33.403  21.223  25.696  1.00  0.00     0.046 A 
ATOM     16  C   UNL A   1      32.884  22.215  24.882  1.00  0.00     0.071 A 
ATOM     17  N   UNL A   1      33.376  19.922  25.343  1.00  0.00    -0.238 NA
ATOM     18  C   UNL A   1      32.820  19.625  24.156  1.00  0.00     0.133 A 
ATOM     19  N   UNL A   1      32.302  20.533  23.319  1.00  0.00    -0.216 NA
BRANCH  15  20
ATOM     20  C   UNL A   1      34.080  21.556  27.001  1.00  0.00     0.053 C 
ATOM     21  C   UNL A   1      33.193  22.320  27.974  1.00  0.00     0.011 C 
ENDBRANCH  15  20
BRANCH  18  22
ATOM     22  C   UNL A   1      32.772  18.186  23.698  1.00  0.00     0.051 C 
ATOM     23  C   UNL A   1      32.351  18.091  22.234  1.00  0.00     0.016 C 
ATOM     24  C   UNL A   1      34.105  17.485  23.949  1.00  0.00     0.016 C 
ENDBRANCH  18  22
ENDBRANCH  12  14
ENDBRANCH   7  12
ENDBRANCH   4   6
ENDBRANCH   3   4
ENDBRANCH   2   3
ENDBRANCH   1   2
BRANCH   1  25
ATOM     25  O   UNL A   1      31.702  30.187  26.778  1.00  0.00    -0.374 OA
BRANCH  25  26
ATOM     26  C   UNL A   1      32.646  31.178  27.186  1.00  0.00     0.202 C 
BRANCH  26  27
ATOM     27  C   UNL A   1      32.130  32.619  27.263  1.00  0.00     0.261 C 
BRANCH  27  28
ATOM     28  O   UNL A   1      33.203  33.579  27.281  1.00  0.00    -0.460 OA
BRANCH  28  29
ATOM     29  C   UNL A   1      33.269  34.340  28.397  1.00  0.00     0.338 C 
ATOM     30  O   UNL A   1      32.474  35.195  28.765  1.00  0.00    -0.246 OA
BRANCH  29  31
ATOM     31  C   UNL A   1      34.381  33.884  29.249  1.00  0.00     0.060 A 
ATOM     32  C   UNL A   1      35.674  34.294  28.902  1.00  0.00     0.016 A 
ATOM     33  C   UNL A   1      34.176  33.023  30.330  1.00  0.00     0.016 A 
ATOM     34  C   UNL A   1      36.774  33.818  29.614  1.00  0.00     0.010 A 
ATOM     35  C   UNL A   1      35.282  32.539  31.039  1.00  0.00     0.010 A 
ATOM     36  C   UNL A   1      36.587  32.913  30.669  1.00  0.00    -0.014 A 
BRANCH  36  37
ATOM     37  C   UNL A   1      37.764  32.287  31.319  1.00  0.00     0.031 A 
ATOM     38  C   UNL A   1      38.514  31.200  30.602  1.00  0.00     0.074 A 
ATOM     39  C   UNL A   1      38.166  32.696  32.537  1.00  0.00     0.049 A 
ATOM     40  N   UNL A   1      39.536  30.489  31.007  1.00  0.00    -0.248 NA
ATOM     41  C   UNL A   1      38.051  30.867  29.245  1.00  0.00     0.031 C 
ATOM     42  C   UNL A   1      37.536  33.758  33.320  1.00  0.00     0.029 A 
ATOM     43  N   UNL A   1      39.195  32.255  33.333  1.00  0.00    -0.354 N 
ATOM     44  C   UNL A   1      39.830  29.619  29.966  1.00  0.00     0.074 A 
ATOM     45  C   UNL A   1      38.869  29.877  28.915  1.00  0.00     0.031 C 
ATOM     46  C   UNL A   1      38.181  33.874  34.494  1.00  0.00     0.029 A 
ATOM     47  C   UNL A   1      39.244  32.873  34.558  1.00  0.00     0.049 A 
ATOM     48  H   UNL A   1      39.834  31.562  33.052  1.00  0.00     0.167 HD
ATOM     49  C   UNL A   1      40.818  28.696  29.893  1.00  0.00     0.037 A 
ATOM     50  C   UNL A   1      40.040  32.636  35.620  1.00  0.00     0.037 A 
ATOM     51  C   UNL A   1      41.784  28.455  30.933  1.00  0.00     0.049 A 
ATOM     52  C   UNL A   1      41.095  31.563  35.528  1.00  0.00     0.074 A 
ATOM     53  C   UNL A   1      42.853  27.575  30.928  1.00  0.00     0.029 A 
ATOM     54  N   UNL A   1      41.794  29.090  32.165  1.00  0.00    -0.354 N 
ATOM     55  N   UNL A   1      41.398  30.782  34.521  1.00  0.00    -0.248 NA
ATOM     56  C   UNL A   1      41.922  31.342  36.724  1.00  0.00     0.031 C 
ATOM     57  C   UNL A   1      43.473  27.634  32.180  1.00  0.00     0.029 A 
ATOM     58  C   UNL A   1      42.829  28.593  32.942  1.00  0.00     0.049 A 
ATOM     59  H   UNL A   1      41.160  29.789  32.446  1.00  0.00     0.167 HD
ATOM     60  C   UNL A   1      42.462  29.998  34.949  1.00  0.00     0.074 A 
ATOM     61  C   UNL A   1      42.767  30.412  36.302  1.00  0.00     0.031 C 
ATOM     62  C   UNL A   1      43.125  29.021  34.284  1.00  0.00     0.037 A 
BRANCH  49  63
ATOM     63  C   UNL A   1      40.905  27.853  28.656  1.00  0.00     0.064 A 
ATOM     64  C   UNL A   1      40.165  26.670  28.514  1.00  0.00     0.173 A 
ATOM     65  C   UNL A   1      41.674  28.282  27.563  1.00  0.00     0.173 A 
ATOM     66  F   UNL A   1      39.422  26.212  29.533  1.00  0.00    -0.203 F 
ATOM     67  C   UNL A   1      40.198  25.945  27.325  1.00  0.00     0.198 A 
ATOM     68  C   UNL A   1      41.684  27.568  26.369  1.00  0.00     0.198 A 
ATOM     69  F   UNL A   1      42.396  29.410  27.646  1.00  0.00    -0.203 F 
ATOM     70  F   UNL A   1      39.502  24.804  27.219  1.00  0.00    -0.200 F 
ATOM     71  C   UNL A   1      40.947  26.399  26.251  1.00  0.00     0.200 A 
ATOM     72  F   UNL A   1      42.399  28.017  25.327  1.00  0.00    -0.200 F 
ATOM     73  F   UNL A   1      40.962  25.711  25.101  1.00  0.00    -0.200 F 
ENDBRANCH  49  63
BRANCH  50  74
ATOM     74  C   UNL A   1      39.853  33.403  36.881  1.00  0.00     0.064 A 
ATOM     75  C   UNL A   1      38.895  33.018  37.830  1.00  0.00     0.173 A 
ATOM     76  C   UNL A   1      40.593  34.566  37.137  1.00  0.00     0.173 A 
ATOM     77  F   UNL A   1      38.143  31.929  37.619  1.00  0.00    -0.203 F 
ATOM     78  C   UNL A   1      38.663  33.785  38.970  1.00  0.00     0.198 A 
ATOM     79  C   UNL A   1      40.384  35.315  38.295  1.00  0.00     0.198 A 
ATOM     80  F   UNL A   1      41.519  34.982  36.261  1.00  0.00    -0.203 F 
ATOM     81  F   UNL A   1      37.697  33.431  39.828  1.00  0.00    -0.200 F 
ATOM     82  C   UNL A   1      39.411  34.930  39.204  1.00  0.00     0.200 A 
ATOM     83  F   UNL A   1      41.116  36.414  38.521  1.00  0.00    -0.200 F 
ATOM     84  F   UNL A   1      39.182  35.671  40.296  1.00  0.00    -0.200 F 
ENDBRANCH  50  74
BRANCH  62  85
ATOM     85  C   UNL A   1      44.269  28.354  34.996  1.00  0.00     0.064 A 
ATOM     86  C   UNL A   1      44.091  27.171  35.727  1.00  0.00     0.173 A 
ATOM     87  C   UNL A   1      45.565  28.885  34.911  1.00  0.00     0.173 A 
ATOM     88  F   UNL A   1      42.869  26.630  35.850  1.00  0.00    -0.203 F 
ATOM     89  C   UNL A   1      45.164  26.559  36.370  1.00  0.00     0.198 A 
ATOM     90  C   UNL A   1      46.641  28.253  35.528  1.00  0.00     0.198 A 
ATOM     91  F   UNL A   1      45.792  30.010  34.217  1.00  0.00    -0.203 F 
ATOM     92  F   UNL A   1      44.962  25.457  37.105  1.00  0.00    -0.200 F 
ATOM     93  C   UNL A   1      46.438  27.096  36.264  1.00  0.00     0.200 A 
ATOM     94  F   UNL A   1      47.875  28.765  35.411  1.00  0.00    -0.200 F 
ATOM     95  F   UNL A   1      47.471  26.500  36.877  1.00  0.00    -0.200 F 
ENDBRANCH  62  85
ENDBRANCH  36  37
ENDBRANCH  29  31
ENDBRANCH  28  29
ENDBRANCH  27  28
ENDBRANCH  26  27
ENDBRANCH  25  26
ENDBRANCH   1  25
TORSDOF 18
ENDMDL
