MODEL 1
REMARK VINA RESULT:     -10.9      0.000      0.000
REMARK SMILES CC(=O)N[C@@H](CSCc1ccnc2ccccc12)C(=O)OCCOCCOC(=O)c1ccc(-c2c3nc(c(-c4c(F)c(F)c(F)c(F)c4F)c4ccc([nH]4)c(-c4c(F)c(F)c(F)c(F)c4F)c4nc(c(-c5c(F)c(F)c(F)c(F)c5F)c5ccc2[nH]5)C=C4)C=C3)cc1
REMARK SMILES IDX 23 1 22 2 21 3 19 4 20 5 5 6 4 7 1 8 2 9 3 10 6 12 7 13 8 14
REMARK SMILES IDX 9 15 10 16 18 17 11 18 13 19 17 20 12 21 14 22 16 23 15 24
REMARK SMILES IDX 24 25 25 26 26 27 27 28 28 29 29 30 30 31 31 32 92 33 32 34
REMARK SMILES IDX 91 35 33 36 34 37 35 38 85 39 36 40 90 41 84 42 86 43 37 44
REMARK SMILES IDX 89 45 83 46 82 47 38 49 70 50 50 51 69 52 51 53 54 54 68 55
REMARK SMILES IDX 87 56 52 57 53 58 67 60 88 61 55 62 39 63 40 64 48 65 41 66
REMARK SMILES IDX 42 67 46 68 49 69 43 70 44 71 47 72 45 73 71 74 72 75 80 76
REMARK SMILES IDX 73 77 74 78 78 79 81 80 75 81 76 82 79 83 77 84 56 85 57 86
REMARK SMILES IDX 65 87 58 88 59 89 63 90 66 91 60 92 61 93 64 94 62 95
REMARK H PARENT 4 11 86 48 54 59
REMARK Flexibility Score: inf
ROOT
ATOM      1  C   UNL A   1      33.380  29.349  27.264  1.00  0.00     0.202 C 
ENDROOT
BRANCH   1   2
ATOM      2  C   UNL A   1      33.618  28.140  26.358  1.00  0.00     0.261 C 
BRANCH   2   3
ATOM      3  O   UNL A   1      32.403  27.756  25.701  1.00  0.00    -0.462 OA
BRANCH   3   4
ATOM      4  C   UNL A   1      31.556  26.980  26.436  1.00  0.00     0.329 C 
ATOM      5  O   UNL A   1      31.084  27.286  27.524  1.00  0.00    -0.250 OA
BRANCH   4   6
ATOM      6  C   UNL A   1      31.309  25.621  25.765  1.00  0.00     0.202 C 
BRANCH   6   7
ATOM      7  N   UNL A   1      30.285  24.813  26.437  1.00  0.00    -0.342 N 
ATOM      8  C   UNL A   1      31.660  22.778  26.713  1.00  0.00     0.114 C 
ATOM      9  C   UNL A   1      30.393  23.553  26.946  1.00  0.00     0.217 C 
ATOM     10  O   UNL A   1      29.473  23.103  27.625  1.00  0.00    -0.275 OA
ATOM     11  H   UNL A   1      29.403  25.237  26.533  1.00  0.00     0.164 HD
ENDBRANCH   6   7
BRANCH   6  12
ATOM     12  C   UNL A   1      31.002  25.843  24.280  1.00  0.00     0.106 C 
BRANCH  12  13
ATOM     13  S   UNL A   1      30.783  24.321  23.263  1.00  0.00    -0.154 SA
BRANCH  13  14
ATOM     14  C   UNL A   1      32.425  24.140  22.478  1.00  0.00     0.105 C 
BRANCH  14  15
ATOM     15  C   UNL A   1      33.494  23.507  23.337  1.00  0.00    -0.027 A 
ATOM     16  C   UNL A   1      34.594  24.281  23.735  1.00  0.00     0.025 A 
ATOM     17  C   UNL A   1      33.461  22.134  23.717  1.00  0.00     0.004 A 
ATOM     18  C   UNL A   1      35.551  23.719  24.552  1.00  0.00     0.112 A 
ATOM     19  C   UNL A   1      34.503  21.667  24.554  1.00  0.00     0.070 A 
ATOM     20  C   UNL A   1      32.468  21.205  23.315  1.00  0.00     0.010 A 
ATOM     21  N   UNL A   1      35.512  22.444  24.976  1.00  0.00    -0.256 NA
ATOM     22  C   UNL A   1      34.505  20.341  24.966  1.00  0.00     0.029 A 
ATOM     23  C   UNL A   1      32.495  19.875  23.738  1.00  0.00     0.001 A 
ATOM     24  C   UNL A   1      33.516  19.442  24.569  1.00  0.00     0.002 A 
ENDBRANCH  14  15
ENDBRANCH  13  14
ENDBRANCH  12  13
ENDBRANCH   6  12
ENDBRANCH   4   6
ENDBRANCH   3   4
ENDBRANCH   2   3
ENDBRANCH   1   2
BRANCH   1  25
ATOM     25  O   UNL A   1      33.139  30.588  26.598  1.00  0.00    -0.374 OA
BRANCH  25  26
ATOM     26  C   UNL A   1      31.833  31.160  26.712  1.00  0.00     0.202 C 
BRANCH  26  27
ATOM     27  C   UNL A   1      31.764  32.646  27.084  1.00  0.00     0.261 C 
BRANCH  27  28
ATOM     28  O   UNL A   1      33.065  33.255  27.202  1.00  0.00    -0.460 OA
BRANCH  28  29
ATOM     29  C   UNL A   1      33.175  34.162  28.201  1.00  0.00     0.338 C 
ATOM     30  O   UNL A   1      32.424  35.097  28.449  1.00  0.00    -0.246 OA
BRANCH  29  31
ATOM     31  C   UNL A   1      34.276  33.797  29.106  1.00  0.00     0.060 A 
ATOM     32  C   UNL A   1      35.544  34.332  28.841  1.00  0.00     0.016 A 
ATOM     33  C   UNL A   1      34.099  32.852  30.117  1.00  0.00     0.016 A 
ATOM     34  C   UNL A   1      36.650  33.898  29.570  1.00  0.00     0.010 A 
ATOM     35  C   UNL A   1      35.213  32.410  30.840  1.00  0.00     0.010 A 
ATOM     36  C   UNL A   1      36.497  32.909  30.551  1.00  0.00    -0.014 A 
BRANCH  36  37
ATOM     37  C   UNL A   1      37.692  32.315  31.196  1.00  0.00     0.031 A 
ATOM     38  C   UNL A   1      38.449  31.228  30.487  1.00  0.00     0.074 A 
ATOM     39  C   UNL A   1      38.101  32.749  32.401  1.00  0.00     0.049 A 
ATOM     40  N   UNL A   1      39.470  30.522  30.902  1.00  0.00    -0.248 NA
ATOM     41  C   UNL A   1      37.996  30.895  29.129  1.00  0.00     0.031 C 
ATOM     42  C   UNL A   1      37.481  33.829  33.164  1.00  0.00     0.029 A 
ATOM     43  N   UNL A   1      39.133  32.319  33.199  1.00  0.00    -0.354 N 
ATOM     44  C   UNL A   1      39.777  29.656  29.860  1.00  0.00     0.074 A 
ATOM     45  C   UNL A   1      38.823  29.911  28.803  1.00  0.00     0.031 C 
ATOM     46  C   UNL A   1      38.132  33.966  34.332  1.00  0.00     0.029 A 
ATOM     47  C   UNL A   1      39.190  32.960  34.411  1.00  0.00     0.049 A 
ATOM     48  H   UNL A   1      39.770  31.620  32.928  1.00  0.00     0.167 HD
ATOM     49  C   UNL A   1      40.768  28.735  29.793  1.00  0.00     0.037 A 
ATOM     50  C   UNL A   1      39.984  32.736  35.477  1.00  0.00     0.037 A 
ATOM     51  C   UNL A   1      41.717  28.485  30.846  1.00  0.00     0.049 A 
ATOM     52  C   UNL A   1      41.021  31.645  35.410  1.00  0.00     0.074 A 
ATOM     53  C   UNL A   1      42.775  27.592  30.862  1.00  0.00     0.029 A 
ATOM     54  N   UNL A   1      41.716  29.124  32.077  1.00  0.00    -0.354 N 
ATOM     55  N   UNL A   1      41.319  30.845  34.417  1.00  0.00    -0.248 NA
ATOM     56  C   UNL A   1      41.829  31.424  36.619  1.00  0.00     0.031 C 
ATOM     57  C   UNL A   1      43.383  27.656  32.119  1.00  0.00     0.029 A 
ATOM     58  C   UNL A   1      42.733  28.621  32.872  1.00  0.00     0.049 A 
ATOM     59  H   UNL A   1      41.085  29.830  32.346  1.00  0.00     0.167 HD
ATOM     60  C   UNL A   1      42.356  30.042  34.869  1.00  0.00     0.074 A 
ATOM     61  C   UNL A   1      42.648  30.459  36.225  1.00  0.00     0.031 C 
ATOM     62  C   UNL A   1      43.011  29.047  34.219  1.00  0.00     0.037 A 
BRANCH  49  63
ATOM     63  C   UNL A   1      40.864  27.908  28.546  1.00  0.00     0.064 A 
ATOM     64  C   UNL A   1      40.195  26.681  28.422  1.00  0.00     0.173 A 
ATOM     65  C   UNL A   1      41.599  28.370  27.444  1.00  0.00     0.173 A 
ATOM     66  F   UNL A   1      39.488  26.192  29.453  1.00  0.00    -0.203 F 
ATOM     67  C   UNL A   1      40.277  25.937  27.249  1.00  0.00     0.198 A 
ATOM     68  C   UNL A   1      41.659  27.634  26.263  1.00  0.00     0.198 A 
ATOM     69  F   UNL A   1      42.253  29.540  27.509  1.00  0.00    -0.203 F 
ATOM     70  F   UNL A   1      39.662  24.749  27.166  1.00  0.00    -0.200 F 
ATOM     71  C   UNL A   1      41.003  26.416  26.169  1.00  0.00     0.200 A 
ATOM     72  F   UNL A   1      42.352  28.105  25.218  1.00  0.00    -0.200 F 
ATOM     73  F   UNL A   1      41.075  25.702  25.037  1.00  0.00    -0.200 F 
ENDBRANCH  49  63
BRANCH  50  74
ATOM     74  C   UNL A   1      39.810  33.544  36.711  1.00  0.00     0.064 A 
ATOM     75  C   UNL A   1      38.899  33.159  37.704  1.00  0.00     0.173 A 
ATOM     76  C   UNL A   1      40.544  34.722  36.916  1.00  0.00     0.173 A 
ATOM     77  F   UNL A   1      38.156  32.056  37.540  1.00  0.00    -0.203 F 
ATOM     78  C   UNL A   1      38.718  33.931  38.850  1.00  0.00     0.198 A 
ATOM     79  C   UNL A   1      40.381  35.478  38.074  1.00  0.00     0.198 A 
ATOM     80  F   UNL A   1      41.424  35.134  35.993  1.00  0.00    -0.203 F 
ATOM     81  F   UNL A   1      37.810  33.565  39.765  1.00  0.00    -0.200 F 
ATOM     82  C   UNL A   1      39.463  35.086  39.038  1.00  0.00     0.200 A 
ATOM     83  F   UNL A   1      41.109  36.588  38.254  1.00  0.00    -0.200 F 
ATOM     84  F   UNL A   1      39.291  35.826  40.141  1.00  0.00    -0.200 F 
ENDBRANCH  50  74
BRANCH  62  85
ATOM     85  C   UNL A   1      44.121  28.355  34.955  1.00  0.00     0.064 A 
ATOM     86  C   UNL A   1      43.901  27.164  35.660  1.00  0.00     0.173 A 
ATOM     87  C   UNL A   1      45.429  28.860  34.906  1.00  0.00     0.173 A 
ATOM     88  F   UNL A   1      42.665  26.651  35.749  1.00  0.00    -0.203 F 
ATOM     89  C   UNL A   1      44.948  26.512  36.306  1.00  0.00     0.198 A 
ATOM     90  C   UNL A   1      46.478  28.191  35.530  1.00  0.00     0.198 A 
ATOM     91  F   UNL A   1      45.692  29.994  34.239  1.00  0.00    -0.203 F 
ATOM     92  F   UNL A   1      44.709  25.394  37.005  1.00  0.00    -0.200 F 
ATOM     93  C   UNL A   1      46.237  27.021  36.233  1.00  0.00     0.200 A 
ATOM     94  F   UNL A   1      47.725  28.679  35.450  1.00  0.00    -0.200 F 
ATOM     95  F   UNL A   1      47.245  26.386  36.846  1.00  0.00    -0.200 F 
ENDBRANCH  62  85
ENDBRANCH  36  37
ENDBRANCH  29  31
ENDBRANCH  28  29
ENDBRANCH  27  28
ENDBRANCH  26  27
ENDBRANCH  25  26
ENDBRANCH   1  25
TORSDOF 19
ENDMDL
MODEL 2
REMARK VINA RESULT:     -10.9      5.576      9.838
REMARK SMILES CC(=O)N[C@@H](CSCc1ccnc2ccccc12)C(=O)OCCOCCOC(=O)c1ccc(-c2c3nc(c(-c4c(F)c(F)c(F)c(F)c4F)c4ccc([nH]4)c(-c4c(F)c(F)c(F)c(F)c4F)c4nc(c(-c5c(F)c(F)c(F)c(F)c5F)c5ccc2[nH]5)C=C4)C=C3)cc1
REMARK SMILES IDX 23 1 22 2 21 3 19 4 20 5 5 6 4 7 1 8 2 9 3 10 6 12 7 13 8 14
REMARK SMILES IDX 9 15 10 16 18 17 11 18 13 19 17 20 12 21 14 22 16 23 15 24
REMARK SMILES IDX 24 25 25 26 26 27 27 28 28 29 29 30 30 31 31 32 92 33 32 34
REMARK SMILES IDX 91 35 33 36 34 37 35 38 85 39 36 40 90 41 84 42 86 43 37 44
REMARK SMILES IDX 89 45 83 46 82 47 38 49 70 50 50 51 69 52 51 53 54 54 68 55
REMARK SMILES IDX 87 56 52 57 53 58 67 60 88 61 55 62 39 63 40 64 48 65 41 66
REMARK SMILES IDX 42 67 46 68 49 69 43 70 44 71 47 72 45 73 71 74 72 75 80 76
REMARK SMILES IDX 73 77 74 78 78 79 81 80 75 81 76 82 79 83 77 84 56 85 57 86
REMARK SMILES IDX 65 87 58 88 59 89 63 90 66 91 60 92 61 93 64 94 62 95
REMARK H PARENT 4 11 86 48 54 59
REMARK Flexibility Score: inf
ROOT
ATOM      1  C   UNL A   1      37.576  22.743  25.549  1.00  0.00     0.202 C 
ENDROOT
BRANCH   1   2
ATOM      2  C   UNL A   1      36.079  22.984  25.745  1.00  0.00     0.261 C 
BRANCH   2   3
ATOM      3  O   UNL A   1      35.638  24.093  24.949  1.00  0.00    -0.462 OA
BRANCH   3   4
ATOM      4  C   UNL A   1      34.989  23.768  23.794  1.00  0.00     0.329 C 
ATOM      5  O   UNL A   1      35.460  23.095  22.885  1.00  0.00    -0.250 OA
BRANCH   4   6
ATOM      6  C   UNL A   1      33.598  24.412  23.729  1.00  0.00     0.202 C 
BRANCH   6   7
ATOM      7  N   UNL A   1      33.150  24.704  22.362  1.00  0.00    -0.342 N 
ATOM      8  C   UNL A   1      33.651  27.123  22.405  1.00  0.00     0.114 C 
ATOM      9  C   UNL A   1      33.204  25.884  21.681  1.00  0.00     0.217 C 
ATOM     10  O   UNL A   1      32.936  25.894  20.482  1.00  0.00    -0.275 OA
ATOM     11  H   UNL A   1      32.759  23.946  21.871  1.00  0.00     0.164 HD
ENDBRANCH   6   7
BRANCH   6  12
ATOM     12  C   UNL A   1      32.602  23.536  24.498  1.00  0.00     0.106 C 
BRANCH  12  13
ATOM     13  S   UNL A   1      32.228  24.062  26.225  1.00  0.00    -0.154 SA
BRANCH  13  14
ATOM     14  C   UNL A   1      30.600  24.874  26.039  1.00  0.00     0.105 C 
BRANCH  14  15
ATOM     15  C   UNL A   1      30.586  26.123  25.189  1.00  0.00    -0.027 A 
ATOM     16  C   UNL A   1      30.061  26.055  23.890  1.00  0.00     0.025 A 
ATOM     17  C   UNL A   1      31.134  27.360  25.633  1.00  0.00     0.004 A 
ATOM     18  C   UNL A   1      30.008  27.201  23.126  1.00  0.00     0.112 A 
ATOM     19  C   UNL A   1      31.028  28.469  24.758  1.00  0.00     0.070 A 
ATOM     20  C   UNL A   1      31.782  27.560  26.879  1.00  0.00     0.010 A 
ATOM     21  N   UNL A   1      30.463  28.395  23.544  1.00  0.00    -0.256 NA
ATOM     22  C   UNL A   1      31.532  29.700  25.153  1.00  0.00     0.029 A 
ATOM     23  C   UNL A   1      32.285  28.808  27.251  1.00  0.00     0.001 A 
ATOM     24  C   UNL A   1      32.158  29.882  26.386  1.00  0.00     0.002 A 
ENDBRANCH  14  15
ENDBRANCH  13  14
ENDBRANCH  12  13
ENDBRANCH   6  12
ENDBRANCH   4   6
ENDBRANCH   3   4
ENDBRANCH   2   3
ENDBRANCH   1   2
BRANCH   1  25
ATOM     25  O   UNL A   1      37.996  21.380  25.576  1.00  0.00    -0.374 OA
BRANCH  25  26
ATOM     26  C   UNL A   1      39.377  21.114  25.836  1.00  0.00     0.202 C 
BRANCH  26  27
ATOM     27  C   UNL A   1      39.756  19.655  26.116  1.00  0.00     0.261 C 
BRANCH  27  28
ATOM     28  O   UNL A   1      40.918  19.228  25.378  1.00  0.00    -0.460 OA
BRANCH  28  29
ATOM     29  C   UNL A   1      42.047  19.118  26.117  1.00  0.00     0.338 C 
ATOM     30  O   UNL A   1      42.608  18.091  26.480  1.00  0.00    -0.246 OA
BRANCH  29  31
ATOM     31  C   UNL A   1      42.653  20.442  26.327  1.00  0.00     0.060 A 
ATOM     32  C   UNL A   1      42.647  20.966  27.626  1.00  0.00     0.016 A 
ATOM     33  C   UNL A   1      43.106  21.209  25.252  1.00  0.00     0.016 A 
ATOM     34  C   UNL A   1      43.066  22.276  27.852  1.00  0.00     0.010 A 
ATOM     35  C   UNL A   1      43.516  22.527  25.481  1.00  0.00     0.010 A 
ATOM     36  C   UNL A   1      43.470  23.076  26.775  1.00  0.00    -0.014 A 
BRANCH  36  37
ATOM     37  C   UNL A   1      43.739  24.519  26.985  1.00  0.00     0.031 A 
ATOM     38  C   UNL A   1      45.128  25.049  26.766  1.00  0.00     0.074 A 
ATOM     39  C   UNL A   1      42.750  25.349  27.360  1.00  0.00     0.049 A 
ATOM     40  N   UNL A   1      45.597  26.254  26.966  1.00  0.00    -0.248 NA
ATOM     41  C   UNL A   1      46.119  24.093  26.251  1.00  0.00     0.031 C 
ATOM     42  C   UNL A   1      41.355  24.963  27.555  1.00  0.00     0.029 A 
ATOM     43  N   UNL A   1      42.776  26.689  27.657  1.00  0.00    -0.354 N 
ATOM     44  C   UNL A   1      46.938  26.201  26.608  1.00  0.00     0.074 A 
ATOM     45  C   UNL A   1      47.213  24.840  26.199  1.00  0.00     0.031 C 
ATOM     46  C   UNL A   1      40.659  26.040  27.959  1.00  0.00     0.029 A 
ATOM     47  C   UNL A   1      41.568  27.178  28.085  1.00  0.00     0.049 A 
ATOM     48  H   UNL A   1      43.583  27.245  27.570  1.00  0.00     0.167 HD
ATOM     49  C   UNL A   1      47.854  27.199  26.618  1.00  0.00     0.037 A 
ATOM     50  C   UNL A   1      41.241  28.397  28.557  1.00  0.00     0.037 A 
ATOM     51  C   UNL A   1      47.577  28.552  27.024  1.00  0.00     0.049 A 
ATOM     52  C   UNL A   1      42.300  29.465  28.643  1.00  0.00     0.074 A 
ATOM     53  C   UNL A   1      48.432  29.640  27.042  1.00  0.00     0.029 A 
ATOM     54  N   UNL A   1      46.351  28.999  27.494  1.00  0.00    -0.354 N 
ATOM     55  N   UNL A   1      43.559  29.414  28.285  1.00  0.00    -0.248 NA
ATOM     56  C   UNL A   1      41.891  30.762  29.204  1.00  0.00     0.031 C 
ATOM     57  C   UNL A   1      47.737  30.734  27.569  1.00  0.00     0.029 A 
ATOM     58  C   UNL A   1      46.436  30.338  27.836  1.00  0.00     0.049 A 
ATOM     59  H   UNL A   1      45.541  28.445  27.572  1.00  0.00     0.167 HD
ATOM     60  C   UNL A   1      44.087  30.669  28.557  1.00  0.00     0.074 A 
ATOM     61  C   UNL A   1      43.007  31.467  29.099  1.00  0.00     0.031 C 
ATOM     62  C   UNL A   1      45.352  31.120  28.374  1.00  0.00     0.037 A 
BRANCH  49  63
ATOM     63  C   UNL A   1      49.253  26.860  26.199  1.00  0.00     0.064 A 
ATOM     64  C   UNL A   1      50.197  26.368  27.114  1.00  0.00     0.173 A 
ATOM     65  C   UNL A   1      49.642  26.988  24.857  1.00  0.00     0.173 A 
ATOM     66  F   UNL A   1      49.876  26.239  28.410  1.00  0.00    -0.203 F 
ATOM     67  C   UNL A   1      51.485  26.038  26.703  1.00  0.00     0.198 A 
ATOM     68  C   UNL A   1      50.925  26.633  24.446  1.00  0.00     0.198 A 
ATOM     69  F   UNL A   1      48.776  27.448  23.943  1.00  0.00    -0.203 F 
ATOM     70  F   UNL A   1      52.384  25.607  27.600  1.00  0.00    -0.200 F 
ATOM     71  C   UNL A   1      51.847  26.165  25.370  1.00  0.00     0.200 A 
ATOM     72  F   UNL A   1      51.267  26.746  23.156  1.00  0.00    -0.200 F 
ATOM     73  F   UNL A   1      53.085  25.840  24.975  1.00  0.00    -0.200 F 
ENDBRANCH  49  63
BRANCH  50  74
ATOM     74  C   UNL A   1      39.854  28.665  29.015  1.00  0.00     0.064 A 
ATOM     75  C   UNL A   1      39.457  28.376  30.328  1.00  0.00     0.173 A 
ATOM     76  C   UNL A   1      38.895  29.205  28.146  1.00  0.00     0.173 A 
ATOM     77  F   UNL A   1      40.331  27.833  31.187  1.00  0.00    -0.203 F 
ATOM     78  C   UNL A   1      38.149  28.604  30.749  1.00  0.00     0.198 A 
ATOM     79  C   UNL A   1      37.595  29.457  28.575  1.00  0.00     0.198 A 
ATOM     80  F   UNL A   1      39.225  29.495  26.879  1.00  0.00    -0.203 F 
ATOM     81  F   UNL A   1      37.783  28.280  31.997  1.00  0.00    -0.200 F 
ATOM     82  C   UNL A   1      37.220  29.150  29.875  1.00  0.00     0.200 A 
ATOM     83  F   UNL A   1      36.704  29.993  27.730  1.00  0.00    -0.200 F 
ATOM     84  F   UNL A   1      35.963  29.372  30.282  1.00  0.00    -0.200 F 
ENDBRANCH  50  74
BRANCH  62  85
ATOM     85  C   UNL A   1      45.637  32.547  28.739  1.00  0.00     0.064 A 
ATOM     86  C   UNL A   1      46.151  32.892  29.997  1.00  0.00     0.173 A 
ATOM     87  C   UNL A   1      45.445  33.573  27.803  1.00  0.00     0.173 A 
ATOM     88  F   UNL A   1      46.336  31.949  30.932  1.00  0.00    -0.203 F 
ATOM     89  C   UNL A   1      46.446  34.216  30.310  1.00  0.00     0.198 A 
ATOM     90  C   UNL A   1      45.767  34.893  28.109  1.00  0.00     0.198 A 
ATOM     91  F   UNL A   1      44.961  33.294  26.583  1.00  0.00    -0.203 F 
ATOM     92  F   UNL A   1      46.902  34.529  31.531  1.00  0.00    -0.200 F 
ATOM     93  C   UNL A   1      46.263  35.214  29.363  1.00  0.00     0.200 A 
ATOM     94  F   UNL A   1      45.598  35.854  27.189  1.00  0.00    -0.200 F 
ATOM     95  F   UNL A   1      46.558  36.486  29.662  1.00  0.00    -0.200 F 
ENDBRANCH  62  85
ENDBRANCH  36  37
ENDBRANCH  29  31
ENDBRANCH  28  29
ENDBRANCH  27  28
ENDBRANCH  26  27
ENDBRANCH  25  26
ENDBRANCH   1  25
TORSDOF 19
ENDMDL
MODEL 3
REMARK VINA RESULT:     -10.8      3.512      8.414
REMARK SMILES CC(=O)N[C@@H](CSCc1ccnc2ccccc12)C(=O)OCCOCCOC(=O)c1ccc(-c2c3nc(c(-c4c(F)c(F)c(F)c(F)c4F)c4ccc([nH]4)c(-c4c(F)c(F)c(F)c(F)c4F)c4nc(c(-c5c(F)c(F)c(F)c(F)c5F)c5ccc2[nH]5)C=C4)C=C3)cc1
REMARK SMILES IDX 23 1 22 2 21 3 19 4 20 5 5 6 4 7 1 8 2 9 3 10 6 12 7 13 8 14
REMARK SMILES IDX 9 15 10 16 18 17 11 18 13 19 17 20 12 21 14 22 16 23 15 24
REMARK SMILES IDX 24 25 25 26 26 27 27 28 28 29 29 30 30 31 31 32 92 33 32 34
REMARK SMILES IDX 91 35 33 36 34 37 35 38 85 39 36 40 90 41 84 42 86 43 37 44
REMARK SMILES IDX 89 45 83 46 82 47 38 49 70 50 50 51 69 52 51 53 54 54 68 55
REMARK SMILES IDX 87 56 52 57 53 58 67 60 88 61 55 62 39 63 40 64 48 65 41 66
REMARK SMILES IDX 42 67 46 68 49 69 43 70 44 71 47 72 45 73 71 74 72 75 80 76
REMARK SMILES IDX 73 77 74 78 78 79 81 80 75 81 76 82 79 83 77 84 56 85 57 86
REMARK SMILES IDX 65 87 58 88 59 89 63 90 66 91 60 92 61 93 64 94 62 95
REMARK H PARENT 4 11 86 48 54 59
REMARK Flexibility Score: inf
ROOT
ATOM      1  C   UNL A   1      33.457  27.209  25.917  1.00  0.00     0.202 C 
ENDROOT
BRANCH   1   2
ATOM      2  C   UNL A   1      34.195  27.979  24.822  1.00  0.00     0.261 C 
BRANCH   2   3
ATOM      3  O   UNL A   1      33.262  28.596  23.924  1.00  0.00    -0.462 OA
BRANCH   3   4
ATOM      4  C   UNL A   1      33.107  27.977  22.719  1.00  0.00     0.329 C 
ATOM      5  O   UNL A   1      33.968  27.896  21.851  1.00  0.00    -0.250 OA
BRANCH   4   6
ATOM      6  C   UNL A   1      31.680  27.442  22.538  1.00  0.00     0.202 C 
BRANCH   6   7
ATOM      7  N   UNL A   1      30.813  28.336  21.762  1.00  0.00    -0.342 N 
ATOM      8  C   UNL A   1      29.978  29.659  23.675  1.00  0.00     0.114 C 
ATOM      9  C   UNL A   1      30.070  29.392  22.198  1.00  0.00     0.217 C 
ATOM     10  O   UNL A   1      29.537  30.130  21.371  1.00  0.00    -0.275 OA
ATOM     11  H   UNL A   1      30.760  28.147  20.798  1.00  0.00     0.164 HD
ENDBRANCH   6   7
BRANCH   6  12
ATOM     12  C   UNL A   1      31.744  26.029  21.949  1.00  0.00     0.106 C 
BRANCH  12  13
ATOM     13  S   UNL A   1      31.553  24.642  23.149  1.00  0.00    -0.154 SA
BRANCH  13  14
ATOM     14  C   UNL A   1      32.768  23.423  22.531  1.00  0.00     0.105 C 
BRANCH  14  15
ATOM     15  C   UNL A   1      33.180  22.353  23.515  1.00  0.00    -0.027 A 
ATOM     16  C   UNL A   1      32.189  21.556  24.107  1.00  0.00     0.025 A 
ATOM     17  C   UNL A   1      34.534  22.154  23.911  1.00  0.00     0.004 A 
ATOM     18  C   UNL A   1      32.564  20.552  24.974  1.00  0.00     0.112 A 
ATOM     19  C   UNL A   1      34.798  21.095  24.813  1.00  0.00     0.070 A 
ATOM     20  C   UNL A   1      35.631  22.940  23.474  1.00  0.00     0.010 A 
ATOM     21  N   UNL A   1      33.840  20.303  25.317  1.00  0.00    -0.256 NA
ATOM     22  C   UNL A   1      36.104  20.851  25.215  1.00  0.00     0.029 A 
ATOM     23  C   UNL A   1      36.935  22.677  23.897  1.00  0.00     0.001 A 
ATOM     24  C   UNL A   1      37.173  21.627  24.769  1.00  0.00     0.002 A 
ENDBRANCH  14  15
ENDBRANCH  13  14
ENDBRANCH  12  13
ENDBRANCH   6  12
ENDBRANCH   4   6
ENDBRANCH   3   4
ENDBRANCH   2   3
ENDBRANCH   1   2
BRANCH   1  25
ATOM     25  O   UNL A   1      33.180  27.939  27.112  1.00  0.00    -0.374 OA
BRANCH  25  26
ATOM     26  C   UNL A   1      32.200  28.977  27.044  1.00  0.00     0.202 C 
BRANCH  26  27
ATOM     27  C   UNL A   1      32.707  30.414  27.217  1.00  0.00     0.261 C 
BRANCH  27  28
ATOM     28  O   UNL A   1      34.137  30.524  27.076  1.00  0.00    -0.460 OA
BRANCH  28  29
ATOM     29  C   UNL A   1      34.778  30.996  28.171  1.00  0.00     0.338 C 
ATOM     30  O   UNL A   1      34.363  31.806  28.991  1.00  0.00    -0.246 OA
BRANCH  29  31
ATOM     31  C   UNL A   1      36.046  30.277  28.372  1.00  0.00     0.060 A 
ATOM     32  C   UNL A   1      36.281  29.705  29.629  1.00  0.00     0.016 A 
ATOM     33  C   UNL A   1      37.037  30.270  27.389  1.00  0.00     0.016 A 
ATOM     34  C   UNL A   1      37.527  29.150  29.920  1.00  0.00     0.010 A 
ATOM     35  C   UNL A   1      38.289  29.721  27.688  1.00  0.00     0.010 A 
ATOM     36  C   UNL A   1      38.549  29.185  28.963  1.00  0.00    -0.014 A 
BRANCH  36  37
ATOM     37  C   UNL A   1      39.922  28.765  29.331  1.00  0.00     0.031 A 
ATOM     38  C   UNL A   1      40.769  29.672  30.177  1.00  0.00     0.074 A 
ATOM     39  C   UNL A   1      40.405  27.579  28.919  1.00  0.00     0.049 A 
ATOM     40  N   UNL A   1      42.017  29.536  30.548  1.00  0.00    -0.248 NA
ATOM     41  C   UNL A   1      40.123  30.896  30.673  1.00  0.00     0.031 C 
ATOM     42  C   UNL A   1      39.663  26.593  28.138  1.00  0.00     0.029 A 
ATOM     43  N   UNL A   1      41.643  27.013  29.093  1.00  0.00    -0.354 N 
ATOM     44  C   UNL A   1      42.307  30.658  31.313  1.00  0.00     0.074 A 
ATOM     45  C   UNL A   1      41.113  31.475  31.338  1.00  0.00     0.031 C 
ATOM     46  C   UNL A   1      40.468  25.547  27.881  1.00  0.00     0.029 A 
ATOM     47  C   UNL A   1      41.789  25.810  28.449  1.00  0.00     0.049 A 
ATOM     48  H   UNL A   1      42.357  27.429  29.628  1.00  0.00     0.167 HD
ATOM     49  C   UNL A   1      43.465  30.974  31.942  1.00  0.00     0.037 A 
ATOM     50  C   UNL A   1      42.877  25.027  28.306  1.00  0.00     0.037 A 
ATOM     51  C   UNL A   1      44.652  30.158  31.917  1.00  0.00     0.049 A 
ATOM     52  C   UNL A   1      44.178  25.445  28.940  1.00  0.00     0.074 A 
ATOM     53  C   UNL A   1      45.865  30.380  32.545  1.00  0.00     0.029 A 
ATOM     54  N   UNL A   1      44.775  28.967  31.218  1.00  0.00    -0.354 N 
ATOM     55  N   UNL A   1      44.440  26.495  29.678  1.00  0.00    -0.248 NA
ATOM     56  C   UNL A   1      45.337  24.568  28.715  1.00  0.00     0.031 C 
ATOM     57  C   UNL A   1      46.738  29.348  32.186  1.00  0.00     0.029 A 
ATOM     58  C   UNL A   1      46.055  28.460  31.372  1.00  0.00     0.049 A 
ATOM     59  H   UNL A   1      44.059  28.545  30.690  1.00  0.00     0.167 HD
ATOM     60  C   UNL A   1      45.782  26.397  30.022  1.00  0.00     0.074 A 
ATOM     61  C   UNL A   1      46.279  25.177  29.421  1.00  0.00     0.031 C 
ATOM     62  C   UNL A   1      46.535  27.243  30.768  1.00  0.00     0.037 A 
BRANCH  49  63
ATOM     63  C   UNL A   1      43.516  32.271  32.691  1.00  0.00     0.064 A 
ATOM     64  C   UNL A   1      43.204  32.346  34.057  1.00  0.00     0.173 A 
ATOM     65  C   UNL A   1      43.925  33.447  32.044  1.00  0.00     0.173 A 
ATOM     66  F   UNL A   1      42.798  31.251  34.717  1.00  0.00    -0.203 F 
ATOM     67  C   UNL A   1      43.278  33.556  34.741  1.00  0.00     0.198 A 
ATOM     68  C   UNL A   1      44.020  34.651  32.739  1.00  0.00     0.198 A 
ATOM     69  F   UNL A   1      44.239  33.428  30.741  1.00  0.00    -0.203 F 
ATOM     70  F   UNL A   1      42.938  33.613  36.037  1.00  0.00    -0.200 F 
ATOM     71  C   UNL A   1      43.691  34.706  34.084  1.00  0.00     0.200 A 
ATOM     72  F   UNL A   1      44.431  35.757  32.104  1.00  0.00    -0.200 F 
ATOM     73  F   UNL A   1      43.769  35.867  34.747  1.00  0.00    -0.200 F 
ENDBRANCH  49  63
BRANCH  50  74
ATOM     74  C   UNL A   1      42.790  23.780  27.504  1.00  0.00     0.064 A 
ATOM     75  C   UNL A   1      42.343  22.581  28.077  1.00  0.00     0.173 A 
ATOM     76  C   UNL A   1      43.163  23.760  26.152  1.00  0.00     0.173 A 
ATOM     77  F   UNL A   1      42.003  22.545  29.373  1.00  0.00    -0.203 F 
ATOM     78  C   UNL A   1      42.286  21.406  27.330  1.00  0.00     0.198 A 
ATOM     79  C   UNL A   1      43.081  22.591  25.400  1.00  0.00     0.198 A 
ATOM     80  F   UNL A   1      43.601  24.880  25.560  1.00  0.00    -0.203 F 
ATOM     81  F   UNL A   1      41.896  20.264  27.911  1.00  0.00    -0.200 F 
ATOM     82  C   UNL A   1      42.648  21.413  25.991  1.00  0.00     0.200 A 
ATOM     83  F   UNL A   1      43.423  22.605  24.105  1.00  0.00    -0.200 F 
ATOM     84  F   UNL A   1      42.590  20.283  25.273  1.00  0.00    -0.200 F 
ENDBRANCH  50  74
BRANCH  62  85
ATOM     85  C   UNL A   1      47.970  26.869  30.998  1.00  0.00     0.064 A 
ATOM     86  C   UNL A   1      48.339  25.968  32.007  1.00  0.00     0.173 A 
ATOM     87  C   UNL A   1      48.979  27.375  30.166  1.00  0.00     0.173 A 
ATOM     88  F   UNL A   1      47.412  25.469  32.838  1.00  0.00    -0.203 F 
ATOM     89  C   UNL A   1      49.670  25.600  32.184  1.00  0.00     0.198 A 
ATOM     90  C   UNL A   1      50.305  26.985  30.329  1.00  0.00     0.198 A 
ATOM     91  F   UNL A   1      48.676  28.237  29.183  1.00  0.00    -0.203 F 
ATOM     92  F   UNL A   1      50.006  24.765  33.178  1.00  0.00    -0.200 F 
ATOM     93  C   UNL A   1      50.650  26.101  31.341  1.00  0.00     0.200 A 
ATOM     94  F   UNL A   1      51.250  27.463  29.506  1.00  0.00    -0.200 F 
ATOM     95  F   UNL A   1      51.929  25.738  31.506  1.00  0.00    -0.200 F 
ENDBRANCH  62  85
ENDBRANCH  36  37
ENDBRANCH  29  31
ENDBRANCH  28  29
ENDBRANCH  27  28
ENDBRANCH  26  27
ENDBRANCH  25  26
ENDBRANCH   1  25
TORSDOF 19
ENDMDL
