MODEL 1
REMARK VINA RESULT:     -13.3      0.000      0.000
REMARK SMILES Cc1c(NC(=O)c2cccc(-c3cc4ccccc4oc3=O)c2)cccc1C(=O)OCCOCCOC(=O)c1ccc(-c2c3nc(c(-c4c(F)c(F)c(F)c(F)c4F)c4ccc([nH]4)c(-c4c(F)c(F)c(F)c(F)c4F)c4nc(c(-c5c(F)c(F)c(F)c(F)c5F)c5ccc2[nH]5)C=C4)C=C3)cc1
REMARK SMILES IDX 32 1 31 2 30 3 28 4 29 5 27 6 1 7 2 8 3 9 24 10 26 11 25 12
REMARK SMILES IDX 4 13 5 14 6 16 7 17 8 18 23 19 9 20 11 21 10 22 12 23 13 24
REMARK SMILES IDX 21 25 14 26 20 27 22 28 15 29 19 30 16 31 18 32 17 33 33 34
REMARK SMILES IDX 34 35 35 36 36 37 37 38 38 39 39 40 40 41 101 42 41 43
REMARK SMILES IDX 100 44 42 45 43 46 44 47 94 48 45 49 99 50 93 51 95 52 46 53
REMARK SMILES IDX 98 54 92 55 91 56 47 58 79 59 59 60 78 61 60 62 63 63 77 64
REMARK SMILES IDX 96 65 61 66 62 67 76 69 97 70 64 71 48 72 49 73 57 74 50 75
REMARK SMILES IDX 51 76 55 77 58 78 52 79 53 80 56 81 54 82 80 83 81 84 89 85
REMARK SMILES IDX 82 86 83 87 87 88 90 89 84 90 85 91 88 92 86 93 65 94 66 95
REMARK SMILES IDX 74 96 67 97 68 98 72 99 75 100 69 101 70 102 73 103 71 104
REMARK H PARENT 4 15 95 57 63 68
REMARK Flexibility Score: inf
ROOT
ATOM      1  C   UNL A   1      35.840  32.808  28.016  1.00  0.00     0.202 C 
ENDROOT
BRANCH   1   2
ATOM      2  C   UNL A   1      35.173  31.547  28.462  1.00  0.00     0.261 C 
BRANCH   2   3
ATOM      3  O   UNL A   1      34.669  30.684  27.418  1.00  0.00    -0.460 OA
BRANCH   3   4
ATOM      4  C   UNL A   1      33.355  30.577  27.073  1.00  0.00     0.338 C 
ATOM      5  O   UNL A   1      32.488  31.402  27.247  1.00  0.00    -0.246 OA
BRANCH   4   6
ATOM      6  C   UNL A   1      33.170  29.319  26.268  1.00  0.00     0.065 A 
ATOM      7  C   UNL A   1      31.028  30.054  25.010  1.00  0.00     0.047 C 
ATOM      8  C   UNL A   1      32.052  29.030  25.444  1.00  0.00    -0.013 A 
ATOM      9  C   UNL A   1      31.842  27.682  25.052  1.00  0.00     0.045 A 
ATOM     10  C   UNL A   1      32.796  26.700  25.337  1.00  0.00     0.026 A 
ATOM     11  C   UNL A   1      34.120  28.313  26.533  1.00  0.00     0.016 A 
ATOM     12  C   UNL A   1      33.940  27.016  26.060  1.00  0.00     0.003 A 
BRANCH   9  13
ATOM     13  N   UNL A   1      30.645  27.363  24.388  1.00  0.00    -0.322 N 
ATOM     14  C   UNL A   1      30.018  26.171  24.118  1.00  0.00     0.255 C 
ATOM     15  H   UNL A   1      30.159  28.150  24.050  1.00  0.00     0.170 HD
ATOM     16  O   UNL A   1      29.051  26.188  23.354  1.00  0.00    -0.269 OA
BRANCH  14  17
ATOM     17  C   UNL A   1      30.367  24.886  24.784  1.00  0.00     0.040 A 
ATOM     18  C   UNL A   1      30.152  24.794  26.161  1.00  0.00     0.014 A 
ATOM     19  C   UNL A   1      31.031  23.840  24.128  1.00  0.00     0.022 A 
ATOM     20  C   UNL A   1      30.535  23.648  26.856  1.00  0.00     0.001 A 
ATOM     21  C   UNL A   1      31.452  22.687  24.822  1.00  0.00    -0.010 A 
ATOM     22  C   UNL A   1      31.169  22.601  26.189  1.00  0.00     0.009 A 
BRANCH  21  23
ATOM     23  C   UNL A   1      32.310  21.597  24.259  1.00  0.00     0.068 A 
ATOM     24  C   UNL A   1      33.378  21.790  23.457  1.00  0.00     0.028 A 
ATOM     25  C   UNL A   1      32.715  20.555  25.267  1.00  0.00     0.344 A 
ATOM     26  C   UNL A   1      34.477  22.365  24.243  1.00  0.00     0.018 A 
ATOM     27  O   UNL A   1      33.764  20.970  26.097  1.00  0.00    -0.422 OA
ATOM     28  O   UNL A   1      32.153  19.474  25.370  1.00  0.00    -0.246 OA
ATOM     29  C   UNL A   1      35.250  23.367  23.725  1.00  0.00     0.012 A 
ATOM     30  C   UNL A   1      34.567  22.020  25.608  1.00  0.00     0.138 A 
ATOM     31  C   UNL A   1      36.014  24.078  24.627  1.00  0.00     0.001 A 
ATOM     32  C   UNL A   1      35.347  22.743  26.500  1.00  0.00     0.048 A 
ATOM     33  C   UNL A   1      36.062  23.814  25.999  1.00  0.00     0.004 A 
ENDBRANCH  21  23
ENDBRANCH  14  17
ENDBRANCH   9  13
ENDBRANCH   4   6
ENDBRANCH   3   4
ENDBRANCH   2   3
ENDBRANCH   1   2
BRANCH   1  34
ATOM     34  O   UNL A   1      35.438  33.808  28.933  1.00  0.00    -0.374 OA
BRANCH  34  35
ATOM     35  C   UNL A   1      34.487  34.748  28.472  1.00  0.00     0.202 C 
BRANCH  35  36
ATOM     36  C   UNL A   1      33.432  35.148  29.513  1.00  0.00     0.261 C 
BRANCH  36  37
ATOM     37  O   UNL A   1      33.342  34.141  30.550  1.00  0.00    -0.460 OA
BRANCH  37  38
ATOM     38  C   UNL A   1      33.280  34.580  31.841  1.00  0.00     0.338 C 
ATOM     39  O   UNL A   1      32.393  35.278  32.303  1.00  0.00    -0.246 OA
BRANCH  38  40
ATOM     40  C   UNL A   1      34.587  34.323  32.528  1.00  0.00     0.060 A 
ATOM     41  C   UNL A   1      35.708  35.143  32.281  1.00  0.00     0.016 A 
ATOM     42  C   UNL A   1      34.767  33.078  33.118  1.00  0.00     0.016 A 
ATOM     43  C   UNL A   1      37.010  34.646  32.485  1.00  0.00     0.010 A 
ATOM     44  C   UNL A   1      36.036  32.546  33.155  1.00  0.00     0.010 A 
ATOM     45  C   UNL A   1      37.172  33.309  32.835  1.00  0.00    -0.014 A 
BRANCH  45  46
ATOM     46  C   UNL A   1      38.421  32.530  32.830  1.00  0.00     0.031 A 
ATOM     47  C   UNL A   1      38.397  31.251  32.071  1.00  0.00     0.074 A 
ATOM     48  C   UNL A   1      39.614  33.069  33.202  1.00  0.00     0.049 A 
ATOM     49  N   UNL A   1      39.400  30.454  31.997  1.00  0.00    -0.248 NA
ATOM     50  C   UNL A   1      37.233  30.730  31.347  1.00  0.00     0.031 C 
ATOM     51  C   UNL A   1      40.960  32.696  32.745  1.00  0.00     0.029 A 
ATOM     52  N   UNL A   1      39.894  34.146  34.060  1.00  0.00    -0.354 N 
ATOM     53  C   UNL A   1      39.156  29.541  31.004  1.00  0.00     0.074 A 
ATOM     54  C   UNL A   1      37.755  29.673  30.716  1.00  0.00     0.031 C 
ATOM     55  C   UNL A   1      41.891  33.285  33.516  1.00  0.00     0.029 A 
ATOM     56  C   UNL A   1      41.186  33.979  34.578  1.00  0.00     0.049 A 
ATOM     57  H   UNL A   1      39.284  34.892  34.264  1.00  0.00     0.167 HD
ATOM     58  C   UNL A   1      40.227  28.869  30.498  1.00  0.00     0.037 A 
ATOM     59  C   UNL A   1      41.379  33.889  35.918  1.00  0.00     0.037 A 
ATOM     60  C   UNL A   1      41.414  29.130  31.328  1.00  0.00     0.049 A 
ATOM     61  C   UNL A   1      41.847  32.492  36.175  1.00  0.00     0.074 A 
ATOM     62  C   UNL A   1      42.573  29.865  31.148  1.00  0.00     0.029 A 
ATOM     63  N   UNL A   1      41.335  28.863  32.699  1.00  0.00    -0.354 N 
ATOM     64  N   UNL A   1      41.547  31.503  35.373  1.00  0.00    -0.248 NA
ATOM     65  C   UNL A   1      42.826  32.130  37.189  1.00  0.00     0.031 C 
ATOM     66  C   UNL A   1      43.128  30.118  32.443  1.00  0.00     0.029 A 
ATOM     67  C   UNL A   1      42.331  29.510  33.405  1.00  0.00     0.049 A 
ATOM     68  H   UNL A   1      40.653  28.283  33.110  1.00  0.00     0.167 HD
ATOM     69  C   UNL A   1      42.375  30.462  35.635  1.00  0.00     0.074 A 
ATOM     70  C   UNL A   1      43.112  30.868  36.823  1.00  0.00     0.031 C 
ATOM     71  C   UNL A   1      42.447  29.350  34.854  1.00  0.00     0.037 A 
BRANCH  58  72
ATOM     72  C   UNL A   1      40.258  28.079  29.204  1.00  0.00     0.064 A 
ATOM     73  C   UNL A   1      39.597  26.834  29.126  1.00  0.00     0.173 A 
ATOM     74  C   UNL A   1      40.971  28.432  28.036  1.00  0.00     0.173 A 
ATOM     75  F   UNL A   1      38.904  26.352  30.168  1.00  0.00    -0.203 F 
ATOM     76  C   UNL A   1      39.634  26.027  27.981  1.00  0.00     0.198 A 
ATOM     77  C   UNL A   1      40.967  27.648  26.875  1.00  0.00     0.198 A 
ATOM     78  F   UNL A   1      41.752  29.513  27.973  1.00  0.00    -0.203 F 
ATOM     79  F   UNL A   1      39.018  24.836  27.987  1.00  0.00    -0.200 F 
ATOM     80  C   UNL A   1      40.303  26.442  26.850  1.00  0.00     0.200 A 
ATOM     81  F   UNL A   1      41.633  28.068  25.789  1.00  0.00    -0.200 F 
ATOM     82  F   UNL A   1      40.328  25.678  25.749  1.00  0.00    -0.200 F 
ENDBRANCH  58  72
BRANCH  59  83
ATOM     83  C   UNL A   1      40.432  34.780  36.656  1.00  0.00     0.064 A 
ATOM     84  C   UNL A   1      39.393  34.115  37.352  1.00  0.00     0.173 A 
ATOM     85  C   UNL A   1      40.821  36.034  37.151  1.00  0.00     0.173 A 
ATOM     86  F   UNL A   1      38.993  32.898  36.945  1.00  0.00    -0.203 F 
ATOM     87  C   UNL A   1      38.901  34.590  38.568  1.00  0.00     0.198 A 
ATOM     88  C   UNL A   1      40.317  36.510  38.371  1.00  0.00     0.198 A 
ATOM     89  F   UNL A   1      41.812  36.716  36.560  1.00  0.00    -0.203 F 
ATOM     90  F   UNL A   1      38.066  33.831  39.295  1.00  0.00    -0.200 F 
ATOM     91  C   UNL A   1      39.398  35.767  39.098  1.00  0.00     0.200 A 
ATOM     92  F   UNL A   1      40.817  37.634  38.910  1.00  0.00    -0.200 F 
ATOM     93  F   UNL A   1      39.062  36.133  40.345  1.00  0.00    -0.200 F 
ENDBRANCH  59  83
BRANCH  71  94
ATOM     94  C   UNL A   1      42.679  27.999  35.466  1.00  0.00     0.064 A 
ATOM     95  C   UNL A   1      41.736  27.373  36.304  1.00  0.00     0.173 A 
ATOM     96  C   UNL A   1      43.774  27.202  35.072  1.00  0.00     0.173 A 
ATOM     97  F   UNL A   1      40.575  27.961  36.626  1.00  0.00    -0.203 F 
ATOM     98  C   UNL A   1      41.927  26.088  36.796  1.00  0.00     0.198 A 
ATOM     99  C   UNL A   1      43.918  25.887  35.501  1.00  0.00     0.198 A 
ATOM    100  F   UNL A   1      44.711  27.654  34.228  1.00  0.00    -0.203 F 
ATOM    101  F   UNL A   1      41.032  25.569  37.648  1.00  0.00    -0.200 F 
ATOM    102  C   UNL A   1      43.012  25.341  36.388  1.00  0.00     0.200 A 
ATOM    103  F   UNL A   1      44.930  25.145  35.030  1.00  0.00    -0.200 F 
ATOM    104  F   UNL A   1      43.171  24.088  36.829  1.00  0.00    -0.200 F 
ENDBRANCH  71  94
ENDBRANCH  45  46
ENDBRANCH  38  40
ENDBRANCH  37  38
ENDBRANCH  36  37
ENDBRANCH  35  36
ENDBRANCH  34  35
ENDBRANCH   1  34
TORSDOF 17
ENDMDL
MODEL 2
REMARK VINA RESULT:     -12.8      1.262      2.109
REMARK SMILES Cc1c(NC(=O)c2cccc(-c3cc4ccccc4oc3=O)c2)cccc1C(=O)OCCOCCOC(=O)c1ccc(-c2c3nc(c(-c4c(F)c(F)c(F)c(F)c4F)c4ccc([nH]4)c(-c4c(F)c(F)c(F)c(F)c4F)c4nc(c(-c5c(F)c(F)c(F)c(F)c5F)c5ccc2[nH]5)C=C4)C=C3)cc1
REMARK SMILES IDX 32 1 31 2 30 3 28 4 29 5 27 6 1 7 2 8 3 9 24 10 26 11 25 12
REMARK SMILES IDX 4 13 5 14 6 16 7 17 8 18 23 19 9 20 11 21 10 22 12 23 13 24
REMARK SMILES IDX 21 25 14 26 20 27 22 28 15 29 19 30 16 31 18 32 17 33 33 34
REMARK SMILES IDX 34 35 35 36 36 37 37 38 38 39 39 40 40 41 101 42 41 43
REMARK SMILES IDX 100 44 42 45 43 46 44 47 94 48 45 49 99 50 93 51 95 52 46 53
REMARK SMILES IDX 98 54 92 55 91 56 47 58 79 59 59 60 78 61 60 62 63 63 77 64
REMARK SMILES IDX 96 65 61 66 62 67 76 69 97 70 64 71 48 72 49 73 57 74 50 75
REMARK SMILES IDX 51 76 55 77 58 78 52 79 53 80 56 81 54 82 80 83 81 84 89 85
REMARK SMILES IDX 82 86 83 87 87 88 90 89 84 90 85 91 88 92 86 93 65 94 66 95
REMARK SMILES IDX 74 96 67 97 68 98 72 99 75 100 69 101 70 102 73 103 71 104
REMARK H PARENT 4 15 95 57 63 68
REMARK Flexibility Score: inf
ROOT
ATOM      1  C   UNL A   1      35.975  32.700  27.930  1.00  0.00     0.202 C 
ENDROOT
BRANCH   1   2
ATOM      2  C   UNL A   1      35.874  31.249  28.272  1.00  0.00     0.261 C 
BRANCH   2   3
ATOM      3  O   UNL A   1      35.199  30.409  27.308  1.00  0.00    -0.460 OA
BRANCH   3   4
ATOM      4  C   UNL A   1      33.847  30.348  27.151  1.00  0.00     0.338 C 
ATOM      5  O   UNL A   1      33.036  31.175  27.499  1.00  0.00    -0.246 OA
BRANCH   4   6
ATOM      6  C   UNL A   1      33.514  29.148  26.304  1.00  0.00     0.065 A 
ATOM      7  C   UNL A   1      31.343  30.089  25.251  1.00  0.00     0.047 C 
ATOM      8  C   UNL A   1      32.322  28.978  25.556  1.00  0.00    -0.013 A 
ATOM      9  C   UNL A   1      31.989  27.669  25.119  1.00  0.00     0.045 A 
ATOM     10  C   UNL A   1      32.889  26.612  25.283  1.00  0.00     0.026 A 
ATOM     11  C   UNL A   1      34.409  28.069  26.448  1.00  0.00     0.016 A 
ATOM     12  C   UNL A   1      34.103  26.813  25.930  1.00  0.00     0.003 A 
BRANCH   9  13
ATOM     13  N   UNL A   1      30.726  27.466  24.535  1.00  0.00    -0.322 N 
ATOM     14  C   UNL A   1      29.998  26.334  24.258  1.00  0.00     0.255 C 
ATOM     15  H   UNL A   1      30.273  28.300  24.273  1.00  0.00     0.170 HD
ATOM     16  O   UNL A   1      28.981  26.456  23.573  1.00  0.00    -0.269 OA
BRANCH  14  17
ATOM     17  C   UNL A   1      30.304  24.996  24.834  1.00  0.00     0.040 A 
ATOM     18  C   UNL A   1      30.094  24.819  26.203  1.00  0.00     0.014 A 
ATOM     19  C   UNL A   1      30.926  23.973  24.104  1.00  0.00     0.022 A 
ATOM     20  C   UNL A   1      30.439  23.617  26.817  1.00  0.00     0.001 A 
ATOM     21  C   UNL A   1      31.309  22.762  24.716  1.00  0.00    -0.010 A 
ATOM     22  C   UNL A   1      31.031  22.594  26.077  1.00  0.00     0.009 A 
BRANCH  21  23
ATOM     23  C   UNL A   1      32.123  21.682  24.075  1.00  0.00     0.068 A 
ATOM     24  C   UNL A   1      33.183  21.890  23.265  1.00  0.00     0.028 A 
ATOM     25  C   UNL A   1      32.513  20.571  25.012  1.00  0.00     0.344 A 
ATOM     26  C   UNL A   1      34.311  22.385  24.062  1.00  0.00     0.018 A 
ATOM     27  O   UNL A   1      33.588  20.905  25.845  1.00  0.00    -0.422 OA
ATOM     28  O   UNL A   1      31.920  19.503  25.063  1.00  0.00    -0.246 OA
ATOM     29  C   UNL A   1      35.106  23.393  23.589  1.00  0.00     0.012 A 
ATOM     30  C   UNL A   1      34.414  21.958  25.404  1.00  0.00     0.138 A 
ATOM     31  C   UNL A   1      35.907  24.026  24.516  1.00  0.00     0.001 A 
ATOM     32  C   UNL A   1      35.232  22.603  26.320  1.00  0.00     0.048 A 
ATOM     33  C   UNL A   1      35.970  23.681  25.869  1.00  0.00     0.004 A 
ENDBRANCH  21  23
ENDBRANCH  14  17
ENDBRANCH   9  13
ENDBRANCH   4   6
ENDBRANCH   3   4
ENDBRANCH   2   3
ENDBRANCH   1   2
BRANCH   1  34
ATOM     34  O   UNL A   1      35.889  33.397  29.158  1.00  0.00    -0.374 OA
BRANCH  34  35
ATOM     35  C   UNL A   1      34.935  34.438  29.235  1.00  0.00     0.202 C 
BRANCH  35  36
ATOM     36  C   UNL A   1      33.919  34.286  30.376  1.00  0.00     0.261 C 
BRANCH  36  37
ATOM     37  O   UNL A   1      34.434  33.393  31.393  1.00  0.00    -0.460 OA
BRANCH  37  38
ATOM     38  C   UNL A   1      34.683  33.927  32.624  1.00  0.00     0.338 C 
ATOM     39  O   UNL A   1      33.917  34.646  33.244  1.00  0.00    -0.246 OA
BRANCH  38  40
ATOM     40  C   UNL A   1      36.127  33.742  32.977  1.00  0.00     0.060 A 
ATOM     41  C   UNL A   1      37.145  34.329  32.196  1.00  0.00     0.016 A 
ATOM     42  C   UNL A   1      36.445  32.708  33.850  1.00  0.00     0.016 A 
ATOM     43  C   UNL A   1      38.440  33.776  32.183  1.00  0.00     0.010 A 
ATOM     44  C   UNL A   1      37.660  32.076  33.705  1.00  0.00     0.010 A 
ATOM     45  C   UNL A   1      38.670  32.588  32.871  1.00  0.00    -0.014 A 
BRANCH  45  46
ATOM     46  C   UNL A   1      39.847  31.710  32.769  1.00  0.00     0.031 A 
ATOM     47  C   UNL A   1      39.731  30.556  31.838  1.00  0.00     0.074 A 
ATOM     48  C   UNL A   1      41.074  32.087  33.225  1.00  0.00     0.049 A 
ATOM     49  N   UNL A   1      40.664  29.693  31.664  1.00  0.00    -0.248 NA
ATOM     50  C   UNL A   1      38.544  30.244  31.037  1.00  0.00     0.031 C 
ATOM     51  C   UNL A   1      42.392  31.665  32.733  1.00  0.00     0.029 A 
ATOM     52  N   UNL A   1      41.424  33.006  34.228  1.00  0.00    -0.354 N 
ATOM     53  C   UNL A   1      40.365  28.951  30.550  1.00  0.00     0.074 A 
ATOM     54  C   UNL A   1      38.988  29.243  30.269  1.00  0.00     0.031 C 
ATOM     55  C   UNL A   1      43.352  32.058  33.589  1.00  0.00     0.029 A 
ATOM     56  C   UNL A   1      42.686  32.657  34.730  1.00  0.00     0.049 A 
ATOM     57  H   UNL A   1      40.876  33.767  34.529  1.00  0.00     0.167 HD
ATOM     58  C   UNL A   1      41.386  28.265  29.966  1.00  0.00     0.037 A 
ATOM     59  C   UNL A   1      42.841  32.365  36.046  1.00  0.00     0.037 A 
ATOM     60  C   UNL A   1      42.573  28.304  30.836  1.00  0.00     0.049 A 
ATOM     61  C   UNL A   1      43.183  30.911  36.110  1.00  0.00     0.074 A 
ATOM     62  C   UNL A   1      43.793  28.953  30.772  1.00  0.00     0.029 A 
ATOM     63  N   UNL A   1      42.441  27.857  32.155  1.00  0.00    -0.354 N 
ATOM     64  N   UNL A   1      42.817  30.073  35.174  1.00  0.00    -0.248 NA
ATOM     65  C   UNL A   1      44.105  30.328  37.074  1.00  0.00     0.031 C 
ATOM     66  C   UNL A   1      44.340  28.975  32.095  1.00  0.00     0.029 A 
ATOM     67  C   UNL A   1      43.473  28.311  32.955  1.00  0.00     0.049 A 
ATOM     68  H   UNL A   1      41.704  27.288  32.475  1.00  0.00     0.167 HD
ATOM     69  C   UNL A   1      43.549  28.937  35.296  1.00  0.00     0.074 A 
ATOM     70  C   UNL A   1      44.290  29.109  36.537  1.00  0.00     0.031 C 
ATOM     71  C   UNL A   1      43.542  27.942  34.368  1.00  0.00     0.037 A 
BRANCH  58  72
ATOM     72  C   UNL A   1      41.379  27.662  28.575  1.00  0.00     0.064 A 
ATOM     73  C   UNL A   1      41.625  28.484  27.453  1.00  0.00     0.173 A 
ATOM     74  C   UNL A   1      41.066  26.321  28.255  1.00  0.00     0.173 A 
ATOM     75  F   UNL A   1      41.905  29.787  27.598  1.00  0.00    -0.203 F 
ATOM     76  C   UNL A   1      41.577  28.004  26.138  1.00  0.00     0.198 A 
ATOM     77  C   UNL A   1      41.066  25.832  26.943  1.00  0.00     0.198 A 
ATOM     78  F   UNL A   1      40.688  25.435  29.179  1.00  0.00    -0.203 F 
ATOM     79  F   UNL A   1      41.779  28.846  25.114  1.00  0.00    -0.200 F 
ATOM     80  C   UNL A   1      41.315  26.675  25.883  1.00  0.00     0.200 A 
ATOM     81  F   UNL A   1      40.800  24.536  26.718  1.00  0.00    -0.200 F 
ATOM     82  F   UNL A   1      41.283  26.211  24.626  1.00  0.00    -0.200 F 
ENDBRANCH  58  72
BRANCH  59  83
ATOM     83  C   UNL A   1      41.957  33.225  36.893  1.00  0.00     0.064 A 
ATOM     84  C   UNL A   1      42.423  34.545  37.108  1.00  0.00     0.173 A 
ATOM     85  C   UNL A   1      40.569  33.025  36.963  1.00  0.00     0.173 A 
ATOM     86  F   UNL A   1      43.738  34.807  37.026  1.00  0.00    -0.203 F 
ATOM     87  C   UNL A   1      41.547  35.626  37.206  1.00  0.00     0.198 A 
ATOM     88  C   UNL A   1      39.694  34.117  37.070  1.00  0.00     0.198 A 
ATOM     89  F   UNL A   1      40.050  31.809  36.751  1.00  0.00    -0.203 F 
ATOM     90  F   UNL A   1      42.028  36.880  37.205  1.00  0.00    -0.200 F 
ATOM     91  C   UNL A   1      40.182  35.414  37.142  1.00  0.00     0.200 A 
ATOM     92  F   UNL A   1      38.369  33.925  36.976  1.00  0.00    -0.200 F 
ATOM     93  F   UNL A   1      39.346  36.460  37.055  1.00  0.00    -0.200 F 
ENDBRANCH  59  83
BRANCH  71  94
ATOM     94  C   UNL A   1      43.645  26.505  34.787  1.00  0.00     0.064 A 
ATOM     95  C   UNL A   1      42.516  25.715  35.076  1.00  0.00     0.173 A 
ATOM     96  C   UNL A   1      44.874  25.816  34.723  1.00  0.00     0.173 A 
ATOM     97  F   UNL A   1      41.271  26.211  35.014  1.00  0.00    -0.203 F 
ATOM     98  C   UNL A   1      42.620  24.364  35.382  1.00  0.00     0.198 A 
ATOM     99  C   UNL A   1      44.962  24.446  34.949  1.00  0.00     0.198 A 
ATOM    100  F   UNL A   1      46.017  26.436  34.398  1.00  0.00    -0.203 F 
ATOM    101  F   UNL A   1      41.519  23.678  35.719  1.00  0.00    -0.200 F 
ATOM    102  C   UNL A   1      43.841  23.727  35.309  1.00  0.00     0.200 A 
ATOM    103  F   UNL A   1      46.139  23.824  34.791  1.00  0.00    -0.200 F 
ATOM    104  F   UNL A   1      43.932  22.416  35.561  1.00  0.00    -0.200 F 
ENDBRANCH  71  94
ENDBRANCH  45  46
ENDBRANCH  38  40
ENDBRANCH  37  38
ENDBRANCH  36  37
ENDBRANCH  35  36
ENDBRANCH  34  35
ENDBRANCH   1  34
TORSDOF 17
ENDMDL
MODEL 3
REMARK VINA RESULT:     -12.7      3.468      8.728
REMARK SMILES Cc1c(NC(=O)c2cccc(-c3cc4ccccc4oc3=O)c2)cccc1C(=O)OCCOCCOC(=O)c1ccc(-c2c3nc(c(-c4c(F)c(F)c(F)c(F)c4F)c4ccc([nH]4)c(-c4c(F)c(F)c(F)c(F)c4F)c4nc(c(-c5c(F)c(F)c(F)c(F)c5F)c5ccc2[nH]5)C=C4)C=C3)cc1
REMARK SMILES IDX 32 1 31 2 30 3 28 4 29 5 27 6 1 7 2 8 3 9 24 10 26 11 25 12
REMARK SMILES IDX 4 13 5 14 6 16 7 17 8 18 23 19 9 20 11 21 10 22 12 23 13 24
REMARK SMILES IDX 21 25 14 26 20 27 22 28 15 29 19 30 16 31 18 32 17 33 33 34
REMARK SMILES IDX 34 35 35 36 36 37 37 38 38 39 39 40 40 41 101 42 41 43
REMARK SMILES IDX 100 44 42 45 43 46 44 47 94 48 45 49 99 50 93 51 95 52 46 53
REMARK SMILES IDX 98 54 92 55 91 56 47 58 79 59 59 60 78 61 60 62 63 63 77 64
REMARK SMILES IDX 96 65 61 66 62 67 76 69 97 70 64 71 48 72 49 73 57 74 50 75
REMARK SMILES IDX 51 76 55 77 58 78 52 79 53 80 56 81 54 82 80 83 81 84 89 85
REMARK SMILES IDX 82 86 83 87 87 88 90 89 84 90 85 91 88 92 86 93 65 94 66 95
REMARK SMILES IDX 74 96 67 97 68 98 72 99 75 100 69 101 70 102 73 103 71 104
REMARK H PARENT 4 15 95 57 63 68
REMARK Flexibility Score: inf
ROOT
ATOM      1  C   UNL A   1      40.649  21.946  27.511  1.00  0.00     0.202 C 
ENDROOT
BRANCH   1   2
ATOM      2  C   UNL A   1      40.014  21.901  26.159  1.00  0.00     0.261 C 
BRANCH   2   3
ATOM      3  O   UNL A   1      38.571  21.967  26.126  1.00  0.00    -0.460 OA
BRANCH   3   4
ATOM      4  C   UNL A   1      37.849  23.119  26.222  1.00  0.00     0.338 C 
ATOM      5  O   UNL A   1      38.135  24.105  26.861  1.00  0.00    -0.246 OA
BRANCH   4   6
ATOM      6  C   UNL A   1      36.698  23.048  25.255  1.00  0.00     0.065 A 
ATOM      7  C   UNL A   1      34.930  22.152  26.922  1.00  0.00     0.047 C 
ATOM      8  C   UNL A   1      35.426  22.487  25.533  1.00  0.00    -0.013 A 
ATOM      9  C   UNL A   1      34.586  22.159  24.438  1.00  0.00     0.045 A 
ATOM     10  C   UNL A   1      34.937  22.525  23.135  1.00  0.00     0.026 A 
ATOM     11  C   UNL A   1      37.025  23.416  23.934  1.00  0.00     0.016 A 
ATOM     12  C   UNL A   1      36.145  23.167  22.884  1.00  0.00     0.003 A 
BRANCH   9  13
ATOM     13  N   UNL A   1      33.405  21.442  24.698  1.00  0.00    -0.322 N 
ATOM     14  C   UNL A   1      32.146  21.828  25.089  1.00  0.00     0.255 C 
ATOM     15  H   UNL A   1      33.498  20.469  24.575  1.00  0.00     0.170 HD
ATOM     16  O   UNL A   1      31.347  20.947  25.413  1.00  0.00    -0.269 OA
BRANCH  14  17
ATOM     17  C   UNL A   1      31.660  23.234  25.031  1.00  0.00     0.040 A 
ATOM     18  C   UNL A   1      30.750  23.643  26.007  1.00  0.00     0.014 A 
ATOM     19  C   UNL A   1      31.954  24.101  23.969  1.00  0.00     0.022 A 
ATOM     20  C   UNL A   1      30.195  24.921  25.959  1.00  0.00     0.001 A 
ATOM     21  C   UNL A   1      31.378  25.386  23.888  1.00  0.00    -0.010 A 
ATOM     22  C   UNL A   1      30.515  25.787  24.914  1.00  0.00     0.009 A 
BRANCH  21  23
ATOM     23  C   UNL A   1      31.490  26.319  22.723  1.00  0.00     0.068 A 
ATOM     24  C   UNL A   1      30.941  27.550  22.663  1.00  0.00     0.028 A 
ATOM     25  C   UNL A   1      32.885  26.444  22.172  1.00  0.00     0.344 A 
ATOM     26  C   UNL A   1      31.673  28.451  23.562  1.00  0.00     0.018 A 
ATOM     27  O   UNL A   1      33.706  27.282  22.937  1.00  0.00    -0.422 OA
ATOM     28  O   UNL A   1      33.266  25.841  21.179  1.00  0.00    -0.246 OA
ATOM     29  C   UNL A   1      30.999  29.354  24.338  1.00  0.00     0.012 A 
ATOM     30  C   UNL A   1      33.048  28.208  23.770  1.00  0.00     0.138 A 
ATOM     31  C   UNL A   1      31.706  29.907  25.386  1.00  0.00     0.001 A 
ATOM     32  C   UNL A   1      33.743  28.779  24.826  1.00  0.00     0.048 A 
ATOM     33  C   UNL A   1      33.045  29.624  25.669  1.00  0.00     0.004 A 
ENDBRANCH  21  23
ENDBRANCH  14  17
ENDBRANCH   9  13
ENDBRANCH   4   6
ENDBRANCH   3   4
ENDBRANCH   2   3
ENDBRANCH   1   2
BRANCH   1  34
ATOM     34  O   UNL A   1      41.709  22.877  27.414  1.00  0.00    -0.374 OA
BRANCH  34  35
ATOM     35  C   UNL A   1      41.458  24.052  26.668  1.00  0.00     0.202 C 
BRANCH  35  36
ATOM     36  C   UNL A   1      41.830  25.355  27.389  1.00  0.00     0.261 C 
BRANCH  36  37
ATOM     37  O   UNL A   1      40.659  26.192  27.554  1.00  0.00    -0.460 OA
BRANCH  37  38
ATOM     38  C   UNL A   1      40.828  27.538  27.404  1.00  0.00     0.338 C 
ATOM     39  O   UNL A   1      40.875  28.124  26.336  1.00  0.00    -0.246 OA
BRANCH  38  40
ATOM     40  C   UNL A   1      41.230  28.149  28.712  1.00  0.00     0.060 A 
ATOM     41  C   UNL A   1      40.631  27.734  29.920  1.00  0.00     0.016 A 
ATOM     42  C   UNL A   1      41.922  29.353  28.671  1.00  0.00     0.016 A 
ATOM     43  C   UNL A   1      40.598  28.599  31.031  1.00  0.00     0.010 A 
ATOM     44  C   UNL A   1      41.742  30.250  29.699  1.00  0.00     0.010 A 
ATOM     45  C   UNL A   1      41.076  29.898  30.886  1.00  0.00    -0.014 A 
BRANCH  45  46
ATOM     46  C   UNL A   1      40.892  31.026  31.813  1.00  0.00     0.031 A 
ATOM     47  C   UNL A   1      41.960  31.227  32.828  1.00  0.00     0.074 A 
ATOM     48  C   UNL A   1      39.995  32.022  31.574  1.00  0.00     0.049 A 
ATOM     49  N   UNL A   1      41.926  32.151  33.716  1.00  0.00    -0.248 NA
ATOM     50  C   UNL A   1      43.156  30.388  32.961  1.00  0.00     0.031 C 
ATOM     51  C   UNL A   1      40.060  33.424  32.008  1.00  0.00     0.029 A 
ATOM     52  N   UNL A   1      38.812  32.014  30.814  1.00  0.00    -0.354 N 
ATOM     53  C   UNL A   1      43.168  32.249  34.289  1.00  0.00     0.074 A 
ATOM     54  C   UNL A   1      43.859  31.059  33.879  1.00  0.00     0.031 C 
ATOM     55  C   UNL A   1      38.881  34.032  31.788  1.00  0.00     0.029 A 
ATOM     56  C   UNL A   1      37.964  33.018  31.302  1.00  0.00     0.049 A 
ATOM     57  H   UNL A   1      38.613  31.404  30.067  1.00  0.00     0.167 HD
ATOM     58  C   UNL A   1      43.459  33.401  34.955  1.00  0.00     0.037 A 
ATOM     59  C   UNL A   1      36.730  32.702  31.770  1.00  0.00     0.037 A 
ATOM     60  C   UNL A   1      42.238  34.212  35.100  1.00  0.00     0.049 A 
ATOM     61  C   UNL A   1      36.761  32.983  33.238  1.00  0.00     0.074 A 
ATOM     62  C   UNL A   1      41.788  35.386  34.524  1.00  0.00     0.029 A 
ATOM     63  N   UNL A   1      41.122  33.624  35.705  1.00  0.00    -0.354 N 
ATOM     64  N   UNL A   1      37.874  32.955  33.925  1.00  0.00    -0.248 NA
ATOM     65  C   UNL A   1      35.633  33.505  33.996  1.00  0.00     0.031 C 
ATOM     66  C   UNL A   1      40.369  35.439  34.707  1.00  0.00     0.029 A 
ATOM     67  C   UNL A   1      39.961  34.319  35.422  1.00  0.00     0.049 A 
ATOM     68  H   UNL A   1      41.159  32.815  36.265  1.00  0.00     0.167 HD
ATOM     69  C   UNL A   1      37.672  33.584  35.109  1.00  0.00     0.074 A 
ATOM     70  C   UNL A   1      36.242  33.850  35.144  1.00  0.00     0.031 C 
ATOM     71  C   UNL A   1      38.678  33.888  35.974  1.00  0.00     0.037 A 
BRANCH  58  72
ATOM     72  C   UNL A   1      44.839  33.870  35.371  1.00  0.00     0.064 A 
ATOM     73  C   UNL A   1      45.667  34.530  34.436  1.00  0.00     0.173 A 
ATOM     74  C   UNL A   1      45.447  33.644  36.627  1.00  0.00     0.173 A 
ATOM     75  F   UNL A   1      45.239  34.787  33.192  1.00  0.00    -0.203 F 
ATOM     76  C   UNL A   1      46.973  34.939  34.738  1.00  0.00     0.198 A 
ATOM     77  C   UNL A   1      46.734  34.097  36.943  1.00  0.00     0.198 A 
ATOM     78  F   UNL A   1      44.857  32.930  37.589  1.00  0.00    -0.203 F 
ATOM     79  F   UNL A   1      47.722  35.524  33.792  1.00  0.00    -0.200 F 
ATOM     80  C   UNL A   1      47.500  34.738  35.996  1.00  0.00     0.200 A 
ATOM     81  F   UNL A   1      47.229  33.882  38.171  1.00  0.00    -0.200 F 
ATOM     82  F   UNL A   1      48.744  35.140  36.290  1.00  0.00    -0.200 F 
ENDBRANCH  58  72
BRANCH  59  83
ATOM     83  C   UNL A   1      36.125  31.590  30.975  1.00  0.00     0.064 A 
ATOM     84  C   UNL A   1      35.495  31.982  29.768  1.00  0.00     0.173 A 
ATOM     85  C   UNL A   1      36.619  30.277  31.032  1.00  0.00     0.173 A 
ATOM     86  F   UNL A   1      35.026  33.234  29.639  1.00  0.00    -0.203 F 
ATOM     87  C   UNL A   1      35.521  31.175  28.630  1.00  0.00     0.198 A 
ATOM     88  C   UNL A   1      36.634  29.468  29.886  1.00  0.00     0.198 A 
ATOM     89  F   UNL A   1      37.246  29.839  32.132  1.00  0.00    -0.203 F 
ATOM     90  F   UNL A   1      35.095  31.662  27.454  1.00  0.00    -0.200 F 
ATOM     91  C   UNL A   1      36.131  29.935  28.680  1.00  0.00     0.200 A 
ATOM     92  F   UNL A   1      37.254  28.277  29.915  1.00  0.00    -0.200 F 
ATOM     93  F   UNL A   1      36.317  29.235  27.550  1.00  0.00    -0.200 F 
ENDBRANCH  59  83
BRANCH  71  94
ATOM     94  C   UNL A   1      38.458  33.821  37.457  1.00  0.00     0.064 A 
ATOM     95  C   UNL A   1      38.014  32.654  38.107  1.00  0.00     0.173 A 
ATOM     96  C   UNL A   1      38.874  34.872  38.301  1.00  0.00     0.173 A 
ATOM     97  F   UNL A   1      37.738  31.529  37.431  1.00  0.00    -0.203 F 
ATOM     98  C   UNL A   1      37.895  32.581  39.489  1.00  0.00     0.198 A 
ATOM     99  C   UNL A   1      38.830  34.764  39.687  1.00  0.00     0.198 A 
ATOM    100  F   UNL A   1      39.375  36.016  37.813  1.00  0.00    -0.203 F 
ATOM    101  F   UNL A   1      37.399  31.468  40.049  1.00  0.00    -0.200 F 
ATOM    102  C   UNL A   1      38.312  33.630  40.280  1.00  0.00     0.200 A 
ATOM    103  F   UNL A   1      39.318  35.757  40.444  1.00  0.00    -0.200 F 
ATOM    104  F   UNL A   1      38.236  33.541  41.613  1.00  0.00    -0.200 F 
ENDBRANCH  71  94
ENDBRANCH  45  46
ENDBRANCH  38  40
ENDBRANCH  37  38
ENDBRANCH  36  37
ENDBRANCH  35  36
ENDBRANCH  34  35
ENDBRANCH   1  34
TORSDOF 17
ENDMDL
