MODEL 1
REMARK VINA RESULT:     -13.6      0.000      0.000
REMARK SMILES C[C@]12c3ccccc3[C@](C)(c3ccccc31)[C@@H]1C(=O)N(c3ccc(C(=O)OCCOCCOC(=O)c4ccc(-c5c6nc(c(-c7c(F)c(F)c(F)c(F)c7F)c7ccc([nH]7)c(-c7c(F)c(F)c(F)c(F)c7F)c7nc(c(-c8c(F)c(F)c(F)c(F)c8F)c8ccc5[nH]8)C=C7)C=C6)cc4)cc3)C(=O)[C@H]12
REMARK SMILES IDX 31 1 30 2 29 3 28 4 27 5 25 6 26 7 24 8 21 9 22 10 100 11
REMARK SMILES IDX 23 12 99 13 20 14 1 15 2 16 16 17 3 18 103 19 15 20 11 21
REMARK SMILES IDX 8 22 4 23 17 24 101 25 14 26 12 27 9 28 7 29 5 30 18 31
REMARK SMILES IDX 102 32 13 33 10 34 6 35 19 36 32 37 33 38 34 39 35 40 36 41
REMARK SMILES IDX 37 42 98 43 38 44 97 45 39 46 40 47 41 48 91 49 42 50 96 51
REMARK SMILES IDX 90 52 92 53 43 54 95 55 89 56 88 57 44 59 76 60 56 61 75 62
REMARK SMILES IDX 57 63 60 64 74 65 93 66 58 67 59 68 73 70 94 71 61 72 45 73
REMARK SMILES IDX 46 74 54 75 47 76 48 77 52 78 55 79 49 80 50 81 53 82 51 83
REMARK SMILES IDX 77 84 78 85 86 86 79 87 80 88 84 89 87 90 81 91 82 92 85 93
REMARK SMILES IDX 83 94 62 95 63 96 71 97 64 98 65 99 69 100 72 101 66 102
REMARK SMILES IDX 67 103 70 104 68 105
REMARK H PARENT 92 58 60 69
REMARK Flexibility Score: inf
ROOT
ATOM      1  C   UNL A   1      35.407  35.289  33.279  1.00  0.00     0.202 C 
ENDROOT
BRANCH   1   2
ATOM      2  O   UNL A   1      34.414  36.007  32.546  1.00  0.00    -0.374 OA
BRANCH   2   3
ATOM      3  C   UNL A   1      33.416  35.255  31.863  1.00  0.00     0.202 C 
BRANCH   3   4
ATOM      4  C   UNL A   1      32.853  35.835  30.559  1.00  0.00     0.261 C 
BRANCH   4   5
ATOM      5  O   UNL A   1      32.639  34.823  29.564  1.00  0.00    -0.460 OA
BRANCH   5   6
ATOM      6  C   UNL A   1      33.724  34.551  28.795  1.00  0.00     0.338 C 
ATOM      7  O   UNL A   1      34.784  35.155  28.780  1.00  0.00    -0.246 OA
BRANCH   6   8
ATOM      8  C   UNL A   1      33.528  33.270  28.084  1.00  0.00     0.060 A 
ATOM      9  C   UNL A   1      33.005  30.866  26.753  1.00  0.00     0.052 A 
ATOM     10  C   UNL A   1      32.033  31.870  26.785  1.00  0.00     0.028 A 
ATOM     11  C   UNL A   1      34.253  31.087  27.357  1.00  0.00     0.028 A 
ATOM     12  C   UNL A   1      32.281  33.052  27.484  1.00  0.00     0.018 A 
ATOM     13  C   UNL A   1      34.531  32.303  27.989  1.00  0.00     0.018 A 
BRANCH   9  14
ATOM     14  N   UNL A   1      32.714  29.627  26.161  1.00  0.00    -0.250 N 
ATOM     15  C   UNL A   1      34.517  25.536  25.465  1.00  0.00     0.022 C 
ATOM     16  C   UNL A   1      33.136  26.035  25.047  1.00  0.00     0.030 C 
ATOM     17  C   UNL A   1      31.938  25.294  25.704  1.00  0.00    -0.033 A 
ATOM     18  C   UNL A   1      32.841  25.925  23.517  1.00  0.00    -0.033 A 
ATOM     19  C   UNL A   1      32.996  27.572  25.200  1.00  0.00     0.108 C 
ATOM     20  C   UNL A   1      32.019  24.241  26.611  1.00  0.00     0.005 A 
ATOM     21  C   UNL A   1      30.645  25.735  25.248  1.00  0.00    -0.033 A 
ATOM     22  C   UNL A   1      31.589  26.520  23.135  1.00  0.00    -0.033 A 
ATOM     23  C   UNL A   1      33.672  25.345  22.562  1.00  0.00     0.005 A 
ATOM     24  C   UNL A   1      31.506  27.912  25.290  1.00  0.00     0.108 C 
ATOM     25  C   UNL A   1      33.539  28.501  26.244  1.00  0.00     0.238 C 
ATOM     26  C   UNL A   1      30.842  23.630  27.053  1.00  0.00     0.000 A 
ATOM     27  C   UNL A   1      29.482  25.107  25.685  1.00  0.00     0.005 A 
ATOM     28  C   UNL A   1      30.716  26.994  24.327  1.00  0.00     0.030 C 
ATOM     29  C   UNL A   1      31.218  26.531  21.793  1.00  0.00     0.005 A 
ATOM     30  C   UNL A   1      33.276  25.360  21.224  1.00  0.00     0.000 A 
ATOM     31  C   UNL A   1      31.568  29.399  25.394  1.00  0.00     0.238 C 
ATOM     32  O   UNL A   1      34.544  28.330  26.910  1.00  0.00    -0.274 OA
ATOM     33  C   UNL A   1      29.589  24.052  26.588  1.00  0.00     0.000 A 
ATOM     34  C   UNL A   1      29.366  27.593  23.945  1.00  0.00     0.022 C 
ATOM     35  C   UNL A   1      32.066  25.953  20.844  1.00  0.00     0.000 A 
ATOM     36  O   UNL A   1      30.732  30.190  24.996  1.00  0.00    -0.274 OA
ENDBRANCH   9  14
ENDBRANCH   6   8
ENDBRANCH   5   6
ENDBRANCH   4   5
ENDBRANCH   3   4
ENDBRANCH   2   3
ENDBRANCH   1   2
BRANCH   1  37
ATOM     37  C   UNL A   1      35.084  33.849  33.699  1.00  0.00     0.261 C 
BRANCH  37  38
ATOM     38  O   UNL A   1      36.027  32.897  33.177  1.00  0.00    -0.460 OA
BRANCH  38  39
ATOM     39  C   UNL A   1      35.576  32.139  32.148  1.00  0.00     0.338 C 
ATOM     40  O   UNL A   1      34.442  32.091  31.699  1.00  0.00    -0.246 OA
BRANCH  39  41
ATOM     41  C   UNL A   1      36.731  31.505  31.484  1.00  0.00     0.060 A 
ATOM     42  C   UNL A   1      36.900  31.579  30.102  1.00  0.00     0.016 A 
ATOM     43  C   UNL A   1      37.668  30.834  32.281  1.00  0.00     0.016 A 
ATOM     44  C   UNL A   1      38.023  30.988  29.519  1.00  0.00     0.010 A 
ATOM     45  C   UNL A   1      38.788  30.243  31.697  1.00  0.00     0.010 A 
ATOM     46  C   UNL A   1      38.982  30.327  30.312  1.00  0.00    -0.014 A 
BRANCH  46  47
ATOM     47  C   UNL A   1      40.235  29.824  29.695  1.00  0.00     0.031 A 
ATOM     48  C   UNL A   1      40.342  28.426  29.167  1.00  0.00     0.074 A 
ATOM     49  C   UNL A   1      41.291  30.656  29.621  1.00  0.00     0.049 A 
ATOM     50  N   UNL A   1      41.339  27.861  28.534  1.00  0.00    -0.248 NA
ATOM     51  C   UNL A   1      39.187  27.543  29.380  1.00  0.00     0.031 C 
ATOM     52  C   UNL A   1      41.315  32.025  30.136  1.00  0.00     0.029 A 
ATOM     53  N   UNL A   1      42.538  30.480  29.078  1.00  0.00    -0.354 N 
ATOM     54  C   UNL A   1      40.925  26.566  28.250  1.00  0.00     0.074 A 
ATOM     55  C   UNL A   1      39.607  26.412  28.831  1.00  0.00     0.031 C 
ATOM     56  C   UNL A   1      42.502  32.579  29.850  1.00  0.00     0.029 A 
ATOM     57  C   UNL A   1      43.335  31.596  29.162  1.00  0.00     0.049 A 
ATOM     58  H   UNL A   1      42.834  29.636  28.666  1.00  0.00     0.167 HD
ATOM     59  C   UNL A   1      41.579  25.609  27.549  1.00  0.00     0.037 A 
ATOM     60  C   UNL A   1      44.593  31.805  28.731  1.00  0.00     0.037 A 
ATOM     61  C   UNL A   1      42.898  25.767  26.989  1.00  0.00     0.049 A 
ATOM     62  C   UNL A   1      45.315  30.705  28.005  1.00  0.00     0.074 A 
ATOM     63  C   UNL A   1      43.627  24.862  26.233  1.00  0.00     0.029 A 
ATOM     64  N   UNL A   1      43.693  26.895  27.132  1.00  0.00    -0.354 N 
ATOM     65  N   UNL A   1      44.884  29.514  27.672  1.00  0.00    -0.248 NA
ATOM     66  C   UNL A   1      46.698  30.980  27.589  1.00  0.00     0.031 C 
ATOM     67  C   UNL A   1      44.882  25.419  25.972  1.00  0.00     0.029 A 
ATOM     68  C   UNL A   1      44.916  26.696  26.509  1.00  0.00     0.049 A 
ATOM     69  H   UNL A   1      43.428  27.716  27.606  1.00  0.00     0.167 HD
ATOM     70  C   UNL A   1      45.930  28.905  26.990  1.00  0.00     0.074 A 
ATOM     71  C   UNL A   1      47.010  29.869  26.938  1.00  0.00     0.031 C 
ATOM     72  C   UNL A   1      45.988  27.659  26.460  1.00  0.00     0.037 A 
BRANCH  59  73
ATOM     73  C   UNL A   1      40.879  24.298  27.327  1.00  0.00     0.064 A 
ATOM     74  C   UNL A   1      39.792  24.193  26.446  1.00  0.00     0.173 A 
ATOM     75  C   UNL A   1      41.353  23.120  27.926  1.00  0.00     0.173 A 
ATOM     76  F   UNL A   1      39.297  25.288  25.849  1.00  0.00    -0.203 F 
ATOM     77  C   UNL A   1      39.197  22.962  26.183  1.00  0.00     0.198 A 
ATOM     78  C   UNL A   1      40.775  21.886  27.638  1.00  0.00     0.198 A 
ATOM     79  F   UNL A   1      42.397  23.162  28.768  1.00  0.00    -0.203 F 
ATOM     80  F   UNL A   1      38.141  22.891  25.360  1.00  0.00    -0.200 F 
ATOM     81  C   UNL A   1      39.696  21.808  26.770  1.00  0.00     0.200 A 
ATOM     82  F   UNL A   1      41.270  20.771  28.192  1.00  0.00    -0.200 F 
ATOM     83  F   UNL A   1      39.135  20.621  26.500  1.00  0.00    -0.200 F 
ENDBRANCH  59  73
BRANCH  60  84
ATOM     84  C   UNL A   1      45.230  33.131  28.946  1.00  0.00     0.064 A 
ATOM     85  C   UNL A   1      45.977  33.391  30.103  1.00  0.00     0.173 A 
ATOM     86  C   UNL A   1      45.129  34.154  27.991  1.00  0.00     0.173 A 
ATOM     87  F   UNL A   1      46.086  32.452  31.054  1.00  0.00    -0.203 F 
ATOM     88  C   UNL A   1      46.588  34.627  30.303  1.00  0.00     0.198 A 
ATOM     89  C   UNL A   1      45.767  35.377  28.176  1.00  0.00     0.198 A 
ATOM     90  F   UNL A   1      44.431  33.954  26.863  1.00  0.00    -0.203 F 
ATOM     91  F   UNL A   1      47.264  34.862  31.435  1.00  0.00    -0.200 F 
ATOM     92  C   UNL A   1      46.491  35.616  29.336  1.00  0.00     0.200 A 
ATOM     93  F   UNL A   1      45.686  36.324  27.231  1.00  0.00    -0.200 F 
ATOM     94  F   UNL A   1      47.092  36.799  29.521  1.00  0.00    -0.200 F 
ENDBRANCH  60  84
BRANCH  72  95
ATOM     95  C   UNL A   1      47.256  27.256  25.760  1.00  0.00     0.064 A 
ATOM     96  C   UNL A   1      47.455  27.513  24.396  1.00  0.00     0.173 A 
ATOM     97  C   UNL A   1      48.312  26.672  26.478  1.00  0.00     0.173 A 
ATOM     98  F   UNL A   1      46.473  28.058  23.661  1.00  0.00    -0.203 F 
ATOM     99  C   UNL A   1      48.658  27.188  23.773  1.00  0.00     0.198 A 
ATOM    100  C   UNL A   1      49.525  26.379  25.860  1.00  0.00     0.198 A 
ATOM    101  F   UNL A   1      48.177  26.410  27.786  1.00  0.00    -0.203 F 
ATOM    102  F   UNL A   1      48.811  27.408  22.460  1.00  0.00    -0.200 F 
ATOM    103  C   UNL A   1      49.695  26.632  24.507  1.00  0.00     0.200 A 
ATOM    104  F   UNL A   1      50.532  25.858  26.575  1.00  0.00    -0.200 F 
ATOM    105  F   UNL A   1      50.858  26.339  23.910  1.00  0.00    -0.200 F 
ENDBRANCH  72  95
ENDBRANCH  46  47
ENDBRANCH  39  41
ENDBRANCH  38  39
ENDBRANCH  37  38
ENDBRANCH   1  37
TORSDOF 15
ENDMDL
MODEL 2
REMARK VINA RESULT:     -13.2      4.167      8.321
REMARK SMILES C[C@]12c3ccccc3[C@](C)(c3ccccc31)[C@@H]1C(=O)N(c3ccc(C(=O)OCCOCCOC(=O)c4ccc(-c5c6nc(c(-c7c(F)c(F)c(F)c(F)c7F)c7ccc([nH]7)c(-c7c(F)c(F)c(F)c(F)c7F)c7nc(c(-c8c(F)c(F)c(F)c(F)c8F)c8ccc5[nH]8)C=C7)C=C6)cc4)cc3)C(=O)[C@H]12
REMARK SMILES IDX 31 1 30 2 29 3 28 4 27 5 25 6 26 7 24 8 21 9 22 10 100 11
REMARK SMILES IDX 23 12 99 13 20 14 1 15 2 16 16 17 3 18 103 19 15 20 11 21
REMARK SMILES IDX 8 22 4 23 17 24 101 25 14 26 12 27 9 28 7 29 5 30 18 31
REMARK SMILES IDX 102 32 13 33 10 34 6 35 19 36 32 37 33 38 34 39 35 40 36 41
REMARK SMILES IDX 37 42 98 43 38 44 97 45 39 46 40 47 41 48 91 49 42 50 96 51
REMARK SMILES IDX 90 52 92 53 43 54 95 55 89 56 88 57 44 59 76 60 56 61 75 62
REMARK SMILES IDX 57 63 60 64 74 65 93 66 58 67 59 68 73 70 94 71 61 72 45 73
REMARK SMILES IDX 46 74 54 75 47 76 48 77 52 78 55 79 49 80 50 81 53 82 51 83
REMARK SMILES IDX 77 84 78 85 86 86 79 87 80 88 84 89 87 90 81 91 82 92 85 93
REMARK SMILES IDX 83 94 62 95 63 96 71 97 64 98 65 99 69 100 72 101 66 102
REMARK SMILES IDX 67 103 70 104 68 105
REMARK H PARENT 92 58 60 69
REMARK Flexibility Score: inf
ROOT
ATOM      1  C   UNL A   1      35.688  34.750  33.188  1.00  0.00     0.202 C 
ENDROOT
BRANCH   1   2
ATOM      2  O   UNL A   1      37.099  34.950  33.266  1.00  0.00    -0.374 OA
BRANCH   2   3
ATOM      3  C   UNL A   1      37.859  34.820  32.068  1.00  0.00     0.202 C 
BRANCH   3   4
ATOM      4  C   UNL A   1      39.121  33.949  32.114  1.00  0.00     0.261 C 
BRANCH   4   5
ATOM      5  O   UNL A   1      39.416  33.494  33.443  1.00  0.00    -0.460 OA
BRANCH   5   6
ATOM      6  C   UNL A   1      40.688  33.737  33.851  1.00  0.00     0.338 C 
ATOM      7  O   UNL A   1      41.094  34.724  34.442  1.00  0.00    -0.246 OA
BRANCH   6   8
ATOM      8  C   UNL A   1      41.519  32.531  33.651  1.00  0.00     0.060 A 
ATOM      9  C   UNL A   1      42.990  30.171  33.356  1.00  0.00     0.052 A 
ATOM     10  C   UNL A   1      41.623  30.108  33.639  1.00  0.00     0.028 A 
ATOM     11  C   UNL A   1      43.608  31.419  33.183  1.00  0.00     0.028 A 
ATOM     12  C   UNL A   1      40.900  31.286  33.826  1.00  0.00     0.018 A 
ATOM     13  C   UNL A   1      42.867  32.600  33.291  1.00  0.00     0.018 A 
BRANCH   9  14
ATOM     14  N   UNL A   1      43.748  28.990  33.293  1.00  0.00    -0.250 N 
ATOM     15  C   UNL A   1      46.608  26.493  35.754  1.00  0.00     0.022 C 
ATOM     16  C   UNL A   1      46.087  26.209  34.346  1.00  0.00     0.030 C 
ATOM     17  C   UNL A   1      45.228  24.921  34.207  1.00  0.00    -0.033 A 
ATOM     18  C   UNL A   1      47.201  26.026  33.267  1.00  0.00    -0.033 A 
ATOM     19  C   UNL A   1      45.365  27.435  33.729  1.00  0.00     0.108 C 
ATOM     20  C   UNL A   1      44.908  24.031  35.228  1.00  0.00     0.005 A 
ATOM     21  C   UNL A   1      44.801  24.636  32.861  1.00  0.00    -0.033 A 
ATOM     22  C   UNL A   1      46.682  25.889  31.933  1.00  0.00    -0.033 A 
ATOM     23  C   UNL A   1      48.574  26.011  33.500  1.00  0.00     0.005 A 
ATOM     24  C   UNL A   1      44.440  26.936  32.616  1.00  0.00     0.108 C 
ATOM     25  C   UNL A   1      44.479  28.464  34.363  1.00  0.00     0.238 C 
ATOM     26  C   UNL A   1      44.186  22.874  34.921  1.00  0.00     0.000 A 
ATOM     27  C   UNL A   1      44.096  23.472  32.568  1.00  0.00     0.005 A 
ATOM     28  C   UNL A   1      45.137  25.782  31.856  1.00  0.00     0.030 C 
ATOM     29  C   UNL A   1      47.566  25.761  30.865  1.00  0.00     0.005 A 
ATOM     30  C   UNL A   1      49.441  25.873  32.416  1.00  0.00     0.000 A 
ATOM     31  C   UNL A   1      43.874  28.227  32.128  1.00  0.00     0.238 C 
ATOM     32  O   UNL A   1      44.501  28.819  35.528  1.00  0.00    -0.274 OA
ATOM     33  C   UNL A   1      43.793  22.593  33.605  1.00  0.00     0.000 A 
ATOM     34  C   UNL A   1      44.568  25.597  30.451  1.00  0.00     0.022 C 
ATOM     35  C   UNL A   1      48.943  25.757  31.112  1.00  0.00     0.000 A 
ATOM     36  O   UNL A   1      43.505  28.476  30.996  1.00  0.00    -0.274 OA
ENDBRANCH   9  14
ENDBRANCH   6   8
ENDBRANCH   5   6
ENDBRANCH   4   5
ENDBRANCH   3   4
ENDBRANCH   2   3
ENDBRANCH   1   2
BRANCH   1  37
ATOM     37  C   UNL A   1      35.118  33.447  33.766  1.00  0.00     0.261 C 
BRANCH  37  38
ATOM     38  O   UNL A   1      35.788  32.279  33.260  1.00  0.00    -0.460 OA
BRANCH  38  39
ATOM     39  C   UNL A   1      35.441  31.912  32.002  1.00  0.00     0.338 C 
ATOM     40  O   UNL A   1      34.408  32.174  31.407  1.00  0.00    -0.246 OA
BRANCH  39  41
ATOM     41  C   UNL A   1      36.613  31.299  31.347  1.00  0.00     0.060 A 
ATOM     42  C   UNL A   1      36.827  31.436  29.976  1.00  0.00     0.016 A 
ATOM     43  C   UNL A   1      37.518  30.584  32.142  1.00  0.00     0.016 A 
ATOM     44  C   UNL A   1      37.964  30.862  29.403  1.00  0.00     0.010 A 
ATOM     45  C   UNL A   1      38.652  30.011  31.568  1.00  0.00     0.010 A 
ATOM     46  C   UNL A   1      38.892  30.157  30.194  1.00  0.00    -0.014 A 
BRANCH  46  47
ATOM     47  C   UNL A   1      40.160  29.672  29.596  1.00  0.00     0.031 A 
ATOM     48  C   UNL A   1      40.299  28.271  29.082  1.00  0.00     0.074 A 
ATOM     49  C   UNL A   1      41.202  30.523  29.525  1.00  0.00     0.049 A 
ATOM     50  N   UNL A   1      41.313  27.719  28.465  1.00  0.00    -0.248 NA
ATOM     51  C   UNL A   1      39.158  27.369  29.292  1.00  0.00     0.031 C 
ATOM     52  C   UNL A   1      41.194  31.896  30.027  1.00  0.00     0.029 A 
ATOM     53  N   UNL A   1      42.457  30.366  28.997  1.00  0.00    -0.354 N 
ATOM     54  C   UNL A   1      40.927  26.414  28.190  1.00  0.00     0.074 A 
ATOM     55  C   UNL A   1      39.605  26.240  28.758  1.00  0.00     0.031 C 
ATOM     56  C   UNL A   1      42.373  32.470  29.748  1.00  0.00     0.029 A 
ATOM     57  C   UNL A   1      43.232  31.497  29.079  1.00  0.00     0.049 A 
ATOM     58  H   UNL A   1      42.773  29.523  28.596  1.00  0.00     0.167 HD
ATOM     59  C   UNL A   1      41.605  25.463  27.504  1.00  0.00     0.037 A 
ATOM     60  C   UNL A   1      44.490  31.726  28.659  1.00  0.00     0.037 A 
ATOM     61  C   UNL A   1      42.928  25.641  26.956  1.00  0.00     0.049 A 
ATOM     62  C   UNL A   1      45.241  30.632  27.951  1.00  0.00     0.074 A 
ATOM     63  C   UNL A   1      43.681  24.743  26.217  1.00  0.00     0.029 A 
ATOM     64  N   UNL A   1      43.700  26.785  27.097  1.00  0.00    -0.354 N 
ATOM     65  N   UNL A   1      44.836  29.430  27.624  1.00  0.00    -0.248 NA
ATOM     66  C   UNL A   1      46.622  30.930  27.547  1.00  0.00     0.031 C 
ATOM     67  C   UNL A   1      44.928  25.320  25.964  1.00  0.00     0.029 A 
ATOM     68  C   UNL A   1      44.933  26.602  26.489  1.00  0.00     0.049 A 
ATOM     69  H   UNL A   1      43.414  27.605  27.560  1.00  0.00     0.167 HD
ATOM     70  C   UNL A   1      45.900  28.835  26.960  1.00  0.00     0.074 A 
ATOM     71  C   UNL A   1      46.962  29.818  26.910  1.00  0.00     0.031 C 
ATOM     72  C   UNL A   1      45.987  27.585  26.442  1.00  0.00     0.037 A 
BRANCH  59  73
ATOM     73  C   UNL A   1      40.933  24.137  27.287  1.00  0.00     0.064 A 
ATOM     74  C   UNL A   1      39.863  24.002  26.390  1.00  0.00     0.173 A 
ATOM     75  C   UNL A   1      41.417  22.976  27.909  1.00  0.00     0.173 A 
ATOM     76  F   UNL A   1      39.358  25.080  25.772  1.00  0.00    -0.203 F 
ATOM     77  C   UNL A   1      39.294  22.757  26.133  1.00  0.00     0.198 A 
ATOM     78  C   UNL A   1      40.866  21.727  27.627  1.00  0.00     0.198 A 
ATOM     79  F   UNL A   1      42.446  23.046  28.767  1.00  0.00    -0.203 F 
ATOM     80  F   UNL A   1      38.253  22.657  25.294  1.00  0.00    -0.200 F 
ATOM     81  C   UNL A   1      39.804  21.619  26.743  1.00  0.00     0.200 A 
ATOM     82  F   UNL A   1      41.372  20.628  28.203  1.00  0.00    -0.200 F 
ATOM     83  F   UNL A   1      39.268  20.419  26.479  1.00  0.00    -0.200 F 
ENDBRANCH  59  73
BRANCH  60  84
ATOM     84  C   UNL A   1      45.101  33.065  28.868  1.00  0.00     0.064 A 
ATOM     85  C   UNL A   1      44.954  34.079  27.912  1.00  0.00     0.173 A 
ATOM     86  C   UNL A   1      45.818  33.368  30.035  1.00  0.00     0.173 A 
ATOM     87  F   UNL A   1      44.294  33.833  26.771  1.00  0.00    -0.203 F 
ATOM     88  C   UNL A   1      45.512  35.340  28.109  1.00  0.00     0.198 A 
ATOM     89  C   UNL A   1      46.347  34.638  30.246  1.00  0.00     0.198 A 
ATOM     90  F   UNL A   1      45.982  32.434  30.984  1.00  0.00    -0.203 F 
ATOM     91  F   UNL A   1      45.389  36.280  27.162  1.00  0.00    -0.200 F 
ATOM     92  C   UNL A   1      46.200  35.622  29.279  1.00  0.00     0.200 A 
ATOM     93  F   UNL A   1      46.995  34.911  31.387  1.00  0.00    -0.200 F 
ATOM     94  F   UNL A   1      46.723  36.840  29.476  1.00  0.00    -0.200 F 
ENDBRANCH  60  84
BRANCH  72  95
ATOM     95  C   UNL A   1      47.269  27.200  25.759  1.00  0.00     0.064 A 
ATOM     96  C   UNL A   1      47.502  27.500  24.409  1.00  0.00     0.173 A 
ATOM     97  C   UNL A   1      48.306  26.588  26.482  1.00  0.00     0.173 A 
ATOM     98  F   UNL A   1      46.540  28.072  23.670  1.00  0.00    -0.203 F 
ATOM     99  C   UNL A   1      48.718  27.190  23.804  1.00  0.00     0.198 A 
ATOM    100  C   UNL A   1      49.532  26.310  25.883  1.00  0.00     0.198 A 
ATOM    101  F   UNL A   1      48.140  26.284  27.778  1.00  0.00    -0.203 F 
ATOM    102  F   UNL A   1      48.902  27.452  22.504  1.00  0.00    -0.200 F 
ATOM    103  C   UNL A   1      49.735  26.606  24.544  1.00  0.00     0.200 A 
ATOM    104  F   UNL A   1      50.520  25.762  26.605  1.00  0.00    -0.200 F 
ATOM    105  F   UNL A   1      50.911  26.327  23.965  1.00  0.00    -0.200 F 
ENDBRANCH  72  95
ENDBRANCH  46  47
ENDBRANCH  39  41
ENDBRANCH  38  39
ENDBRANCH  37  38
ENDBRANCH   1  37
TORSDOF 15
ENDMDL
MODEL 3
REMARK VINA RESULT:     -13.2      5.423     10.880
REMARK SMILES C[C@]12c3ccccc3[C@](C)(c3ccccc31)[C@@H]1C(=O)N(c3ccc(C(=O)OCCOCCOC(=O)c4ccc(-c5c6nc(c(-c7c(F)c(F)c(F)c(F)c7F)c7ccc([nH]7)c(-c7c(F)c(F)c(F)c(F)c7F)c7nc(c(-c8c(F)c(F)c(F)c(F)c8F)c8ccc5[nH]8)C=C7)C=C6)cc4)cc3)C(=O)[C@H]12
REMARK SMILES IDX 31 1 30 2 29 3 28 4 27 5 25 6 26 7 24 8 21 9 22 10 100 11
REMARK SMILES IDX 23 12 99 13 20 14 1 15 2 16 16 17 3 18 103 19 15 20 11 21
REMARK SMILES IDX 8 22 4 23 17 24 101 25 14 26 12 27 9 28 7 29 5 30 18 31
REMARK SMILES IDX 102 32 13 33 10 34 6 35 19 36 32 37 33 38 34 39 35 40 36 41
REMARK SMILES IDX 37 42 98 43 38 44 97 45 39 46 40 47 41 48 91 49 42 50 96 51
REMARK SMILES IDX 90 52 92 53 43 54 95 55 89 56 88 57 44 59 76 60 56 61 75 62
REMARK SMILES IDX 57 63 60 64 74 65 93 66 58 67 59 68 73 70 94 71 61 72 45 73
REMARK SMILES IDX 46 74 54 75 47 76 48 77 52 78 55 79 49 80 50 81 53 82 51 83
REMARK SMILES IDX 77 84 78 85 86 86 79 87 80 88 84 89 87 90 81 91 82 92 85 93
REMARK SMILES IDX 83 94 62 95 63 96 71 97 64 98 65 99 69 100 72 101 66 102
REMARK SMILES IDX 67 103 70 104 68 105
REMARK H PARENT 92 58 60 69
REMARK Flexibility Score: inf
ROOT
ATOM      1  C   UNL A   1      45.828  20.851  25.160  1.00  0.00     0.202 C 
ENDROOT
BRANCH   1   2
ATOM      2  O   UNL A   1      45.062  20.211  24.139  1.00  0.00    -0.374 OA
BRANCH   2   3
ATOM      3  C   UNL A   1      44.455  18.959  24.445  1.00  0.00     0.202 C 
BRANCH   3   4
ATOM      4  C   UNL A   1      43.450  18.918  25.604  1.00  0.00     0.261 C 
BRANCH   4   5
ATOM      5  O   UNL A   1      42.409  19.895  25.452  1.00  0.00    -0.460 OA
BRANCH   5   6
ATOM      6  C   UNL A   1      41.836  20.292  26.617  1.00  0.00     0.338 C 
ATOM      7  O   UNL A   1      42.361  20.337  27.716  1.00  0.00    -0.246 OA
BRANCH   6   8
ATOM      8  C   UNL A   1      40.499  20.864  26.349  1.00  0.00     0.060 A 
ATOM      9  C   UNL A   1      37.956  21.848  25.728  1.00  0.00     0.052 A 
ATOM     10  C   UNL A   1      38.309  20.547  25.357  1.00  0.00     0.028 A 
ATOM     11  C   UNL A   1      38.868  22.639  26.444  1.00  0.00     0.028 A 
ATOM     12  C   UNL A   1      39.592  20.074  25.632  1.00  0.00     0.018 A 
ATOM     13  C   UNL A   1      40.126  22.136  26.791  1.00  0.00     0.018 A 
BRANCH   9  14
ATOM     14  N   UNL A   1      36.713  22.374  25.343  1.00  0.00    -0.250 N 
ATOM     15  C   UNL A   1      32.986  21.289  23.018  1.00  0.00     0.022 C 
ATOM     16  C   UNL A   1      33.281  22.589  23.763  1.00  0.00     0.030 C 
ATOM     17  C   UNL A   1      32.335  22.895  24.958  1.00  0.00    -0.033 A 
ATOM     18  C   UNL A   1      33.190  23.876  22.884  1.00  0.00    -0.033 A 
ATOM     19  C   UNL A   1      34.769  22.699  24.184  1.00  0.00     0.108 C 
ATOM     20  C   UNL A   1      31.271  22.108  25.388  1.00  0.00     0.005 A 
ATOM     21  C   UNL A   1      32.588  24.156  25.606  1.00  0.00    -0.033 A 
ATOM     22  C   UNL A   1      33.598  25.068  23.577  1.00  0.00    -0.033 A 
ATOM     23  C   UNL A   1      32.788  23.932  21.552  1.00  0.00     0.005 A 
ATOM     24  C   UNL A   1      34.869  23.699  25.338  1.00  0.00     0.108 C 
ATOM     25  C   UNL A   1      35.726  21.650  24.664  1.00  0.00     0.238 C 
ATOM     26  C   UNL A   1      30.466  22.564  26.436  1.00  0.00     0.000 A 
ATOM     27  C   UNL A   1      31.769  24.604  26.638  1.00  0.00     0.005 A 
ATOM     28  C   UNL A   1      33.880  24.863  25.088  1.00  0.00     0.030 C 
ATOM     29  C   UNL A   1      33.607  26.284  22.899  1.00  0.00     0.005 A 
ATOM     30  C   UNL A   1      32.797  25.163  20.895  1.00  0.00     0.000 A 
ATOM     31  C   UNL A   1      36.341  23.701  25.576  1.00  0.00     0.238 C 
ATOM     32  O   UNL A   1      35.687  20.461  24.403  1.00  0.00    -0.274 OA
ATOM     33  C   UNL A   1      30.706  23.802  27.047  1.00  0.00     0.000 A 
ATOM     34  C   UNL A   1      34.277  26.125  25.851  1.00  0.00     0.022 C 
ATOM     35  C   UNL A   1      33.209  26.324  21.559  1.00  0.00     0.000 A 
ATOM     36  O   UNL A   1      37.008  24.629  25.995  1.00  0.00    -0.274 OA
ENDBRANCH   9  14
ENDBRANCH   6   8
ENDBRANCH   5   6
ENDBRANCH   4   5
ENDBRANCH   3   4
ENDBRANCH   2   3
ENDBRANCH   1   2
BRANCH   1  37
ATOM     37  C   UNL A   1      45.613  22.355  25.379  1.00  0.00     0.261 C 
BRANCH  37  38
ATOM     38  O   UNL A   1      44.416  22.638  26.124  1.00  0.00    -0.460 OA
BRANCH  38  39
ATOM     39  C   UNL A   1      43.661  23.655  25.644  1.00  0.00     0.338 C 
ATOM     40  O   UNL A   1      43.132  23.737  24.547  1.00  0.00    -0.246 OA
BRANCH  39  41
ATOM     41  C   UNL A   1      43.385  24.601  26.742  1.00  0.00     0.060 A 
ATOM     42  C   UNL A   1      43.885  25.903  26.717  1.00  0.00     0.016 A 
ATOM     43  C   UNL A   1      42.591  24.164  27.809  1.00  0.00     0.016 A 
ATOM     44  C   UNL A   1      43.575  26.773  27.764  1.00  0.00     0.010 A 
ATOM     45  C   UNL A   1      42.283  25.034  28.855  1.00  0.00     0.010 A 
ATOM     46  C   UNL A   1      42.762  26.351  28.834  1.00  0.00    -0.014 A 
BRANCH  46  47
ATOM     47  C   UNL A   1      42.330  27.325  29.867  1.00  0.00     0.031 A 
ATOM     48  C   UNL A   1      41.130  28.201  29.666  1.00  0.00     0.074 A 
ATOM     49  C   UNL A   1      43.046  27.413  31.004  1.00  0.00     0.049 A 
ATOM     50  N   UNL A   1      40.580  29.046  30.501  1.00  0.00    -0.248 NA
ATOM     51  C   UNL A   1      40.464  28.127  28.358  1.00  0.00     0.031 C 
ATOM     52  C   UNL A   1      44.252  26.638  31.293  1.00  0.00     0.029 A 
ATOM     53  N   UNL A   1      42.861  28.178  32.126  1.00  0.00    -0.354 N 
ATOM     54  C   UNL A   1      39.490  29.586  29.833  1.00  0.00     0.074 A 
ATOM     55  C   UNL A   1      39.489  29.015  28.502  1.00  0.00     0.031 C 
ATOM     56  C   UNL A   1      44.678  26.938  32.529  1.00  0.00     0.029 A 
ATOM     57  C   UNL A   1      43.797  27.949  33.106  1.00  0.00     0.049 A 
ATOM     58  H   UNL A   1      42.128  28.829  32.222  1.00  0.00     0.167 HD
ATOM     59  C   UNL A   1      38.565  30.459  30.301  1.00  0.00     0.037 A 
ATOM     60  C   UNL A   1      43.928  28.490  34.332  1.00  0.00     0.037 A 
ATOM     61  C   UNL A   1      38.584  31.035  31.624  1.00  0.00     0.049 A 
ATOM     62  C   UNL A   1      42.917  29.498  34.804  1.00  0.00     0.074 A 
ATOM     63  C   UNL A   1      37.669  31.903  32.197  1.00  0.00     0.029 A 
ATOM     64  N   UNL A   1      39.571  30.814  32.574  1.00  0.00    -0.354 N 
ATOM     65  N   UNL A   1      41.845  29.941  34.195  1.00  0.00    -0.248 NA
ATOM     66  C   UNL A   1      43.132  30.079  36.137  1.00  0.00     0.031 C 
ATOM     67  C   UNL A   1      38.133  32.253  33.468  1.00  0.00     0.029 A 
ATOM     68  C   UNL A   1      39.304  31.556  33.715  1.00  0.00     0.049 A 
ATOM     69  H   UNL A   1      40.346  30.219  32.454  1.00  0.00     0.167 HD
ATOM     70  C   UNL A   1      41.246  30.833  35.075  1.00  0.00     0.074 A 
ATOM     71  C   UNL A   1      42.064  30.851  36.270  1.00  0.00     0.031 C 
ATOM     72  C   UNL A   1      40.122  31.570  34.902  1.00  0.00     0.037 A 
BRANCH  59  73
ATOM     73  C   UNL A   1      37.436  30.844  29.388  1.00  0.00     0.064 A 
ATOM     74  C   UNL A   1      36.380  29.958  29.123  1.00  0.00     0.173 A 
ATOM     75  C   UNL A   1      37.358  32.137  28.848  1.00  0.00     0.173 A 
ATOM     76  F   UNL A   1      36.406  28.709  29.612  1.00  0.00    -0.203 F 
ATOM     77  C   UNL A   1      35.296  30.347  28.340  1.00  0.00     0.198 A 
ATOM     78  C   UNL A   1      36.258  32.532  28.090  1.00  0.00     0.198 A 
ATOM     79  F   UNL A   1      38.334  33.027  29.079  1.00  0.00    -0.203 F 
ATOM     80  F   UNL A   1      34.314  29.474  28.077  1.00  0.00    -0.200 F 
ATOM     81  C   UNL A   1      35.231  31.638  27.834  1.00  0.00     0.200 A 
ATOM     82  F   UNL A   1      36.188  33.784  27.617  1.00  0.00    -0.200 F 
ATOM     83  F   UNL A   1      34.177  32.017  27.097  1.00  0.00    -0.200 F 
ENDBRANCH  59  73
BRANCH  60  84
ATOM     84  C   UNL A   1      45.044  28.052  35.211  1.00  0.00     0.064 A 
ATOM     85  C   UNL A   1      46.313  28.637  35.108  1.00  0.00     0.173 A 
ATOM     86  C   UNL A   1      44.860  27.060  36.187  1.00  0.00     0.173 A 
ATOM     87  F   UNL A   1      46.543  29.575  34.177  1.00  0.00    -0.203 F 
ATOM     88  C   UNL A   1      47.358  28.241  35.939  1.00  0.00     0.198 A 
ATOM     89  C   UNL A   1      45.896  26.687  37.038  1.00  0.00     0.198 A 
ATOM     90  F   UNL A   1      43.663  26.472  36.330  1.00  0.00    -0.203 F 
ATOM     91  F   UNL A   1      48.571  28.791  35.794  1.00  0.00    -0.200 F 
ATOM     92  C   UNL A   1      47.147  27.273  36.909  1.00  0.00     0.200 A 
ATOM     93  F   UNL A   1      45.684  25.765  37.986  1.00  0.00    -0.200 F 
ATOM     94  F   UNL A   1      48.149  26.902  37.718  1.00  0.00    -0.200 F 
ENDBRANCH  60  84
BRANCH  72  95
ATOM     95  C   UNL A   1      39.689  32.458  36.035  1.00  0.00     0.064 A 
ATOM     96  C   UNL A   1      40.227  33.742  36.208  1.00  0.00     0.173 A 
ATOM     97  C   UNL A   1      38.674  32.050  36.915  1.00  0.00     0.173 A 
ATOM     98  F   UNL A   1      41.209  34.177  35.404  1.00  0.00    -0.203 F 
ATOM     99  C   UNL A   1      39.775  34.578  37.227  1.00  0.00     0.198 A 
ATOM    100  C   UNL A   1      38.201  32.900  37.911  1.00  0.00     0.198 A 
ATOM    101  F   UNL A   1      38.120  30.835  36.790  1.00  0.00    -0.203 F 
ATOM    102  F   UNL A   1      40.331  35.785  37.396  1.00  0.00    -0.200 F 
ATOM    103  C   UNL A   1      38.755  34.161  38.069  1.00  0.00     0.200 A 
ATOM    104  F   UNL A   1      37.203  32.502  38.712  1.00  0.00    -0.200 F 
ATOM    105  F   UNL A   1      38.308  34.975  39.036  1.00  0.00    -0.200 F 
ENDBRANCH  72  95
ENDBRANCH  46  47
ENDBRANCH  39  41
ENDBRANCH  38  39
ENDBRANCH  37  38
ENDBRANCH   1  37
TORSDOF 15
ENDMDL
