MODEL 1
REMARK VINA RESULT:     -11.6      0.000      0.000
REMARK SMILES C[C@@H](C(=O)OCCOCCOC(=O)c1ccc(-c2c3nc(c(-c4c(F)c(F)c(F)c(F)c4F)c4ccc([nH]4)c(-c4c(F)c(F)c(F)c(F)c4F)c4nc(c(-c5c(F)c(F)c(F)c(F)c5F)c5ccc2[nH]5)C=C4)C=C3)cc1)c1ccc(Cc2ccco2)cc1F
REMARK SMILES IDX 7 1 6 2 5 3 3 4 4 5 2 6 1 7 77 8 78 9 88 10 79 11 87 12
REMARK SMILES IDX 89 13 80 14 81 15 82 16 83 17 86 18 84 19 85 20 8 21 9 22
REMARK SMILES IDX 10 23 11 24 12 25 13 26 14 27 15 28 76 29 16 30 75 31 17 32
REMARK SMILES IDX 18 33 19 34 69 35 20 36 74 37 68 38 70 39 21 40 73 41 67 42
REMARK SMILES IDX 66 43 22 45 54 46 34 47 53 48 35 49 38 50 52 51 71 52 36 53
REMARK SMILES IDX 37 54 51 56 72 57 39 58 23 59 24 60 32 61 25 62 26 63 30 64
REMARK SMILES IDX 33 65 27 66 28 67 31 68 29 69 55 70 56 71 64 72 57 73 58 74
REMARK SMILES IDX 62 75 65 76 59 77 60 78 63 79 61 80 40 81 41 82 49 83 42 84
REMARK SMILES IDX 43 85 47 86 50 87 44 88 45 89 48 90 46 91
REMARK H PARENT 70 44 38 55
REMARK Flexibility Score: inf
ROOT
ATOM      1  C   UNL A   1      35.727  23.404  25.065  1.00  0.00     0.202 C 
ENDROOT
BRANCH   1   2
ATOM      2  C   UNL A   1      34.681  23.281  23.953  1.00  0.00     0.261 C 
BRANCH   2   3
ATOM      3  O   UNL A   1      33.612  24.216  24.143  1.00  0.00    -0.463 OA
BRANCH   3   4
ATOM      4  C   UNL A   1      33.634  25.318  23.340  1.00  0.00     0.313 C 
ATOM      5  O   UNL A   1      33.853  25.276  22.135  1.00  0.00    -0.252 OA
BRANCH   4   6
ATOM      6  C   UNL A   1      33.367  26.611  24.122  1.00  0.00     0.129 C 
ATOM      7  C   UNL A   1      33.686  26.402  25.615  1.00  0.00     0.025 C 
BRANCH   6   8
ATOM      8  C   UNL A   1      32.008  27.265  23.847  1.00  0.00     0.002 A 
ATOM      9  C   UNL A   1      31.883  28.481  23.150  1.00  0.00     0.008 A 
ATOM     10  C   UNL A   1      30.810  26.615  24.172  1.00  0.00     0.127 A 
ATOM     11  C   UNL A   1      30.628  29.012  22.811  1.00  0.00     0.005 A 
ATOM     12  C   UNL A   1      29.555  27.151  23.861  1.00  0.00     0.043 A 
ATOM     13  F   UNL A   1      30.827  25.409  24.753  1.00  0.00    -0.207 F 
ATOM     14  C   UNL A   1      29.442  28.364  23.174  1.00  0.00    -0.038 A 
BRANCH  14  15
ATOM     15  C   UNL A   1      28.078  28.865  22.737  1.00  0.00     0.111 C 
BRANCH  15  16
ATOM     16  C   UNL A   1      28.023  30.279  22.263  1.00  0.00     0.108 A 
ATOM     17  C   UNL A   1      28.039  31.507  22.893  1.00  0.00     0.046 A 
ATOM     18  O   UNL A   1      28.047  30.462  20.909  1.00  0.00    -0.469 OA
ATOM     19  C   UNL A   1      28.055  32.488  21.873  1.00  0.00     0.042 A 
ATOM     20  C   UNL A   1      28.069  31.801  20.683  1.00  0.00     0.195 A 
ENDBRANCH  15  16
ENDBRANCH  14  15
ENDBRANCH   6   8
ENDBRANCH   4   6
ENDBRANCH   3   4
ENDBRANCH   2   3
ENDBRANCH   1   2
BRANCH   1  21
ATOM     21  O   UNL A   1      36.035  22.213  25.784  1.00  0.00    -0.374 OA
BRANCH  21  22
ATOM     22  C   UNL A   1      36.177  20.999  25.040  1.00  0.00     0.202 C 
BRANCH  22  23
ATOM     23  C   UNL A   1      37.541  20.301  25.115  1.00  0.00     0.261 C 
BRANCH  23  24
ATOM     24  O   UNL A   1      38.636  21.236  25.191  1.00  0.00    -0.460 OA
BRANCH  24  25
ATOM     25  C   UNL A   1      39.494  21.021  26.217  1.00  0.00     0.338 C 
ATOM     26  O   UNL A   1      40.011  19.961  26.544  1.00  0.00    -0.246 OA
BRANCH  25  27
ATOM     27  C   UNL A   1      39.893  22.298  26.833  1.00  0.00     0.060 A 
ATOM     28  C   UNL A   1      39.183  23.447  26.462  1.00  0.00     0.016 A 
ATOM     29  C   UNL A   1      41.010  22.393  27.665  1.00  0.00     0.016 A 
ATOM     30  C   UNL A   1      39.615  24.704  26.884  1.00  0.00     0.010 A 
ATOM     31  C   UNL A   1      41.450  23.657  28.078  1.00  0.00     0.010 A 
ATOM     32  C   UNL A   1      40.776  24.818  27.659  1.00  0.00    -0.014 A 
BRANCH  32  33
ATOM     33  C   UNL A   1      41.363  26.161  27.896  1.00  0.00     0.031 A 
ATOM     34  C   UNL A   1      42.754  26.446  27.403  1.00  0.00     0.074 A 
ATOM     35  C   UNL A   1      40.654  27.125  28.508  1.00  0.00     0.049 A 
ATOM     36  N   UNL A   1      43.468  27.538  27.511  1.00  0.00    -0.248 NA
ATOM     37  C   UNL A   1      43.430  25.354  26.686  1.00  0.00     0.031 C 
ATOM     38  C   UNL A   1      39.284  26.985  28.995  1.00  0.00     0.029 A 
ATOM     39  N   UNL A   1      40.995  28.417  28.825  1.00  0.00    -0.354 N 
ATOM     40  C   UNL A   1      44.674  27.264  26.880  1.00  0.00     0.074 A 
ATOM     41  C   UNL A   1      44.610  25.895  26.417  1.00  0.00     0.031 C 
ATOM     42  C   UNL A   1      38.904  28.142  29.564  1.00  0.00     0.029 A 
ATOM     43  C   UNL A   1      40.012  29.094  29.502  1.00  0.00     0.049 A 
ATOM     44  H   UNL A   1      41.863  28.818  28.590  1.00  0.00     0.167 HD
ATOM     45  C   UNL A   1      45.736  28.084  26.692  1.00  0.00     0.037 A 
ATOM     46  C   UNL A   1      40.016  30.334  30.028  1.00  0.00     0.037 A 
ATOM     47  C   UNL A   1      45.804  29.446  27.155  1.00  0.00     0.049 A 
ATOM     48  C   UNL A   1      41.235  31.204  29.868  1.00  0.00     0.074 A 
ATOM     49  C   UNL A   1      46.831  30.359  27.006  1.00  0.00     0.029 A 
ATOM     50  N   UNL A   1      44.799  30.087  27.864  1.00  0.00    -0.354 N 
ATOM     51  N   UNL A   1      42.363  30.945  29.251  1.00  0.00    -0.248 NA
ATOM     52  C   UNL A   1      41.180  32.543  30.473  1.00  0.00     0.031 C 
ATOM     53  C   UNL A   1      46.468  31.540  27.663  1.00  0.00     0.029 A 
ATOM     54  C   UNL A   1      45.192  31.377  28.181  1.00  0.00     0.049 A 
ATOM     55  H   UNL A   1      43.934  29.685  28.107  1.00  0.00     0.167 HD
ATOM     56  C   UNL A   1      43.139  32.091  29.373  1.00  0.00     0.074 A 
ATOM     57  C   UNL A   1      42.349  33.054  30.111  1.00  0.00     0.031 C 
ATOM     58  C   UNL A   1      44.392  32.325  28.913  1.00  0.00     0.037 A 
BRANCH  45  59
ATOM     59  C   UNL A   1      46.924  27.520  25.972  1.00  0.00     0.064 A 
ATOM     60  C   UNL A   1      47.059  27.628  24.580  1.00  0.00     0.173 A 
ATOM     61  C   UNL A   1      47.954  26.889  26.685  1.00  0.00     0.173 A 
ATOM     62  F   UNL A   1      46.095  28.211  23.852  1.00  0.00    -0.203 F 
ATOM     63  C   UNL A   1      48.171  27.103  23.926  1.00  0.00     0.198 A 
ATOM     64  C   UNL A   1      49.076  26.388  26.031  1.00  0.00     0.198 A 
ATOM     65  F   UNL A   1      47.875  26.763  28.019  1.00  0.00    -0.203 F 
ATOM     66  F   UNL A   1      48.258  27.178  22.591  1.00  0.00    -0.200 F 
ATOM     67  C   UNL A   1      49.180  26.489  24.652  1.00  0.00     0.200 A 
ATOM     68  F   UNL A   1      50.056  25.803  26.735  1.00  0.00    -0.200 F 
ATOM     69  F   UNL A   1      50.252  25.988  24.021  1.00  0.00    -0.200 F 
ENDBRANCH  45  59
BRANCH  46  70
ATOM     70  C   UNL A   1      38.827  30.825  30.772  1.00  0.00     0.064 A 
ATOM     71  C   UNL A   1      38.693  30.610  32.150  1.00  0.00     0.173 A 
ATOM     72  C   UNL A   1      37.793  31.508  30.113  1.00  0.00     0.173 A 
ATOM     73  F   UNL A   1      39.642  29.937  32.817  1.00  0.00    -0.203 F 
ATOM     74  C   UNL A   1      37.564  31.047  32.840  1.00  0.00     0.198 A 
ATOM     75  C   UNL A   1      36.678  31.969  30.809  1.00  0.00     0.198 A 
ATOM     76  F   UNL A   1      37.873  31.735  28.794  1.00  0.00    -0.203 F 
ATOM     77  F   UNL A   1      37.440  30.791  34.148  1.00  0.00    -0.200 F 
ATOM     78  C   UNL A   1      36.560  31.731  32.169  1.00  0.00     0.200 A 
ATOM     79  F   UNL A   1      35.715  32.636  30.158  1.00  0.00    -0.200 F 
ATOM     80  F   UNL A   1      35.476  32.155  32.834  1.00  0.00    -0.200 F 
ENDBRANCH  46  70
BRANCH  58  81
ATOM     81  C   UNL A   1      44.978  33.683  29.167  1.00  0.00     0.064 A 
ATOM     82  C   UNL A   1      44.773  34.750  28.280  1.00  0.00     0.173 A 
ATOM     83  C   UNL A   1      45.717  33.932  30.335  1.00  0.00     0.173 A 
ATOM     84  F   UNL A   1      44.085  34.559  27.144  1.00  0.00    -0.203 F 
ATOM     85  C   UNL A   1      45.302  36.010  28.542  1.00  0.00     0.198 A 
ATOM     86  C   UNL A   1      46.223  35.200  30.606  1.00  0.00     0.198 A 
ATOM     87  F   UNL A   1      45.936  32.947  31.218  1.00  0.00    -0.203 F 
ATOM     88  F   UNL A   1      45.129  37.005  27.661  1.00  0.00    -0.200 F 
ATOM     89  C   UNL A   1      46.021  36.236  29.708  1.00  0.00     0.200 A 
ATOM     90  F   UNL A   1      46.906  35.419  31.738  1.00  0.00    -0.200 F 
ATOM     91  F   UNL A   1      46.525  37.452  29.961  1.00  0.00    -0.200 F 
ENDBRANCH  58  81
ENDBRANCH  32  33
ENDBRANCH  25  27
ENDBRANCH  24  25
ENDBRANCH  23  24
ENDBRANCH  22  23
ENDBRANCH  21  22
ENDBRANCH   1  21
TORSDOF 17
ENDMDL
MODEL 2
REMARK VINA RESULT:     -11.6      2.654      8.665
REMARK SMILES C[C@@H](C(=O)OCCOCCOC(=O)c1ccc(-c2c3nc(c(-c4c(F)c(F)c(F)c(F)c4F)c4ccc([nH]4)c(-c4c(F)c(F)c(F)c(F)c4F)c4nc(c(-c5c(F)c(F)c(F)c(F)c5F)c5ccc2[nH]5)C=C4)C=C3)cc1)c1ccc(Cc2ccco2)cc1F
REMARK SMILES IDX 7 1 6 2 5 3 3 4 4 5 2 6 1 7 77 8 78 9 88 10 79 11 87 12
REMARK SMILES IDX 89 13 80 14 81 15 82 16 83 17 86 18 84 19 85 20 8 21 9 22
REMARK SMILES IDX 10 23 11 24 12 25 13 26 14 27 15 28 76 29 16 30 75 31 17 32
REMARK SMILES IDX 18 33 19 34 69 35 20 36 74 37 68 38 70 39 21 40 73 41 67 42
REMARK SMILES IDX 66 43 22 45 54 46 34 47 53 48 35 49 38 50 52 51 71 52 36 53
REMARK SMILES IDX 37 54 51 56 72 57 39 58 23 59 24 60 32 61 25 62 26 63 30 64
REMARK SMILES IDX 33 65 27 66 28 67 31 68 29 69 55 70 56 71 64 72 57 73 58 74
REMARK SMILES IDX 62 75 65 76 59 77 60 78 63 79 61 80 40 81 41 82 49 83 42 84
REMARK SMILES IDX 43 85 47 86 50 87 44 88 45 89 48 90 46 91
REMARK H PARENT 70 44 38 55
REMARK Flexibility Score: inf
ROOT
ATOM      1  C   UNL A   1      35.376  23.632  24.004  1.00  0.00     0.202 C 
ENDROOT
BRANCH   1   2
ATOM      2  C   UNL A   1      35.401  24.200  25.426  1.00  0.00     0.261 C 
BRANCH   2   3
ATOM      3  O   UNL A   1      34.133  24.031  26.073  1.00  0.00    -0.463 OA
BRANCH   3   4
ATOM      4  C   UNL A   1      33.101  24.760  25.561  1.00  0.00     0.313 C 
ATOM      5  O   UNL A   1      33.167  25.961  25.329  1.00  0.00    -0.252 OA
BRANCH   4   6
ATOM      6  C   UNL A   1      31.849  23.904  25.324  1.00  0.00     0.129 C 
ATOM      7  C   UNL A   1      30.935  23.950  26.564  1.00  0.00     0.025 C 
BRANCH   6   8
ATOM      8  C   UNL A   1      32.119  22.495  24.785  1.00  0.00     0.002 A 
ATOM      9  C   UNL A   1      32.264  21.380  25.630  1.00  0.00     0.008 A 
ATOM     10  C   UNL A   1      32.112  22.230  23.409  1.00  0.00     0.127 A 
ATOM     11  C   UNL A   1      32.403  20.078  25.118  1.00  0.00     0.005 A 
ATOM     12  C   UNL A   1      32.276  20.940  22.892  1.00  0.00     0.043 A 
ATOM     13  F   UNL A   1      31.887  23.212  22.529  1.00  0.00    -0.207 F 
ATOM     14  C   UNL A   1      32.427  19.838  23.740  1.00  0.00    -0.038 A 
BRANCH  14  15
ATOM     15  C   UNL A   1      32.478  18.436  23.163  1.00  0.00     0.111 C 
BRANCH  15  16
ATOM     16  C   UNL A   1      33.337  17.460  23.894  1.00  0.00     0.108 A 
ATOM     17  C   UNL A   1      34.688  17.381  24.166  1.00  0.00     0.046 A 
ATOM     18  O   UNL A   1      32.685  16.441  24.529  1.00  0.00    -0.469 OA
ATOM     19  C   UNL A   1      34.871  16.248  24.994  1.00  0.00     0.042 A 
ATOM     20  C   UNL A   1      33.621  15.715  25.194  1.00  0.00     0.195 A 
ENDBRANCH  15  16
ENDBRANCH  14  15
ENDBRANCH   6   8
ENDBRANCH   4   6
ENDBRANCH   3   4
ENDBRANCH   2   3
ENDBRANCH   1   2
BRANCH   1  21
ATOM     21  O   UNL A   1      36.104  22.427  23.787  1.00  0.00    -0.374 OA
BRANCH  21  22
ATOM     22  C   UNL A   1      35.912  21.353  24.712  1.00  0.00     0.202 C 
BRANCH  22  23
ATOM     23  C   UNL A   1      37.169  20.598  25.162  1.00  0.00     0.261 C 
BRANCH  23  24
ATOM     24  O   UNL A   1      38.348  21.427  25.141  1.00  0.00    -0.460 OA
BRANCH  24  25
ATOM     25  C   UNL A   1      39.233  21.180  26.137  1.00  0.00     0.338 C 
ATOM     26  O   UNL A   1      39.713  20.100  26.454  1.00  0.00    -0.246 OA
BRANCH  25  27
ATOM     27  C   UNL A   1      39.711  22.443  26.727  1.00  0.00     0.060 A 
ATOM     28  C   UNL A   1      39.215  23.638  26.190  1.00  0.00     0.016 A 
ATOM     29  C   UNL A   1      40.708  22.463  27.703  1.00  0.00     0.016 A 
ATOM     30  C   UNL A   1      39.749  24.861  26.595  1.00  0.00     0.010 A 
ATOM     31  C   UNL A   1      41.252  23.692  28.100  1.00  0.00     0.010 A 
ATOM     32  C   UNL A   1      40.800  24.892  27.521  1.00  0.00    -0.014 A 
BRANCH  32  33
ATOM     33  C   UNL A   1      41.522  26.166  27.759  1.00  0.00     0.031 A 
ATOM     34  C   UNL A   1      40.821  27.276  28.492  1.00  0.00     0.074 A 
ATOM     35  C   UNL A   1      42.797  26.321  27.363  1.00  0.00     0.049 A 
ATOM     36  N   UNL A   1      41.250  28.475  28.796  1.00  0.00    -0.248 NA
ATOM     37  C   UNL A   1      39.450  26.995  28.946  1.00  0.00     0.031 C 
ATOM     38  C   UNL A   1      43.597  25.307  26.681  1.00  0.00     0.029 A 
ATOM     39  N   UNL A   1      43.641  27.397  27.478  1.00  0.00    -0.354 N 
ATOM     40  C   UNL A   1      40.206  29.089  29.474  1.00  0.00     0.074 A 
ATOM     41  C   UNL A   1      39.110  28.145  29.512  1.00  0.00     0.031 C 
ATOM     42  C   UNL A   1      44.816  25.814  26.424  1.00  0.00     0.029 A 
ATOM     43  C   UNL A   1      44.871  27.196  26.902  1.00  0.00     0.049 A 
ATOM     44  H   UNL A   1      43.389  28.235  27.931  1.00  0.00     0.167 HD
ATOM     45  C   UNL A   1      40.168  30.325  30.027  1.00  0.00     0.037 A 
ATOM     46  C   UNL A   1      45.912  28.037  26.760  1.00  0.00     0.037 A 
ATOM     47  C   UNL A   1      41.256  31.267  29.989  1.00  0.00     0.049 A 
ATOM     48  C   UNL A   1      45.821  29.432  27.322  1.00  0.00     0.074 A 
ATOM     49  C   UNL A   1      41.317  32.540  30.528  1.00  0.00     0.029 A 
ATOM     50  N   UNL A   1      42.475  31.037  29.369  1.00  0.00    -0.354 N 
ATOM     51  N   UNL A   1      44.838  29.998  27.980  1.00  0.00    -0.248 NA
ATOM     52  C   UNL A   1      46.988  30.305  27.126  1.00  0.00     0.031 C 
ATOM     53  C   UNL A   1      42.556  33.097  30.196  1.00  0.00     0.029 A 
ATOM     54  C   UNL A   1      43.286  32.153  29.491  1.00  0.00     0.049 A 
ATOM     55  H   UNL A   1      42.727  30.204  28.909  1.00  0.00     0.167 HD
ATOM     56  C   UNL A   1      45.275  31.278  28.296  1.00  0.00     0.074 A 
ATOM     57  C   UNL A   1      46.617  31.403  27.769  1.00  0.00     0.031 C 
ATOM     58  C   UNL A   1      44.623  32.261  28.964  1.00  0.00     0.037 A 
BRANCH  45  59
ATOM     59  C   UNL A   1      38.895  30.738  30.705  1.00  0.00     0.064 A 
ATOM     60  C   UNL A   1      38.737  30.640  32.095  1.00  0.00     0.173 A 
ATOM     61  C   UNL A   1      37.832  31.266  29.957  1.00  0.00     0.173 A 
ATOM     62  F   UNL A   1      39.719  30.129  32.851  1.00  0.00    -0.203 F 
ATOM     63  C   UNL A   1      37.550  31.033  32.709  1.00  0.00     0.198 A 
ATOM     64  C   UNL A   1      36.657  31.681  30.578  1.00  0.00     0.198 A 
ATOM     65  F   UNL A   1      37.934  31.385  28.624  1.00  0.00    -0.203 F 
ATOM     66  F   UNL A   1      37.403  30.888  34.033  1.00  0.00    -0.200 F 
ATOM     67  C   UNL A   1      36.514  31.558  31.952  1.00  0.00     0.200 A 
ATOM     68  F   UNL A   1      35.660  32.199  29.845  1.00  0.00    -0.200 F 
ATOM     69  F   UNL A   1      35.374  31.939  32.545  1.00  0.00    -0.200 F 
ENDBRANCH  45  59
BRANCH  46  70
ATOM     70  C   UNL A   1      47.132  27.589  26.040  1.00  0.00     0.064 A 
ATOM     71  C   UNL A   1      47.230  27.689  24.646  1.00  0.00     0.173 A 
ATOM     72  C   UNL A   1      48.220  27.037  26.734  1.00  0.00     0.173 A 
ATOM     73  F   UNL A   1      46.205  28.184  23.937  1.00  0.00    -0.203 F 
ATOM     74  C   UNL A   1      48.364  27.242  23.971  1.00  0.00     0.198 A 
ATOM     75  C   UNL A   1      49.364  26.615  26.060  1.00  0.00     0.198 A 
ATOM     76  F   UNL A   1      48.173  26.915  28.068  1.00  0.00    -0.203 F 
ATOM     77  F   UNL A   1      48.415  27.310  22.634  1.00  0.00    -0.200 F 
ATOM     78  C   UNL A   1      49.432  26.711  24.679  1.00  0.00     0.200 A 
ATOM     79  F   UNL A   1      50.396  26.111  26.750  1.00  0.00    -0.200 F 
ATOM     80  F   UNL A   1      50.524  26.284  24.030  1.00  0.00    -0.200 F 
ENDBRANCH  46  70
BRANCH  58  81
ATOM     81  C   UNL A   1      45.360  33.548  29.190  1.00  0.00     0.064 A 
ATOM     82  C   UNL A   1      45.267  34.617  28.287  1.00  0.00     0.173 A 
ATOM     83  C   UNL A   1      46.133  33.730  30.348  1.00  0.00     0.173 A 
ATOM     84  F   UNL A   1      44.551  34.487  27.160  1.00  0.00    -0.203 F 
ATOM     85  C   UNL A   1      45.937  35.814  28.524  1.00  0.00     0.198 A 
ATOM     86  C   UNL A   1      46.781  34.937  30.593  1.00  0.00     0.198 A 
ATOM     87  F   UNL A   1      46.249  32.741  31.245  1.00  0.00    -0.203 F 
ATOM     88  F   UNL A   1      45.868  36.808  27.627  1.00  0.00    -0.200 F 
ATOM     89  C   UNL A   1      46.688  35.975  29.680  1.00  0.00     0.200 A 
ATOM     90  F   UNL A   1      47.496  35.096  31.717  1.00  0.00    -0.200 F 
ATOM     91  F   UNL A   1      47.328  37.131  29.909  1.00  0.00    -0.200 F 
ENDBRANCH  58  81
ENDBRANCH  32  33
ENDBRANCH  25  27
ENDBRANCH  24  25
ENDBRANCH  23  24
ENDBRANCH  22  23
ENDBRANCH  21  22
ENDBRANCH   1  21
TORSDOF 17
ENDMDL
MODEL 3
REMARK VINA RESULT:     -11.5      0.453      7.483
REMARK SMILES C[C@@H](C(=O)OCCOCCOC(=O)c1ccc(-c2c3nc(c(-c4c(F)c(F)c(F)c(F)c4F)c4ccc([nH]4)c(-c4c(F)c(F)c(F)c(F)c4F)c4nc(c(-c5c(F)c(F)c(F)c(F)c5F)c5ccc2[nH]5)C=C4)C=C3)cc1)c1ccc(Cc2ccco2)cc1F
REMARK SMILES IDX 7 1 6 2 5 3 3 4 4 5 2 6 1 7 77 8 78 9 88 10 79 11 87 12
REMARK SMILES IDX 89 13 80 14 81 15 82 16 83 17 86 18 84 19 85 20 8 21 9 22
REMARK SMILES IDX 10 23 11 24 12 25 13 26 14 27 15 28 76 29 16 30 75 31 17 32
REMARK SMILES IDX 18 33 19 34 69 35 20 36 74 37 68 38 70 39 21 40 73 41 67 42
REMARK SMILES IDX 66 43 22 45 54 46 34 47 53 48 35 49 38 50 52 51 71 52 36 53
REMARK SMILES IDX 37 54 51 56 72 57 39 58 23 59 24 60 32 61 25 62 26 63 30 64
REMARK SMILES IDX 33 65 27 66 28 67 31 68 29 69 55 70 56 71 64 72 57 73 58 74
REMARK SMILES IDX 62 75 65 76 59 77 60 78 63 79 61 80 40 81 41 82 49 83 42 84
REMARK SMILES IDX 43 85 47 86 50 87 44 88 45 89 48 90 46 91
REMARK H PARENT 70 44 38 55
REMARK Flexibility Score: inf
ROOT
ATOM      1  C   UNL A   1      35.865  23.512  25.120  1.00  0.00     0.202 C 
ENDROOT
BRANCH   1   2
ATOM      2  C   UNL A   1      34.822  23.351  24.009  1.00  0.00     0.261 C 
BRANCH   2   3
ATOM      3  O   UNL A   1      33.732  24.264  24.188  1.00  0.00    -0.463 OA
BRANCH   3   4
ATOM      4  C   UNL A   1      33.711  25.339  23.350  1.00  0.00     0.313 C 
ATOM      5  O   UNL A   1      33.895  25.262  22.141  1.00  0.00    -0.252 OA
BRANCH   4   6
ATOM      6  C   UNL A   1      33.446  26.653  24.098  1.00  0.00     0.129 C 
ATOM      7  C   UNL A   1      33.777  26.487  25.593  1.00  0.00     0.025 C 
BRANCH   6   8
ATOM      8  C   UNL A   1      32.082  27.294  23.816  1.00  0.00     0.002 A 
ATOM      9  C   UNL A   1      31.944  28.464  23.047  1.00  0.00     0.008 A 
ATOM     10  C   UNL A   1      30.891  26.671  24.212  1.00  0.00     0.127 A 
ATOM     11  C   UNL A   1      30.681  28.979  22.706  1.00  0.00     0.005 A 
ATOM     12  C   UNL A   1      29.630  27.192  23.898  1.00  0.00     0.043 A 
ATOM     13  F   UNL A   1      30.919  25.504  24.866  1.00  0.00    -0.207 F 
ATOM     14  C   UNL A   1      29.503  28.360  23.139  1.00  0.00    -0.038 A 
BRANCH  14  15
ATOM     15  C   UNL A   1      28.131  28.838  22.705  1.00  0.00     0.111 C 
BRANCH  15  16
ATOM     16  C   UNL A   1      28.057  30.240  22.198  1.00  0.00     0.108 A 
ATOM     17  C   UNL A   1      28.080  31.483  22.799  1.00  0.00     0.046 A 
ATOM     18  O   UNL A   1      28.050  30.390  20.840  1.00  0.00    -0.469 OA
ATOM     19  C   UNL A   1      28.069  32.439  21.755  1.00  0.00     0.042 A 
ATOM     20  C   UNL A   1      28.060  31.724  20.583  1.00  0.00     0.195 A 
ENDBRANCH  15  16
ENDBRANCH  14  15
ENDBRANCH   6   8
ENDBRANCH   4   6
ENDBRANCH   3   4
ENDBRANCH   2   3
ENDBRANCH   1   2
BRANCH   1  21
ATOM     21  O   UNL A   1      36.260  22.322  25.799  1.00  0.00    -0.374 OA
BRANCH  21  22
ATOM     22  C   UNL A   1      36.418  21.131  25.024  1.00  0.00     0.202 C 
BRANCH  22  23
ATOM     23  C   UNL A   1      37.747  20.380  25.177  1.00  0.00     0.261 C 
BRANCH  23  24
ATOM     24  O   UNL A   1      38.874  21.271  25.292  1.00  0.00    -0.460 OA
BRANCH  24  25
ATOM     25  C   UNL A   1      39.643  21.074  26.390  1.00  0.00     0.338 C 
ATOM     26  O   UNL A   1      40.055  20.008  26.827  1.00  0.00    -0.246 OA
BRANCH  25  27
ATOM     27  C   UNL A   1      40.094  22.363  26.942  1.00  0.00     0.060 A 
ATOM     28  C   UNL A   1      39.556  23.531  26.386  1.00  0.00     0.016 A 
ATOM     29  C   UNL A   1      41.106  22.435  27.901  1.00  0.00     0.016 A 
ATOM     30  C   UNL A   1      40.062  24.778  26.753  1.00  0.00     0.010 A 
ATOM     31  C   UNL A   1      41.622  23.687  28.259  1.00  0.00     0.010 A 
ATOM     32  C   UNL A   1      41.126  24.860  27.660  1.00  0.00    -0.014 A 
BRANCH  32  33
ATOM     33  C   UNL A   1      41.816  26.159  27.856  1.00  0.00     0.031 A 
ATOM     34  C   UNL A   1      41.115  27.250  28.617  1.00  0.00     0.074 A 
ATOM     35  C   UNL A   1      43.064  26.354  27.395  1.00  0.00     0.049 A 
ATOM     36  N   UNL A   1      41.518  28.464  28.894  1.00  0.00    -0.248 NA
ATOM     37  C   UNL A   1      39.779  26.926  29.141  1.00  0.00     0.031 C 
ATOM     38  C   UNL A   1      43.863  25.364  26.679  1.00  0.00     0.029 A 
ATOM     39  N   UNL A   1      43.876  27.459  27.463  1.00  0.00    -0.354 N 
ATOM     40  C   UNL A   1      40.489  29.047  29.621  1.00  0.00     0.074 A 
ATOM     41  C   UNL A   1      39.429  28.067  29.717  1.00  0.00     0.031 C 
ATOM     42  C   UNL A   1      45.049  25.910  26.359  1.00  0.00     0.029 A 
ATOM     43  C   UNL A   1      45.081  27.295  26.827  1.00  0.00     0.049 A 
ATOM     44  H   UNL A   1      43.618  28.291  27.924  1.00  0.00     0.167 HD
ATOM     45  C   UNL A   1      40.437  30.285  30.170  1.00  0.00     0.037 A 
ATOM     46  C   UNL A   1      46.085  28.170  26.629  1.00  0.00     0.037 A 
ATOM     47  C   UNL A   1      41.489  31.262  30.073  1.00  0.00     0.049 A 
ATOM     48  C   UNL A   1      45.975  29.564  27.189  1.00  0.00     0.074 A 
ATOM     49  C   UNL A   1      41.534  32.540  30.602  1.00  0.00     0.029 A 
ATOM     50  N   UNL A   1      42.683  31.069  29.393  1.00  0.00    -0.354 N 
ATOM     51  N   UNL A   1      45.008  30.101  27.893  1.00  0.00    -0.248 NA
ATOM     52  C   UNL A   1      47.101  30.475  26.931  1.00  0.00     0.031 C 
ATOM     53  C   UNL A   1      42.736  33.137  30.206  1.00  0.00     0.029 A 
ATOM     54  C   UNL A   1      43.461  32.213  29.470  1.00  0.00     0.049 A 
ATOM     55  H   UNL A   1      42.939  30.242  28.925  1.00  0.00     0.167 HD
ATOM     56  C   UNL A   1      45.416  31.397  28.181  1.00  0.00     0.074 A 
ATOM     57  C   UNL A   1      46.726  31.564  27.587  1.00  0.00     0.031 C 
ATOM     58  C   UNL A   1      44.765  32.362  28.876  1.00  0.00     0.037 A 
BRANCH  45  59
ATOM     59  C   UNL A   1      39.186  30.660  30.908  1.00  0.00     0.064 A 
ATOM     60  C   UNL A   1      39.063  30.465  32.291  1.00  0.00     0.173 A 
ATOM     61  C   UNL A   1      38.109  31.246  30.228  1.00  0.00     0.173 A 
ATOM     62  F   UNL A   1      40.060  29.895  32.984  1.00  0.00    -0.203 F 
ATOM     63  C   UNL A   1      37.897  30.823  32.963  1.00  0.00     0.198 A 
ATOM     64  C   UNL A   1      36.954  31.626  30.907  1.00  0.00     0.198 A 
ATOM     65  F   UNL A   1      38.178  31.457  28.904  1.00  0.00    -0.203 F 
ATOM     66  F   UNL A   1      37.783  30.587  34.278  1.00  0.00    -0.200 F 
ATOM     67  C   UNL A   1      36.847  31.408  32.272  1.00  0.00     0.200 A 
ATOM     68  F   UNL A   1      35.944  32.201  30.239  1.00  0.00    -0.200 F 
ATOM     69  F   UNL A   1      35.726  31.755  32.921  1.00  0.00    -0.200 F 
ENDBRANCH  45  59
BRANCH  46  70
ATOM     70  C   UNL A   1      47.282  27.758  25.851  1.00  0.00     0.064 A 
ATOM     71  C   UNL A   1      47.270  27.752  24.451  1.00  0.00     0.173 A 
ATOM     72  C   UNL A   1      48.459  27.348  26.497  1.00  0.00     0.173 A 
ATOM     73  F   UNL A   1      46.159  28.109  23.789  1.00  0.00    -0.203 F 
ATOM     74  C   UNL A   1      48.385  27.339  23.723  1.00  0.00     0.198 A 
ATOM     75  C   UNL A   1      49.582  26.962  25.769  1.00  0.00     0.198 A 
ATOM     76  F   UNL A   1      48.519  27.332  27.836  1.00  0.00    -0.203 F 
ATOM     77  F   UNL A   1      48.333  27.301  22.385  1.00  0.00    -0.200 F 
ATOM     78  C   UNL A   1      49.542  26.949  24.384  1.00  0.00     0.200 A 
ATOM     79  F   UNL A   1      50.699  26.594  26.411  1.00  0.00    -0.200 F 
ATOM     80  F   UNL A   1      50.614  26.556  23.684  1.00  0.00    -0.200 F 
ENDBRANCH  46  70
BRANCH  58  81
ATOM     81  C   UNL A   1      45.469  33.675  29.059  1.00  0.00     0.064 A 
ATOM     82  C   UNL A   1      46.334  33.900  30.140  1.00  0.00     0.173 A 
ATOM     83  C   UNL A   1      45.311  34.704  28.117  1.00  0.00     0.173 A 
ATOM     84  F   UNL A   1      46.507  32.953  31.073  1.00  0.00    -0.203 F 
ATOM     85  C   UNL A   1      46.998  35.115  30.283  1.00  0.00     0.198 A 
ATOM     86  C   UNL A   1      45.997  35.907  28.250  1.00  0.00     0.198 A 
ATOM     87  F   UNL A   1      44.501  34.535  27.062  1.00  0.00    -0.203 F 
ATOM     88  F   UNL A   1      47.788  35.324  31.345  1.00  0.00    -0.200 F 
ATOM     89  C   UNL A   1      46.835  36.115  29.334  1.00  0.00     0.200 A 
ATOM     90  F   UNL A   1      45.848  36.868  27.326  1.00  0.00    -0.200 F 
ATOM     91  F   UNL A   1      47.481  37.282  29.470  1.00  0.00    -0.200 F 
ENDBRANCH  58  81
ENDBRANCH  32  33
ENDBRANCH  25  27
ENDBRANCH  24  25
ENDBRANCH  23  24
ENDBRANCH  22  23
ENDBRANCH  21  22
ENDBRANCH   1  21
TORSDOF 17
ENDMDL
