MODEL 1
REMARK VINA RESULT:     -12.5      0.000      0.000
REMARK SMILES O=C1C[C@H](c2cn[nH]c2C(=O)OCCOCCOC(=O)c2ccc(-c3c4nc(c(-c5c(F)c(F)c(F)c(F)c5F)c5ccc([nH]5)c(-c5c(F)c(F)c(F)c(F)c5F)c5nc(c(-c6c(F)c(F)c(F)c(F)c6F)c6ccc3[nH]6)C=C5)C=C4)cc2)c2c(-c3cccs3)n[nH]c2N1
REMARK SMILES IDX 15 1 14 2 13 3 12 4 10 5 11 6 9 7 5 8 6 9 7 10 8 11 4 13
REMARK SMILES IDX 1 14 2 15 3 16 94 17 93 18 84 20 92 21 85 22 91 23 86 25
REMARK SMILES IDX 87 26 90 27 88 28 89 29 16 30 17 31 18 32 19 33 20 34 21 35
REMARK SMILES IDX 22 36 83 37 23 38 82 39 24 40 25 41 26 42 76 43 27 44 81 45
REMARK SMILES IDX 75 46 77 47 28 48 80 49 74 50 73 51 29 53 61 54 41 55 60 56
REMARK SMILES IDX 42 57 45 58 59 59 78 60 43 61 44 62 58 64 79 65 46 66 30 67
REMARK SMILES IDX 31 68 39 69 32 70 33 71 37 72 40 73 34 74 35 75 38 76 36 77
REMARK SMILES IDX 62 78 63 79 71 80 64 81 65 82 69 83 72 84 66 85 67 86 70 87
REMARK SMILES IDX 68 88 47 89 48 90 56 91 49 92 50 93 54 94 57 95 51 96 52 97
REMARK SMILES IDX 55 98 53 99
REMARK H PARENT 8 12 94 19 92 24 77 52 45 63
REMARK Flexibility Score: inf
ROOT
ATOM      1  O   UNL A   1      40.272  20.793  27.103  1.00  0.00    -0.374 OA
ENDROOT
BRANCH   1   2
ATOM      2  C   UNL A   1      39.759  22.053  26.660  1.00  0.00     0.202 C 
BRANCH   2   3
ATOM      3  C   UNL A   1      38.495  21.999  25.810  1.00  0.00     0.261 C 
BRANCH   3   4
ATOM      4  O   UNL A   1      37.739  23.224  25.917  1.00  0.00    -0.459 OA
BRANCH   4   5
ATOM      5  C   UNL A   1      36.774  23.389  24.977  1.00  0.00     0.356 C 
ATOM      6  O   UNL A   1      36.962  23.312  23.769  1.00  0.00    -0.244 OA
BRANCH   5   7
ATOM      7  C   UNL A   1      35.452  23.464  25.546  1.00  0.00     0.147 A 
ATOM      8  C   UNL A   1      34.158  23.828  25.164  1.00  0.00     0.013 A 
ATOM      9  C   UNL A   1      33.382  23.497  26.320  1.00  0.00     0.140 A 
ATOM     10  N   UNL A   1      34.104  23.046  27.338  1.00  0.00    -0.183 NA
ATOM     11  N   UNL A   1      35.338  23.004  26.837  1.00  0.00    -0.271 N 
ATOM     12  H   UNL A   1      36.108  22.670  27.351  1.00  0.00     0.190 HD
BRANCH   8  13
ATOM     13  C   UNL A   1      33.490  24.300  23.879  1.00  0.00     0.069 C 
ATOM     14  O   UNL A   1      32.194  21.294  22.122  1.00  0.00    -0.275 OA
ATOM     15  C   UNL A   1      32.188  22.420  22.619  1.00  0.00     0.226 C 
ATOM     16  C   UNL A   1      33.479  23.206  22.782  1.00  0.00     0.114 C 
ATOM     17  N   UNL A   1      31.001  23.042  22.921  1.00  0.00    -0.311 N 
ATOM     18  C   UNL A   1      31.016  24.230  23.585  1.00  0.00     0.132 A 
ATOM     19  H   UNL A   1      30.146  22.631  22.659  1.00  0.00     0.171 HD
ATOM     20  C   UNL A   1      32.135  24.882  24.016  1.00  0.00     0.031 A 
ATOM     21  N   UNL A   1      29.942  24.956  23.996  1.00  0.00    -0.262 N 
ATOM     22  C   UNL A   1      31.642  26.076  24.590  1.00  0.00     0.108 A 
ATOM     23  N   UNL A   1      30.299  26.079  24.652  1.00  0.00    -0.173 NA
ATOM     24  H   UNL A   1      29.007  24.691  23.834  1.00  0.00     0.192 HD
BRANCH  22  25
ATOM     25  C   UNL A   1      32.494  27.133  25.205  1.00  0.00     0.055 A 
ATOM     26  C   UNL A   1      32.962  27.080  26.499  1.00  0.00     0.022 A 
ATOM     27  S   UNL A   1      33.088  28.485  24.355  1.00  0.00    -0.142 S 
ATOM     28  C   UNL A   1      33.925  28.102  26.746  1.00  0.00     0.012 A 
ATOM     29  C   UNL A   1      34.045  28.969  25.683  1.00  0.00     0.065 A 
ENDBRANCH  22  25
ENDBRANCH   8  13
ENDBRANCH   5   7
ENDBRANCH   4   5
ENDBRANCH   3   4
ENDBRANCH   2   3
ENDBRANCH   1   2
BRANCH   1  30
ATOM     30  C   UNL A   1      40.570  19.792  26.137  1.00  0.00     0.202 C 
BRANCH  30  31
ATOM     31  C   UNL A   1      41.987  19.257  26.138  1.00  0.00     0.261 C 
BRANCH  31  32
ATOM     32  O   UNL A   1      42.921  20.301  26.315  1.00  0.00    -0.460 OA
BRANCH  32  33
ATOM     33  C   UNL A   1      43.718  20.556  25.251  1.00  0.00     0.338 C 
ATOM     34  O   UNL A   1      44.182  19.780  24.445  1.00  0.00    -0.246 OA
BRANCH  33  35
ATOM     35  C   UNL A   1      44.065  21.974  25.357  1.00  0.00     0.060 A 
ATOM     36  C   UNL A   1      45.207  22.354  26.062  1.00  0.00     0.016 A 
ATOM     37  C   UNL A   1      43.087  22.901  24.976  1.00  0.00     0.016 A 
ATOM     38  C   UNL A   1      45.235  23.631  26.586  1.00  0.00     0.010 A 
ATOM     39  C   UNL A   1      43.171  24.188  25.397  1.00  0.00     0.010 A 
ATOM     40  C   UNL A   1      44.144  24.469  26.332  1.00  0.00    -0.014 A 
BRANCH  40  41
ATOM     41  C   UNL A   1      43.906  25.658  27.105  1.00  0.00     0.031 A 
ATOM     42  C   UNL A   1      44.871  26.724  26.811  1.00  0.00     0.074 A 
ATOM     43  C   UNL A   1      42.772  25.791  27.824  1.00  0.00     0.049 A 
ATOM     44  N   UNL A   1      45.859  27.096  27.547  1.00  0.00    -0.248 NA
ATOM     45  C   UNL A   1      44.890  27.271  25.445  1.00  0.00     0.031 C 
ATOM     46  C   UNL A   1      41.595  24.911  27.882  1.00  0.00     0.029 A 
ATOM     47  N   UNL A   1      42.402  26.834  28.605  1.00  0.00    -0.354 N 
ATOM     48  C   UNL A   1      46.486  28.103  26.828  1.00  0.00     0.074 A 
ATOM     49  C   UNL A   1      46.020  27.979  25.473  1.00  0.00     0.031 C 
ATOM     50  C   UNL A   1      40.570  25.565  28.476  1.00  0.00     0.029 A 
ATOM     51  C   UNL A   1      41.063  26.831  28.980  1.00  0.00     0.049 A 
ATOM     52  H   UNL A   1      43.031  27.537  28.886  1.00  0.00     0.167 HD
ATOM     53  C   UNL A   1      47.096  29.130  27.478  1.00  0.00     0.037 A 
ATOM     54  C   UNL A   1      40.437  27.861  29.602  1.00  0.00     0.037 A 
ATOM     55  C   UNL A   1      47.279  28.807  28.875  1.00  0.00     0.049 A 
ATOM     56  C   UNL A   1      41.508  28.717  30.191  1.00  0.00     0.074 A 
ATOM     57  C   UNL A   1      47.975  27.823  29.550  1.00  0.00     0.029 A 
ATOM     58  N   UNL A   1      46.346  29.286  29.767  1.00  0.00    -0.354 N 
ATOM     59  N   UNL A   1      42.295  28.318  31.157  1.00  0.00    -0.248 NA
ATOM     60  C   UNL A   1      42.043  29.784  29.356  1.00  0.00     0.031 C 
ATOM     61  C   UNL A   1      47.122  27.437  30.627  1.00  0.00     0.029 A 
ATOM     62  C   UNL A   1      45.993  28.259  30.607  1.00  0.00     0.049 A 
ATOM     63  H   UNL A   1      45.993  30.205  29.797  1.00  0.00     0.167 HD
ATOM     64  C   UNL A   1      43.559  28.780  30.808  1.00  0.00     0.074 A 
ATOM     65  C   UNL A   1      43.330  29.724  29.715  1.00  0.00     0.031 C 
ATOM     66  C   UNL A   1      44.689  28.130  31.219  1.00  0.00     0.037 A 
BRANCH  53  67
ATOM     67  C   UNL A   1      47.164  30.546  26.964  1.00  0.00     0.064 A 
ATOM     68  C   UNL A   1      48.403  31.212  27.001  1.00  0.00     0.173 A 
ATOM     69  C   UNL A   1      46.042  31.365  26.708  1.00  0.00     0.173 A 
ATOM     70  F   UNL A   1      49.537  30.534  27.233  1.00  0.00    -0.203 F 
ATOM     71  C   UNL A   1      48.497  32.601  26.890  1.00  0.00     0.198 A 
ATOM     72  C   UNL A   1      46.146  32.744  26.544  1.00  0.00     0.198 A 
ATOM     73  F   UNL A   1      44.789  30.901  26.711  1.00  0.00    -0.203 F 
ATOM     74  F   UNL A   1      49.682  33.200  27.065  1.00  0.00    -0.200 F 
ATOM     75  C   UNL A   1      47.368  33.366  26.672  1.00  0.00     0.200 A 
ATOM     76  F   UNL A   1      45.036  33.468  26.343  1.00  0.00    -0.200 F 
ATOM     77  F   UNL A   1      47.446  34.702  26.632  1.00  0.00    -0.200 F 
ENDBRANCH  53  67
BRANCH  54  78
ATOM     78  C   UNL A   1      39.047  28.333  29.394  1.00  0.00     0.064 A 
ATOM     79  C   UNL A   1      38.172  28.531  30.472  1.00  0.00     0.173 A 
ATOM     80  C   UNL A   1      38.637  28.856  28.151  1.00  0.00     0.173 A 
ATOM     81  F   UNL A   1      38.510  28.110  31.698  1.00  0.00    -0.203 F 
ATOM     82  C   UNL A   1      36.963  29.222  30.318  1.00  0.00     0.198 A 
ATOM     83  C   UNL A   1      37.432  29.542  27.997  1.00  0.00     0.198 A 
ATOM     84  F   UNL A   1      39.445  28.792  27.081  1.00  0.00    -0.203 F 
ATOM     85  F   UNL A   1      36.174  29.436  31.380  1.00  0.00    -0.200 F 
ATOM     86  C   UNL A   1      36.599  29.733  29.083  1.00  0.00     0.200 A 
ATOM     87  F   UNL A   1      37.113  30.069  26.807  1.00  0.00    -0.200 F 
ATOM     88  F   UNL A   1      35.470  30.445  28.947  1.00  0.00    -0.200 F 
ENDBRANCH  54  78
BRANCH  66  89
ATOM     89  C   UNL A   1      44.538  27.032  32.240  1.00  0.00     0.064 A 
ATOM     90  C   UNL A   1      44.416  25.668  31.917  1.00  0.00     0.173 A 
ATOM     91  C   UNL A   1      44.709  27.355  33.591  1.00  0.00     0.173 A 
ATOM     92  F   UNL A   1      44.344  25.266  30.644  1.00  0.00    -0.203 F 
ATOM     93  C   UNL A   1      44.437  24.681  32.904  1.00  0.00     0.198 A 
ATOM     94  C   UNL A   1      44.767  26.368  34.571  1.00  0.00     0.198 A 
ATOM     95  F   UNL A   1      44.889  28.635  33.954  1.00  0.00    -0.203 F 
ATOM     96  F   UNL A   1      44.324  23.388  32.566  1.00  0.00    -0.200 F 
ATOM     97  C   UNL A   1      44.624  25.033  34.230  1.00  0.00     0.200 A 
ATOM     98  F   UNL A   1      44.998  26.711  35.846  1.00  0.00    -0.200 F 
ATOM     99  F   UNL A   1      44.697  24.085  35.174  1.00  0.00    -0.200 F 
ENDBRANCH  66  89
ENDBRANCH  40  41
ENDBRANCH  33  35
ENDBRANCH  32  33
ENDBRANCH  31  32
ENDBRANCH  30  31
ENDBRANCH   1  30
TORSDOF 16
ENDMDL
MODEL 2
REMARK VINA RESULT:     -12.4      2.730      3.733
REMARK SMILES O=C1C[C@H](c2cn[nH]c2C(=O)OCCOCCOC(=O)c2ccc(-c3c4nc(c(-c5c(F)c(F)c(F)c(F)c5F)c5ccc([nH]5)c(-c5c(F)c(F)c(F)c(F)c5F)c5nc(c(-c6c(F)c(F)c(F)c(F)c6F)c6ccc3[nH]6)C=C5)C=C4)cc2)c2c(-c3cccs3)n[nH]c2N1
REMARK SMILES IDX 15 1 14 2 13 3 12 4 10 5 11 6 9 7 5 8 6 9 7 10 8 11 4 13
REMARK SMILES IDX 1 14 2 15 3 16 94 17 93 18 84 20 92 21 85 22 91 23 86 25
REMARK SMILES IDX 87 26 90 27 88 28 89 29 16 30 17 31 18 32 19 33 20 34 21 35
REMARK SMILES IDX 22 36 83 37 23 38 82 39 24 40 25 41 26 42 76 43 27 44 81 45
REMARK SMILES IDX 75 46 77 47 28 48 80 49 74 50 73 51 29 53 61 54 41 55 60 56
REMARK SMILES IDX 42 57 45 58 59 59 78 60 43 61 44 62 58 64 79 65 46 66 30 67
REMARK SMILES IDX 31 68 39 69 32 70 33 71 37 72 40 73 34 74 35 75 38 76 36 77
REMARK SMILES IDX 62 78 63 79 71 80 64 81 65 82 69 83 72 84 66 85 67 86 70 87
REMARK SMILES IDX 68 88 47 89 48 90 56 91 49 92 50 93 54 94 57 95 51 96 52 97
REMARK SMILES IDX 55 98 53 99
REMARK H PARENT 8 12 94 19 92 24 77 52 45 63
REMARK Flexibility Score: inf
ROOT
ATOM      1  O   UNL A   1      36.817  20.634  24.943  1.00  0.00    -0.374 OA
ENDROOT
BRANCH   1   2
ATOM      2  C   UNL A   1      35.389  20.701  24.996  1.00  0.00     0.202 C 
BRANCH   2   3
ATOM      3  C   UNL A   1      34.798  21.387  26.223  1.00  0.00     0.261 C 
BRANCH   3   4
ATOM      4  O   UNL A   1      34.060  22.572  25.854  1.00  0.00    -0.459 OA
BRANCH   4   5
ATOM      5  C   UNL A   1      33.326  23.126  26.853  1.00  0.00     0.356 C 
ATOM      6  O   UNL A   1      33.449  22.850  28.039  1.00  0.00    -0.244 OA
BRANCH   5   7
ATOM      7  C   UNL A   1      32.519  24.231  26.400  1.00  0.00     0.147 A 
ATOM      8  C   UNL A   1      32.605  25.304  25.509  1.00  0.00     0.013 A 
ATOM      9  C   UNL A   1      31.296  25.879  25.579  1.00  0.00     0.140 A 
ATOM     10  N   UNL A   1      30.499  25.289  26.460  1.00  0.00    -0.183 NA
ATOM     11  N   UNL A   1      31.245  24.283  26.915  1.00  0.00    -0.271 N 
ATOM     12  H   UNL A   1      30.910  23.628  27.569  1.00  0.00     0.190 HD
BRANCH   8  13
ATOM     13  C   UNL A   1      33.633  25.812  24.506  1.00  0.00     0.069 C 
ATOM     14  O   UNL A   1      33.394  23.671  21.478  1.00  0.00    -0.275 OA
ATOM     15  C   UNL A   1      33.441  24.701  22.150  1.00  0.00     0.226 C 
ATOM     16  C   UNL A   1      34.095  24.708  23.522  1.00  0.00     0.114 C 
ATOM     17  N   UNL A   1      33.015  25.897  21.623  1.00  0.00    -0.311 N 
ATOM     18  C   UNL A   1      32.955  26.999  22.421  1.00  0.00     0.132 A 
ATOM     19  H   UNL A   1      32.756  25.957  20.676  1.00  0.00     0.171 HD
ATOM     20  C   UNL A   1      33.268  27.032  23.749  1.00  0.00     0.031 A 
ATOM     21  N   UNL A   1      32.523  28.241  22.076  1.00  0.00    -0.262 N 
ATOM     22  C   UNL A   1      33.102  28.388  24.110  1.00  0.00     0.108 A 
ATOM     23  N   UNL A   1      32.566  29.107  23.109  1.00  0.00    -0.173 NA
ATOM     24  H   UNL A   1      32.211  28.481  21.173  1.00  0.00     0.192 HD
BRANCH  22  25
ATOM     25  C   UNL A   1      33.331  28.932  25.479  1.00  0.00     0.055 A 
ATOM     26  C   UNL A   1      34.428  28.622  26.252  1.00  0.00     0.022 A 
ATOM     27  S   UNL A   1      32.325  30.092  26.219  1.00  0.00    -0.142 S 
ATOM     28  C   UNL A   1      34.500  29.449  27.411  1.00  0.00     0.012 A 
ATOM     29  C   UNL A   1      33.390  30.252  27.544  1.00  0.00     0.065 A 
ENDBRANCH  22  25
ENDBRANCH   8  13
ENDBRANCH   5   7
ENDBRANCH   4   5
ENDBRANCH   3   4
ENDBRANCH   2   3
ENDBRANCH   1   2
BRANCH   1  30
ATOM     30  C   UNL A   1      37.570  21.834  25.075  1.00  0.00     0.202 C 
BRANCH  30  31
ATOM     31  C   UNL A   1      38.882  21.727  25.825  1.00  0.00     0.261 C 
BRANCH  31  32
ATOM     32  O   UNL A   1      39.082  22.853  26.653  1.00  0.00    -0.460 OA
BRANCH  32  33
ATOM     33  C   UNL A   1      40.169  22.797  27.459  1.00  0.00     0.338 C 
ATOM     34  O   UNL A   1      40.531  21.898  28.186  1.00  0.00    -0.246 OA
BRANCH  33  35
ATOM     35  C   UNL A   1      40.755  24.137  27.414  1.00  0.00     0.060 A 
ATOM     36  C   UNL A   1      41.921  24.404  28.130  1.00  0.00     0.016 A 
ATOM     37  C   UNL A   1      39.969  25.160  26.869  1.00  0.00     0.016 A 
ATOM     38  C   UNL A   1      42.154  25.714  28.499  1.00  0.00     0.010 A 
ATOM     39  C   UNL A   1      40.263  26.457  27.137  1.00  0.00     0.010 A 
ATOM     40  C   UNL A   1      41.238  26.686  28.085  1.00  0.00    -0.014 A 
BRANCH  40  41
ATOM     41  C   UNL A   1      41.185  27.987  28.695  1.00  0.00     0.031 A 
ATOM     42  C   UNL A   1      42.275  28.863  28.249  1.00  0.00     0.074 A 
ATOM     43  C   UNL A   1      40.102  28.367  29.404  1.00  0.00     0.049 A 
ATOM     44  N   UNL A   1      43.326  29.190  28.916  1.00  0.00    -0.248 NA
ATOM     45  C   UNL A   1      42.324  29.219  26.822  1.00  0.00     0.031 C 
ATOM     46  C   UNL A   1      38.820  27.672  29.595  1.00  0.00     0.029 A 
ATOM     47  N   UNL A   1      39.900  29.544  30.044  1.00  0.00    -0.354 N 
ATOM     48  C   UNL A   1      44.060  29.998  28.060  1.00  0.00     0.074 A 
ATOM     49  C   UNL A   1      43.540  29.763  26.741  1.00  0.00     0.031 C 
ATOM     50  C   UNL A   1      37.911  28.533  30.110  1.00  0.00     0.029 A 
ATOM     51  C   UNL A   1      38.585  29.774  30.433  1.00  0.00     0.049 A 
ATOM     52  H   UNL A   1      40.627  30.185  30.220  1.00  0.00     0.167 HD
ATOM     53  C   UNL A   1      44.823  31.008  28.559  1.00  0.00     0.037 A 
ATOM     54  C   UNL A   1      38.123  30.953  30.920  1.00  0.00     0.037 A 
ATOM     55  C   UNL A   1      45.003  30.848  29.985  1.00  0.00     0.049 A 
ATOM     56  C   UNL A   1      39.316  31.723  31.375  1.00  0.00     0.074 A 
ATOM     57  C   UNL A   1      45.582  29.875  30.776  1.00  0.00     0.029 A 
ATOM     58  N   UNL A   1      44.171  31.563  30.816  1.00  0.00    -0.354 N 
ATOM     59  N   UNL A   1      40.072  31.350  32.376  1.00  0.00    -0.248 NA
ATOM     60  C   UNL A   1      39.964  32.589  30.398  1.00  0.00     0.031 C 
ATOM     61  C   UNL A   1      44.719  29.753  31.906  1.00  0.00     0.029 A 
ATOM     62  C   UNL A   1      43.710  30.713  31.790  1.00  0.00     0.049 A 
ATOM     63  H   UNL A   1      43.946  32.517  30.728  1.00  0.00     0.167 HD
ATOM     64  C   UNL A   1      41.375  31.585  31.952  1.00  0.00     0.074 A 
ATOM     65  C   UNL A   1      41.242  32.400  30.746  1.00  0.00     0.031 C 
ATOM     66  C   UNL A   1      42.420  30.844  32.431  1.00  0.00     0.037 A 
BRANCH  53  67
ATOM     67  C   UNL A   1      45.063  32.321  27.860  1.00  0.00     0.064 A 
ATOM     68  C   UNL A   1      46.343  32.572  27.331  1.00  0.00     0.173 A 
ATOM     69  C   UNL A   1      44.206  33.442  27.930  1.00  0.00     0.173 A 
ATOM     70  F   UNL A   1      47.241  31.582  27.213  1.00  0.00    -0.203 F 
ATOM     71  C   UNL A   1      46.762  33.861  26.993  1.00  0.00     0.198 A 
ATOM     72  C   UNL A   1      44.610  34.717  27.543  1.00  0.00     0.198 A 
ATOM     73  F   UNL A   1      42.986  33.388  28.473  1.00  0.00    -0.203 F 
ATOM     74  F   UNL A   1      48.032  34.068  26.620  1.00  0.00    -0.200 F 
ATOM     75  C   UNL A   1      45.899  34.933  27.110  1.00  0.00     0.200 A 
ATOM     76  F   UNL A   1      43.758  35.744  27.673  1.00  0.00    -0.200 F 
ATOM     77  F   UNL A   1      46.317  36.178  26.851  1.00  0.00    -0.200 F 
ENDBRANCH  53  67
BRANCH  54  78
ATOM     78  C   UNL A   1      36.803  31.580  30.669  1.00  0.00     0.064 A 
ATOM     79  C   UNL A   1      35.968  31.977  31.724  1.00  0.00     0.173 A 
ATOM     80  C   UNL A   1      36.455  32.047  29.385  1.00  0.00     0.173 A 
ATOM     81  F   UNL A   1      36.258  31.618  32.982  1.00  0.00    -0.203 F 
ATOM     82  C   UNL A   1      34.855  32.801  31.508  1.00  0.00     0.198 A 
ATOM     83  C   UNL A   1      35.345  32.866  29.171  1.00  0.00     0.198 A 
ATOM     84  F   UNL A   1      37.239  31.791  28.327  1.00  0.00    -0.203 F 
ATOM     85  F   UNL A   1      34.108  33.201  32.547  1.00  0.00    -0.200 F 
ATOM     86  C   UNL A   1      34.551  33.251  30.235  1.00  0.00     0.200 A 
ATOM     87  F   UNL A   1      35.088  33.330  27.940  1.00  0.00    -0.200 F 
ATOM     88  F   UNL A   1      33.522  34.087  30.037  1.00  0.00    -0.200 F 
ENDBRANCH  54  78
BRANCH  66  89
ATOM     89  C   UNL A   1      42.155  29.920  33.591  1.00  0.00     0.064 A 
ATOM     90  C   UNL A   1      41.789  28.569  33.454  1.00  0.00     0.173 A 
ATOM     91  C   UNL A   1      42.463  30.371  34.880  1.00  0.00     0.173 A 
ATOM     92  F   UNL A   1      41.571  28.034  32.248  1.00  0.00    -0.203 F 
ATOM     93  C   UNL A   1      41.710  27.720  34.559  1.00  0.00     0.198 A 
ATOM     94  C   UNL A   1      42.419  29.514  35.978  1.00  0.00     0.198 A 
ATOM     95  F   UNL A   1      42.875  31.635  35.067  1.00  0.00    -0.203 F 
ATOM     96  F   UNL A   1      41.363  26.434  34.397  1.00  0.00    -0.200 F 
ATOM     97  C   UNL A   1      42.036  28.192  35.819  1.00  0.00     0.200 A 
ATOM     98  F   UNL A   1      42.785  29.964  37.186  1.00  0.00    -0.200 F 
ATOM     99  F   UNL A   1      42.011  27.367  36.875  1.00  0.00    -0.200 F 
ENDBRANCH  66  89
ENDBRANCH  40  41
ENDBRANCH  33  35
ENDBRANCH  32  33
ENDBRANCH  31  32
ENDBRANCH  30  31
ENDBRANCH   1  30
TORSDOF 16
ENDMDL
MODEL 3
REMARK VINA RESULT:     -12.2      2.451      3.394
REMARK SMILES O=C1C[C@H](c2cn[nH]c2C(=O)OCCOCCOC(=O)c2ccc(-c3c4nc(c(-c5c(F)c(F)c(F)c(F)c5F)c5ccc([nH]5)c(-c5c(F)c(F)c(F)c(F)c5F)c5nc(c(-c6c(F)c(F)c(F)c(F)c6F)c6ccc3[nH]6)C=C5)C=C4)cc2)c2c(-c3cccs3)n[nH]c2N1
REMARK SMILES IDX 15 1 14 2 13 3 12 4 10 5 11 6 9 7 5 8 6 9 7 10 8 11 4 13
REMARK SMILES IDX 1 14 2 15 3 16 94 17 93 18 84 20 92 21 85 22 91 23 86 25
REMARK SMILES IDX 87 26 90 27 88 28 89 29 16 30 17 31 18 32 19 33 20 34 21 35
REMARK SMILES IDX 22 36 83 37 23 38 82 39 24 40 25 41 26 42 76 43 27 44 81 45
REMARK SMILES IDX 75 46 77 47 28 48 80 49 74 50 73 51 29 53 61 54 41 55 60 56
REMARK SMILES IDX 42 57 45 58 59 59 78 60 43 61 44 62 58 64 79 65 46 66 30 67
REMARK SMILES IDX 31 68 39 69 32 70 33 71 37 72 40 73 34 74 35 75 38 76 36 77
REMARK SMILES IDX 62 78 63 79 71 80 64 81 65 82 69 83 72 84 66 85 67 86 70 87
REMARK SMILES IDX 68 88 47 89 48 90 56 91 49 92 50 93 54 94 57 95 51 96 52 97
REMARK SMILES IDX 55 98 53 99
REMARK H PARENT 8 12 94 19 92 24 77 52 45 63
REMARK Flexibility Score: inf
ROOT
ATOM      1  O   UNL A   1      39.990  20.525  26.150  1.00  0.00    -0.374 OA
ENDROOT
BRANCH   1   2
ATOM      2  C   UNL A   1      39.192  21.713  26.117  1.00  0.00     0.202 C 
BRANCH   2   3
ATOM      3  C   UNL A   1      37.906  21.632  25.304  1.00  0.00     0.261 C 
BRANCH   3   4
ATOM      4  O   UNL A   1      36.745  21.834  26.139  1.00  0.00    -0.459 OA
BRANCH   4   5
ATOM      5  C   UNL A   1      36.230  23.090  26.115  1.00  0.00     0.356 C 
ATOM      6  O   UNL A   1      36.829  24.077  25.708  1.00  0.00    -0.244 OA
BRANCH   5   7
ATOM      7  C   UNL A   1      34.825  23.119  26.429  1.00  0.00     0.147 A 
ATOM      8  C   UNL A   1      33.624  23.547  25.855  1.00  0.00     0.013 A 
ATOM      9  C   UNL A   1      32.645  23.094  26.796  1.00  0.00     0.140 A 
ATOM     10  N   UNL A   1      33.163  22.513  27.870  1.00  0.00    -0.183 NA
ATOM     11  N   UNL A   1      34.470  22.511  27.611  1.00  0.00    -0.271 N 
ATOM     12  H   UNL A   1      35.130  22.105  28.217  1.00  0.00     0.190 HD
BRANCH   8  13
ATOM     13  C   UNL A   1      33.210  24.180  24.533  1.00  0.00     0.069 C 
ATOM     14  O   UNL A   1      31.890  21.468  22.361  1.00  0.00    -0.275 OA
ATOM     15  C   UNL A   1      31.925  22.551  22.946  1.00  0.00     0.226 C 
ATOM     16  C   UNL A   1      33.251  23.172  23.357  1.00  0.00     0.114 C 
ATOM     17  N   UNL A   1      30.776  23.283  23.128  1.00  0.00    -0.311 N 
ATOM     18  C   UNL A   1      30.813  24.413  23.886  1.00  0.00     0.132 A 
ATOM     19  H   UNL A   1      29.933  22.991  22.714  1.00  0.00     0.171 HD
ATOM     20  C   UNL A   1      31.916  24.902  24.525  1.00  0.00     0.031 A 
ATOM     21  N   UNL A   1      29.770  25.227  24.200  1.00  0.00    -0.262 N 
ATOM     22  C   UNL A   1      31.467  26.102  25.122  1.00  0.00     0.108 A 
ATOM     23  N   UNL A   1      30.138  26.254  24.993  1.00  0.00    -0.173 NA
ATOM     24  H   UNL A   1      28.848  25.082  23.885  1.00  0.00     0.192 HD
BRANCH  22  25
ATOM     25  C   UNL A   1      32.322  27.009  25.939  1.00  0.00     0.055 A 
ATOM     26  C   UNL A   1      33.656  27.238  25.687  1.00  0.00     0.022 A 
ATOM     27  S   UNL A   1      31.732  27.966  27.221  1.00  0.00    -0.142 S 
ATOM     28  C   UNL A   1      34.161  28.309  26.480  1.00  0.00     0.012 A 
ATOM     29  C   UNL A   1      33.236  28.755  27.397  1.00  0.00     0.065 A 
ENDBRANCH  22  25
ENDBRANCH   8  13
ENDBRANCH   5   7
ENDBRANCH   4   5
ENDBRANCH   3   4
ENDBRANCH   2   3
ENDBRANCH   1   2
BRANCH   1  30
ATOM     30  C   UNL A   1      41.230  20.547  26.846  1.00  0.00     0.202 C 
BRANCH  30  31
ATOM     31  C   UNL A   1      42.377  21.256  26.156  1.00  0.00     0.261 C 
BRANCH  31  32
ATOM     32  O   UNL A   1      42.667  22.483  26.792  1.00  0.00    -0.460 OA
BRANCH  32  33
ATOM     33  C   UNL A   1      42.531  23.586  26.019  1.00  0.00     0.338 C 
ATOM     34  O   UNL A   1      43.070  23.849  24.966  1.00  0.00    -0.246 OA
BRANCH  33  35
ATOM     35  C   UNL A   1      41.708  24.510  26.802  1.00  0.00     0.060 A 
ATOM     36  C   UNL A   1      40.773  25.317  26.157  1.00  0.00     0.016 A 
ATOM     37  C   UNL A   1      42.089  24.733  28.131  1.00  0.00     0.016 A 
ATOM     38  C   UNL A   1      40.407  26.492  26.783  1.00  0.00     0.010 A 
ATOM     39  C   UNL A   1      41.640  25.831  28.789  1.00  0.00     0.010 A 
ATOM     40  C   UNL A   1      40.958  26.765  28.039  1.00  0.00    -0.014 A 
BRANCH  40  41
ATOM     41  C   UNL A   1      40.933  28.086  28.606  1.00  0.00     0.031 A 
ATOM     42  C   UNL A   1      42.031  28.929  28.118  1.00  0.00     0.074 A 
ATOM     43  C   UNL A   1      39.865  28.507  29.315  1.00  0.00     0.049 A 
ATOM     44  N   UNL A   1      43.096  29.261  28.761  1.00  0.00    -0.248 NA
ATOM     45  C   UNL A   1      42.069  29.237  26.679  1.00  0.00     0.031 C 
ATOM     46  C   UNL A   1      38.575  27.840  29.545  1.00  0.00     0.029 A 
ATOM     47  N   UNL A   1      39.690  29.708  29.917  1.00  0.00    -0.354 N 
ATOM     48  C   UNL A   1      43.832  30.028  27.870  1.00  0.00     0.074 A 
ATOM     49  C   UNL A   1      43.292  29.758  26.566  1.00  0.00     0.031 C 
ATOM     50  C   UNL A   1      37.686  28.731  30.040  1.00  0.00     0.029 A 
ATOM     51  C   UNL A   1      38.383  29.972  30.314  1.00  0.00     0.049 A 
ATOM     52  H   UNL A   1      40.428  30.342  30.063  1.00  0.00     0.167 HD
ATOM     53  C   UNL A   1      44.616  31.042  28.326  1.00  0.00     0.037 A 
ATOM     54  C   UNL A   1      37.946  31.173  30.766  1.00  0.00     0.037 A 
ATOM     55  C   UNL A   1      44.812  30.927  29.754  1.00  0.00     0.049 A 
ATOM     56  C   UNL A   1      39.157  31.939  31.181  1.00  0.00     0.074 A 
ATOM     57  C   UNL A   1      45.385  29.971  30.570  1.00  0.00     0.029 A 
ATOM     58  N   UNL A   1      44.002  31.682  30.571  1.00  0.00    -0.354 N 
ATOM     59  N   UNL A   1      39.919  31.587  32.185  1.00  0.00    -0.248 NA
ATOM     60  C   UNL A   1      39.806  32.761  30.168  1.00  0.00     0.031 C 
ATOM     61  C   UNL A   1      44.534  29.901  31.714  1.00  0.00     0.029 A 
ATOM     62  C   UNL A   1      43.539  30.872  31.578  1.00  0.00     0.049 A 
ATOM     63  H   UNL A   1      43.790  32.637  30.453  1.00  0.00     0.167 HD
ATOM     64  C   UNL A   1      41.221  31.787  31.738  1.00  0.00     0.074 A 
ATOM     65  C   UNL A   1      41.085  32.563  30.507  1.00  0.00     0.031 C 
ATOM     66  C   UNL A   1      42.259  31.046  32.230  1.00  0.00     0.037 A 
BRANCH  53  67
ATOM     67  C   UNL A   1      44.869  32.327  27.581  1.00  0.00     0.064 A 
ATOM     68  C   UNL A   1      46.078  32.464  26.874  1.00  0.00     0.173 A 
ATOM     69  C   UNL A   1      44.129  33.519  27.753  1.00  0.00     0.173 A 
ATOM     70  F   UNL A   1      46.862  31.398  26.647  1.00  0.00    -0.203 F 
ATOM     71  C   UNL A   1      46.555  33.710  26.462  1.00  0.00     0.198 A 
ATOM     72  C   UNL A   1      44.583  34.752  27.294  1.00  0.00     0.198 A 
ATOM     73  F   UNL A   1      42.997  33.573  28.461  1.00  0.00    -0.203 F 
ATOM     74  F   UNL A   1      47.773  33.804  25.912  1.00  0.00    -0.200 F 
ATOM     75  C   UNL A   1      45.813  34.854  26.682  1.00  0.00     0.200 A 
ATOM     76  F   UNL A   1      43.850  35.850  27.526  1.00  0.00    -0.200 F 
ATOM     77  F   UNL A   1      46.297  36.057  26.349  1.00  0.00    -0.200 F 
ENDBRANCH  53  67
BRANCH  54  78
ATOM     78  C   UNL A   1      36.633  31.813  30.510  1.00  0.00     0.064 A 
ATOM     79  C   UNL A   1      35.848  32.319  31.557  1.00  0.00     0.173 A 
ATOM     80  C   UNL A   1      36.248  32.179  29.204  1.00  0.00     0.173 A 
ATOM     81  F   UNL A   1      36.177  32.060  32.830  1.00  0.00    -0.203 F 
ATOM     82  C   UNL A   1      34.749  33.153  31.312  1.00  0.00     0.198 A 
ATOM     83  C   UNL A   1      35.151  33.008  28.961  1.00  0.00     0.198 A 
ATOM     84  F   UNL A   1      36.986  31.815  28.145  1.00  0.00    -0.203 F 
ATOM     85  F   UNL A   1      34.051  33.659  32.339  1.00  0.00    -0.200 F 
ATOM     86  C   UNL A   1      34.407  33.502  30.016  1.00  0.00     0.200 A 
ATOM     87  F   UNL A   1      34.859  33.373  27.706  1.00  0.00    -0.200 F 
ATOM     88  F   UNL A   1      33.392  34.347  29.784  1.00  0.00    -0.200 F 
ENDBRANCH  54  78
BRANCH  66  89
ATOM     89  C   UNL A   1      41.994  30.166  33.423  1.00  0.00     0.064 A 
ATOM     90  C   UNL A   1      41.611  28.815  33.335  1.00  0.00     0.173 A 
ATOM     91  C   UNL A   1      42.319  30.656  34.693  1.00  0.00     0.173 A 
ATOM     92  F   UNL A   1      41.376  28.242  32.151  1.00  0.00    -0.203 F 
ATOM     93  C   UNL A   1      41.532  28.005  34.470  1.00  0.00     0.198 A 
ATOM     94  C   UNL A   1      42.275  29.839  35.820  1.00  0.00     0.198 A 
ATOM     95  F   UNL A   1      42.747  31.921  34.832  1.00  0.00    -0.203 F 
ATOM     96  F   UNL A   1      41.169  26.719  34.356  1.00  0.00    -0.200 F 
ATOM     97  C   UNL A   1      41.875  28.516  35.710  1.00  0.00     0.200 A 
ATOM     98  F   UNL A   1      42.657  30.325  37.009  1.00  0.00    -0.200 F 
ATOM     99  F   UNL A   1      41.850  27.728  36.794  1.00  0.00    -0.200 F 
ENDBRANCH  66  89
ENDBRANCH  40  41
ENDBRANCH  33  35
ENDBRANCH  32  33
ENDBRANCH  31  32
ENDBRANCH  30  31
ENDBRANCH   1  30
TORSDOF 16
ENDMDL
