MODEL 1
REMARK VINA RESULT:     -11.0      0.000      0.000
REMARK SMILES COc1ccc(-c2ccc(/C=C3\SC(=S)N([C@H](Cc4ccccc4)C(=O)OCCOCCOC(=O)c4ccc(-c5c6nc(c(-c7c(F)c(F)c(F)c(F)c7F)c7ccc([nH]7)c(-c7c(F)c(F)c(F)c(F)c7F)c7nc(c(-c8c(F)c(F)c(F)c(F)c8F)c8ccc5[nH]8)C=C7)C=C6)cc4)C3=O)o2)cc1
REMARK SMILES IDX 29 1 28 2 27 3 25 4 26 5 17 6 16 7 11 8 12 9 13 10 99 11
REMARK SMILES IDX 14 12 100 13 15 14 10 15 7 16 8 17 101 18 9 19 6 20 3 21
REMARK SMILES IDX 4 22 103 23 5 24 102 25 2 26 1 27 18 28 19 29 20 30 24 31
REMARK SMILES IDX 21 32 23 33 22 34 30 35 31 36 32 37 33 38 34 39 35 40 36 41
REMARK SMILES IDX 37 42 98 43 38 44 97 45 39 46 40 47 41 48 91 49 42 50 96 51
REMARK SMILES IDX 90 52 92 53 43 54 95 55 89 56 88 57 44 59 76 60 56 61 75 62
REMARK SMILES IDX 57 63 60 64 74 65 93 66 58 67 59 68 73 70 94 71 61 72 45 73
REMARK SMILES IDX 46 74 54 75 47 76 48 77 52 78 55 79 49 80 50 81 53 82 51 83
REMARK SMILES IDX 77 84 78 85 86 86 79 87 80 88 84 89 87 90 81 91 82 92 85 93
REMARK SMILES IDX 83 94 62 95 63 96 71 97 64 98 65 99 69 100 72 101 66 102
REMARK SMILES IDX 67 103 70 104 68 105
REMARK H PARENT 92 58 60 69
REMARK Flexibility Score: inf
ROOT
ATOM      1  C   UNL A   1      44.783  20.667  24.706  1.00  0.00     0.202 C 
ENDROOT
BRANCH   1   2
ATOM      2  C   UNL A   1      43.740  20.790  25.819  1.00  0.00     0.261 C 
BRANCH   2   3
ATOM      3  O   UNL A   1      42.486  21.269  25.314  1.00  0.00    -0.462 OA
BRANCH   3   4
ATOM      4  C   UNL A   1      41.950  22.332  25.967  1.00  0.00     0.329 C 
ATOM      5  O   UNL A   1      42.275  23.502  25.785  1.00  0.00    -0.250 OA
BRANCH   4   6
ATOM      6  C   UNL A   1      40.899  21.943  27.020  1.00  0.00     0.206 C 
BRANCH   6   7
ATOM      7  N   UNL A   1      39.560  22.219  26.451  1.00  0.00    -0.278 N 
ATOM      8  C   UNL A   1      36.526  20.787  25.135  1.00  0.00     0.068 C 
ATOM      9  C   UNL A   1      37.513  21.636  25.449  1.00  0.00     0.084 C 
ATOM     10  S   UNL A   1      37.419  23.347  25.575  1.00  0.00    -0.054 SA
ATOM     11  C   UNL A   1      38.873  21.184  25.830  1.00  0.00     0.267 C 
ATOM     12  C   UNL A   1      38.954  23.457  26.413  1.00  0.00     0.149 C 
ATOM     13  O   UNL A   1      39.303  20.067  25.603  1.00  0.00    -0.268 OA
ATOM     14  S   UNL A   1      39.488  24.917  27.010  1.00  0.00    -0.052 S 
BRANCH   8  15
ATOM     15  C   UNL A   1      35.250  21.263  24.731  1.00  0.00     0.128 A 
ATOM     16  C   UNL A   1      33.682  22.646  24.002  1.00  0.00     0.134 A 
ATOM     17  C   UNL A   1      33.083  21.412  24.103  1.00  0.00     0.051 A 
ATOM     18  O   UNL A   1      34.986  22.570  24.388  1.00  0.00    -0.457 OA
ATOM     19  C   UNL A   1      34.076  20.534  24.579  1.00  0.00     0.051 A 
BRANCH  16  20
ATOM     20  C   UNL A   1      33.175  23.950  23.622  1.00  0.00     0.017 A 
ATOM     21  C   UNL A   1      32.150  26.417  22.767  1.00  0.00     0.118 A 
ATOM     22  C   UNL A   1      33.514  26.276  23.027  1.00  0.00     0.047 A 
ATOM     23  C   UNL A   1      31.301  25.322  22.903  1.00  0.00     0.047 A 
ATOM     24  C   UNL A   1      34.025  25.050  23.470  1.00  0.00     0.016 A 
ATOM     25  C   UNL A   1      31.814  24.094  23.329  1.00  0.00     0.016 A 
BRANCH  21  26
ATOM     26  O   UNL A   1      31.741  27.649  22.331  1.00  0.00    -0.497 OA
ATOM     27  C   UNL A   1      32.151  28.725  23.170  1.00  0.00     0.278 C 
ENDBRANCH  21  26
ENDBRANCH  16  20
ENDBRANCH   8  15
ENDBRANCH   6   7
BRANCH   6  28
ATOM     28  C   UNL A   1      41.067  22.473  28.467  1.00  0.00     0.073 C 
BRANCH  28  29
ATOM     29  C   UNL A   1      42.369  23.190  28.836  1.00  0.00    -0.045 A 
ATOM     30  C   UNL A   1      43.546  22.423  28.930  1.00  0.00     0.004 A 
ATOM     31  C   UNL A   1      42.497  24.575  29.023  1.00  0.00     0.004 A 
ATOM     32  C   UNL A   1      44.787  23.019  29.187  1.00  0.00     0.000 A 
ATOM     33  C   UNL A   1      43.738  25.174  29.262  1.00  0.00     0.000 A 
ATOM     34  C   UNL A   1      44.885  24.397  29.341  1.00  0.00     0.000 A 
ENDBRANCH  28  29
ENDBRANCH   6  28
ENDBRANCH   4   6
ENDBRANCH   3   4
ENDBRANCH   2   3
ENDBRANCH   1   2
BRANCH   1  35
ATOM     35  O   UNL A   1      45.579  21.824  24.456  1.00  0.00    -0.374 OA
BRANCH  35  36
ATOM     36  C   UNL A   1      45.906  22.665  25.564  1.00  0.00     0.202 C 
BRANCH  36  37
ATOM     37  C   UNL A   1      46.542  24.023  25.239  1.00  0.00     0.261 C 
BRANCH  37  38
ATOM     38  O   UNL A   1      45.624  24.937  24.605  1.00  0.00    -0.460 OA
BRANCH  38  39
ATOM     39  C   UNL A   1      45.959  26.243  24.747  1.00  0.00     0.338 C 
ATOM     40  O   UNL A   1      46.926  26.813  24.266  1.00  0.00    -0.246 OA
BRANCH  39  41
ATOM     41  C   UNL A   1      44.918  26.998  25.467  1.00  0.00     0.060 A 
ATOM     42  C   UNL A   1      45.299  28.219  26.039  1.00  0.00     0.016 A 
ATOM     43  C   UNL A   1      43.667  26.445  25.752  1.00  0.00     0.016 A 
ATOM     44  C   UNL A   1      44.471  28.844  26.967  1.00  0.00     0.010 A 
ATOM     45  C   UNL A   1      42.835  27.075  26.688  1.00  0.00     0.010 A 
ATOM     46  C   UNL A   1      43.261  28.245  27.343  1.00  0.00    -0.014 A 
BRANCH  46  47
ATOM     47  C   UNL A   1      42.577  28.745  28.566  1.00  0.00     0.031 A 
ATOM     48  C   UNL A   1      43.351  28.805  29.860  1.00  0.00     0.074 A 
ATOM     49  C   UNL A   1      41.330  29.244  28.510  1.00  0.00     0.049 A 
ATOM     50  N   UNL A   1      42.991  29.279  31.026  1.00  0.00    -0.248 NA
ATOM     51  C   UNL A   1      44.721  28.266  29.831  1.00  0.00     0.031 C 
ATOM     52  C   UNL A   1      40.491  29.289  27.315  1.00  0.00     0.029 A 
ATOM     53  N   UNL A   1      40.559  29.828  29.485  1.00  0.00    -0.354 N 
ATOM     54  C   UNL A   1      44.089  29.111  31.861  1.00  0.00     0.074 A 
ATOM     55  C   UNL A   1      45.113  28.447  31.084  1.00  0.00     0.031 C 
ATOM     56  C   UNL A   1      39.323  29.879  27.624  1.00  0.00     0.029 A 
ATOM     57  C   UNL A   1      39.326  30.237  29.042  1.00  0.00     0.049 A 
ATOM     58  H   UNL A   1      40.862  29.943  30.415  1.00  0.00     0.167 HD
ATOM     59  C   UNL A   1      44.244  29.494  33.151  1.00  0.00     0.037 A 
ATOM     60  C   UNL A   1      38.316  30.831  29.707  1.00  0.00     0.037 A 
ATOM     61  C   UNL A   1      43.232  30.153  33.933  1.00  0.00     0.049 A 
ATOM     62  C   UNL A   1      38.488  31.177  31.165  1.00  0.00     0.074 A 
ATOM     63  C   UNL A   1      43.287  30.558  35.256  1.00  0.00     0.029 A 
ATOM     64  N   UNL A   1      41.977  30.505  33.459  1.00  0.00    -0.354 N 
ATOM     65  N   UNL A   1      39.535  31.024  31.937  1.00  0.00    -0.248 NA
ATOM     66  C   UNL A   1      37.333  31.788  31.840  1.00  0.00     0.031 C 
ATOM     67  C   UNL A   1      42.054  31.127  35.591  1.00  0.00     0.029 A 
ATOM     68  C   UNL A   1      41.245  31.112  34.466  1.00  0.00     0.049 A 
ATOM     69  H   UNL A   1      41.654  30.346  32.542  1.00  0.00     0.167 HD
ATOM     70  C   UNL A   1      39.178  31.548  33.174  1.00  0.00     0.074 A 
ATOM     71  C   UNL A   1      37.823  32.040  33.044  1.00  0.00     0.031 C 
ATOM     72  C   UNL A   1      39.905  31.612  34.317  1.00  0.00     0.037 A 
BRANCH  59  73
ATOM     73  C   UNL A   1      45.564  29.208  33.804  1.00  0.00     0.064 A 
ATOM     74  C   UNL A   1      46.611  30.142  33.771  1.00  0.00     0.173 A 
ATOM     75  C   UNL A   1      45.771  28.012  34.505  1.00  0.00     0.173 A 
ATOM     76  F   UNL A   1      46.466  31.295  33.102  1.00  0.00    -0.203 F 
ATOM     77  C   UNL A   1      47.823  29.879  34.404  1.00  0.00     0.198 A 
ATOM     78  C   UNL A   1      46.977  27.763  35.157  1.00  0.00     0.198 A 
ATOM     79  F   UNL A   1      44.800  27.088  34.567  1.00  0.00    -0.203 F 
ATOM     80  F   UNL A   1      48.822  30.770  34.331  1.00  0.00    -0.200 F 
ATOM     81  C   UNL A   1      48.002  28.695  35.102  1.00  0.00     0.200 A 
ATOM     82  F   UNL A   1      47.145  26.622  35.839  1.00  0.00    -0.200 F 
ATOM     83  F   UNL A   1      49.166  28.448  35.718  1.00  0.00    -0.200 F 
ENDBRANCH  59  73
BRANCH  60  84
ATOM     84  C   UNL A   1      37.040  31.145  29.012  1.00  0.00     0.064 A 
ATOM     85  C   UNL A   1      36.722  32.458  28.636  1.00  0.00     0.173 A 
ATOM     86  C   UNL A   1      36.085  30.149  28.765  1.00  0.00     0.173 A 
ATOM     87  F   UNL A   1      37.591  33.452  28.878  1.00  0.00    -0.203 F 
ATOM     88  C   UNL A   1      35.487  32.768  28.070  1.00  0.00     0.198 A 
ATOM     89  C   UNL A   1      34.862  30.454  28.173  1.00  0.00     0.198 A 
ATOM     90  F   UNL A   1      36.336  28.877  29.111  1.00  0.00    -0.203 F 
ATOM     91  F   UNL A   1      35.184  34.040  27.780  1.00  0.00    -0.200 F 
ATOM     92  C   UNL A   1      34.559  31.764  27.836  1.00  0.00     0.200 A 
ATOM     93  F   UNL A   1      33.971  29.480  27.942  1.00  0.00    -0.200 F 
ATOM     94  F   UNL A   1      33.367  32.063  27.302  1.00  0.00    -0.200 F 
ENDBRANCH  60  84
BRANCH  72  95
ATOM     95  C   UNL A   1      39.263  32.273  35.503  1.00  0.00     0.064 A 
ATOM     96  C   UNL A   1      39.392  33.650  35.735  1.00  0.00     0.173 A 
ATOM     97  C   UNL A   1      38.495  31.523  36.406  1.00  0.00     0.173 A 
ATOM     98  F   UNL A   1      40.128  34.409  34.909  1.00  0.00    -0.203 F 
ATOM     99  C   UNL A   1      38.802  34.246  36.848  1.00  0.00     0.198 A 
ATOM    100  C   UNL A   1      37.883  32.126  37.500  1.00  0.00     0.198 A 
ATOM    101  F   UNL A   1      38.334  30.203  36.223  1.00  0.00    -0.203 F 
ATOM    102  F   UNL A   1      38.984  35.553  37.080  1.00  0.00    -0.200 F 
ATOM    103  C   UNL A   1      38.045  33.485  37.727  1.00  0.00     0.200 A 
ATOM    104  F   UNL A   1      37.141  31.393  38.341  1.00  0.00    -0.200 F 
ATOM    105  F   UNL A   1      37.479  34.061  38.795  1.00  0.00    -0.200 F 
ENDBRANCH  72  95
ENDBRANCH  46  47
ENDBRANCH  39  41
ENDBRANCH  38  39
ENDBRANCH  37  38
ENDBRANCH  36  37
ENDBRANCH  35  36
ENDBRANCH   1  35
TORSDOF 20
ENDMDL
MODEL 2
REMARK VINA RESULT:     -10.1      5.085      6.826
REMARK SMILES COc1ccc(-c2ccc(/C=C3\SC(=S)N([C@H](Cc4ccccc4)C(=O)OCCOCCOC(=O)c4ccc(-c5c6nc(c(-c7c(F)c(F)c(F)c(F)c7F)c7ccc([nH]7)c(-c7c(F)c(F)c(F)c(F)c7F)c7nc(c(-c8c(F)c(F)c(F)c(F)c8F)c8ccc5[nH]8)C=C7)C=C6)cc4)C3=O)o2)cc1
REMARK SMILES IDX 29 1 28 2 27 3 25 4 26 5 17 6 16 7 11 8 12 9 13 10 99 11
REMARK SMILES IDX 14 12 100 13 15 14 10 15 7 16 8 17 101 18 9 19 6 20 3 21
REMARK SMILES IDX 4 22 103 23 5 24 102 25 2 26 1 27 18 28 19 29 20 30 24 31
REMARK SMILES IDX 21 32 23 33 22 34 30 35 31 36 32 37 33 38 34 39 35 40 36 41
REMARK SMILES IDX 37 42 98 43 38 44 97 45 39 46 40 47 41 48 91 49 42 50 96 51
REMARK SMILES IDX 90 52 92 53 43 54 95 55 89 56 88 57 44 59 76 60 56 61 75 62
REMARK SMILES IDX 57 63 60 64 74 65 93 66 58 67 59 68 73 70 94 71 61 72 45 73
REMARK SMILES IDX 46 74 54 75 47 76 48 77 52 78 55 79 49 80 50 81 53 82 51 83
REMARK SMILES IDX 77 84 78 85 86 86 79 87 80 88 84 89 87 90 81 91 82 92 85 93
REMARK SMILES IDX 83 94 62 95 63 96 71 97 64 98 65 99 69 100 72 101 66 102
REMARK SMILES IDX 67 103 70 104 68 105
REMARK H PARENT 92 58 60 69
REMARK Flexibility Score: inf
ROOT
ATOM      1  C   UNL A   1      44.780  22.459  24.113  1.00  0.00     0.202 C 
ENDROOT
BRANCH   1   2
ATOM      2  C   UNL A   1      44.125  22.038  25.430  1.00  0.00     0.261 C 
BRANCH   2   3
ATOM      3  O   UNL A   1      42.699  21.945  25.301  1.00  0.00    -0.462 OA
BRANCH   3   4
ATOM      4  C   UNL A   1      41.982  22.910  25.931  1.00  0.00     0.329 C 
ATOM      5  O   UNL A   1      42.085  24.114  25.712  1.00  0.00    -0.250 OA
BRANCH   4   6
ATOM      6  C   UNL A   1      41.028  22.367  27.009  1.00  0.00     0.206 C 
BRANCH   6   7
ATOM      7  N   UNL A   1      39.644  22.503  26.502  1.00  0.00    -0.278 N 
ATOM      8  C   UNL A   1      36.767  20.776  25.187  1.00  0.00     0.068 C 
ATOM      9  C   UNL A   1      37.649  21.724  25.527  1.00  0.00     0.084 C 
ATOM     10  S   UNL A   1      37.344  23.397  25.771  1.00  0.00    -0.054 SA
ATOM     11  C   UNL A   1      39.070  21.428  25.834  1.00  0.00     0.267 C 
ATOM     12  C   UNL A   1      38.884  23.652  26.567  1.00  0.00     0.149 C 
ATOM     13  O   UNL A   1      39.629  20.393  25.518  1.00  0.00    -0.268 OA
ATOM     14  S   UNL A   1      39.251  25.128  27.244  1.00  0.00    -0.052 S 
BRANCH   8  15
ATOM     15  C   UNL A   1      35.426  21.107  24.856  1.00  0.00     0.128 A 
ATOM     16  C   UNL A   1      33.699  22.249  24.071  1.00  0.00     0.134 A 
ATOM     17  C   UNL A   1      33.198  21.034  24.476  1.00  0.00     0.051 A 
ATOM     18  O   UNL A   1      35.040  22.308  24.304  1.00  0.00    -0.457 OA
ATOM     19  C   UNL A   1      34.293  20.311  24.987  1.00  0.00     0.051 A 
BRANCH  16  20
ATOM     20  C   UNL A   1      33.069  23.430  23.514  1.00  0.00     0.017 A 
ATOM     21  C   UNL A   1      31.767  25.631  22.359  1.00  0.00     0.118 A 
ATOM     22  C   UNL A   1      33.142  25.459  22.188  1.00  0.00     0.047 A 
ATOM     23  C   UNL A   1      31.035  24.690  23.080  1.00  0.00     0.047 A 
ATOM     24  C   UNL A   1      33.796  24.371  22.777  1.00  0.00     0.016 A 
ATOM     25  C   UNL A   1      31.685  23.595  23.653  1.00  0.00     0.016 A 
BRANCH  21  26
ATOM     26  O   UNL A   1      31.211  26.718  21.741  1.00  0.00    -0.497 OA
ATOM     27  C   UNL A   1      30.670  27.681  22.642  1.00  0.00     0.278 C 
ENDBRANCH  21  26
ENDBRANCH  16  20
ENDBRANCH   8  15
ENDBRANCH   6   7
BRANCH   6  28
ATOM     28  C   UNL A   1      41.195  22.866  28.467  1.00  0.00     0.073 C 
BRANCH  28  29
ATOM     29  C   UNL A   1      42.506  23.553  28.859  1.00  0.00    -0.045 A 
ATOM     30  C   UNL A   1      43.667  22.762  28.955  1.00  0.00     0.004 A 
ATOM     31  C   UNL A   1      42.658  24.933  29.065  1.00  0.00     0.004 A 
ATOM     32  C   UNL A   1      44.917  23.331  29.232  1.00  0.00     0.000 A 
ATOM     33  C   UNL A   1      43.908  25.505  29.325  1.00  0.00     0.000 A 
ATOM     34  C   UNL A   1      45.039  24.705  29.406  1.00  0.00     0.000 A 
ENDBRANCH  28  29
ENDBRANCH   6  28
ENDBRANCH   4   6
ENDBRANCH   3   4
ENDBRANCH   2   3
ENDBRANCH   1   2
BRANCH   1  35
ATOM     35  O   UNL A   1      45.280  23.794  24.055  1.00  0.00    -0.374 OA
BRANCH  35  36
ATOM     36  C   UNL A   1      45.659  24.422  25.281  1.00  0.00     0.202 C 
BRANCH  36  37
ATOM     37  C   UNL A   1      45.825  25.948  25.257  1.00  0.00     0.261 C 
BRANCH  37  38
ATOM     38  O   UNL A   1      45.218  26.597  26.392  1.00  0.00    -0.460 OA
BRANCH  38  39
ATOM     39  C   UNL A   1      44.421  27.645  26.067  1.00  0.00     0.338 C 
ATOM     40  O   UNL A   1      43.853  27.837  25.003  1.00  0.00    -0.246 OA
BRANCH  39  41
ATOM     41  C   UNL A   1      44.172  28.522  27.226  1.00  0.00     0.060 A 
ATOM     42  C   UNL A   1      43.185  29.504  27.078  1.00  0.00     0.016 A 
ATOM     43  C   UNL A   1      45.010  28.524  28.343  1.00  0.00     0.016 A 
ATOM     44  C   UNL A   1      43.090  30.543  28.000  1.00  0.00     0.010 A 
ATOM     45  C   UNL A   1      44.914  29.571  29.270  1.00  0.00     0.010 A 
ATOM     46  C   UNL A   1      43.994  30.617  29.069  1.00  0.00    -0.014 A 
BRANCH  46  47
ATOM     47  C   UNL A   1      44.092  31.897  29.822  1.00  0.00     0.031 A 
ATOM     48  C   UNL A   1      45.040  32.961  29.328  1.00  0.00     0.074 A 
ATOM     49  C   UNL A   1      43.275  32.158  30.858  1.00  0.00     0.049 A 
ATOM     50  N   UNL A   1      45.231  34.179  29.771  1.00  0.00    -0.248 NA
ATOM     51  C   UNL A   1      45.878  32.608  28.170  1.00  0.00     0.031 C 
ATOM     52  C   UNL A   1      42.284  31.235  31.405  1.00  0.00     0.029 A 
ATOM     53  N   UNL A   1      43.140  33.290  31.623  1.00  0.00    -0.354 N 
ATOM     54  C   UNL A   1      46.195  34.738  28.941  1.00  0.00     0.074 A 
ATOM     55  C   UNL A   1      46.586  33.714  27.996  1.00  0.00     0.031 C 
ATOM     56  C   UNL A   1      41.633  31.842  32.413  1.00  0.00     0.029 A 
ATOM     57  C   UNL A   1      42.175  33.188  32.593  1.00  0.00     0.049 A 
ATOM     58  H   UNL A   1      43.684  34.100  31.487  1.00  0.00     0.167 HD
ATOM     59  C   UNL A   1      46.694  35.998  28.946  1.00  0.00     0.037 A 
ATOM     60  C   UNL A   1      41.776  34.081  33.521  1.00  0.00     0.037 A 
ATOM     61  C   UNL A   1      46.314  37.022  29.881  1.00  0.00     0.049 A 
ATOM     62  C   UNL A   1      42.406  35.451  33.551  1.00  0.00     0.074 A 
ATOM     63  C   UNL A   1      46.782  38.321  29.980  1.00  0.00     0.029 A 
ATOM     64  N   UNL A   1      45.366  36.861  30.881  1.00  0.00    -0.354 N 
ATOM     65  N   UNL A   1      43.305  35.971  32.753  1.00  0.00    -0.248 NA
ATOM     66  C   UNL A   1      41.952  36.362  34.613  1.00  0.00     0.031 C 
ATOM     67  C   UNL A   1      46.141  38.936  31.061  1.00  0.00     0.029 A 
ATOM     68  C   UNL A   1      45.244  38.034  31.609  1.00  0.00     0.049 A 
ATOM     69  H   UNL A   1      44.856  36.036  31.048  1.00  0.00     0.167 HD
ATOM     70  C   UNL A   1      43.500  37.274  33.194  1.00  0.00     0.074 A 
ATOM     71  C   UNL A   1      42.611  37.472  34.319  1.00  0.00     0.031 C 
ATOM     72  C   UNL A   1      44.343  38.221  32.714  1.00  0.00     0.037 A 
BRANCH  59  73
ATOM     73  C   UNL A   1      47.715  36.340  27.901  1.00  0.00     0.064 A 
ATOM     74  C   UNL A   1      49.054  35.941  28.030  1.00  0.00     0.173 A 
ATOM     75  C   UNL A   1      47.344  37.034  26.740  1.00  0.00     0.173 A 
ATOM     76  F   UNL A   1      49.460  35.288  29.129  1.00  0.00    -0.203 F 
ATOM     77  C   UNL A   1      49.987  36.240  27.042  1.00  0.00     0.198 A 
ATOM     78  C   UNL A   1      48.276  37.309  25.742  1.00  0.00     0.198 A 
ATOM     79  F   UNL A   1      46.076  37.435  26.568  1.00  0.00    -0.203 F 
ATOM     80  F   UNL A   1      51.269  35.880  27.202  1.00  0.00    -0.200 F 
ATOM     81  C   UNL A   1      49.597  36.916  25.897  1.00  0.00     0.200 A 
ATOM     82  F   UNL A   1      47.895  37.955  24.632  1.00  0.00    -0.200 F 
ATOM     83  F   UNL A   1      50.495  37.195  24.942  1.00  0.00    -0.200 F 
ENDBRANCH  59  73
BRANCH  60  84
ATOM     84  C   UNL A   1      40.724  33.721  34.507  1.00  0.00     0.064 A 
ATOM     85  C   UNL A   1      39.371  33.985  34.254  1.00  0.00     0.173 A 
ATOM     86  C   UNL A   1      41.057  33.163  35.750  1.00  0.00     0.173 A 
ATOM     87  F   UNL A   1      39.005  34.546  33.091  1.00  0.00    -0.203 F 
ATOM     88  C   UNL A   1      38.395  33.734  35.216  1.00  0.00     0.198 A 
ATOM     89  C   UNL A   1      40.078  32.885  36.701  1.00  0.00     0.198 A 
ATOM     90  F   UNL A   1      42.338  32.896  36.045  1.00  0.00    -0.203 F 
ATOM     91  F   UNL A   1      37.117  34.056  34.972  1.00  0.00    -0.200 F 
ATOM     92  C   UNL A   1      38.749  33.182  36.439  1.00  0.00     0.200 A 
ATOM     93  F   UNL A   1      40.424  32.345  37.877  1.00  0.00    -0.200 F 
ATOM     94  F   UNL A   1      37.812  32.951  37.368  1.00  0.00    -0.200 F 
ENDBRANCH  60  84
BRANCH  72  95
ATOM     95  C   UNL A   1      44.313  39.568  33.377  1.00  0.00     0.064 A 
ATOM     96  C   UNL A   1      43.462  40.589  32.929  1.00  0.00     0.173 A 
ATOM     97  C   UNL A   1      45.131  39.833  34.486  1.00  0.00     0.173 A 
ATOM     98  F   UNL A   1      42.671  40.390  31.864  1.00  0.00    -0.203 F 
ATOM     99  C   UNL A   1      43.456  41.838  33.547  1.00  0.00     0.198 A 
ATOM    100  C   UNL A   1      45.101  41.072  35.119  1.00  0.00     0.198 A 
ATOM    101  F   UNL A   1      45.956  38.887  34.959  1.00  0.00    -0.203 F 
ATOM    102  F   UNL A   1      42.675  42.815  33.067  1.00  0.00    -0.200 F 
ATOM    103  C   UNL A   1      44.271  42.077  34.643  1.00  0.00     0.200 A 
ATOM    104  F   UNL A   1      45.879  41.298  36.186  1.00  0.00    -0.200 F 
ATOM    105  F   UNL A   1      44.263  43.278  35.235  1.00  0.00    -0.200 F 
ENDBRANCH  72  95
ENDBRANCH  46  47
ENDBRANCH  39  41
ENDBRANCH  38  39
ENDBRANCH  37  38
ENDBRANCH  36  37
ENDBRANCH  35  36
ENDBRANCH   1  35
TORSDOF 20
ENDMDL
MODEL 3
REMARK VINA RESULT:     -10.1      4.382      6.885
REMARK SMILES COc1ccc(-c2ccc(/C=C3\SC(=S)N([C@H](Cc4ccccc4)C(=O)OCCOCCOC(=O)c4ccc(-c5c6nc(c(-c7c(F)c(F)c(F)c(F)c7F)c7ccc([nH]7)c(-c7c(F)c(F)c(F)c(F)c7F)c7nc(c(-c8c(F)c(F)c(F)c(F)c8F)c8ccc5[nH]8)C=C7)C=C6)cc4)C3=O)o2)cc1
REMARK SMILES IDX 29 1 28 2 27 3 25 4 26 5 17 6 16 7 11 8 12 9 13 10 99 11
REMARK SMILES IDX 14 12 100 13 15 14 10 15 7 16 8 17 101 18 9 19 6 20 3 21
REMARK SMILES IDX 4 22 103 23 5 24 102 25 2 26 1 27 18 28 19 29 20 30 24 31
REMARK SMILES IDX 21 32 23 33 22 34 30 35 31 36 32 37 33 38 34 39 35 40 36 41
REMARK SMILES IDX 37 42 98 43 38 44 97 45 39 46 40 47 41 48 91 49 42 50 96 51
REMARK SMILES IDX 90 52 92 53 43 54 95 55 89 56 88 57 44 59 76 60 56 61 75 62
REMARK SMILES IDX 57 63 60 64 74 65 93 66 58 67 59 68 73 70 94 71 61 72 45 73
REMARK SMILES IDX 46 74 54 75 47 76 48 77 52 78 55 79 49 80 50 81 53 82 51 83
REMARK SMILES IDX 77 84 78 85 86 86 79 87 80 88 84 89 87 90 81 91 82 92 85 93
REMARK SMILES IDX 83 94 62 95 63 96 71 97 64 98 65 99 69 100 72 101 66 102
REMARK SMILES IDX 67 103 70 104 68 105
REMARK H PARENT 92 58 60 69
REMARK Flexibility Score: inf
ROOT
ATOM      1  C   UNL A   1      50.373  27.742  23.008  1.00  0.00     0.202 C 
ENDROOT
BRANCH   1   2
ATOM      2  C   UNL A   1      49.444  26.702  23.639  1.00  0.00     0.261 C 
BRANCH   2   3
ATOM      3  O   UNL A   1      48.094  26.856  23.180  1.00  0.00    -0.462 OA
BRANCH   3   4
ATOM      4  C   UNL A   1      47.218  27.379  24.076  1.00  0.00     0.329 C 
ATOM      5  O   UNL A   1      46.417  28.278  23.829  1.00  0.00    -0.250 OA
BRANCH   4   6
ATOM      6  C   UNL A   1      47.338  26.772  25.484  1.00  0.00     0.206 C 
BRANCH   6   7
ATOM      7  N   UNL A   1      46.036  26.156  25.826  1.00  0.00    -0.278 N 
ATOM      8  C   UNL A   1      44.214  23.076  26.248  1.00  0.00     0.068 C 
ATOM      9  C   UNL A   1      44.531  24.366  26.081  1.00  0.00     0.084 C 
ATOM     10  S   UNL A   1      43.591  25.738  26.513  1.00  0.00    -0.054 SA
ATOM     11  C   UNL A   1      45.841  24.809  25.545  1.00  0.00     0.267 C 
ATOM     12  C   UNL A   1      44.949  26.832  26.339  1.00  0.00     0.149 C 
ATOM     13  O   UNL A   1      46.605  24.081  24.938  1.00  0.00    -0.268 OA
ATOM     14  S   UNL A   1      44.799  28.437  26.755  1.00  0.00    -0.052 S 
BRANCH   8  15
ATOM     15  C   UNL A   1      42.931  22.691  26.721  1.00  0.00     0.128 A 
ATOM     16  C   UNL A   1      40.762  22.245  26.719  1.00  0.00     0.134 A 
ATOM     17  C   UNL A   1      41.222  21.888  27.965  1.00  0.00     0.051 A 
ATOM     18  O   UNL A   1      41.782  22.739  25.964  1.00  0.00    -0.457 OA
ATOM     19  C   UNL A   1      42.599  22.184  27.972  1.00  0.00     0.051 A 
BRANCH  16  20
ATOM     20  C   UNL A   1      39.440  22.230  26.124  1.00  0.00     0.017 A 
ATOM     21  C   UNL A   1      36.829  22.227  25.098  1.00  0.00     0.118 A 
ATOM     22  C   UNL A   1      37.621  21.083  25.003  1.00  0.00     0.047 A 
ATOM     23  C   UNL A   1      37.326  23.364  25.731  1.00  0.00     0.047 A 
ATOM     24  C   UNL A   1      38.930  21.087  25.499  1.00  0.00     0.016 A 
ATOM     25  C   UNL A   1      38.626  23.363  26.242  1.00  0.00     0.016 A 
BRANCH  21  26
ATOM     26  O   UNL A   1      35.560  22.130  24.593  1.00  0.00    -0.497 OA
ATOM     27  C   UNL A   1      34.547  22.029  25.591  1.00  0.00     0.278 C 
ENDBRANCH  21  26
ENDBRANCH  16  20
ENDBRANCH   8  15
ENDBRANCH   6   7
BRANCH   6  28
ATOM     28  C   UNL A   1      47.915  27.650  26.624  1.00  0.00     0.073 C 
BRANCH  28  29
ATOM     29  C   UNL A   1      48.874  27.003  27.629  1.00  0.00    -0.045 A 
ATOM     30  C   UNL A   1      48.794  25.611  27.820  1.00  0.00     0.004 A 
ATOM     31  C   UNL A   1      49.880  27.685  28.330  1.00  0.00     0.004 A 
ATOM     32  C   UNL A   1      49.688  24.938  28.665  1.00  0.00     0.000 A 
ATOM     33  C   UNL A   1      50.784  27.013  29.160  1.00  0.00     0.000 A 
ATOM     34  C   UNL A   1      50.691  25.638  29.326  1.00  0.00     0.000 A 
ENDBRANCH  28  29
ENDBRANCH   6  28
ENDBRANCH   4   6
ENDBRANCH   3   4
ENDBRANCH   2   3
ENDBRANCH   1   2
BRANCH   1  35
ATOM     35  O   UNL A   1      50.807  28.801  23.859  1.00  0.00    -0.374 OA
BRANCH  35  36
ATOM     36  C   UNL A   1      52.165  28.788  24.306  1.00  0.00     0.202 C 
BRANCH  36  37
ATOM     37  C   UNL A   1      52.397  28.878  25.820  1.00  0.00     0.261 C 
BRANCH  37  38
ATOM     38  O   UNL A   1      52.364  30.232  26.315  1.00  0.00    -0.460 OA
BRANCH  38  39
ATOM     39  C   UNL A   1      52.062  30.331  27.632  1.00  0.00     0.338 C 
ATOM     40  O   UNL A   1      52.774  30.028  28.578  1.00  0.00    -0.246 OA
BRANCH  39  41
ATOM     41  C   UNL A   1      50.768  31.005  27.847  1.00  0.00     0.060 A 
ATOM     42  C   UNL A   1      50.423  31.310  29.170  1.00  0.00     0.016 A 
ATOM     43  C   UNL A   1      49.833  31.151  26.820  1.00  0.00     0.016 A 
ATOM     44  C   UNL A   1      49.116  31.674  29.484  1.00  0.00     0.010 A 
ATOM     45  C   UNL A   1      48.517  31.517  27.139  1.00  0.00     0.010 A 
ATOM     46  C   UNL A   1      48.140  31.721  28.479  1.00  0.00    -0.014 A 
BRANCH  46  47
ATOM     47  C   UNL A   1      46.710  31.770  28.887  1.00  0.00     0.031 A 
ATOM     48  C   UNL A   1      46.104  30.564  29.562  1.00  0.00     0.074 A 
ATOM     49  C   UNL A   1      45.991  32.900  28.767  1.00  0.00     0.049 A 
ATOM     50  N   UNL A   1      44.910  30.409  30.077  1.00  0.00    -0.248 NA
ATOM     51  C   UNL A   1      46.966  29.377  29.684  1.00  0.00     0.031 C 
ATOM     52  C   UNL A   1      46.471  34.146  28.176  1.00  0.00     0.029 A 
ATOM     53  N   UNL A   1      44.705  33.184  29.155  1.00  0.00    -0.354 N 
ATOM     54  C   UNL A   1      44.883  29.119  30.593  1.00  0.00     0.074 A 
ATOM     55  C   UNL A   1      46.162  28.515  30.289  1.00  0.00     0.031 C 
ATOM     56  C   UNL A   1      45.494  35.068  28.250  1.00  0.00     0.029 A 
ATOM     57  C   UNL A   1      44.317  34.470  28.876  1.00  0.00     0.049 A 
ATOM     58  H   UNL A   1      44.117  32.526  29.593  1.00  0.00     0.167 HD
ATOM     59  C   UNL A   1      43.894  28.498  31.279  1.00  0.00     0.037 A 
ATOM     60  C   UNL A   1      43.142  35.092  29.101  1.00  0.00     0.037 A 
ATOM     61  C   UNL A   1      42.619  29.088  31.585  1.00  0.00     0.049 A 
ATOM     62  C   UNL A   1      42.030  34.349  29.799  1.00  0.00     0.074 A 
ATOM     63  C   UNL A   1      41.544  28.529  32.255  1.00  0.00     0.029 A 
ATOM     64  N   UNL A   1      42.247  30.379  31.241  1.00  0.00    -0.354 N 
ATOM     65  N   UNL A   1      42.023  33.136  30.294  1.00  0.00    -0.248 NA
ATOM     66  C   UNL A   1      40.763  35.073  29.978  1.00  0.00     0.031 C 
ATOM     67  C   UNL A   1      40.510  29.470  32.288  1.00  0.00     0.029 A 
ATOM     68  C   UNL A   1      40.955  30.630  31.674  1.00  0.00     0.049 A 
ATOM     69  H   UNL A   1      42.817  31.022  30.759  1.00  0.00     0.167 HD
ATOM     70  C   UNL A   1      40.770  32.964  30.868  1.00  0.00     0.074 A 
ATOM     71  C   UNL A   1      40.049  34.205  30.677  1.00  0.00     0.031 C 
ATOM     72  C   UNL A   1      40.258  31.875  31.492  1.00  0.00     0.037 A 
BRANCH  59  73
ATOM     73  C   UNL A   1      44.154  27.097  31.750  1.00  0.00     0.064 A 
ATOM     74  C   UNL A   1      44.544  26.832  33.071  1.00  0.00     0.173 A 
ATOM     75  C   UNL A   1      43.968  26.007  30.887  1.00  0.00     0.173 A 
ATOM     76  F   UNL A   1      44.748  27.842  33.930  1.00  0.00    -0.203 F 
ATOM     77  C   UNL A   1      44.755  25.526  33.506  1.00  0.00     0.198 A 
ATOM     78  C   UNL A   1      44.156  24.701  31.333  1.00  0.00     0.198 A 
ATOM     79  F   UNL A   1      43.593  26.208  29.615  1.00  0.00    -0.203 F 
ATOM     80  F   UNL A   1      45.162  25.298  34.763  1.00  0.00    -0.200 F 
ATOM     81  C   UNL A   1      44.554  24.463  32.640  1.00  0.00     0.200 A 
ATOM     82  F   UNL A   1      43.953  23.674  30.497  1.00  0.00    -0.200 F 
ATOM     83  F   UNL A   1      44.749  23.206  33.063  1.00  0.00    -0.200 F 
ENDBRANCH  59  73
BRANCH  60  84
ATOM     84  C   UNL A   1      42.941  36.499  28.665  1.00  0.00     0.064 A 
ATOM     85  C   UNL A   1      42.286  36.799  27.462  1.00  0.00     0.173 A 
ATOM     86  C   UNL A   1      43.453  37.569  29.412  1.00  0.00     0.173 A 
ATOM     87  F   UNL A   1      41.805  35.808  26.697  1.00  0.00    -0.203 F 
ATOM     88  C   UNL A   1      42.180  38.112  27.008  1.00  0.00     0.198 A 
ATOM     89  C   UNL A   1      43.322  38.884  28.972  1.00  0.00     0.198 A 
ATOM     90  F   UNL A   1      44.093  37.336  30.568  1.00  0.00    -0.203 F 
ATOM     91  F   UNL A   1      41.607  38.365  25.823  1.00  0.00    -0.200 F 
ATOM     92  C   UNL A   1      42.696  39.154  27.765  1.00  0.00     0.200 A 
ATOM     93  F   UNL A   1      43.815  39.888  29.710  1.00  0.00    -0.200 F 
ATOM     94  F   UNL A   1      42.604  40.416  27.322  1.00  0.00    -0.200 F 
ENDBRANCH  60  84
BRANCH  72  95
ATOM     95  C   UNL A   1      38.869  31.992  32.051  1.00  0.00     0.064 A 
ATOM     96  C   UNL A   1      37.738  31.689  31.279  1.00  0.00     0.173 A 
ATOM     97  C   UNL A   1      38.669  32.394  33.381  1.00  0.00     0.173 A 
ATOM     98  F   UNL A   1      37.876  31.315  29.998  1.00  0.00    -0.203 F 
ATOM     99  C   UNL A   1      36.456  31.816  31.807  1.00  0.00     0.198 A 
ATOM    100  C   UNL A   1      37.387  32.491  33.914  1.00  0.00     0.198 A 
ATOM    101  F   UNL A   1      39.718  32.687  34.164  1.00  0.00    -0.203 F 
ATOM    102  F   UNL A   1      35.388  31.574  31.034  1.00  0.00    -0.200 F 
ATOM    103  C   UNL A   1      36.281  32.212  33.125  1.00  0.00     0.200 A 
ATOM    104  F   UNL A   1      37.220  32.861  35.191  1.00  0.00    -0.200 F 
ATOM    105  F   UNL A   1      35.047  32.333  33.631  1.00  0.00    -0.200 F 
ENDBRANCH  72  95
ENDBRANCH  46  47
ENDBRANCH  39  41
ENDBRANCH  38  39
ENDBRANCH  37  38
ENDBRANCH  36  37
ENDBRANCH  35  36
ENDBRANCH   1  35
TORSDOF 20
ENDMDL
