MODEL 1
REMARK VINA RESULT:     -11.0      0.000      0.000
REMARK SMILES Cc1ccn2c([C@H]3C[C@@H]3C(=O)OCCOCCOC(=O)c3ccc(-c4c5nc(c(-c6c(F)c(F)c(F)c(F)c6F)c6ccc([nH]6)c(-c6c(F)c(F)c(F)c(F)c6F)c6nc(c(-c7c(F)c(F)c(F)c(F)c7F)c7ccc4[nH]7)C=C6)C=C5)cc3)nnc2c1
REMARK SMILES IDX 16 1 15 2 14 3 13 4 12 5 10 6 11 7 9 8 7 9 8 10 6 11 1 12
REMARK SMILES IDX 2 13 3 14 87 15 4 16 86 17 5 18 85 19 84 20 17 21 18 22
REMARK SMILES IDX 19 23 20 24 21 25 22 26 83 27 23 28 82 29 24 30 25 31 26 32
REMARK SMILES IDX 76 33 27 34 81 35 75 36 77 37 28 38 80 39 74 40 73 41 29 43
REMARK SMILES IDX 61 44 41 45 60 46 42 47 45 48 59 49 78 50 43 51 44 52 58 54
REMARK SMILES IDX 79 55 46 56 30 57 31 58 39 59 32 60 33 61 37 62 40 63 34 64
REMARK SMILES IDX 35 65 38 66 36 67 62 68 63 69 71 70 64 71 65 72 69 73 72 74
REMARK SMILES IDX 66 75 67 76 70 77 68 78 47 79 48 80 56 81 49 82 50 83 54 84
REMARK SMILES IDX 57 85 51 86 52 87 55 88 53 89
REMARK H PARENT 77 42 45 53
REMARK Flexibility Score: inf
ROOT
ATOM      1  C   UNL A   1      42.155  19.988  26.098  1.00  0.00     0.202 C 
ENDROOT
BRANCH   1   2
ATOM      2  O   UNL A   1      42.593  18.925  25.250  1.00  0.00    -0.374 OA
BRANCH   2   3
ATOM      3  C   UNL A   1      43.988  18.674  25.178  1.00  0.00     0.202 C 
BRANCH   3   4
ATOM      4  C   UNL A   1      44.802  19.181  23.984  1.00  0.00     0.261 C 
BRANCH   4   5
ATOM      5  O   UNL A   1      44.669  20.586  23.766  1.00  0.00    -0.463 OA
BRANCH   5   6
ATOM      6  C   UNL A   1      45.454  21.368  24.550  1.00  0.00     0.309 C 
ATOM      7  O   UNL A   1      46.383  20.981  25.255  1.00  0.00    -0.252 OA
BRANCH   6   8
ATOM      8  C   UNL A   1      45.132  22.809  24.446  1.00  0.00     0.110 C 
ATOM      9  C   UNL A   1      44.896  23.643  25.664  1.00  0.00     0.073 C 
ATOM     10  C   UNL A   1      43.735  23.328  24.783  1.00  0.00     0.028 C 
BRANCH   9  11
ATOM     11  C   UNL A   1      45.399  25.051  25.819  1.00  0.00     0.141 A 
ATOM     12  C   UNL A   1      49.490  26.731  29.155  1.00  0.00     0.044 C 
ATOM     13  C   UNL A   1      48.270  26.405  28.351  1.00  0.00    -0.046 A 
ATOM     14  C   UNL A   1      47.327  25.447  28.926  1.00  0.00     0.022 A 
ATOM     15  C   UNL A   1      48.070  26.917  27.114  1.00  0.00     0.053 A 
ATOM     16  C   UNL A   1      46.326  24.982  28.162  1.00  0.00     0.095 A 
ATOM     17  C   UNL A   1      46.964  26.480  26.336  1.00  0.00     0.161 A 
ATOM     18  N   UNL A   1      46.181  25.471  26.867  1.00  0.00    -0.286 N 
ATOM     19  N   UNL A   1      46.535  26.779  25.130  1.00  0.00    -0.130 NA
ATOM     20  N   UNL A   1      45.560  25.861  24.795  1.00  0.00    -0.134 NA
ENDBRANCH   9  11
ENDBRANCH   6   8
ENDBRANCH   5   6
ENDBRANCH   4   5
ENDBRANCH   3   4
ENDBRANCH   2   3
ENDBRANCH   1   2
BRANCH   1  21
ATOM     21  C   UNL A   1      40.723  19.947  26.677  1.00  0.00     0.261 C 
BRANCH  21  22
ATOM     22  O   UNL A   1      40.353  21.187  27.299  1.00  0.00    -0.460 OA
BRANCH  22  23
ATOM     23  C   UNL A   1      39.756  22.086  26.465  1.00  0.00     0.338 C 
ATOM     24  O   UNL A   1      38.742  21.931  25.811  1.00  0.00    -0.246 OA
BRANCH  23  25
ATOM     25  C   UNL A   1      40.308  23.396  26.859  1.00  0.00     0.060 A 
ATOM     26  C   UNL A   1      41.436  23.485  27.681  1.00  0.00     0.016 A 
ATOM     27  C   UNL A   1      39.444  24.491  26.688  1.00  0.00     0.016 A 
ATOM     28  C   UNL A   1      41.648  24.655  28.405  1.00  0.00     0.010 A 
ATOM     29  C   UNL A   1      39.626  25.631  27.461  1.00  0.00     0.010 A 
ATOM     30  C   UNL A   1      40.711  25.702  28.341  1.00  0.00    -0.014 A 
BRANCH  30  31
ATOM     31  C   UNL A   1      41.029  26.978  28.993  1.00  0.00     0.031 A 
ATOM     32  C   UNL A   1      42.287  27.575  28.448  1.00  0.00     0.074 A 
ATOM     33  C   UNL A   1      40.218  27.657  29.835  1.00  0.00     0.049 A 
ATOM     34  N   UNL A   1      43.347  27.943  29.091  1.00  0.00    -0.248 NA
ATOM     35  C   UNL A   1      42.425  27.647  26.980  1.00  0.00     0.031 C 
ATOM     36  C   UNL A   1      38.851  27.324  30.238  1.00  0.00     0.029 A 
ATOM     37  N   UNL A   1      40.413  28.866  30.448  1.00  0.00    -0.354 N 
ATOM     38  C   UNL A   1      44.220  28.439  28.125  1.00  0.00     0.074 A 
ATOM     39  C   UNL A   1      43.673  28.088  26.843  1.00  0.00     0.031 C 
ATOM     40  C   UNL A   1      38.273  28.394  30.832  1.00  0.00     0.029 A 
ATOM     41  C   UNL A   1      39.253  29.458  30.950  1.00  0.00     0.049 A 
ATOM     42  H   UNL A   1      41.301  29.285  30.529  1.00  0.00     0.167 HD
ATOM     43  C   UNL A   1      45.215  29.309  28.436  1.00  0.00     0.037 A 
ATOM     44  C   UNL A   1      39.095  30.744  31.368  1.00  0.00     0.037 A 
ATOM     45  C   UNL A   1      45.550  29.254  29.830  1.00  0.00     0.049 A 
ATOM     46  C   UNL A   1      40.445  31.297  31.619  1.00  0.00     0.074 A 
ATOM     47  C   UNL A   1      46.058  28.280  30.666  1.00  0.00     0.029 A 
ATOM     48  N   UNL A   1      45.038  30.224  30.651  1.00  0.00    -0.354 N 
ATOM     49  N   UNL A   1      41.215  30.925  32.600  1.00  0.00    -0.248 NA
ATOM     50  C   UNL A   1      41.109  31.967  30.513  1.00  0.00     0.031 C 
ATOM     51  C   UNL A   1      45.406  28.487  31.915  1.00  0.00     0.029 A 
ATOM     52  C   UNL A   1      44.583  29.607  31.785  1.00  0.00     0.049 A 
ATOM     53  H   UNL A   1      45.003  31.189  30.460  1.00  0.00     0.167 HD
ATOM     54  C   UNL A   1      42.485  30.906  32.050  1.00  0.00     0.074 A 
ATOM     55  C   UNL A   1      42.371  31.636  30.790  1.00  0.00     0.031 C 
ATOM     56  C   UNL A   1      43.436  30.057  32.533  1.00  0.00     0.037 A 
BRANCH  43  57
ATOM     57  C   UNL A   1      45.615  30.459  27.547  1.00  0.00     0.064 A 
ATOM     58  C   UNL A   1      46.978  30.761  27.377  1.00  0.00     0.173 A 
ATOM     59  C   UNL A   1      44.710  31.449  27.100  1.00  0.00     0.173 A 
ATOM     60  F   UNL A   1      47.924  29.909  27.801  1.00  0.00    -0.203 F 
ATOM     61  C   UNL A   1      47.401  31.984  26.850  1.00  0.00     0.198 A 
ATOM     62  C   UNL A   1      45.134  32.642  26.522  1.00  0.00     0.198 A 
ATOM     63  F   UNL A   1      43.391  31.354  27.307  1.00  0.00    -0.203 F 
ATOM     64  F   UNL A   1      48.708  32.279  26.819  1.00  0.00    -0.200 F 
ATOM     65  C   UNL A   1      46.479  32.924  26.425  1.00  0.00     0.200 A 
ATOM     66  F   UNL A   1      44.223  33.550  26.142  1.00  0.00    -0.200 F 
ATOM     67  F   UNL A   1      46.882  34.119  25.971  1.00  0.00    -0.200 F 
ENDBRANCH  43  57
BRANCH  44  68
ATOM     68  C   UNL A   1      37.914  31.646  31.264  1.00  0.00     0.064 A 
ATOM     69  C   UNL A   1      37.432  32.071  30.009  1.00  0.00     0.173 A 
ATOM     70  C   UNL A   1      37.051  31.849  32.356  1.00  0.00     0.173 A 
ATOM     71  F   UNL A   1      38.168  31.881  28.903  1.00  0.00    -0.203 F 
ATOM     72  C   UNL A   1      36.154  32.622  29.854  1.00  0.00     0.198 A 
ATOM     73  C   UNL A   1      35.778  32.405  32.202  1.00  0.00     0.198 A 
ATOM     74  F   UNL A   1      37.381  31.417  33.581  1.00  0.00    -0.203 F 
ATOM     75  F   UNL A   1      35.704  32.942  28.632  1.00  0.00    -0.200 F 
ATOM     76  C   UNL A   1      35.322  32.774  30.949  1.00  0.00     0.200 A 
ATOM     77  F   UNL A   1      34.968  32.512  33.264  1.00  0.00    -0.200 F 
ATOM     78  F   UNL A   1      34.071  33.232  30.794  1.00  0.00    -0.200 F 
ENDBRANCH  44  68
BRANCH  56  79
ATOM     79  C   UNL A   1      43.159  29.358  33.832  1.00  0.00     0.064 A 
ATOM     80  C   UNL A   1      42.421  28.166  33.946  1.00  0.00     0.173 A 
ATOM     81  C   UNL A   1      43.806  29.830  34.982  1.00  0.00     0.173 A 
ATOM     82  F   UNL A   1      41.847  27.604  32.874  1.00  0.00    -0.203 F 
ATOM     83  C   UNL A   1      42.313  27.499  35.165  1.00  0.00     0.198 A 
ATOM     84  C   UNL A   1      43.729  29.140  36.187  1.00  0.00     0.198 A 
ATOM     85  F   UNL A   1      44.563  30.936  34.919  1.00  0.00    -0.203 F 
ATOM     86  F   UNL A   1      41.599  26.367  35.251  1.00  0.00    -0.200 F 
ATOM     87  C   UNL A   1      42.978  27.980  36.281  1.00  0.00     0.200 A 
ATOM     88  F   UNL A   1      44.413  29.584  37.251  1.00  0.00    -0.200 F 
ATOM     89  F   UNL A   1      42.919  27.311  37.442  1.00  0.00    -0.200 F 
ENDBRANCH  56  79
ENDBRANCH  30  31
ENDBRANCH  23  25
ENDBRANCH  22  23
ENDBRANCH  21  22
ENDBRANCH   1  21
TORSDOF 15
ENDMDL
MODEL 2
REMARK VINA RESULT:     -10.7      4.403     11.209
REMARK SMILES Cc1ccn2c([C@H]3C[C@@H]3C(=O)OCCOCCOC(=O)c3ccc(-c4c5nc(c(-c6c(F)c(F)c(F)c(F)c6F)c6ccc([nH]6)c(-c6c(F)c(F)c(F)c(F)c6F)c6nc(c(-c7c(F)c(F)c(F)c(F)c7F)c7ccc4[nH]7)C=C6)C=C5)cc3)nnc2c1
REMARK SMILES IDX 16 1 15 2 14 3 13 4 12 5 10 6 11 7 9 8 7 9 8 10 6 11 1 12
REMARK SMILES IDX 2 13 3 14 87 15 4 16 86 17 5 18 85 19 84 20 17 21 18 22
REMARK SMILES IDX 19 23 20 24 21 25 22 26 83 27 23 28 82 29 24 30 25 31 26 32
REMARK SMILES IDX 76 33 27 34 81 35 75 36 77 37 28 38 80 39 74 40 73 41 29 43
REMARK SMILES IDX 61 44 41 45 60 46 42 47 45 48 59 49 78 50 43 51 44 52 58 54
REMARK SMILES IDX 79 55 46 56 30 57 31 58 39 59 32 60 33 61 37 62 40 63 34 64
REMARK SMILES IDX 35 65 38 66 36 67 62 68 63 69 71 70 64 71 65 72 69 73 72 74
REMARK SMILES IDX 66 75 67 76 70 77 68 78 47 79 48 80 56 81 49 82 50 83 54 84
REMARK SMILES IDX 57 85 51 86 52 87 55 88 53 89
REMARK H PARENT 77 42 45 53
REMARK Flexibility Score: inf
ROOT
ATOM      1  C   UNL A   1      32.971  34.274  28.923  1.00  0.00     0.202 C 
ENDROOT
BRANCH   1   2
ATOM      2  O   UNL A   1      32.931  35.699  28.844  1.00  0.00    -0.374 OA
BRANCH   2   3
ATOM      3  C   UNL A   1      33.277  36.432  30.009  1.00  0.00     0.202 C 
BRANCH   3   4
ATOM      4  C   UNL A   1      32.580  36.135  31.341  1.00  0.00     0.261 C 
BRANCH   4   5
ATOM      5  O   UNL A   1      33.355  35.308  32.211  1.00  0.00    -0.463 OA
BRANCH   5   6
ATOM      6  C   UNL A   1      34.339  35.951  32.890  1.00  0.00     0.309 C 
ATOM      7  O   UNL A   1      34.346  37.140  33.198  1.00  0.00    -0.252 OA
BRANCH   6   8
ATOM      8  C   UNL A   1      35.441  35.054  33.309  1.00  0.00     0.110 C 
ATOM      9  C   UNL A   1      35.310  33.568  33.221  1.00  0.00     0.073 C 
ATOM     10  C   UNL A   1      35.324  34.202  34.571  1.00  0.00     0.028 C 
BRANCH   9  11
ATOM     11  C   UNL A   1      36.420  32.659  32.774  1.00  0.00     0.141 A 
ATOM     12  C   UNL A   1      41.547  34.193  31.343  1.00  0.00     0.044 C 
ATOM     13  C   UNL A   1      40.149  33.700  31.549  1.00  0.00    -0.046 A 
ATOM     14  C   UNL A   1      39.064  34.536  31.037  1.00  0.00     0.022 A 
ATOM     15  C   UNL A   1      39.884  32.565  32.238  1.00  0.00     0.053 A 
ATOM     16  C   UNL A   1      37.799  34.232  31.366  1.00  0.00     0.095 A 
ATOM     17  C   UNL A   1      38.539  32.205  32.519  1.00  0.00     0.161 A 
ATOM     18  N   UNL A   1      37.555  33.098  32.135  1.00  0.00    -0.286 N 
ATOM     19  N   UNL A   1      37.990  31.197  33.161  1.00  0.00    -0.130 NA
ATOM     20  N   UNL A   1      36.654  31.495  33.341  1.00  0.00    -0.134 NA
ENDBRANCH   9  11
ENDBRANCH   6   8
ENDBRANCH   5   6
ENDBRANCH   4   5
ENDBRANCH   3   4
ENDBRANCH   2   3
ENDBRANCH   1   2
BRANCH   1  21
ATOM     21  C   UNL A   1      33.958  33.498  28.022  1.00  0.00     0.261 C 
BRANCH  21  22
ATOM     22  O   UNL A   1      34.756  32.565  28.767  1.00  0.00    -0.460 OA
BRANCH  22  23
ATOM     23  C   UNL A   1      34.842  31.322  28.213  1.00  0.00     0.338 C 
ATOM     24  O   UNL A   1      34.230  30.893  27.252  1.00  0.00    -0.246 OA
BRANCH  23  25
ATOM     25  C   UNL A   1      36.119  30.771  28.709  1.00  0.00     0.060 A 
ATOM     26  C   UNL A   1      37.176  31.614  29.064  1.00  0.00     0.016 A 
ATOM     27  C   UNL A   1      36.331  29.408  28.443  1.00  0.00     0.016 A 
ATOM     28  C   UNL A   1      38.470  31.101  29.067  1.00  0.00     0.010 A 
ATOM     29  C   UNL A   1      37.630  28.919  28.385  1.00  0.00     0.010 A 
ATOM     30  C   UNL A   1      38.701  29.772  28.669  1.00  0.00    -0.014 A 
BRANCH  30  31
ATOM     31  C   UNL A   1      40.050  29.212  28.822  1.00  0.00     0.031 A 
ATOM     32  C   UNL A   1      40.418  29.049  30.261  1.00  0.00     0.074 A 
ATOM     33  C   UNL A   1      40.812  28.710  27.824  1.00  0.00     0.049 A 
ATOM     34  N   UNL A   1      41.450  29.515  30.885  1.00  0.00    -0.248 NA
ATOM     35  C   UNL A   1      39.434  28.391  31.144  1.00  0.00     0.031 C 
ATOM     36  C   UNL A   1      40.465  28.555  26.411  1.00  0.00     0.029 A 
ATOM     37  N   UNL A   1      42.052  28.130  27.882  1.00  0.00    -0.354 N 
ATOM     38  C   UNL A   1      41.325  29.074  32.201  1.00  0.00     0.074 A 
ATOM     39  C   UNL A   1      40.003  28.529  32.339  1.00  0.00     0.031 C 
ATOM     40  C   UNL A   1      41.358  27.738  25.804  1.00  0.00     0.029 A 
ATOM     41  C   UNL A   1      42.402  27.391  26.751  1.00  0.00     0.049 A 
ATOM     42  H   UNL A   1      42.649  28.227  28.659  1.00  0.00     0.167 HD
ATOM     43  C   UNL A   1      42.398  28.970  33.027  1.00  0.00     0.037 A 
ATOM     44  C   UNL A   1      43.432  26.509  26.626  1.00  0.00     0.037 A 
ATOM     45  C   UNL A   1      43.489  29.788  32.583  1.00  0.00     0.049 A 
ATOM     46  C   UNL A   1      44.383  26.780  27.727  1.00  0.00     0.074 A 
ATOM     47  C   UNL A   1      43.676  31.146  32.412  1.00  0.00     0.029 A 
ATOM     48  N   UNL A   1      44.509  29.180  31.898  1.00  0.00    -0.354 N 
ATOM     49  N   UNL A   1      45.123  27.849  27.805  1.00  0.00    -0.248 NA
ATOM     50  C   UNL A   1      44.194  26.049  28.969  1.00  0.00     0.031 C 
ATOM     51  C   UNL A   1      44.502  31.264  31.258  1.00  0.00     0.029 A 
ATOM     52  C   UNL A   1      44.818  29.975  30.827  1.00  0.00     0.049 A 
ATOM     53  H   UNL A   1      44.941  28.328  32.134  1.00  0.00     0.167 HD
ATOM     54  C   UNL A   1      45.119  28.168  29.152  1.00  0.00     0.074 A 
ATOM     55  C   UNL A   1      44.603  26.982  29.830  1.00  0.00     0.031 C 
ATOM     56  C   UNL A   1      45.265  29.462  29.557  1.00  0.00     0.037 A 
BRANCH  43  57
ATOM     57  C   UNL A   1      42.572  27.848  34.019  1.00  0.00     0.064 A 
ATOM     58  C   UNL A   1      43.115  26.623  33.590  1.00  0.00     0.173 A 
ATOM     59  C   UNL A   1      41.958  27.831  35.292  1.00  0.00     0.173 A 
ATOM     60  F   UNL A   1      43.687  26.516  32.381  1.00  0.00    -0.203 F 
ATOM     61  C   UNL A   1      42.999  25.459  34.354  1.00  0.00     0.198 A 
ATOM     62  C   UNL A   1      41.896  26.683  36.076  1.00  0.00     0.198 A 
ATOM     63  F   UNL A   1      41.296  28.888  35.777  1.00  0.00    -0.203 F 
ATOM     64  F   UNL A   1      43.422  24.290  33.854  1.00  0.00    -0.200 F 
ATOM     65  C   UNL A   1      42.390  25.489  35.596  1.00  0.00     0.200 A 
ATOM     66  F   UNL A   1      41.277  26.730  37.264  1.00  0.00    -0.200 F 
ATOM     67  F   UNL A   1      42.229  24.365  36.305  1.00  0.00    -0.200 F 
ENDBRANCH  43  57
BRANCH  44  68
ATOM     68  C   UNL A   1      43.520  25.244  25.842  1.00  0.00     0.064 A 
ATOM     69  C   UNL A   1      44.669  24.937  25.085  1.00  0.00     0.173 A 
ATOM     70  C   UNL A   1      42.630  24.179  26.071  1.00  0.00     0.173 A 
ATOM     71  F   UNL A   1      45.595  25.879  24.852  1.00  0.00    -0.203 F 
ATOM     72  C   UNL A   1      44.928  23.640  24.626  1.00  0.00     0.198 A 
ATOM     73  C   UNL A   1      42.886  22.886  25.606  1.00  0.00     0.198 A 
ATOM     74  F   UNL A   1      41.544  24.345  26.839  1.00  0.00    -0.203 F 
ATOM     75  F   UNL A   1      46.070  23.373  23.976  1.00  0.00    -0.200 F 
ATOM     76  C   UNL A   1      44.043  22.612  24.900  1.00  0.00     0.200 A 
ATOM     77  F   UNL A   1      42.040  21.892  25.912  1.00  0.00    -0.200 F 
ATOM     78  F   UNL A   1      44.324  21.355  24.527  1.00  0.00    -0.200 F 
ENDBRANCH  44  68
BRANCH  56  79
ATOM     79  C   UNL A   1      45.702  30.472  28.536  1.00  0.00     0.064 A 
ATOM     80  C   UNL A   1      44.827  31.134  27.656  1.00  0.00     0.173 A 
ATOM     81  C   UNL A   1      47.036  30.900  28.565  1.00  0.00     0.173 A 
ATOM     82  F   UNL A   1      43.520  30.844  27.632  1.00  0.00    -0.203 F 
ATOM     83  C   UNL A   1      45.280  32.157  26.824  1.00  0.00     0.198 A 
ATOM     84  C   UNL A   1      47.475  31.947  27.762  1.00  0.00     0.198 A 
ATOM     85  F   UNL A   1      47.902  30.335  29.420  1.00  0.00    -0.203 F 
ATOM     86  F   UNL A   1      44.430  32.771  25.989  1.00  0.00    -0.200 F 
ATOM     87  C   UNL A   1      46.602  32.571  26.888  1.00  0.00     0.200 A 
ATOM     88  F   UNL A   1      48.742  32.374  27.863  1.00  0.00    -0.200 F 
ATOM     89  F   UNL A   1      47.027  33.589  26.126  1.00  0.00    -0.200 F 
ENDBRANCH  56  79
ENDBRANCH  30  31
ENDBRANCH  23  25
ENDBRANCH  22  23
ENDBRANCH  21  22
ENDBRANCH   1  21
TORSDOF 15
ENDMDL
MODEL 3
REMARK VINA RESULT:     -10.6      4.402     11.246
REMARK SMILES Cc1ccn2c([C@H]3C[C@@H]3C(=O)OCCOCCOC(=O)c3ccc(-c4c5nc(c(-c6c(F)c(F)c(F)c(F)c6F)c6ccc([nH]6)c(-c6c(F)c(F)c(F)c(F)c6F)c6nc(c(-c7c(F)c(F)c(F)c(F)c7F)c7ccc4[nH]7)C=C6)C=C5)cc3)nnc2c1
REMARK SMILES IDX 16 1 15 2 14 3 13 4 12 5 10 6 11 7 9 8 7 9 8 10 6 11 1 12
REMARK SMILES IDX 2 13 3 14 87 15 4 16 86 17 5 18 85 19 84 20 17 21 18 22
REMARK SMILES IDX 19 23 20 24 21 25 22 26 83 27 23 28 82 29 24 30 25 31 26 32
REMARK SMILES IDX 76 33 27 34 81 35 75 36 77 37 28 38 80 39 74 40 73 41 29 43
REMARK SMILES IDX 61 44 41 45 60 46 42 47 45 48 59 49 78 50 43 51 44 52 58 54
REMARK SMILES IDX 79 55 46 56 30 57 31 58 39 59 32 60 33 61 37 62 40 63 34 64
REMARK SMILES IDX 35 65 38 66 36 67 62 68 63 69 71 70 64 71 65 72 69 73 72 74
REMARK SMILES IDX 66 75 67 76 70 77 68 78 47 79 48 80 56 81 49 82 50 83 54 84
REMARK SMILES IDX 57 85 51 86 52 87 55 88 53 89
REMARK H PARENT 77 42 45 53
REMARK Flexibility Score: inf
ROOT
ATOM      1  C   UNL A   1      33.140  34.203  28.562  1.00  0.00     0.202 C 
ENDROOT
BRANCH   1   2
ATOM      2  O   UNL A   1      32.737  35.569  28.672  1.00  0.00    -0.374 OA
BRANCH   2   3
ATOM      3  C   UNL A   1      33.255  36.320  29.760  1.00  0.00     0.202 C 
BRANCH   3   4
ATOM      4  C   UNL A   1      32.746  36.066  31.183  1.00  0.00     0.261 C 
BRANCH   4   5
ATOM      5  O   UNL A   1      33.595  35.201  31.940  1.00  0.00    -0.463 OA
BRANCH   5   6
ATOM      6  C   UNL A   1      34.455  35.830  32.780  1.00  0.00     0.309 C 
ATOM      7  O   UNL A   1      34.348  36.981  33.195  1.00  0.00    -0.252 OA
BRANCH   6   8
ATOM      8  C   UNL A   1      35.566  34.962  33.233  1.00  0.00     0.110 C 
ATOM      9  C   UNL A   1      35.448  33.472  33.214  1.00  0.00     0.073 C 
ATOM     10  C   UNL A   1      35.462  34.168  34.534  1.00  0.00     0.028 C 
BRANCH   9  11
ATOM     11  C   UNL A   1      36.564  32.554  32.803  1.00  0.00     0.141 A 
ATOM     12  C   UNL A   1      41.960  33.797  32.659  1.00  0.00     0.044 C 
ATOM     13  C   UNL A   1      40.520  33.419  32.506  1.00  0.00    -0.046 A 
ATOM     14  C   UNL A   1      39.613  34.439  31.982  1.00  0.00     0.022 A 
ATOM     15  C   UNL A   1      40.052  32.209  32.895  1.00  0.00     0.053 A 
ATOM     16  C   UNL A   1      38.291  34.210  32.010  1.00  0.00     0.095 A 
ATOM     17  C   UNL A   1      38.657  31.942  32.850  1.00  0.00     0.161 A 
ATOM     18  N   UNL A   1      37.828  32.985  32.480  1.00  0.00    -0.286 N 
ATOM     19  N   UNL A   1      37.929  30.894  33.169  1.00  0.00    -0.130 NA
ATOM     20  N   UNL A   1      36.606  31.288  33.160  1.00  0.00    -0.134 NA
ENDBRANCH   9  11
ENDBRANCH   6   8
ENDBRANCH   5   6
ENDBRANCH   4   5
ENDBRANCH   3   4
ENDBRANCH   2   3
ENDBRANCH   1   2
BRANCH   1  21
ATOM     21  C   UNL A   1      34.570  33.877  28.078  1.00  0.00     0.261 C 
BRANCH  21  22
ATOM     22  O   UNL A   1      35.194  32.856  28.872  1.00  0.00    -0.460 OA
BRANCH  22  23
ATOM     23  C   UNL A   1      35.187  31.614  28.309  1.00  0.00     0.338 C 
ATOM     24  O   UNL A   1      34.551  31.242  27.340  1.00  0.00    -0.246 OA
BRANCH  23  25
ATOM     25  C   UNL A   1      36.412  30.961  28.810  1.00  0.00     0.060 A 
ATOM     26  C   UNL A   1      37.488  31.718  29.283  1.00  0.00     0.016 A 
ATOM     27  C   UNL A   1      36.574  29.617  28.435  1.00  0.00     0.016 A 
ATOM     28  C   UNL A   1      38.756  31.143  29.297  1.00  0.00     0.010 A 
ATOM     29  C   UNL A   1      37.851  29.071  28.392  1.00  0.00     0.010 A 
ATOM     30  C   UNL A   1      38.945  29.843  28.795  1.00  0.00    -0.014 A 
BRANCH  30  31
ATOM     31  C   UNL A   1      40.258  29.206  28.957  1.00  0.00     0.031 A 
ATOM     32  C   UNL A   1      40.549  28.903  30.391  1.00  0.00     0.074 A 
ATOM     33  C   UNL A   1      41.044  28.754  27.953  1.00  0.00     0.049 A 
ATOM     34  N   UNL A   1      41.570  29.262  31.099  1.00  0.00    -0.248 NA
ATOM     35  C   UNL A   1      39.496  28.221  31.170  1.00  0.00     0.031 C 
ATOM     36  C   UNL A   1      40.758  28.738  26.518  1.00  0.00     0.029 A 
ATOM     37  N   UNL A   1      42.252  28.111  28.015  1.00  0.00    -0.354 N 
ATOM     38  C   UNL A   1      41.363  28.716  32.364  1.00  0.00     0.074 A 
ATOM     39  C   UNL A   1      40.012  28.228  32.395  1.00  0.00     0.031 C 
ATOM     40  C   UNL A   1      41.642  27.933  25.882  1.00  0.00     0.029 A 
ATOM     41  C   UNL A   1      42.622  27.455  26.840  1.00  0.00     0.049 A 
ATOM     42  H   UNL A   1      42.815  28.112  28.822  1.00  0.00     0.167 HD
ATOM     43  C   UNL A   1      42.389  28.489  33.224  1.00  0.00     0.037 A 
ATOM     44  C   UNL A   1      43.616  26.537  26.683  1.00  0.00     0.037 A 
ATOM     45  C   UNL A   1      43.537  29.288  32.901  1.00  0.00     0.049 A 
ATOM     46  C   UNL A   1      44.525  26.666  27.844  1.00  0.00     0.074 A 
ATOM     47  C   UNL A   1      43.792  30.644  32.859  1.00  0.00     0.029 A 
ATOM     48  N   UNL A   1      44.560  28.691  32.211  1.00  0.00    -0.354 N 
ATOM     49  N   UNL A   1      45.307  27.686  28.048  1.00  0.00    -0.248 NA
ATOM     50  C   UNL A   1      44.244  25.842  29.007  1.00  0.00     0.031 C 
ATOM     51  C   UNL A   1      44.677  30.820  31.757  1.00  0.00     0.029 A 
ATOM     52  C   UNL A   1      44.955  29.559  31.228  1.00  0.00     0.049 A 
ATOM     53  H   UNL A   1      44.940  27.801  32.390  1.00  0.00     0.167 HD
ATOM     54  C   UNL A   1      45.254  27.890  29.416  1.00  0.00     0.074 A 
ATOM     55  C   UNL A   1      44.653  26.676  29.964  1.00  0.00     0.031 C 
ATOM     56  C   UNL A   1      45.439  29.135  29.939  1.00  0.00     0.037 A 
BRANCH  43  57
ATOM     57  C   UNL A   1      42.465  27.279  34.120  1.00  0.00     0.064 A 
ATOM     58  C   UNL A   1      42.026  27.376  35.453  1.00  0.00     0.173 A 
ATOM     59  C   UNL A   1      43.220  26.126  33.808  1.00  0.00     0.173 A 
ATOM     60  F   UNL A   1      41.334  28.448  35.867  1.00  0.00    -0.203 F 
ATOM     61  C   UNL A   1      42.366  26.417  36.411  1.00  0.00     0.198 A 
ATOM     62  C   UNL A   1      43.508  25.144  34.751  1.00  0.00     0.198 A 
ATOM     63  F   UNL A   1      43.805  25.958  32.615  1.00  0.00    -0.203 F 
ATOM     64  F   UNL A   1      42.030  26.610  37.694  1.00  0.00    -0.200 F 
ATOM     65  C   UNL A   1      43.107  25.303  36.060  1.00  0.00     0.200 A 
ATOM     66  F   UNL A   1      44.251  24.086  34.395  1.00  0.00    -0.200 F 
ATOM     67  F   UNL A   1      43.481  24.412  36.987  1.00  0.00    -0.200 F 
ENDBRANCH  43  57
BRANCH  44  68
ATOM     68  C   UNL A   1      43.684  25.342  25.796  1.00  0.00     0.064 A 
ATOM     69  C   UNL A   1      44.862  25.029  25.087  1.00  0.00     0.173 A 
ATOM     70  C   UNL A   1      42.720  24.319  25.871  1.00  0.00     0.173 A 
ATOM     71  F   UNL A   1      45.855  25.926  24.998  1.00  0.00    -0.203 F 
ATOM     72  C   UNL A   1      45.076  23.762  24.531  1.00  0.00     0.198 A 
ATOM     73  C   UNL A   1      42.932  23.057  25.310  1.00  0.00     0.198 A 
ATOM     74  F   UNL A   1      41.596  24.487  26.582  1.00  0.00    -0.203 F 
ATOM     75  F   UNL A   1      46.243  23.480  23.931  1.00  0.00    -0.200 F 
ATOM     76  C   UNL A   1      44.118  22.772  24.656  1.00  0.00     0.200 A 
ATOM     77  F   UNL A   1      42.012  22.097  25.471  1.00  0.00    -0.200 F 
ATOM     78  F   UNL A   1      44.350  21.537  24.189  1.00  0.00    -0.200 F 
ENDBRANCH  44  68
BRANCH  56  79
ATOM     79  C   UNL A   1      45.969  30.206  29.031  1.00  0.00     0.064 A 
ATOM     80  C   UNL A   1      47.336  30.423  28.781  1.00  0.00     0.173 A 
ATOM     81  C   UNL A   1      45.048  30.931  28.263  1.00  0.00     0.173 A 
ATOM     82  F   UNL A   1      48.277  29.705  29.410  1.00  0.00    -0.203 F 
ATOM     83  C   UNL A   1      47.756  31.347  27.825  1.00  0.00     0.198 A 
ATOM     84  C   UNL A   1      45.471  31.823  27.283  1.00  0.00     0.198 A 
ATOM     85  F   UNL A   1      43.732  30.729  28.427  1.00  0.00    -0.203 F 
ATOM     86  F   UNL A   1      49.065  31.541  27.606  1.00  0.00    -0.200 F 
ATOM     87  C   UNL A   1      46.822  32.037  27.069  1.00  0.00     0.200 A 
ATOM     88  F   UNL A   1      44.563  32.452  26.523  1.00  0.00    -0.200 F 
ATOM     89  F   UNL A   1      47.224  32.888  26.113  1.00  0.00    -0.200 F 
ENDBRANCH  56  79
ENDBRANCH  30  31
ENDBRANCH  23  25
ENDBRANCH  22  23
ENDBRANCH  21  22
ENDBRANCH   1  21
TORSDOF 15
ENDMDL
