MODEL 1
REMARK VINA RESULT:     -12.8      0.000      0.000
REMARK SMILES O=C(OCCOCCOC(=O)[C@]1(NC(=O)C2CCN(C(=O)C3CC3)CC2)CCCc2ccccc21)c1ccc(-c2c3nc(c(-c4c(F)c(F)c(F)c(F)c4F)c4ccc([nH]4)c(-c4c(F)c(F)c(F)c(F)c4F)c4nc(c(-c5c(F)c(F)c(F)c(F)c5F)c5ccc2[nH]5)C=C4)C=C3)cc1
REMARK SMILES IDX 7 1 6 2 5 3 4 4 3 5 2 6 1 7 36 8 37 9 98 10 38 11 97 12
REMARK SMILES IDX 39 13 40 14 41 15 91 16 42 17 96 18 90 19 92 20 43 21 95 22
REMARK SMILES IDX 89 23 88 24 44 26 76 27 56 28 75 29 57 30 60 31 74 32 93 33
REMARK SMILES IDX 58 34 59 35 73 37 94 38 61 39 45 40 46 41 54 42 47 43 48 44
REMARK SMILES IDX 52 45 55 46 49 47 50 48 53 49 51 50 77 51 78 52 86 53 79 54
REMARK SMILES IDX 80 55 84 56 87 57 81 58 82 59 85 60 83 61 62 62 63 63 71 64
REMARK SMILES IDX 64 65 65 66 69 67 72 68 66 69 67 70 70 71 68 72 8 73 9 74
REMARK SMILES IDX 10 75 11 76 12 77 27 78 35 79 28 80 30 81 34 82 29 83 31 84
REMARK SMILES IDX 33 85 32 86 13 87 14 88 15 90 16 91 17 92 26 93 18 94 25 95
REMARK SMILES IDX 19 96 20 97 21 98 22 99 23 100 24 101
REMARK H PARENT 92 25 60 36 13 89
REMARK Flexibility Score: inf
ROOT
ATOM      1  C   UNL A   1      32.870  29.563  27.082  1.00  0.00     0.202 C 
ENDROOT
BRANCH   1   2
ATOM      2  O   UNL A   1      32.204  30.457  26.211  1.00  0.00    -0.374 OA
BRANCH   2   3
ATOM      3  C   UNL A   1      31.692  31.668  26.732  1.00  0.00     0.202 C 
BRANCH   3   4
ATOM      4  C   UNL A   1      32.810  32.501  27.346  1.00  0.00     0.261 C 
BRANCH   4   5
ATOM      5  O   UNL A   1      32.320  33.792  27.762  1.00  0.00    -0.460 OA
BRANCH   5   6
ATOM      6  C   UNL A   1      33.004  34.632  28.586  1.00  0.00     0.338 C 
ATOM      7  O   UNL A   1      32.557  35.744  28.867  1.00  0.00    -0.246 OA
BRANCH   6   8
ATOM      8  C   UNL A   1      34.222  34.159  29.281  1.00  0.00     0.060 A 
ATOM      9  C   UNL A   1      35.515  34.466  28.855  1.00  0.00     0.016 A 
ATOM     10  C   UNL A   1      34.052  33.437  30.463  1.00  0.00     0.016 A 
ATOM     11  C   UNL A   1      36.620  33.918  29.475  1.00  0.00     0.010 A 
ATOM     12  C   UNL A   1      35.171  32.999  31.172  1.00  0.00     0.010 A 
ATOM     13  C   UNL A   1      36.462  33.214  30.661  1.00  0.00    -0.014 A 
BRANCH  13  14
ATOM     14  C   UNL A   1      37.658  32.656  31.320  1.00  0.00     0.031 A 
ATOM     15  C   UNL A   1      38.442  31.615  30.590  1.00  0.00     0.074 A 
ATOM     16  C   UNL A   1      38.055  33.130  32.516  1.00  0.00     0.049 A 
ATOM     17  N   UNL A   1      39.363  30.806  31.034  1.00  0.00    -0.248 NA
ATOM     18  C   UNL A   1      38.128  31.448  29.160  1.00  0.00     0.031 C 
ATOM     19  C   UNL A   1      37.424  34.235  33.244  1.00  0.00     0.029 A 
ATOM     20  N   UNL A   1      39.095  32.758  33.324  1.00  0.00    -0.354 N 
ATOM     21  C   UNL A   1      39.676  29.979  29.964  1.00  0.00     0.074 A 
ATOM     22  C   UNL A   1      38.858  30.390  28.846  1.00  0.00     0.031 C 
ATOM     23  C   UNL A   1      38.116  34.481  34.366  1.00  0.00     0.029 A 
ATOM     24  C   UNL A   1      39.156  33.471  34.498  1.00  0.00     0.049 A 
ATOM     25  H   UNL A   1      39.736  32.049  33.089  1.00  0.00     0.167 HD
ATOM     26  C   UNL A   1      40.560  28.956  29.946  1.00  0.00     0.037 A 
ATOM     27  C   UNL A   1      39.926  33.277  35.583  1.00  0.00     0.037 A 
ATOM     28  C   UNL A   1      41.376  28.616  31.081  1.00  0.00     0.049 A 
ATOM     29  C   UNL A   1      40.859  32.099  35.563  1.00  0.00     0.074 A 
ATOM     30  C   UNL A   1      42.280  27.582  31.227  1.00  0.00     0.029 A 
ATOM     31  N   UNL A   1      41.385  29.333  32.274  1.00  0.00    -0.354 N 
ATOM     32  N   UNL A   1      41.082  31.238  34.596  1.00  0.00    -0.248 NA
ATOM     33  C   UNL A   1      41.622  31.841  36.789  1.00  0.00     0.031 C 
ATOM     34  C   UNL A   1      42.806  27.651  32.523  1.00  0.00     0.029 A 
ATOM     35  C   UNL A   1      42.272  28.760  33.167  1.00  0.00     0.049 A 
ATOM     36  H   UNL A   1      40.840  30.132  32.455  1.00  0.00     0.167 HD
ATOM     37  C   UNL A   1      42.016  30.342  35.088  1.00  0.00     0.074 A 
ATOM     38  C   UNL A   1      42.335  30.781  36.435  1.00  0.00     0.031 C 
ATOM     39  C   UNL A   1      42.558  29.249  34.494  1.00  0.00     0.037 A 
BRANCH  26  40
ATOM     40  C   UNL A   1      40.601  28.111  28.706  1.00  0.00     0.064 A 
ATOM     41  C   UNL A   1      39.889  26.906  28.593  1.00  0.00     0.173 A 
ATOM     42  C   UNL A   1      41.429  28.481  27.633  1.00  0.00     0.173 A 
ATOM     43  F   UNL A   1      39.107  26.487  29.600  1.00  0.00    -0.203 F 
ATOM     44  C   UNL A   1      40.045  26.081  27.480  1.00  0.00     0.198 A 
ATOM     45  C   UNL A   1      41.555  27.670  26.508  1.00  0.00     0.198 A 
ATOM     46  F   UNL A   1      42.136  29.618  27.687  1.00  0.00    -0.203 F 
ATOM     47  F   UNL A   1      39.422  24.895  27.436  1.00  0.00    -0.200 F 
ATOM     48  C   UNL A   1      40.877  26.464  26.439  1.00  0.00     0.200 A 
ATOM     49  F   UNL A   1      42.357  28.045  25.501  1.00  0.00    -0.200 F 
ATOM     50  F   UNL A   1      41.039  25.661  25.379  1.00  0.00    -0.200 F 
ENDBRANCH  26  40
BRANCH  27  51
ATOM     51  C   UNL A   1      39.791  34.163  36.773  1.00  0.00     0.064 A 
ATOM     52  C   UNL A   1      38.972  33.803  37.851  1.00  0.00     0.173 A 
ATOM     53  C   UNL A   1      40.489  35.377  36.869  1.00  0.00     0.173 A 
ATOM     54  F   UNL A   1      38.267  32.663  37.806  1.00  0.00    -0.203 F 
ATOM     55  C   UNL A   1      38.851  34.625  38.972  1.00  0.00     0.198 A 
ATOM     56  C   UNL A   1      40.395  36.181  38.003  1.00  0.00     0.198 A 
ATOM     57  F   UNL A   1      41.289  35.776  35.868  1.00  0.00    -0.203 F 
ATOM     58  F   UNL A   1      38.031  34.272  39.972  1.00  0.00    -0.200 F 
ATOM     59  C   UNL A   1      39.569  35.808  39.051  1.00  0.00     0.200 A 
ATOM     60  F   UNL A   1      41.108  37.313  38.082  1.00  0.00    -0.200 F 
ATOM     61  F   UNL A   1      39.462  36.590  40.134  1.00  0.00    -0.200 F 
ENDBRANCH  27  51
BRANCH  39  62
ATOM     62  C   UNL A   1      43.578  28.494  35.289  1.00  0.00     0.064 A 
ATOM     63  C   UNL A   1      43.210  27.474  36.176  1.00  0.00     0.173 A 
ATOM     64  C   UNL A   1      44.942  28.769  35.120  1.00  0.00     0.173 A 
ATOM     65  F   UNL A   1      41.915  27.191  36.382  1.00  0.00    -0.203 F 
ATOM     66  C   UNL A   1      44.176  26.767  36.884  1.00  0.00     0.198 A 
ATOM     67  C   UNL A   1      45.906  28.038  35.804  1.00  0.00     0.198 A 
ATOM     68  F   UNL A   1      45.339  29.734  34.277  1.00  0.00    -0.203 F 
ATOM     69  F   UNL A   1      43.804  25.826  37.763  1.00  0.00    -0.200 F 
ATOM     70  C   UNL A   1      45.522  27.042  36.691  1.00  0.00     0.200 A 
ATOM     71  F   UNL A   1      47.206  28.296  35.606  1.00  0.00    -0.200 F 
ATOM     72  F   UNL A   1      46.452  26.352  37.365  1.00  0.00    -0.200 F 
ENDBRANCH  39  62
ENDBRANCH  13  14
ENDBRANCH   6   8
ENDBRANCH   5   6
ENDBRANCH   4   5
ENDBRANCH   3   4
ENDBRANCH   2   3
ENDBRANCH   1   2
BRANCH   1  73
ATOM     73  C   UNL A   1      34.145  29.125  26.378  1.00  0.00     0.261 C 
BRANCH  73  74
ATOM     74  O   UNL A   1      34.024  27.760  25.950  1.00  0.00    -0.461 OA
BRANCH  74  75
ATOM     75  C   UNL A   1      33.730  27.565  24.633  1.00  0.00     0.336 C 
ATOM     76  O   UNL A   1      33.473  28.453  23.821  1.00  0.00    -0.249 OA
BRANCH  75  77
ATOM     77  C   UNL A   1      33.592  26.064  24.291  1.00  0.00     0.164 C 
ATOM     78  C   UNL A   1      34.032  25.692  22.853  1.00  0.00     0.046 C 
ATOM     79  C   UNL A   1      32.074  25.776  24.486  1.00  0.00    -0.008 A 
ATOM     80  C   UNL A   1      33.073  26.190  21.770  1.00  0.00     0.008 C 
ATOM     81  C   UNL A   1      31.188  25.785  23.383  1.00  0.00    -0.042 A 
ATOM     82  C   UNL A   1      31.514  25.812  25.780  1.00  0.00     0.007 A 
ATOM     83  C   UNL A   1      31.680  25.616  21.970  1.00  0.00     0.036 C 
ATOM     84  C   UNL A   1      29.803  25.923  23.590  1.00  0.00     0.004 A 
ATOM     85  C   UNL A   1      30.136  25.960  25.970  1.00  0.00     0.000 A 
ATOM     86  C   UNL A   1      29.284  26.045  24.875  1.00  0.00     0.000 A 
BRANCH  77  87
ATOM     87  N   UNL A   1      34.455  25.294  25.247  1.00  0.00    -0.336 N 
ATOM     88  C   UNL A   1      34.364  23.976  25.649  1.00  0.00     0.224 C 
ATOM     89  H   UNL A   1      35.196  25.803  25.645  1.00  0.00     0.164 HD
ATOM     90  O   UNL A   1      34.615  23.713  26.828  1.00  0.00    -0.275 OA
BRANCH  88  91
ATOM     91  C   UNL A   1      34.097  22.838  24.648  1.00  0.00     0.082 C 
ATOM     92  C   UNL A   1      32.699  22.213  24.750  1.00  0.00     0.035 C 
ATOM     93  C   UNL A   1      35.265  21.834  24.606  1.00  0.00     0.035 C 
ATOM     94  C   UNL A   1      32.655  20.926  25.564  1.00  0.00     0.120 C 
ATOM     95  C   UNL A   1      35.046  20.596  25.462  1.00  0.00     0.120 C 
ATOM     96  N   UNL A   1      33.737  20.034  25.158  1.00  0.00    -0.342 N 
ATOM     97  C   UNL A   1      33.425  18.948  24.341  1.00  0.00     0.225 C 
ATOM     98  O   UNL A   1      32.276  18.808  23.901  1.00  0.00    -0.275 OA
BRANCH  97  99
ATOM     99  C   UNL A   1      34.381  17.865  23.955  1.00  0.00     0.079 C 
ATOM    100  C   UNL A   1      34.512  16.522  24.618  1.00  0.00     0.014 C 
ATOM    101  C   UNL A   1      34.024  16.618  23.193  1.00  0.00     0.014 C 
ENDBRANCH  97  99
ENDBRANCH  88  91
ENDBRANCH  77  87
ENDBRANCH  75  77
ENDBRANCH  74  75
ENDBRANCH  73  74
ENDBRANCH   1  73
TORSDOF 17
ENDMDL
MODEL 2
REMARK VINA RESULT:     -12.5      5.364     10.814
REMARK SMILES O=C(OCCOCCOC(=O)[C@]1(NC(=O)C2CCN(C(=O)C3CC3)CC2)CCCc2ccccc21)c1ccc(-c2c3nc(c(-c4c(F)c(F)c(F)c(F)c4F)c4ccc([nH]4)c(-c4c(F)c(F)c(F)c(F)c4F)c4nc(c(-c5c(F)c(F)c(F)c(F)c5F)c5ccc2[nH]5)C=C4)C=C3)cc1
REMARK SMILES IDX 7 1 6 2 5 3 4 4 3 5 2 6 1 7 36 8 37 9 98 10 38 11 97 12
REMARK SMILES IDX 39 13 40 14 41 15 91 16 42 17 96 18 90 19 92 20 43 21 95 22
REMARK SMILES IDX 89 23 88 24 44 26 76 27 56 28 75 29 57 30 60 31 74 32 93 33
REMARK SMILES IDX 58 34 59 35 73 37 94 38 61 39 45 40 46 41 54 42 47 43 48 44
REMARK SMILES IDX 52 45 55 46 49 47 50 48 53 49 51 50 77 51 78 52 86 53 79 54
REMARK SMILES IDX 80 55 84 56 87 57 81 58 82 59 85 60 83 61 62 62 63 63 71 64
REMARK SMILES IDX 64 65 65 66 69 67 72 68 66 69 67 70 70 71 68 72 8 73 9 74
REMARK SMILES IDX 10 75 11 76 12 77 27 78 35 79 28 80 30 81 34 82 29 83 31 84
REMARK SMILES IDX 33 85 32 86 13 87 14 88 15 90 16 91 17 92 26 93 18 94 25 95
REMARK SMILES IDX 19 96 20 97 21 98 22 99 23 100 24 101
REMARK H PARENT 92 25 60 36 13 89
REMARK Flexibility Score: inf
ROOT
ATOM      1  C   UNL A   1      36.977  22.304  24.789  1.00  0.00     0.202 C 
ENDROOT
BRANCH   1   2
ATOM      2  O   UNL A   1      36.961  20.985  25.299  1.00  0.00    -0.374 OA
BRANCH   2   3
ATOM      3  C   UNL A   1      38.018  20.107  24.964  1.00  0.00     0.202 C 
BRANCH   3   4
ATOM      4  C   UNL A   1      39.282  20.478  25.729  1.00  0.00     0.261 C 
BRANCH   4   5
ATOM      5  O   UNL A   1      40.207  19.371  25.762  1.00  0.00    -0.460 OA
BRANCH   5   6
ATOM      6  C   UNL A   1      41.548  19.510  25.941  1.00  0.00     0.338 C 
ATOM      7  O   UNL A   1      42.328  18.623  25.594  1.00  0.00    -0.246 OA
BRANCH   6   8
ATOM      8  C   UNL A   1      42.103  20.798  26.414  1.00  0.00     0.060 A 
ATOM      9  C   UNL A   1      42.289  21.103  27.762  1.00  0.00     0.016 A 
ATOM     10  C   UNL A   1      42.530  21.711  25.448  1.00  0.00     0.016 A 
ATOM     11  C   UNL A   1      42.714  22.355  28.160  1.00  0.00     0.010 A 
ATOM     12  C   UNL A   1      43.092  22.925  25.845  1.00  0.00     0.010 A 
ATOM     13  C   UNL A   1      43.157  23.263  27.207  1.00  0.00    -0.014 A 
BRANCH  13  14
ATOM     14  C   UNL A   1      43.628  24.587  27.654  1.00  0.00     0.031 A 
ATOM     15  C   UNL A   1      42.609  25.578  28.115  1.00  0.00     0.074 A 
ATOM     16  C   UNL A   1      44.946  24.857  27.701  1.00  0.00     0.049 A 
ATOM     17  N   UNL A   1      42.729  26.860  28.317  1.00  0.00    -0.248 NA
ATOM     18  C   UNL A   1      41.256  25.051  28.364  1.00  0.00     0.031 C 
ATOM     19  C   UNL A   1      46.019  23.906  27.392  1.00  0.00     0.029 A 
ATOM     20  N   UNL A   1      45.613  26.001  28.046  1.00  0.00    -0.354 N 
ATOM     21  C   UNL A   1      41.454  27.307  28.632  1.00  0.00     0.074 A 
ATOM     22  C   UNL A   1      40.576  26.160  28.607  1.00  0.00     0.031 C 
ATOM     23  C   UNL A   1      47.207  24.491  27.605  1.00  0.00     0.029 A 
ATOM     24  C   UNL A   1      46.979  25.890  27.939  1.00  0.00     0.049 A 
ATOM     25  H   UNL A   1      45.160  26.824  28.341  1.00  0.00     0.167 HD
ATOM     26  C   UNL A   1      41.067  28.576  28.895  1.00  0.00     0.037 A 
ATOM     27  C   UNL A   1      47.929  26.836  28.034  1.00  0.00     0.037 A 
ATOM     28  C   UNL A   1      41.995  29.674  28.942  1.00  0.00     0.049 A 
ATOM     29  C   UNL A   1      47.472  28.248  28.268  1.00  0.00     0.074 A 
ATOM     30  C   UNL A   1      41.747  31.017  29.151  1.00  0.00     0.029 A 
ATOM     31  N   UNL A   1      43.372  29.536  28.788  1.00  0.00    -0.354 N 
ATOM     32  N   UNL A   1      46.254  28.702  28.454  1.00  0.00    -0.248 NA
ATOM     33  C   UNL A   1      48.510  29.285  28.273  1.00  0.00     0.031 C 
ATOM     34  C   UNL A   1      42.970  31.695  29.082  1.00  0.00     0.029 A 
ATOM     35  C   UNL A   1      43.987  30.771  28.886  1.00  0.00     0.049 A 
ATOM     36  H   UNL A   1      43.839  28.684  28.632  1.00  0.00     0.167 HD
ATOM     37  C   UNL A   1      46.374  30.073  28.609  1.00  0.00     0.074 A 
ATOM     38  C   UNL A   1      47.792  30.373  28.518  1.00  0.00     0.031 C 
ATOM     39  C   UNL A   1      45.408  31.007  28.798  1.00  0.00     0.037 A 
BRANCH  26  40
ATOM     40  C   UNL A   1      39.595  28.822  29.052  1.00  0.00     0.064 A 
ATOM     41  C   UNL A   1      38.786  29.249  27.986  1.00  0.00     0.173 A 
ATOM     42  C   UNL A   1      38.995  28.699  30.316  1.00  0.00     0.173 A 
ATOM     43  F   UNL A   1      39.313  29.414  26.763  1.00  0.00    -0.203 F 
ATOM     44  C   UNL A   1      37.450  29.590  28.190  1.00  0.00     0.198 A 
ATOM     45  C   UNL A   1      37.651  29.009  30.508  1.00  0.00     0.198 A 
ATOM     46  F   UNL A   1      39.719  28.301  31.371  1.00  0.00    -0.203 F 
ATOM     47  F   UNL A   1      36.723  30.077  27.175  1.00  0.00    -0.200 F 
ATOM     48  C   UNL A   1      36.883  29.469  29.450  1.00  0.00     0.200 A 
ATOM     49  F   UNL A   1      37.105  28.886  31.727  1.00  0.00    -0.200 F 
ATOM     50  F   UNL A   1      35.605  29.815  29.648  1.00  0.00    -0.200 F 
ENDBRANCH  26  40
BRANCH  27  51
ATOM     51  C   UNL A   1      49.364  26.489  27.840  1.00  0.00     0.064 A 
ATOM     52  C   UNL A   1      49.902  26.334  26.555  1.00  0.00     0.173 A 
ATOM     53  C   UNL A   1      50.235  26.321  28.929  1.00  0.00     0.173 A 
ATOM     54  F   UNL A   1      49.113  26.464  25.478  1.00  0.00    -0.203 F 
ATOM     55  C   UNL A   1      51.248  26.018  26.369  1.00  0.00     0.198 A 
ATOM     56  C   UNL A   1      51.587  26.040  28.741  1.00  0.00     0.198 A 
ATOM     57  F   UNL A   1      49.778  26.456  30.183  1.00  0.00    -0.203 F 
ATOM     58  F   UNL A   1      51.726  25.838  25.129  1.00  0.00    -0.200 F 
ATOM     59  C   UNL A   1      52.091  25.880  27.461  1.00  0.00     0.200 A 
ATOM     60  F   UNL A   1      52.400  25.928  29.801  1.00  0.00    -0.200 F 
ATOM     61  F   UNL A   1      53.386  25.589  27.280  1.00  0.00    -0.200 F 
ENDBRANCH  27  51
BRANCH  39  62
ATOM     62  C   UNL A   1      45.871  32.422  28.962  1.00  0.00     0.064 A 
ATOM     63  C   UNL A   1      46.239  32.934  30.214  1.00  0.00     0.173 A 
ATOM     64  C   UNL A   1      45.990  33.255  27.841  1.00  0.00     0.173 A 
ATOM     65  F   UNL A   1      46.122  32.178  31.315  1.00  0.00    -0.203 F 
ATOM     66  C   UNL A   1      46.692  34.243  30.339  1.00  0.00     0.198 A 
ATOM     67  C   UNL A   1      46.474  34.552  27.966  1.00  0.00     0.198 A 
ATOM     68  F   UNL A   1      45.654  32.804  26.624  1.00  0.00    -0.203 F 
ATOM     69  F   UNL A   1      46.994  34.732  31.550  1.00  0.00    -0.200 F 
ATOM     70  C   UNL A   1      46.818  35.047  29.216  1.00  0.00     0.200 A 
ATOM     71  F   UNL A   1      46.609  35.323  26.878  1.00  0.00    -0.200 F 
ATOM     72  F   UNL A   1      47.266  36.304  29.337  1.00  0.00    -0.200 F 
ENDBRANCH  39  62
ENDBRANCH  13  14
ENDBRANCH   6   8
ENDBRANCH   5   6
ENDBRANCH   4   5
ENDBRANCH   3   4
ENDBRANCH   2   3
ENDBRANCH   1   2
BRANCH   1  73
ATOM     73  C   UNL A   1      36.831  23.242  25.978  1.00  0.00     0.261 C 
BRANCH  73  74
ATOM     74  O   UNL A   1      35.684  24.085  25.798  1.00  0.00    -0.461 OA
BRANCH  74  75
ATOM     75  C   UNL A   1      34.515  23.638  26.340  1.00  0.00     0.336 C 
ATOM     76  O   UNL A   1      34.383  22.605  26.995  1.00  0.00    -0.249 OA
BRANCH  75  77
ATOM     77  C   UNL A   1      33.310  24.501  25.900  1.00  0.00     0.164 C 
ATOM     78  C   UNL A   1      32.106  24.462  26.873  1.00  0.00     0.046 C 
ATOM     79  C   UNL A   1      32.911  23.906  24.518  1.00  0.00    -0.008 A 
ATOM     80  C   UNL A   1      31.356  23.129  26.868  1.00  0.00     0.008 C 
ATOM     81  C   UNL A   1      31.867  22.957  24.413  1.00  0.00    -0.042 A 
ATOM     82  C   UNL A   1      33.774  24.060  23.412  1.00  0.00     0.007 A 
ATOM     83  C   UNL A   1      30.818  22.812  25.483  1.00  0.00     0.036 C 
ATOM     84  C   UNL A   1      31.768  22.138  23.273  1.00  0.00     0.004 A 
ATOM     85  C   UNL A   1      33.670  23.231  22.290  1.00  0.00     0.000 A 
ATOM     86  C   UNL A   1      32.686  22.251  22.233  1.00  0.00     0.000 A 
BRANCH  77  87
ATOM     87  N   UNL A   1      33.776  25.924  25.805  1.00  0.00    -0.336 N 
ATOM     88  C   UNL A   1      33.322  26.947  24.994  1.00  0.00     0.224 C 
ATOM     89  H   UNL A   1      34.512  26.166  26.411  1.00  0.00     0.164 HD
ATOM     90  O   UNL A   1      34.156  27.729  24.531  1.00  0.00    -0.275 OA
BRANCH  88  91
ATOM     91  C   UNL A   1      31.822  27.204  24.774  1.00  0.00     0.082 C 
ATOM     92  C   UNL A   1      31.340  26.980  23.334  1.00  0.00     0.035 C 
ATOM     93  C   UNL A   1      31.373  28.530  25.419  1.00  0.00     0.035 C 
ATOM     94  C   UNL A   1      31.239  28.257  22.510  1.00  0.00     0.120 C 
ATOM     95  C   UNL A   1      31.309  29.698  24.448  1.00  0.00     0.120 C 
ATOM     96  N   UNL A   1      30.551  29.296  23.271  1.00  0.00    -0.342 N 
ATOM     97  C   UNL A   1      29.221  29.572  22.957  1.00  0.00     0.225 C 
ATOM     98  O   UNL A   1      28.622  28.886  22.119  1.00  0.00    -0.275 OA
BRANCH  97  99
ATOM     99  C   UNL A   1      28.420  30.695  23.535  1.00  0.00     0.079 C 
ATOM    100  C   UNL A   1      28.821  32.143  23.569  1.00  0.00     0.014 C 
ATOM    101  C   UNL A   1      27.636  31.706  22.743  1.00  0.00     0.014 C 
ENDBRANCH  97  99
ENDBRANCH  88  91
ENDBRANCH  77  87
ENDBRANCH  75  77
ENDBRANCH  74  75
ENDBRANCH  73  74
ENDBRANCH   1  73
TORSDOF 17
ENDMDL
MODEL 3
REMARK VINA RESULT:     -12.4      1.899      4.666
REMARK SMILES O=C(OCCOCCOC(=O)[C@]1(NC(=O)C2CCN(C(=O)C3CC3)CC2)CCCc2ccccc21)c1ccc(-c2c3nc(c(-c4c(F)c(F)c(F)c(F)c4F)c4ccc([nH]4)c(-c4c(F)c(F)c(F)c(F)c4F)c4nc(c(-c5c(F)c(F)c(F)c(F)c5F)c5ccc2[nH]5)C=C4)C=C3)cc1
REMARK SMILES IDX 7 1 6 2 5 3 4 4 3 5 2 6 1 7 36 8 37 9 98 10 38 11 97 12
REMARK SMILES IDX 39 13 40 14 41 15 91 16 42 17 96 18 90 19 92 20 43 21 95 22
REMARK SMILES IDX 89 23 88 24 44 26 76 27 56 28 75 29 57 30 60 31 74 32 93 33
REMARK SMILES IDX 58 34 59 35 73 37 94 38 61 39 45 40 46 41 54 42 47 43 48 44
REMARK SMILES IDX 52 45 55 46 49 47 50 48 53 49 51 50 77 51 78 52 86 53 79 54
REMARK SMILES IDX 80 55 84 56 87 57 81 58 82 59 85 60 83 61 62 62 63 63 71 64
REMARK SMILES IDX 64 65 65 66 69 67 72 68 66 69 67 70 70 71 68 72 8 73 9 74
REMARK SMILES IDX 10 75 11 76 12 77 27 78 35 79 28 80 30 81 34 82 29 83 31 84
REMARK SMILES IDX 33 85 32 86 13 87 14 88 15 90 16 91 17 92 26 93 18 94 25 95
REMARK SMILES IDX 19 96 20 97 21 98 22 99 23 100 24 101
REMARK H PARENT 92 25 60 36 13 89
REMARK Flexibility Score: inf
ROOT
ATOM      1  C   UNL A   1      32.585  29.602  27.189  1.00  0.00     0.202 C 
ENDROOT
BRANCH   1   2
ATOM      2  O   UNL A   1      31.630  30.209  26.339  1.00  0.00    -0.374 OA
BRANCH   2   3
ATOM      3  C   UNL A   1      31.370  31.593  26.478  1.00  0.00     0.202 C 
BRANCH   3   4
ATOM      4  C   UNL A   1      32.566  32.301  27.103  1.00  0.00     0.261 C 
BRANCH   4   5
ATOM      5  O   UNL A   1      32.206  33.627  27.541  1.00  0.00    -0.460 OA
BRANCH   5   6
ATOM      6  C   UNL A   1      32.960  34.374  28.392  1.00  0.00     0.338 C 
ATOM      7  O   UNL A   1      32.594  35.496  28.744  1.00  0.00    -0.246 OA
BRANCH   6   8
ATOM      8  C   UNL A   1      34.158  33.786  29.031  1.00  0.00     0.060 A 
ATOM      9  C   UNL A   1      34.104  32.712  29.920  1.00  0.00     0.016 A 
ATOM     10  C   UNL A   1      35.404  34.292  28.657  1.00  0.00     0.016 A 
ATOM     11  C   UNL A   1      35.236  32.264  30.571  1.00  0.00     0.010 A 
ATOM     12  C   UNL A   1      36.565  33.747  29.208  1.00  0.00     0.010 A 
ATOM     13  C   UNL A   1      36.480  32.749  30.193  1.00  0.00    -0.014 A 
BRANCH  13  14
ATOM     14  C   UNL A   1      37.680  32.241  30.885  1.00  0.00     0.031 A 
ATOM     15  C   UNL A   1      38.537  31.247  30.170  1.00  0.00     0.074 A 
ATOM     16  C   UNL A   1      38.015  32.719  32.098  1.00  0.00     0.049 A 
ATOM     17  N   UNL A   1      39.481  30.478  30.636  1.00  0.00    -0.248 NA
ATOM     18  C   UNL A   1      38.277  31.082  28.730  1.00  0.00     0.031 C 
ATOM     19  C   UNL A   1      37.308  33.785  32.816  1.00  0.00     0.029 A 
ATOM     20  N   UNL A   1      39.045  32.388  32.936  1.00  0.00    -0.354 N 
ATOM     21  C   UNL A   1      39.868  29.679  29.569  1.00  0.00     0.074 A 
ATOM     22  C   UNL A   1      39.067  30.064  28.429  1.00  0.00     0.031 C 
ATOM     23  C   UNL A   1      37.951  34.050  33.963  1.00  0.00     0.029 A 
ATOM     24  C   UNL A   1      39.034  33.090  34.118  1.00  0.00     0.049 A 
ATOM     25  H   UNL A   1      39.727  31.714  32.715  1.00  0.00     0.167 HD
ATOM     26  C   UNL A   1      40.800  28.700  29.569  1.00  0.00     0.037 A 
ATOM     27  C   UNL A   1      39.777  32.921  35.226  1.00  0.00     0.037 A 
ATOM     28  C   UNL A   1      41.594  28.387  30.727  1.00  0.00     0.049 A 
ATOM     29  C   UNL A   1      40.765  31.789  35.224  1.00  0.00     0.074 A 
ATOM     30  C   UNL A   1      42.542  27.396  30.893  1.00  0.00     0.029 A 
ATOM     31  N   UNL A   1      41.530  29.090  31.927  1.00  0.00    -0.354 N 
ATOM     32  N   UNL A   1      41.061  30.951  34.257  1.00  0.00    -0.248 NA
ATOM     33  C   UNL A   1      41.500  31.554  36.472  1.00  0.00     0.031 C 
ATOM     34  C   UNL A   1      43.022  27.475  32.206  1.00  0.00     0.029 A 
ATOM     35  C   UNL A   1      42.414  28.550  32.843  1.00  0.00     0.049 A 
ATOM     36  H   UNL A   1      40.942  29.860  32.098  1.00  0.00     0.167 HD
ATOM     37  C   UNL A   1      42.021  30.095  34.770  1.00  0.00     0.074 A 
ATOM     38  C   UNL A   1      42.275  30.533  36.131  1.00  0.00     0.031 C 
ATOM     39  C   UNL A   1      42.634  29.036  34.184  1.00  0.00     0.037 A 
BRANCH  26  40
ATOM     40  C   UNL A   1      40.921  27.873  28.323  1.00  0.00     0.064 A 
ATOM     41  C   UNL A   1      40.225  26.666  28.151  1.00  0.00     0.173 A 
ATOM     42  C   UNL A   1      41.811  28.261  27.308  1.00  0.00     0.173 A 
ATOM     43  F   UNL A   1      39.386  26.229  29.103  1.00  0.00    -0.203 F 
ATOM     44  C   UNL A   1      40.453  25.857  27.039  1.00  0.00     0.198 A 
ATOM     45  C   UNL A   1      42.011  27.467  26.182  1.00  0.00     0.198 A 
ATOM     46  F   UNL A   1      42.507  29.402  27.420  1.00  0.00    -0.203 F 
ATOM     47  F   UNL A   1      39.842  24.668  26.941  1.00  0.00    -0.200 F 
ATOM     48  C   UNL A   1      41.345  26.258  26.055  1.00  0.00     0.200 A 
ATOM     49  F   UNL A   1      42.870  27.860  25.231  1.00  0.00    -0.200 F 
ATOM     50  F   UNL A   1      41.576  25.471  24.997  1.00  0.00    -0.200 F 
ENDBRANCH  26  40
BRANCH  27  51
ATOM     51  C   UNL A   1      39.561  33.785  36.419  1.00  0.00     0.064 A 
ATOM     52  C   UNL A   1      38.732  33.371  37.470  1.00  0.00     0.173 A 
ATOM     53  C   UNL A   1      40.191  35.034  36.548  1.00  0.00     0.173 A 
ATOM     54  F   UNL A   1      38.090  32.195  37.394  1.00  0.00    -0.203 F 
ATOM     55  C   UNL A   1      38.535  34.173  38.594  1.00  0.00     0.198 A 
ATOM     56  C   UNL A   1      40.022  35.819  37.686  1.00  0.00     0.198 A 
ATOM     57  F   UNL A   1      40.996  35.484  35.573  1.00  0.00    -0.203 F 
ATOM     58  F   UNL A   1      37.707  33.767  39.567  1.00  0.00    -0.200 F 
ATOM     59  C   UNL A   1      39.186  35.391  38.706  1.00  0.00     0.200 A 
ATOM     60  F   UNL A   1      40.670  36.986  37.796  1.00  0.00    -0.200 F 
ATOM     61  F   UNL A   1      39.007  36.155  39.792  1.00  0.00    -0.200 F 
ENDBRANCH  27  51
BRANCH  39  62
ATOM     62  C   UNL A   1      43.663  28.322  35.004  1.00  0.00     0.064 A 
ATOM     63  C   UNL A   1      45.003  28.731  35.019  1.00  0.00     0.173 A 
ATOM     64  C   UNL A   1      43.286  27.246  35.819  1.00  0.00     0.173 A 
ATOM     65  F   UNL A   1      45.411  29.743  34.240  1.00  0.00    -0.203 F 
ATOM     66  C   UNL A   1      45.937  28.070  35.809  1.00  0.00     0.198 A 
ATOM     67  C   UNL A   1      44.216  26.609  36.632  1.00  0.00     0.198 A 
ATOM     68  F   UNL A   1      42.013  26.825  35.840  1.00  0.00    -0.203 F 
ATOM     69  F   UNL A   1      47.224  28.443  35.775  1.00  0.00    -0.200 F 
ATOM     70  C   UNL A   1      45.543  27.017  36.621  1.00  0.00     0.200 A 
ATOM     71  F   UNL A   1      43.830  25.601  37.427  1.00  0.00    -0.200 F 
ATOM     72  F   UNL A   1      46.442  26.389  37.391  1.00  0.00    -0.200 F 
ENDBRANCH  39  62
ENDBRANCH  13  14
ENDBRANCH   6   8
ENDBRANCH   5   6
ENDBRANCH   4   5
ENDBRANCH   3   4
ENDBRANCH   2   3
ENDBRANCH   1   2
BRANCH   1  73
ATOM     73  C   UNL A   1      32.013  28.255  27.607  1.00  0.00     0.261 C 
BRANCH  73  74
ATOM     74  O   UNL A   1      31.815  27.428  26.451  1.00  0.00    -0.461 OA
BRANCH  74  75
ATOM     75  C   UNL A   1      32.901  26.725  26.019  1.00  0.00     0.336 C 
ATOM     76  O   UNL A   1      34.074  27.016  26.246  1.00  0.00    -0.249 OA
BRANCH  75  77
ATOM     77  C   UNL A   1      32.500  25.583  25.057  1.00  0.00     0.164 C 
ATOM     78  C   UNL A   1      31.089  24.997  25.311  1.00  0.00     0.046 C 
ATOM     79  C   UNL A   1      33.590  24.497  25.295  1.00  0.00    -0.008 A 
ATOM     80  C   UNL A   1      30.991  24.166  26.592  1.00  0.00     0.008 C 
ATOM     81  C   UNL A   1      33.353  23.414  26.175  1.00  0.00    -0.042 A 
ATOM     82  C   UNL A   1      34.920  24.738  24.893  1.00  0.00     0.007 A 
ATOM     83  C   UNL A   1      31.958  22.995  26.557  1.00  0.00     0.036 C 
ATOM     84  C   UNL A   1      34.432  22.675  26.693  1.00  0.00     0.004 A 
ATOM     85  C   UNL A   1      35.984  24.002  25.425  1.00  0.00     0.000 A 
ATOM     86  C   UNL A   1      35.742  22.990  26.347  1.00  0.00     0.000 A 
BRANCH  77  87
ATOM     87  N   UNL A   1      32.523  26.130  23.660  1.00  0.00    -0.336 N 
ATOM     88  C   UNL A   1      31.546  26.817  22.968  1.00  0.00     0.224 C 
ATOM     89  H   UNL A   1      33.359  25.977  23.164  1.00  0.00     0.164 HD
ATOM     90  O   UNL A   1      31.413  26.577  21.765  1.00  0.00    -0.275 OA
BRANCH  88  91
ATOM     91  C   UNL A   1      30.733  27.949  23.620  1.00  0.00     0.082 C 
ATOM     92  C   UNL A   1      29.261  27.604  23.887  1.00  0.00     0.035 C 
ATOM     93  C   UNL A   1      30.975  29.299  22.918  1.00  0.00     0.035 C 
ATOM     94  C   UNL A   1      28.303  28.115  22.818  1.00  0.00     0.120 C 
ATOM     95  C   UNL A   1      29.911  29.663  21.895  1.00  0.00     0.120 C 
ATOM     96  N   UNL A   1      28.596  29.509  22.502  1.00  0.00    -0.342 N 
ATOM     97  C   UNL A   1      27.760  30.495  23.025  1.00  0.00     0.225 C 
ATOM     98  O   UNL A   1      26.853  30.191  23.812  1.00  0.00    -0.275 OA
BRANCH  97  99
ATOM     99  C   UNL A   1      27.832  31.949  22.684  1.00  0.00     0.079 C 
ATOM    100  C   UNL A   1      29.074  32.796  22.675  1.00  0.00     0.014 C 
ATOM    101  C   UNL A   1      28.339  32.517  21.387  1.00  0.00     0.014 C 
ENDBRANCH  97  99
ENDBRANCH  88  91
ENDBRANCH  77  87
ENDBRANCH  75  77
ENDBRANCH  74  75
ENDBRANCH  73  74
ENDBRANCH   1  73
TORSDOF 17
ENDMDL
