MODEL 1
REMARK VINA RESULT:     -11.5      0.000      0.000
REMARK SMILES C[NH+](C)[C@@H]1CC[N@@H+](Cc2ccc(C(=O)OCCOCCOC(=O)c3ccc(-c4c5nc(c(-c6c(F)c(F)c(F)c(F)c6F)c6ccc([nH]6)c(-c6c(F)c(F)c(F)c(F)c6F)c6nc(c(-c7c(F)c(F)c(F)c(F)c7F)c7ccc4[nH]7)C=C6)C=C5)cc3)cn2)C1
REMARK SMILES IDX 17 1 16 2 15 3 13 4 14 5 12 6 9 7 10 8 88 9 11 10 87 11 8 12
REMARK SMILES IDX 7 13 4 14 5 15 89 16 6 17 2 19 1 20 3 21 18 23 19 24 20 25
REMARK SMILES IDX 21 26 22 27 23 28 24 29 25 30 86 31 26 32 85 33 27 34 28 35
REMARK SMILES IDX 29 36 79 37 30 38 84 39 78 40 80 41 31 42 83 43 77 44 76 45
REMARK SMILES IDX 32 47 64 48 44 49 63 50 45 51 48 52 62 53 81 54 46 55 47 56
REMARK SMILES IDX 61 58 82 59 49 60 33 61 34 62 42 63 35 64 36 65 40 66 43 67
REMARK SMILES IDX 37 68 38 69 41 70 39 71 65 72 66 73 74 74 67 75 68 76 72 77
REMARK SMILES IDX 75 78 69 79 70 80 73 81 71 82 50 83 51 84 59 85 52 86 53 87
REMARK SMILES IDX 57 88 60 89 54 90 55 91 58 92 56 93
REMARK H PARENT 7 18 2 22 80 46 48 57
REMARK Flexibility Score: inf
ROOT
ATOM      1  C   UNL A   1      33.608  20.202  24.853  1.00  0.00     0.202 C 
ENDROOT
BRANCH   1   2
ATOM      2  C   UNL A   1      33.265  21.318  25.842  1.00  0.00     0.261 C 
BRANCH   2   3
ATOM      3  O   UNL A   1      32.064  21.990  25.437  1.00  0.00    -0.460 OA
BRANCH   3   4
ATOM      4  C   UNL A   1      31.678  22.995  26.253  1.00  0.00     0.339 C 
ATOM      5  O   UNL A   1      31.845  23.064  27.464  1.00  0.00    -0.246 OA
BRANCH   4   6
ATOM      6  C   UNL A   1      31.142  24.111  25.463  1.00  0.00     0.078 A 
ATOM      7  C   UNL A   1      29.863  26.216  24.271  1.00  0.00     0.095 A 
ATOM      8  C   UNL A   1      30.259  25.139  23.480  1.00  0.00     0.031 A 
ATOM      9  N   UNL A   1      30.224  26.333  25.576  1.00  0.00    -0.254 NA
ATOM     10  C   UNL A   1      30.908  24.065  24.089  1.00  0.00     0.019 A 
ATOM     11  C   UNL A   1      30.840  25.278  26.147  1.00  0.00     0.127 A 
BRANCH   7  12
ATOM     12  C   UNL A   1      28.800  27.183  23.785  1.00  0.00     0.319 C 
BRANCH  12  13
ATOM     13  N   UNL A   1      29.240  28.203  22.810  1.00  0.00    -0.325 N 
ATOM     14  C   UNL A   1      28.315  30.470  23.010  1.00  0.00     0.245 C 
ATOM     15  C   UNL A   1      29.630  30.356  23.802  1.00  0.00     0.132 C 
ATOM     16  C   UNL A   1      28.197  29.093  22.292  1.00  0.00     0.328 C 
ATOM     17  C   UNL A   1      30.302  29.092  23.288  1.00  0.00     0.269 C 
ATOM     18  H   UNL A   1      29.573  27.587  22.068  1.00  0.00     0.348 HD
BRANCH  14  19
ATOM     19  N   UNL A   1      28.042  31.713  22.253  1.00  0.00    -0.333 N 
ATOM     20  C   UNL A   1      28.780  32.896  22.678  1.00  0.00     0.332 C 
ATOM     21  C   UNL A   1      28.078  31.580  20.801  1.00  0.00     0.332 C 
ATOM     22  H   UNL A   1      27.070  31.875  22.514  1.00  0.00     0.348 HD
ENDBRANCH  14  19
ENDBRANCH  12  13
ENDBRANCH   7  12
ENDBRANCH   4   6
ENDBRANCH   3   4
ENDBRANCH   2   3
ENDBRANCH   1   2
BRANCH   1  23
ATOM     23  O   UNL A   1      34.970  19.772  24.824  1.00  0.00    -0.374 OA
BRANCH  23  24
ATOM     24  C   UNL A   1      35.988  20.754  25.014  1.00  0.00     0.202 C 
BRANCH  24  25
ATOM     25  C   UNL A   1      37.442  20.266  25.005  1.00  0.00     0.261 C 
BRANCH  25  26
ATOM     26  O   UNL A   1      38.377  21.338  25.228  1.00  0.00    -0.460 OA
BRANCH  26  27
ATOM     27  C   UNL A   1      39.384  21.041  26.080  1.00  0.00     0.338 C 
ATOM     28  O   UNL A   1      39.939  19.961  26.231  1.00  0.00    -0.246 OA
BRANCH  27  29
ATOM     29  C   UNL A   1      39.873  22.271  26.724  1.00  0.00     0.060 A 
ATOM     30  C   UNL A   1      39.335  23.494  26.298  1.00  0.00     0.016 A 
ATOM     31  C   UNL A   1      40.902  22.236  27.667  1.00  0.00     0.016 A 
ATOM     32  C   UNL A   1      39.859  24.693  26.775  1.00  0.00     0.010 A 
ATOM     33  C   UNL A   1      41.436  23.439  28.133  1.00  0.00     0.010 A 
ATOM     34  C   UNL A   1      40.943  24.671  27.661  1.00  0.00    -0.014 A 
BRANCH  34  35
ATOM     35  C   UNL A   1      41.688  25.914  27.965  1.00  0.00     0.031 A 
ATOM     36  C   UNL A   1      40.980  27.002  28.723  1.00  0.00     0.074 A 
ATOM     37  C   UNL A   1      42.954  26.086  27.548  1.00  0.00     0.049 A 
ATOM     38  N   UNL A   1      41.354  28.233  28.954  1.00  0.00    -0.248 NA
ATOM     39  C   UNL A   1      39.666  26.655  29.291  1.00  0.00     0.031 C 
ATOM     40  C   UNL A   1      43.759  25.083  26.855  1.00  0.00     0.029 A 
ATOM     41  N   UNL A   1      43.774  27.184  27.624  1.00  0.00    -0.354 N 
ATOM     42  C   UNL A   1      40.312  28.816  29.664  1.00  0.00     0.074 A 
ATOM     43  C   UNL A   1      39.288  27.808  29.826  1.00  0.00     0.031 C 
ATOM     44  C   UNL A   1      44.949  25.624  26.537  1.00  0.00     0.029 A 
ATOM     45  C   UNL A   1      44.968  27.021  26.966  1.00  0.00     0.049 A 
ATOM     46  H   UNL A   1      43.530  28.008  28.105  1.00  0.00     0.167 HD
ATOM     47  C   UNL A   1      40.222  30.081  30.135  1.00  0.00     0.037 A 
ATOM     48  C   UNL A   1      45.942  27.916  26.703  1.00  0.00     0.037 A 
ATOM     49  C   UNL A   1      41.254  31.070  29.990  1.00  0.00     0.049 A 
ATOM     50  C   UNL A   1      45.790  29.337  27.191  1.00  0.00     0.074 A 
ATOM     51  C   UNL A   1      41.271  32.373  30.456  1.00  0.00     0.029 A 
ATOM     52  N   UNL A   1      42.456  30.863  29.329  1.00  0.00    -0.354 N 
ATOM     53  N   UNL A   1      44.811  29.877  27.875  1.00  0.00    -0.248 NA
ATOM     54  C   UNL A   1      46.876  30.273  26.866  1.00  0.00     0.031 C 
ATOM     55  C   UNL A   1      42.462  32.970  30.034  1.00  0.00     0.029 A 
ATOM     56  C   UNL A   1      43.211  32.022  29.355  1.00  0.00     0.049 A 
ATOM     57  H   UNL A   1      42.729  30.019  28.902  1.00  0.00     0.167 HD
ATOM     58  C   UNL A   1      45.183  31.196  28.101  1.00  0.00     0.074 A 
ATOM     59  C   UNL A   1      46.477  31.378  27.479  1.00  0.00     0.031 C 
ATOM     60  C   UNL A   1      44.517  32.169  28.768  1.00  0.00     0.037 A 
BRANCH  47  61
ATOM     61  C   UNL A   1      38.956  30.487  30.828  1.00  0.00     0.064 A 
ATOM     62  C   UNL A   1      38.826  30.428  32.222  1.00  0.00     0.173 A 
ATOM     63  C   UNL A   1      37.888  31.016  30.087  1.00  0.00     0.173 A 
ATOM     64  F   UNL A   1      39.814  29.918  32.972  1.00  0.00    -0.203 F 
ATOM     65  C   UNL A   1      37.667  30.879  32.850  1.00  0.00     0.198 A 
ATOM     66  C   UNL A   1      36.743  31.489  30.720  1.00  0.00     0.198 A 
ATOM     67  F   UNL A   1      37.967  31.095  28.750  1.00  0.00    -0.203 F 
ATOM     68  F   UNL A   1      37.551  30.791  34.181  1.00  0.00    -0.200 F 
ATOM     69  C   UNL A   1      36.632  31.418  32.100  1.00  0.00     0.200 A 
ATOM     70  F   UNL A   1      35.749  32.021  29.993  1.00  0.00    -0.200 F 
ATOM     71  F   UNL A   1      35.526  31.869  32.707  1.00  0.00    -0.200 F 
ENDBRANCH  47  61
BRANCH  48  72
ATOM     72  C   UNL A   1      47.135  27.517  25.910  1.00  0.00     0.064 A 
ATOM     73  C   UNL A   1      48.295  27.038  26.535  1.00  0.00     0.173 A 
ATOM     74  C   UNL A   1      47.158  27.656  24.514  1.00  0.00     0.173 A 
ATOM     75  F   UNL A   1      48.332  26.914  27.870  1.00  0.00    -0.203 F 
ATOM     76  C   UNL A   1      49.440  26.742  25.799  1.00  0.00     0.198 A 
ATOM     77  C   UNL A   1      48.293  27.329  23.775  1.00  0.00     0.198 A 
ATOM     78  F   UNL A   1      46.076  28.111  23.864  1.00  0.00    -0.203 F 
ATOM     79  F   UNL A   1      50.555  26.347  26.430  1.00  0.00    -0.200 F 
ATOM     80  C   UNL A   1      49.438  26.884  24.420  1.00  0.00     0.200 A 
ATOM     81  F   UNL A   1      48.282  27.457  22.441  1.00  0.00    -0.200 F 
ATOM     82  F   UNL A   1      50.542  26.607  23.713  1.00  0.00    -0.200 F 
ENDBRANCH  48  72
BRANCH  60  83
ATOM     83  C   UNL A   1      45.195  33.495  28.938  1.00  0.00     0.064 A 
ATOM     84  C   UNL A   1      46.076  33.745  29.999  1.00  0.00     0.173 A 
ATOM     85  C   UNL A   1      45.026  34.498  27.969  1.00  0.00     0.173 A 
ATOM     86  F   UNL A   1      46.261  32.823  30.955  1.00  0.00    -0.203 F 
ATOM     87  C   UNL A   1      46.758  34.957  30.089  1.00  0.00     0.198 A 
ATOM     88  C   UNL A   1      45.730  35.695  28.048  1.00  0.00     0.198 A 
ATOM     89  F   UNL A   1      44.201  34.301  26.930  1.00  0.00    -0.203 F 
ATOM     90  F   UNL A   1      47.574  35.188  31.125  1.00  0.00    -0.200 F 
ATOM     91  C   UNL A   1      46.592  35.925  29.109  1.00  0.00     0.200 A 
ATOM     92  F   UNL A   1      45.581  36.622  27.091  1.00  0.00    -0.200 F 
ATOM     93  F   UNL A   1      47.266  37.081  29.186  1.00  0.00    -0.200 F 
ENDBRANCH  60  83
ENDBRANCH  34  35
ENDBRANCH  27  29
ENDBRANCH  26  27
ENDBRANCH  25  26
ENDBRANCH  24  25
ENDBRANCH  23  24
ENDBRANCH   1  23
TORSDOF 17
ENDMDL
MODEL 2
REMARK VINA RESULT:     -11.5      1.499      2.409
REMARK SMILES C[NH+](C)[C@@H]1CC[N@@H+](Cc2ccc(C(=O)OCCOCCOC(=O)c3ccc(-c4c5nc(c(-c6c(F)c(F)c(F)c(F)c6F)c6ccc([nH]6)c(-c6c(F)c(F)c(F)c(F)c6F)c6nc(c(-c7c(F)c(F)c(F)c(F)c7F)c7ccc4[nH]7)C=C6)C=C5)cc3)cn2)C1
REMARK SMILES IDX 17 1 16 2 15 3 13 4 14 5 12 6 9 7 10 8 88 9 11 10 87 11 8 12
REMARK SMILES IDX 7 13 4 14 5 15 89 16 6 17 2 19 1 20 3 21 18 23 19 24 20 25
REMARK SMILES IDX 21 26 22 27 23 28 24 29 25 30 86 31 26 32 85 33 27 34 28 35
REMARK SMILES IDX 29 36 79 37 30 38 84 39 78 40 80 41 31 42 83 43 77 44 76 45
REMARK SMILES IDX 32 47 64 48 44 49 63 50 45 51 48 52 62 53 81 54 46 55 47 56
REMARK SMILES IDX 61 58 82 59 49 60 33 61 34 62 42 63 35 64 36 65 40 66 43 67
REMARK SMILES IDX 37 68 38 69 41 70 39 71 65 72 66 73 74 74 67 75 68 76 72 77
REMARK SMILES IDX 75 78 69 79 70 80 73 81 71 82 50 83 51 84 59 85 52 86 53 87
REMARK SMILES IDX 57 88 60 89 54 90 55 91 58 92 56 93
REMARK H PARENT 7 18 2 22 80 46 48 57
REMARK Flexibility Score: inf
ROOT
ATOM      1  C   UNL A   1      33.900  19.375  24.472  1.00  0.00     0.202 C 
ENDROOT
BRANCH   1   2
ATOM      2  C   UNL A   1      33.051  19.590  25.727  1.00  0.00     0.261 C 
BRANCH   2   3
ATOM      3  O   UNL A   1      32.550  20.934  25.764  1.00  0.00    -0.460 OA
BRANCH   3   4
ATOM      4  C   UNL A   1      33.113  21.720  26.706  1.00  0.00     0.339 C 
ATOM      5  O   UNL A   1      33.857  21.364  27.612  1.00  0.00    -0.246 OA
BRANCH   4   6
ATOM      6  C   UNL A   1      32.836  23.133  26.421  1.00  0.00     0.078 A 
ATOM      7  C   UNL A   1      31.955  25.646  25.791  1.00  0.00     0.095 A 
ATOM      8  C   UNL A   1      33.200  25.236  25.317  1.00  0.00     0.031 A 
ATOM      9  N   UNL A   1      31.234  24.912  26.678  1.00  0.00    -0.254 NA
ATOM     10  C   UNL A   1      33.646  23.953  25.635  1.00  0.00     0.019 A 
ATOM     11  C   UNL A   1      31.680  23.670  26.963  1.00  0.00     0.127 A 
BRANCH   7  12
ATOM     12  C   UNL A   1      31.228  26.812  25.146  1.00  0.00     0.319 C 
BRANCH  12  13
ATOM     13  N   UNL A   1      31.393  28.127  25.799  1.00  0.00    -0.325 N 
ATOM     14  C   UNL A   1      33.666  29.033  26.019  1.00  0.00     0.245 C 
ATOM     15  C   UNL A   1      33.018  29.526  24.713  1.00  0.00     0.132 C 
ATOM     16  C   UNL A   1      32.522  28.251  26.727  1.00  0.00     0.328 C 
ATOM     17  C   UNL A   1      31.529  29.258  24.877  1.00  0.00     0.269 C 
ATOM     18  H   UNL A   1      30.513  28.167  26.312  1.00  0.00     0.348 HD
BRANCH  14  19
ATOM     19  N   UNL A   1      34.500  29.973  26.802  1.00  0.00    -0.333 N 
ATOM     20  C   UNL A   1      33.781  31.010  27.532  1.00  0.00     0.332 C 
ATOM     21  C   UNL A   1      35.509  29.353  27.653  1.00  0.00     0.332 C 
ATOM     22  H   UNL A   1      34.996  30.448  26.049  1.00  0.00     0.348 HD
ENDBRANCH  14  19
ENDBRANCH  12  13
ENDBRANCH   7  12
ENDBRANCH   4   6
ENDBRANCH   3   4
ENDBRANCH   2   3
ENDBRANCH   1   2
BRANCH   1  23
ATOM     23  O   UNL A   1      35.312  19.275  24.667  1.00  0.00    -0.374 OA
BRANCH  23  24
ATOM     24  C   UNL A   1      36.028  20.463  25.002  1.00  0.00     0.202 C 
BRANCH  24  25
ATOM     25  C   UNL A   1      37.549  20.444  24.804  1.00  0.00     0.261 C 
BRANCH  25  26
ATOM     26  O   UNL A   1      38.192  21.576  25.418  1.00  0.00    -0.460 OA
BRANCH  26  27
ATOM     27  C   UNL A   1      39.301  21.277  26.132  1.00  0.00     0.338 C 
ATOM     28  O   UNL A   1      39.900  20.211  26.168  1.00  0.00    -0.246 OA
BRANCH  27  29
ATOM     29  C   UNL A   1      39.826  22.495  26.771  1.00  0.00     0.060 A 
ATOM     30  C   UNL A   1      39.286  23.728  26.378  1.00  0.00     0.016 A 
ATOM     31  C   UNL A   1      40.888  22.438  27.675  1.00  0.00     0.016 A 
ATOM     32  C   UNL A   1      39.841  24.916  26.849  1.00  0.00     0.010 A 
ATOM     33  C   UNL A   1      41.453  23.630  28.135  1.00  0.00     0.010 A 
ATOM     34  C   UNL A   1      40.956  24.872  27.695  1.00  0.00    -0.014 A 
BRANCH  34  35
ATOM     35  C   UNL A   1      41.725  26.104  27.984  1.00  0.00     0.031 A 
ATOM     36  C   UNL A   1      41.039  27.214  28.729  1.00  0.00     0.074 A 
ATOM     37  C   UNL A   1      42.995  26.246  27.566  1.00  0.00     0.049 A 
ATOM     38  N   UNL A   1      41.437  28.441  28.946  1.00  0.00    -0.248 NA
ATOM     39  C   UNL A   1      39.718  26.900  29.301  1.00  0.00     0.031 C 
ATOM     40  C   UNL A   1      43.780  25.220  26.885  1.00  0.00     0.029 A 
ATOM     41  N   UNL A   1      43.836  27.329  27.630  1.00  0.00    -0.354 N 
ATOM     42  C   UNL A   1      40.406  29.052  29.649  1.00  0.00     0.074 A 
ATOM     43  C   UNL A   1      39.362  28.066  29.822  1.00  0.00     0.031 C 
ATOM     44  C   UNL A   1      44.981  25.733  26.562  1.00  0.00     0.029 A 
ATOM     45  C   UNL A   1      45.027  27.135  26.975  1.00  0.00     0.049 A 
ATOM     46  H   UNL A   1      43.608  28.163  28.101  1.00  0.00     0.167 HD
ATOM     47  C   UNL A   1      40.341  30.324  30.105  1.00  0.00     0.037 A 
ATOM     48  C   UNL A   1      46.018  28.007  26.702  1.00  0.00     0.037 A 
ATOM     49  C   UNL A   1      41.393  31.291  29.949  1.00  0.00     0.049 A 
ATOM     50  C   UNL A   1      45.894  29.436  27.173  1.00  0.00     0.074 A 
ATOM     51  C   UNL A   1      41.435  32.598  30.400  1.00  0.00     0.029 A 
ATOM     52  N   UNL A   1      42.590  31.052  29.291  1.00  0.00    -0.354 N 
ATOM     53  N   UNL A   1      44.926  30.004  27.850  1.00  0.00    -0.248 NA
ATOM     54  C   UNL A   1      46.999  30.347  26.838  1.00  0.00     0.031 C 
ATOM     55  C   UNL A   1      42.638  33.167  29.972  1.00  0.00     0.029 A 
ATOM     56  C   UNL A   1      43.368  32.197  29.305  1.00  0.00     0.049 A 
ATOM     57  H   UNL A   1      42.847  30.199  28.875  1.00  0.00     0.167 HD
ATOM     58  C   UNL A   1      45.324  31.317  28.061  1.00  0.00     0.074 A 
ATOM     59  C   UNL A   1      46.621  31.467  27.438  1.00  0.00     0.031 C 
ATOM     60  C   UNL A   1      44.677  32.311  28.717  1.00  0.00     0.037 A 
BRANCH  47  61
ATOM     61  C   UNL A   1      39.084  30.763  30.792  1.00  0.00     0.064 A 
ATOM     62  C   UNL A   1      37.974  31.233  30.075  1.00  0.00     0.173 A 
ATOM     63  C   UNL A   1      38.962  30.635  32.184  1.00  0.00     0.173 A 
ATOM     64  F   UNL A   1      38.046  31.385  28.744  1.00  0.00    -0.203 F 
ATOM     65  C   UNL A   1      36.791  31.567  30.729  1.00  0.00     0.198 A 
ATOM     66  C   UNL A   1      37.770  30.945  32.831  1.00  0.00     0.198 A 
ATOM     67  F   UNL A   1      39.995  30.187  32.914  1.00  0.00    -0.203 F 
ATOM     68  F   UNL A   1      35.751  32.038  30.029  1.00  0.00    -0.200 F 
ATOM     69  C   UNL A   1      36.686  31.412  32.104  1.00  0.00     0.200 A 
ATOM     70  F   UNL A   1      37.668  30.783  34.158  1.00  0.00    -0.200 F 
ATOM     71  F   UNL A   1      35.540  31.715  32.729  1.00  0.00    -0.200 F 
ENDBRANCH  47  61
BRANCH  48  72
ATOM     72  C   UNL A   1      47.203  27.576  25.914  1.00  0.00     0.064 A 
ATOM     73  C   UNL A   1      48.371  27.126  26.547  1.00  0.00     0.173 A 
ATOM     74  C   UNL A   1      47.211  27.653  24.513  1.00  0.00     0.173 A 
ATOM     75  F   UNL A   1      48.422  27.060  27.886  1.00  0.00    -0.203 F 
ATOM     76  C   UNL A   1      49.509  26.799  25.813  1.00  0.00     0.198 A 
ATOM     77  C   UNL A   1      48.339  27.296  23.777  1.00  0.00     0.198 A 
ATOM     78  F   UNL A   1      46.122  28.078  23.856  1.00  0.00    -0.203 F 
ATOM     79  F   UNL A   1      50.631  26.433  26.448  1.00  0.00    -0.200 F 
ATOM     80  C   UNL A   1      49.491  26.881  24.429  1.00  0.00     0.200 A 
ATOM     81  F   UNL A   1      48.314  27.366  22.439  1.00  0.00    -0.200 F 
ATOM     82  F   UNL A   1      50.589  26.574  23.723  1.00  0.00    -0.200 F 
ENDBRANCH  48  72
BRANCH  60  83
ATOM     83  C   UNL A   1      45.381  33.625  28.871  1.00  0.00     0.064 A 
ATOM     84  C   UNL A   1      46.260  33.873  29.934  1.00  0.00     0.173 A 
ATOM     85  C   UNL A   1      45.239  34.616  27.887  1.00  0.00     0.173 A 
ATOM     86  F   UNL A   1      46.420  32.962  30.905  1.00  0.00    -0.203 F 
ATOM     87  C   UNL A   1      46.966  35.071  30.011  1.00  0.00     0.198 A 
ATOM     88  C   UNL A   1      45.966  35.800  27.953  1.00  0.00     0.198 A 
ATOM     89  F   UNL A   1      44.416  34.422  26.846  1.00  0.00    -0.203 F 
ATOM     90  F   UNL A   1      47.781  35.302  31.049  1.00  0.00    -0.200 F 
ATOM     91  C   UNL A   1      46.827  36.029  29.016  1.00  0.00     0.200 A 
ATOM     92  F   UNL A   1      45.842  36.716  26.982  1.00  0.00    -0.200 F 
ATOM     93  F   UNL A   1      47.523  37.171  29.081  1.00  0.00    -0.200 F 
ENDBRANCH  60  83
ENDBRANCH  34  35
ENDBRANCH  27  29
ENDBRANCH  26  27
ENDBRANCH  25  26
ENDBRANCH  24  25
ENDBRANCH  23  24
ENDBRANCH   1  23
TORSDOF 17
ENDMDL
MODEL 3
REMARK VINA RESULT:     -11.1      3.461      8.529
REMARK SMILES C[NH+](C)[C@@H]1CC[N@@H+](Cc2ccc(C(=O)OCCOCCOC(=O)c3ccc(-c4c5nc(c(-c6c(F)c(F)c(F)c(F)c6F)c6ccc([nH]6)c(-c6c(F)c(F)c(F)c(F)c6F)c6nc(c(-c7c(F)c(F)c(F)c(F)c7F)c7ccc4[nH]7)C=C6)C=C5)cc3)cn2)C1
REMARK SMILES IDX 17 1 16 2 15 3 13 4 14 5 12 6 9 7 10 8 88 9 11 10 87 11 8 12
REMARK SMILES IDX 7 13 4 14 5 15 89 16 6 17 2 19 1 20 3 21 18 23 19 24 20 25
REMARK SMILES IDX 21 26 22 27 23 28 24 29 25 30 86 31 26 32 85 33 27 34 28 35
REMARK SMILES IDX 29 36 79 37 30 38 84 39 78 40 80 41 31 42 83 43 77 44 76 45
REMARK SMILES IDX 32 47 64 48 44 49 63 50 45 51 48 52 62 53 81 54 46 55 47 56
REMARK SMILES IDX 61 58 82 59 49 60 33 61 34 62 42 63 35 64 36 65 40 66 43 67
REMARK SMILES IDX 37 68 38 69 41 70 39 71 65 72 66 73 74 74 67 75 68 76 72 77
REMARK SMILES IDX 75 78 69 79 70 80 73 81 71 82 50 83 51 84 59 85 52 86 53 87
REMARK SMILES IDX 57 88 60 89 54 90 55 91 58 92 56 93
REMARK H PARENT 7 18 2 22 80 46 48 57
REMARK Flexibility Score: inf
ROOT
ATOM      1  C   UNL A   1      34.230  31.264  27.748  1.00  0.00     0.202 C 
ENDROOT
BRANCH   1   2
ATOM      2  C   UNL A   1      32.807  30.999  27.250  1.00  0.00     0.261 C 
BRANCH   2   3
ATOM      3  O   UNL A   1      32.692  29.654  26.764  1.00  0.00    -0.460 OA
BRANCH   3   4
ATOM      4  C   UNL A   1      31.744  29.476  25.819  1.00  0.00     0.339 C 
ATOM      5  O   UNL A   1      31.312  30.319  25.043  1.00  0.00    -0.246 OA
BRANCH   4   6
ATOM      6  C   UNL A   1      31.379  28.057  25.727  1.00  0.00     0.078 A 
ATOM      7  C   UNL A   1      31.040  25.341  25.744  1.00  0.00     0.095 A 
ATOM      8  C   UNL A   1      30.786  26.040  24.565  1.00  0.00     0.031 A 
ATOM      9  N   UNL A   1      31.297  25.968  26.922  1.00  0.00    -0.254 NA
ATOM     10  C   UNL A   1      30.962  27.423  24.556  1.00  0.00     0.019 A 
ATOM     11  C   UNL A   1      31.474  27.306  26.887  1.00  0.00     0.127 A 
BRANCH   7  12
ATOM     12  C   UNL A   1      31.294  23.846  25.718  1.00  0.00     0.319 C 
BRANCH  12  13
ATOM     13  N   UNL A   1      32.619  23.399  26.194  1.00  0.00    -0.325 N 
ATOM     14  C   UNL A   1      33.643  21.449  25.104  1.00  0.00     0.245 C 
ATOM     15  C   UNL A   1      34.095  22.747  24.412  1.00  0.00     0.132 C 
ATOM     16  C   UNL A   1      32.806  21.950  26.318  1.00  0.00     0.328 C 
ATOM     17  C   UNL A   1      33.751  23.864  25.387  1.00  0.00     0.269 C 
ATOM     18  H   UNL A   1      32.616  23.831  27.117  1.00  0.00     0.348 HD
BRANCH  14  19
ATOM     19  N   UNL A   1      34.629  20.362  25.297  1.00  0.00    -0.333 N 
ATOM     20  C   UNL A   1      34.289  19.077  24.700  1.00  0.00     0.332 C 
ATOM     21  C   UNL A   1      36.013  20.714  25.004  1.00  0.00     0.332 C 
ATOM     22  H   UNL A   1      34.562  20.233  26.307  1.00  0.00     0.348 HD
ENDBRANCH  14  19
ENDBRANCH  12  13
ENDBRANCH   7  12
ENDBRANCH   4   6
ENDBRANCH   3   4
ENDBRANCH   2   3
ENDBRANCH   1   2
BRANCH   1  23
ATOM     23  O   UNL A   1      34.611  32.632  27.892  1.00  0.00    -0.374 OA
BRANCH  23  24
ATOM     24  C   UNL A   1      33.846  33.452  28.776  1.00  0.00     0.202 C 
BRANCH  24  25
ATOM     25  C   UNL A   1      34.388  33.646  30.197  1.00  0.00     0.261 C 
BRANCH  25  26
ATOM     26  O   UNL A   1      34.382  32.422  30.954  1.00  0.00    -0.460 OA
BRANCH  26  27
ATOM     27  C   UNL A   1      35.381  32.310  31.858  1.00  0.00     0.338 C 
ATOM     28  O   UNL A   1      35.390  32.716  33.013  1.00  0.00    -0.246 OA
BRANCH  27  29
ATOM     29  C   UNL A   1      36.452  31.457  31.318  1.00  0.00     0.060 A 
ATOM     30  C   UNL A   1      37.305  30.818  32.229  1.00  0.00     0.016 A 
ATOM     31  C   UNL A   1      36.671  31.352  29.944  1.00  0.00     0.016 A 
ATOM     32  C   UNL A   1      38.415  30.112  31.771  1.00  0.00     0.010 A 
ATOM     33  C   UNL A   1      37.792  30.656  29.486  1.00  0.00     0.010 A 
ATOM     34  C   UNL A   1      38.688  30.066  30.398  1.00  0.00    -0.014 A 
BRANCH  34  35
ATOM     35  C   UNL A   1      39.993  29.564  29.911  1.00  0.00     0.031 A 
ATOM     36  C   UNL A   1      41.136  30.535  29.806  1.00  0.00     0.074 A 
ATOM     37  C   UNL A   1      40.151  28.282  29.539  1.00  0.00     0.049 A 
ATOM     38  N   UNL A   1      42.310  30.381  29.250  1.00  0.00    -0.248 NA
ATOM     39  C   UNL A   1      40.922  31.865  30.402  1.00  0.00     0.031 C 
ATOM     40  C   UNL A   1      39.134  27.239  29.649  1.00  0.00     0.029 A 
ATOM     41  N   UNL A   1      41.225  27.648  28.965  1.00  0.00    -0.354 N 
ATOM     42  C   UNL A   1      42.960  31.599  29.401  1.00  0.00     0.074 A 
ATOM     43  C   UNL A   1      42.053  32.485  30.097  1.00  0.00     0.031 C 
ATOM     44  C   UNL A   1      39.621  26.100  29.124  1.00  0.00     0.029 A 
ATOM     45  C   UNL A   1      40.964  26.349  28.606  1.00  0.00     0.049 A 
ATOM     46  H   UNL A   1      42.098  28.083  28.826  1.00  0.00     0.167 HD
ATOM     47  C   UNL A   1      44.202  31.943  28.991  1.00  0.00     0.037 A 
ATOM     48  C   UNL A   1      41.712  25.479  27.897  1.00  0.00     0.037 A 
ATOM     49  C   UNL A   1      45.106  31.049  28.320  1.00  0.00     0.049 A 
ATOM     50  C   UNL A   1      43.073  25.909  27.402  1.00  0.00     0.074 A 
ATOM     51  C   UNL A   1      46.398  31.294  27.889  1.00  0.00     0.029 A 
ATOM     52  N   UNL A   1      44.811  29.736  27.986  1.00  0.00    -0.354 N 
ATOM     53  N   UNL A   1      43.688  27.055  27.561  1.00  0.00    -0.248 NA
ATOM     54  C   UNL A   1      43.840  24.924  26.625  1.00  0.00     0.031 C 
ATOM     55  C   UNL A   1      46.867  30.144  27.248  1.00  0.00     0.029 A 
ATOM     56  C   UNL A   1      45.889  29.166  27.332  1.00  0.00     0.049 A 
ATOM     57  H   UNL A   1      43.961  29.280  28.181  1.00  0.00     0.167 HD
ATOM     58  C   UNL A   1      44.926  26.914  26.948  1.00  0.00     0.074 A 
ATOM     59  C   UNL A   1      44.976  25.571  26.409  1.00  0.00     0.031 C 
ATOM     60  C   UNL A   1      45.935  27.813  26.844  1.00  0.00     0.037 A 
BRANCH  47  61
ATOM     61  C   UNL A   1      44.657  33.352  29.225  1.00  0.00     0.064 A 
ATOM     62  C   UNL A   1      45.367  33.717  30.378  1.00  0.00     0.173 A 
ATOM     63  C   UNL A   1      44.446  34.332  28.243  1.00  0.00     0.173 A 
ATOM     64  F   UNL A   1      45.583  32.819  31.351  1.00  0.00    -0.203 F 
ATOM     65  C   UNL A   1      45.843  35.016  30.541  1.00  0.00     0.198 A 
ATOM     66  C   UNL A   1      44.945  35.621  28.398  1.00  0.00     0.198 A 
ATOM     67  F   UNL A   1      43.773  34.030  27.122  1.00  0.00    -0.203 F 
ATOM     68  F   UNL A   1      46.498  35.352  31.660  1.00  0.00    -0.200 F 
ATOM     69  C   UNL A   1      45.641  35.963  29.547  1.00  0.00     0.200 A 
ATOM     70  F   UNL A   1      44.758  36.531  27.431  1.00  0.00    -0.200 F 
ATOM     71  F   UNL A   1      46.117  37.207  29.697  1.00  0.00    -0.200 F 
ENDBRANCH  47  61
BRANCH  48  72
ATOM     72  C   UNL A   1      41.188  24.125  27.576  1.00  0.00     0.064 A 
ATOM     73  C   UNL A   1      41.755  22.975  28.141  1.00  0.00     0.173 A 
ATOM     74  C   UNL A   1      40.142  23.951  26.656  1.00  0.00     0.173 A 
ATOM     75  F   UNL A   1      42.775  23.088  29.004  1.00  0.00    -0.203 F 
ATOM     76  C   UNL A   1      41.318  21.703  27.778  1.00  0.00     0.198 A 
ATOM     77  C   UNL A   1      39.684  22.680  26.318  1.00  0.00     0.198 A 
ATOM     78  F   UNL A   1      39.564  25.018  26.084  1.00  0.00    -0.203 F 
ATOM     79  F   UNL A   1      41.921  20.619  28.286  1.00  0.00    -0.200 F 
ATOM     80  C   UNL A   1      40.281  21.556  26.870  1.00  0.00     0.200 A 
ATOM     81  F   UNL A   1      38.674  22.543  25.448  1.00  0.00    -0.200 F 
ATOM     82  F   UNL A   1      39.866  20.332  26.514  1.00  0.00    -0.200 F 
ENDBRANCH  48  72
BRANCH  60  83
ATOM     83  C   UNL A   1      47.210  27.364  26.197  1.00  0.00     0.064 A 
ATOM     84  C   UNL A   1      48.228  26.734  26.925  1.00  0.00     0.173 A 
ATOM     85  C   UNL A   1      47.374  27.491  24.808  1.00  0.00     0.173 A 
ATOM     86  F   UNL A   1      48.123  26.600  28.256  1.00  0.00    -0.203 F 
ATOM     87  C   UNL A   1      49.368  26.252  26.287  1.00  0.00     0.198 A 
ATOM     88  C   UNL A   1      48.502  26.984  24.171  1.00  0.00     0.198 A 
ATOM     89  F   UNL A   1      46.424  28.079  24.066  1.00  0.00    -0.203 F 
ATOM     90  F   UNL A   1      50.343  25.676  27.005  1.00  0.00    -0.200 F 
ATOM     91  C   UNL A   1      49.500  26.368  24.911  1.00  0.00     0.200 A 
ATOM     92  F   UNL A   1      48.618  27.082  22.839  1.00  0.00    -0.200 F 
ATOM     93  F   UNL A   1      50.588  25.885  24.297  1.00  0.00    -0.200 F 
ENDBRANCH  60  83
ENDBRANCH  34  35
ENDBRANCH  27  29
ENDBRANCH  26  27
ENDBRANCH  25  26
ENDBRANCH  24  25
ENDBRANCH  23  24
ENDBRANCH   1  23
TORSDOF 17
ENDMDL
