MODEL 1
REMARK VINA RESULT:     -12.0      0.000      0.000
REMARK SMILES C[C@](Nc1ccc(C(N)=O)nn1)(C(=O)OCCOCCOC(=O)c1ccc(-c2c3nc(c(-c4c(F)c(F)c(F)c(F)c4F)c4ccc([nH]4)c(-c4c(F)c(F)c(F)c(F)c4F)c4nc(c(-c5c(F)c(F)c(F)c(F)c5F)c5ccc2[nH]5)C=C4)C=C3)cc1)c1ccccc1
REMARK SMILES IDX 17 1 16 2 15 3 13 4 14 5 2 6 1 7 87 8 88 9 92 10 89 11 91 12
REMARK SMILES IDX 90 13 3 14 4 16 5 17 12 18 6 19 11 20 7 21 8 22 9 23 10 24
REMARK SMILES IDX 18 27 19 28 20 29 21 30 22 31 23 32 24 33 25 34 86 35 26 36
REMARK SMILES IDX 85 37 27 38 28 39 29 40 79 41 30 42 84 43 78 44 80 45 31 46
REMARK SMILES IDX 83 47 77 48 76 49 32 51 64 52 44 53 63 54 45 55 48 56 62 57
REMARK SMILES IDX 81 58 46 59 47 60 61 62 82 63 49 64 33 65 34 66 42 67 35 68
REMARK SMILES IDX 36 69 40 70 43 71 37 72 38 73 41 74 39 75 65 76 66 77 74 78
REMARK SMILES IDX 67 79 68 80 72 81 75 82 69 83 70 84 73 85 71 86 50 87 51 88
REMARK SMILES IDX 59 89 52 90 53 91 57 92 60 93 54 94 55 95 58 96 56 97
REMARK H PARENT 3 15 9 25 9 26 80 50 48 61
REMARK Flexibility Score: inf
ROOT
ATOM      1  C   UNL A   1      34.055  21.726  24.072  1.00  0.00     0.202 C 
ENDROOT
BRANCH   1   2
ATOM      2  C   UNL A   1      34.633  23.129  23.890  1.00  0.00     0.261 C 
BRANCH   2   3
ATOM      3  O   UNL A   1      33.742  24.123  24.429  1.00  0.00    -0.461 OA
BRANCH   3   4
ATOM      4  C   UNL A   1      33.286  25.058  23.540  1.00  0.00     0.336 C 
ATOM      5  O   UNL A   1      33.842  25.321  22.479  1.00  0.00    -0.249 OA
BRANCH   4   6
ATOM      6  C   UNL A   1      31.984  25.776  24.058  1.00  0.00     0.160 C 
ATOM      7  C   UNL A   1      31.078  24.597  24.461  1.00  0.00     0.053 C 
BRANCH   6   8
ATOM      8  C   UNL A   1      32.405  26.679  25.243  1.00  0.00    -0.012 A 
ATOM      9  C   UNL A   1      33.620  27.391  25.233  1.00  0.00     0.007 A 
ATOM     10  C   UNL A   1      31.524  26.932  26.315  1.00  0.00     0.007 A 
ATOM     11  C   UNL A   1      33.926  28.325  26.228  1.00  0.00     0.000 A 
ATOM     12  C   UNL A   1      31.824  27.877  27.302  1.00  0.00     0.000 A 
ATOM     13  C   UNL A   1      33.023  28.578  27.253  1.00  0.00     0.000 A 
ENDBRANCH   6   8
BRANCH   6  14
ATOM     14  N   UNL A   1      31.398  26.626  22.983  1.00  0.00    -0.350 N 
ATOM     15  H   UNL A   1      31.717  26.429  22.073  1.00  0.00     0.163 HD
BRANCH  14  16
ATOM     16  C   UNL A   1      30.482  27.642  23.070  1.00  0.00     0.149 A 
ATOM     17  C   UNL A   1      29.110  27.468  23.152  1.00  0.00     0.051 A 
ATOM     18  N   UNL A   1      30.992  28.895  23.085  1.00  0.00    -0.132 NA
ATOM     19  C   UNL A   1      28.264  28.577  23.126  1.00  0.00     0.040 A 
ATOM     20  N   UNL A   1      30.174  30.005  23.088  1.00  0.00    -0.143 NA
ATOM     21  C   UNL A   1      28.835  29.833  23.079  1.00  0.00     0.150 A 
BRANCH  21  22
ATOM     22  C   UNL A   1      27.989  31.056  23.004  1.00  0.00     0.269 C 
ATOM     23  N   UNL A   1      28.292  31.947  22.010  1.00  0.00    -0.364 N 
ATOM     24  O   UNL A   1      27.067  31.258  23.785  1.00  0.00    -0.268 OA
ATOM     25  H   UNL A   1      29.038  31.763  21.394  1.00  0.00     0.160 HD
ATOM     26  H   UNL A   1      27.765  32.772  21.911  1.00  0.00     0.160 HD
ENDBRANCH  21  22
ENDBRANCH  14  16
ENDBRANCH   6  14
ENDBRANCH   4   6
ENDBRANCH   3   4
ENDBRANCH   2   3
ENDBRANCH   1   2
BRANCH   1  27
ATOM     27  O   UNL A   1      34.874  20.796  24.784  1.00  0.00    -0.374 OA
BRANCH  27  28
ATOM     28  C   UNL A   1      36.054  21.300  25.404  1.00  0.00     0.202 C 
BRANCH  28  29
ATOM     29  C   UNL A   1      37.376  20.639  24.995  1.00  0.00     0.261 C 
BRANCH  29  30
ATOM     30  O   UNL A   1      38.482  21.553  25.051  1.00  0.00    -0.460 OA
BRANCH  30  31
ATOM     31  C   UNL A   1      39.401  21.247  25.996  1.00  0.00     0.338 C 
ATOM     32  O   UNL A   1      39.999  20.186  26.129  1.00  0.00    -0.246 OA
BRANCH  31  33
ATOM     33  C   UNL A   1      39.747  22.429  26.805  1.00  0.00     0.060 A 
ATOM     34  C   UNL A   1      39.078  23.620  26.495  1.00  0.00     0.016 A 
ATOM     35  C   UNL A   1      40.769  22.415  27.758  1.00  0.00     0.016 A 
ATOM     36  C   UNL A   1      39.489  24.819  27.067  1.00  0.00     0.010 A 
ATOM     37  C   UNL A   1      41.188  23.624  28.327  1.00  0.00     0.010 A 
ATOM     38  C   UNL A   1      40.586  24.836  27.939  1.00  0.00    -0.014 A 
BRANCH  38  39
ATOM     39  C   UNL A   1      41.207  26.146  28.255  1.00  0.00     0.031 A 
ATOM     40  C   UNL A   1      42.590  26.432  27.735  1.00  0.00     0.074 A 
ATOM     41  C   UNL A   1      40.517  27.101  28.902  1.00  0.00     0.049 A 
ATOM     42  N   UNL A   1      43.292  27.536  27.796  1.00  0.00    -0.248 NA
ATOM     43  C   UNL A   1      43.273  25.325  27.046  1.00  0.00     0.031 C 
ATOM     44  C   UNL A   1      39.158  26.956  29.418  1.00  0.00     0.029 A 
ATOM     45  N   UNL A   1      40.866  28.390  29.217  1.00  0.00    -0.354 N 
ATOM     46  C   UNL A   1      44.492  27.256  27.156  1.00  0.00     0.074 A 
ATOM     47  C   UNL A   1      44.441  25.871  26.743  1.00  0.00     0.031 C 
ATOM     48  C   UNL A   1      38.782  28.119  29.979  1.00  0.00     0.029 A 
ATOM     49  C   UNL A   1      39.878  29.080  29.874  1.00  0.00     0.049 A 
ATOM     50  H   UNL A   1      41.740  28.782  28.994  1.00  0.00     0.167 HD
ATOM     51  C   UNL A   1      45.539  28.083  26.920  1.00  0.00     0.037 A 
ATOM     52  C   UNL A   1      39.864  30.347  30.333  1.00  0.00     0.037 A 
ATOM     53  C   UNL A   1      45.587  29.463  27.321  1.00  0.00     0.049 A 
ATOM     54  C   UNL A   1      41.062  31.232  30.101  1.00  0.00     0.074 A 
ATOM     55  C   UNL A   1      46.593  30.389  27.110  1.00  0.00     0.029 A 
ATOM     56  N   UNL A   1      44.584  30.114  28.024  1.00  0.00    -0.354 N 
ATOM     57  N   UNL A   1      42.175  30.971  29.461  1.00  0.00    -0.248 NA
ATOM     58  C   UNL A   1      40.992  32.595  30.648  1.00  0.00     0.031 C 
ATOM     59  C   UNL A   1      46.218  31.589  27.724  1.00  0.00     0.029 A 
ATOM     60  C   UNL A   1      44.957  31.424  28.275  1.00  0.00     0.049 A 
ATOM     61  H   UNL A   1      43.733  29.705  28.301  1.00  0.00     0.167 HD
ATOM     62  C   UNL A   1      42.922  32.141  29.498  1.00  0.00     0.074 A 
ATOM     63  C   UNL A   1      42.131  33.118  30.217  1.00  0.00     0.031 C 
ATOM     64  C   UNL A   1      44.151  32.387  28.981  1.00  0.00     0.037 A 
BRANCH  51  65
ATOM     65  C   UNL A   1      46.729  27.504  26.215  1.00  0.00     0.064 A 
ATOM     66  C   UNL A   1      46.883  27.599  24.824  1.00  0.00     0.173 A 
ATOM     67  C   UNL A   1      47.742  26.862  26.944  1.00  0.00     0.173 A 
ATOM     68  F   UNL A   1      45.935  28.190  24.079  1.00  0.00    -0.203 F 
ATOM     69  C   UNL A   1      47.993  27.052  24.186  1.00  0.00     0.198 A 
ATOM     70  C   UNL A   1      48.864  26.340  26.307  1.00  0.00     0.198 A 
ATOM     71  F   UNL A   1      47.643  26.745  28.277  1.00  0.00    -0.203 F 
ATOM     72  F   UNL A   1      48.098  27.115  22.852  1.00  0.00    -0.200 F 
ATOM     73  C   UNL A   1      48.985  26.428  24.929  1.00  0.00     0.200 A 
ATOM     74  F   UNL A   1      49.824  25.744  27.027  1.00  0.00    -0.200 F 
ATOM     75  F   UNL A   1      50.055  25.904  24.315  1.00  0.00    -0.200 F 
ENDBRANCH  51  65
BRANCH  52  76
ATOM     76  C   UNL A   1      38.667  30.865  31.046  1.00  0.00     0.064 A 
ATOM     77  C   UNL A   1      37.605  31.451  30.343  1.00  0.00     0.173 A 
ATOM     78  C   UNL A   1      38.571  30.803  32.442  1.00  0.00     0.173 A 
ATOM     79  F   UNL A   1      37.663  31.557  29.008  1.00  0.00    -0.203 F 
ATOM     80  C   UNL A   1      36.499  31.971  31.013  1.00  0.00     0.198 A 
ATOM     81  C   UNL A   1      37.454  31.301  33.110  1.00  0.00     0.198 A 
ATOM     82  F   UNL A   1      39.563  30.256  33.160  1.00  0.00    -0.203 F 
ATOM     83  F   UNL A   1      35.518  32.567  30.321  1.00  0.00    -0.200 F 
ATOM     84  C   UNL A   1      36.423  31.890  32.396  1.00  0.00     0.200 A 
ATOM     85  F   UNL A   1      37.380  31.213  34.445  1.00  0.00    -0.200 F 
ATOM     86  F   UNL A   1      35.359  32.391  33.040  1.00  0.00    -0.200 F 
ENDBRANCH  52  76
BRANCH  64  87
ATOM     87  C   UNL A   1      44.698  33.776  29.136  1.00  0.00     0.064 A 
ATOM     88  C   UNL A   1      45.500  34.135  30.228  1.00  0.00     0.173 A 
ATOM     89  C   UNL A   1      44.441  34.751  28.160  1.00  0.00     0.173 A 
ATOM     90  F   UNL A   1      45.764  33.242  31.195  1.00  0.00    -0.203 F 
ATOM     91  C   UNL A   1      46.002  35.428  30.352  1.00  0.00     0.198 A 
ATOM     92  C   UNL A   1      44.968  36.034  28.273  1.00  0.00     0.198 A 
ATOM     93  F   UNL A   1      43.686  34.455  27.090  1.00  0.00    -0.203 F 
ATOM     94  F   UNL A   1      46.726  35.763  31.430  1.00  0.00    -0.200 F 
ATOM     95  C   UNL A   1      45.741  36.374  29.373  1.00  0.00     0.200 A 
ATOM     96  F   UNL A   1      44.725  36.944  27.318  1.00  0.00    -0.200 F 
ATOM     97  F   UNL A   1      46.226  37.617  29.493  1.00  0.00    -0.200 F 
ENDBRANCH  64  87
ENDBRANCH  38  39
ENDBRANCH  31  33
ENDBRANCH  30  31
ENDBRANCH  29  30
ENDBRANCH  28  29
ENDBRANCH  27  28
ENDBRANCH   1  27
TORSDOF 18
ENDMDL
MODEL 2
REMARK VINA RESULT:     -11.9      4.405     10.118
REMARK SMILES C[C@](Nc1ccc(C(N)=O)nn1)(C(=O)OCCOCCOC(=O)c1ccc(-c2c3nc(c(-c4c(F)c(F)c(F)c(F)c4F)c4ccc([nH]4)c(-c4c(F)c(F)c(F)c(F)c4F)c4nc(c(-c5c(F)c(F)c(F)c(F)c5F)c5ccc2[nH]5)C=C4)C=C3)cc1)c1ccccc1
REMARK SMILES IDX 17 1 16 2 15 3 13 4 14 5 2 6 1 7 87 8 88 9 92 10 89 11 91 12
REMARK SMILES IDX 90 13 3 14 4 16 5 17 12 18 6 19 11 20 7 21 8 22 9 23 10 24
REMARK SMILES IDX 18 27 19 28 20 29 21 30 22 31 23 32 24 33 25 34 86 35 26 36
REMARK SMILES IDX 85 37 27 38 28 39 29 40 79 41 30 42 84 43 78 44 80 45 31 46
REMARK SMILES IDX 83 47 77 48 76 49 32 51 64 52 44 53 63 54 45 55 48 56 62 57
REMARK SMILES IDX 81 58 46 59 47 60 61 62 82 63 49 64 33 65 34 66 42 67 35 68
REMARK SMILES IDX 36 69 40 70 43 71 37 72 38 73 41 74 39 75 65 76 66 77 74 78
REMARK SMILES IDX 67 79 68 80 72 81 75 82 69 83 70 84 73 85 71 86 50 87 51 88
REMARK SMILES IDX 59 89 52 90 53 91 57 92 60 93 54 94 55 95 58 96 56 97
REMARK H PARENT 3 15 9 25 9 26 80 50 48 61
REMARK Flexibility Score: inf
ROOT
ATOM      1  C   UNL A   1      31.118  27.023  25.703  1.00  0.00     0.202 C 
ENDROOT
BRANCH   1   2
ATOM      2  C   UNL A   1      30.776  25.894  24.732  1.00  0.00     0.261 C 
BRANCH   2   3
ATOM      3  O   UNL A   1      31.808  24.890  24.731  1.00  0.00    -0.461 OA
BRANCH   3   4
ATOM      4  C   UNL A   1      32.727  24.981  23.721  1.00  0.00     0.336 C 
ATOM      5  O   UNL A   1      33.025  26.031  23.161  1.00  0.00    -0.249 OA
BRANCH   4   6
ATOM      6  C   UNL A   1      33.327  23.575  23.343  1.00  0.00     0.160 C 
ATOM      7  C   UNL A   1      33.276  23.583  21.802  1.00  0.00     0.053 C 
BRANCH   6   8
ATOM      8  C   UNL A   1      34.761  23.524  23.923  1.00  0.00    -0.012 A 
ATOM      9  C   UNL A   1      35.035  23.916  25.248  1.00  0.00     0.007 A 
ATOM     10  C   UNL A   1      35.823  22.950  23.193  1.00  0.00     0.007 A 
ATOM     11  C   UNL A   1      36.297  23.721  25.819  1.00  0.00     0.000 A 
ATOM     12  C   UNL A   1      37.080  22.742  23.770  1.00  0.00     0.000 A 
ATOM     13  C   UNL A   1      37.314  23.122  25.086  1.00  0.00     0.000 A 
ENDBRANCH   6   8
BRANCH   6  14
ATOM     14  N   UNL A   1      32.516  22.483  23.952  1.00  0.00    -0.350 N 
ATOM     15  H   UNL A   1      31.683  22.775  24.389  1.00  0.00     0.163 HD
BRANCH  14  16
ATOM     16  C   UNL A   1      32.755  21.135  23.997  1.00  0.00     0.149 A 
ATOM     17  C   UNL A   1      33.708  20.524  24.795  1.00  0.00     0.051 A 
ATOM     18  N   UNL A   1      31.975  20.372  23.196  1.00  0.00    -0.132 NA
ATOM     19  C   UNL A   1      33.940  19.154  24.678  1.00  0.00     0.040 A 
ATOM     20  N   UNL A   1      32.170  19.011  23.087  1.00  0.00    -0.143 NA
ATOM     21  C   UNL A   1      33.157  18.430  23.800  1.00  0.00     0.150 A 
BRANCH  21  22
ATOM     22  C   UNL A   1      33.383  16.973  23.596  1.00  0.00     0.269 C 
ATOM     23  N   UNL A   1      32.667  16.127  24.398  1.00  0.00    -0.364 N 
ATOM     24  O   UNL A   1      34.165  16.549  22.754  1.00  0.00    -0.268 OA
ATOM     25  H   UNL A   1      32.045  16.492  25.068  1.00  0.00     0.160 HD
ATOM     26  H   UNL A   1      32.774  15.153  24.306  1.00  0.00     0.160 HD
ENDBRANCH  21  22
ENDBRANCH  14  16
ENDBRANCH   6  14
ENDBRANCH   4   6
ENDBRANCH   3   4
ENDBRANCH   2   3
ENDBRANCH   1   2
BRANCH   1  27
ATOM     27  O   UNL A   1      31.189  28.336  25.142  1.00  0.00    -0.374 OA
BRANCH  27  28
ATOM     28  C   UNL A   1      32.350  29.111  25.429  1.00  0.00     0.202 C 
BRANCH  28  29
ATOM     29  C   UNL A   1      32.124  30.421  26.194  1.00  0.00     0.261 C 
BRANCH  29  30
ATOM     30  O   UNL A   1      32.842  30.456  27.438  1.00  0.00    -0.460 OA
BRANCH  30  31
ATOM     31  C   UNL A   1      33.626  31.548  27.588  1.00  0.00     0.338 C 
ATOM     32  O   UNL A   1      33.263  32.716  27.654  1.00  0.00    -0.246 OA
BRANCH  31  33
ATOM     33  C   UNL A   1      35.028  31.167  27.834  1.00  0.00     0.060 A 
ATOM     34  C   UNL A   1      35.287  29.802  28.013  1.00  0.00     0.016 A 
ATOM     35  C   UNL A   1      36.046  32.110  28.000  1.00  0.00     0.016 A 
ATOM     36  C   UNL A   1      36.538  29.380  28.449  1.00  0.00     0.010 A 
ATOM     37  C   UNL A   1      37.303  31.685  28.448  1.00  0.00     0.010 A 
ATOM     38  C   UNL A   1      37.534  30.325  28.728  1.00  0.00    -0.014 A 
BRANCH  38  39
ATOM     39  C   UNL A   1      38.718  29.884  29.506  1.00  0.00     0.031 A 
ATOM     40  C   UNL A   1      38.885  30.391  30.913  1.00  0.00     0.074 A 
ATOM     41  C   UNL A   1      39.570  28.971  29.011  1.00  0.00     0.049 A 
ATOM     42  N   UNL A   1      39.778  30.068  31.815  1.00  0.00    -0.248 NA
ATOM     43  C   UNL A   1      37.910  31.396  31.368  1.00  0.00     0.031 C 
ATOM     44  C   UNL A   1      39.489  28.377  27.679  1.00  0.00     0.029 A 
ATOM     45  N   UNL A   1      40.664  28.372  29.585  1.00  0.00    -0.354 N 
ATOM     46  C   UNL A   1      39.471  30.826  32.938  1.00  0.00     0.074 A 
ATOM     47  C   UNL A   1      38.333  31.650  32.597  1.00  0.00     0.031 C 
ATOM     48  C   UNL A   1      40.488  27.487  27.539  1.00  0.00     0.029 A 
ATOM     49  C   UNL A   1      41.284  27.462  28.765  1.00  0.00     0.049 A 
ATOM     50  H   UNL A   1      40.973  28.576  30.496  1.00  0.00     0.167 HD
ATOM     51  C   UNL A   1      40.075  30.825  34.150  1.00  0.00     0.037 A 
ATOM     52  C   UNL A   1      42.369  26.695  28.987  1.00  0.00     0.037 A 
ATOM     53  C   UNL A   1      41.200  29.998  34.495  1.00  0.00     0.049 A 
ATOM     54  C   UNL A   1      43.052  26.750  30.329  1.00  0.00     0.074 A 
ATOM     55  C   UNL A   1      41.870  29.909  35.702  1.00  0.00     0.029 A 
ATOM     56  N   UNL A   1      41.828  29.121  33.623  1.00  0.00    -0.354 N 
ATOM     57  N   UNL A   1      42.732  27.439  31.396  1.00  0.00    -0.248 NA
ATOM     58  C   UNL A   1      44.246  25.907  30.497  1.00  0.00     0.031 C 
ATOM     59  C   UNL A   1      42.931  29.009  35.548  1.00  0.00     0.029 A 
ATOM     60  C   UNL A   1      42.892  28.503  34.259  1.00  0.00     0.049 A 
ATOM     61  H   UNL A   1      41.556  28.961  32.690  1.00  0.00     0.167 HD
ATOM     62  C   UNL A   1      43.658  27.089  32.371  1.00  0.00     0.074 A 
ATOM     63  C   UNL A   1      44.549  26.119  31.769  1.00  0.00     0.031 C 
ATOM     64  C   UNL A   1      43.761  27.529  33.649  1.00  0.00     0.037 A 
BRANCH  51  65
ATOM     65  C   UNL A   1      39.540  31.768  35.187  1.00  0.00     0.064 A 
ATOM     66  C   UNL A   1      38.641  31.346  36.177  1.00  0.00     0.173 A 
ATOM     67  C   UNL A   1      39.951  33.110  35.203  1.00  0.00     0.173 A 
ATOM     68  F   UNL A   1      38.205  30.077  36.197  1.00  0.00    -0.203 F 
ATOM     69  C   UNL A   1      38.153  32.237  37.129  1.00  0.00     0.198 A 
ATOM     70  C   UNL A   1      39.483  33.992  36.172  1.00  0.00     0.198 A 
ATOM     71  F   UNL A   1      40.811  33.563  34.279  1.00  0.00    -0.203 F 
ATOM     72  F   UNL A   1      37.259  31.824  38.038  1.00  0.00    -0.200 F 
ATOM     73  C   UNL A   1      38.579  33.558  37.129  1.00  0.00     0.200 A 
ATOM     74  F   UNL A   1      39.901  35.265  36.175  1.00  0.00    -0.200 F 
ATOM     75  F   UNL A   1      38.110  34.414  38.047  1.00  0.00    -0.200 F 
ENDBRANCH  51  65
BRANCH  52  76
ATOM     76  C   UNL A   1      42.871  25.793  27.917  1.00  0.00     0.064 A 
ATOM     77  C   UNL A   1      42.443  24.461  27.836  1.00  0.00     0.173 A 
ATOM     78  C   UNL A   1      43.802  26.240  26.970  1.00  0.00     0.173 A 
ATOM     79  F   UNL A   1      41.574  23.980  28.737  1.00  0.00    -0.203 F 
ATOM     80  C   UNL A   1      42.942  23.604  26.857  1.00  0.00     0.198 A 
ATOM     81  C   UNL A   1      44.282  25.389  25.976  1.00  0.00     0.198 A 
ATOM     82  F   UNL A   1      44.245  27.505  27.008  1.00  0.00    -0.203 F 
ATOM     83  F   UNL A   1      42.552  22.322  26.829  1.00  0.00    -0.200 F 
ATOM     84  C   UNL A   1      43.857  24.071  25.924  1.00  0.00     0.200 A 
ATOM     85  F   UNL A   1      45.158  25.846  25.072  1.00  0.00    -0.200 F 
ATOM     86  F   UNL A   1      44.337  23.246  24.983  1.00  0.00    -0.200 F 
ENDBRANCH  52  76
BRANCH  64  87
ATOM     87  C   UNL A   1      44.847  26.935  34.497  1.00  0.00     0.064 A 
ATOM     88  C   UNL A   1      44.654  25.747  35.216  1.00  0.00     0.173 A 
ATOM     89  C   UNL A   1      46.109  27.545  34.563  1.00  0.00     0.173 A 
ATOM     90  F   UNL A   1      43.461  25.132  35.196  1.00  0.00    -0.203 F 
ATOM     91  C   UNL A   1      45.675  25.208  35.994  1.00  0.00     0.198 A 
ATOM     92  C   UNL A   1      47.136  26.988  35.319  1.00  0.00     0.198 A 
ATOM     93  F   UNL A   1      46.348  28.679  33.885  1.00  0.00    -0.203 F 
ATOM     94  F   UNL A   1      45.453  24.098  36.714  1.00  0.00    -0.200 F 
ATOM     95  C   UNL A   1      46.916  25.826  36.040  1.00  0.00     0.200 A 
ATOM     96  F   UNL A   1      48.339  27.580  35.352  1.00  0.00    -0.200 F 
ATOM     97  F   UNL A   1      47.899  25.304  36.788  1.00  0.00    -0.200 F 
ENDBRANCH  64  87
ENDBRANCH  38  39
ENDBRANCH  31  33
ENDBRANCH  30  31
ENDBRANCH  29  30
ENDBRANCH  28  29
ENDBRANCH  27  28
ENDBRANCH   1  27
TORSDOF 18
ENDMDL
MODEL 3
REMARK VINA RESULT:     -11.7      0.740      7.241
REMARK SMILES C[C@](Nc1ccc(C(N)=O)nn1)(C(=O)OCCOCCOC(=O)c1ccc(-c2c3nc(c(-c4c(F)c(F)c(F)c(F)c4F)c4ccc([nH]4)c(-c4c(F)c(F)c(F)c(F)c4F)c4nc(c(-c5c(F)c(F)c(F)c(F)c5F)c5ccc2[nH]5)C=C4)C=C3)cc1)c1ccccc1
REMARK SMILES IDX 17 1 16 2 15 3 13 4 14 5 2 6 1 7 87 8 88 9 92 10 89 11 91 12
REMARK SMILES IDX 90 13 3 14 4 16 5 17 12 18 6 19 11 20 7 21 8 22 9 23 10 24
REMARK SMILES IDX 18 27 19 28 20 29 21 30 22 31 23 32 24 33 25 34 86 35 26 36
REMARK SMILES IDX 85 37 27 38 28 39 29 40 79 41 30 42 84 43 78 44 80 45 31 46
REMARK SMILES IDX 83 47 77 48 76 49 32 51 64 52 44 53 63 54 45 55 48 56 62 57
REMARK SMILES IDX 81 58 46 59 47 60 61 62 82 63 49 64 33 65 34 66 42 67 35 68
REMARK SMILES IDX 36 69 40 70 43 71 37 72 38 73 41 74 39 75 65 76 66 77 74 78
REMARK SMILES IDX 67 79 68 80 72 81 75 82 69 83 70 84 73 85 71 86 50 87 51 88
REMARK SMILES IDX 59 89 52 90 53 91 57 92 60 93 54 94 55 95 58 96 56 97
REMARK H PARENT 3 15 9 25 9 26 80 50 48 61
REMARK Flexibility Score: inf
ROOT
ATOM      1  C   UNL A   1      33.903  21.519  24.132  1.00  0.00     0.202 C 
ENDROOT
BRANCH   1   2
ATOM      2  C   UNL A   1      34.297  22.987  24.297  1.00  0.00     0.261 C 
BRANCH   2   3
ATOM      3  O   UNL A   1      33.139  23.800  24.564  1.00  0.00    -0.461 OA
BRANCH   3   4
ATOM      4  C   UNL A   1      32.889  24.795  23.659  1.00  0.00     0.336 C 
ATOM      5  O   UNL A   1      33.592  25.021  22.679  1.00  0.00    -0.249 OA
BRANCH   4   6
ATOM      6  C   UNL A   1      31.613  25.635  24.044  1.00  0.00     0.160 C 
ATOM      7  C   UNL A   1      30.663  24.569  24.623  1.00  0.00     0.053 C 
BRANCH   6   8
ATOM      8  C   UNL A   1      32.065  26.699  25.072  1.00  0.00    -0.012 A 
ATOM      9  C   UNL A   1      31.312  26.974  26.230  1.00  0.00     0.007 A 
ATOM     10  C   UNL A   1      33.320  27.334  24.960  1.00  0.00     0.007 A 
ATOM     11  C   UNL A   1      31.798  27.818  27.233  1.00  0.00     0.000 A 
ATOM     12  C   UNL A   1      33.813  28.167  25.971  1.00  0.00     0.000 A 
ATOM     13  C   UNL A   1      33.053  28.403  27.111  1.00  0.00     0.000 A 
ENDBRANCH   6   8
BRANCH   6  14
ATOM     14  N   UNL A   1      31.062  26.323  22.842  1.00  0.00    -0.350 N 
ATOM     15  H   UNL A   1      31.296  25.909  21.980  1.00  0.00     0.163 HD
BRANCH  14  16
ATOM     16  C   UNL A   1      30.280  27.444  22.756  1.00  0.00     0.149 A 
ATOM     17  C   UNL A   1      29.030  27.586  23.334  1.00  0.00     0.051 A 
ATOM     18  N   UNL A   1      30.804  28.475  22.054  1.00  0.00    -0.132 NA
ATOM     19  C   UNL A   1      28.274  28.732  23.089  1.00  0.00     0.040 A 
ATOM     20  N   UNL A   1      30.085  29.629  21.823  1.00  0.00    -0.143 NA
ATOM     21  C   UNL A   1      28.832  29.730  22.315  1.00  0.00     0.150 A 
BRANCH  21  22
ATOM     22  C   UNL A   1      28.062  30.959  21.979  1.00  0.00     0.269 C 
ATOM     23  N   UNL A   1      27.473  31.614  23.026  1.00  0.00    -0.364 N 
ATOM     24  O   UNL A   1      27.961  31.368  20.829  1.00  0.00    -0.268 OA
ATOM     25  H   UNL A   1      27.569  31.266  23.942  1.00  0.00     0.160 HD
ATOM     26  H   UNL A   1      26.953  32.434  22.863  1.00  0.00     0.160 HD
ENDBRANCH  21  22
ENDBRANCH  14  16
ENDBRANCH   6  14
ENDBRANCH   4   6
ENDBRANCH   3   4
ENDBRANCH   2   3
ENDBRANCH   1   2
BRANCH   1  27
ATOM     27  O   UNL A   1      34.737  20.566  24.794  1.00  0.00    -0.374 OA
BRANCH  27  28
ATOM     28  C   UNL A   1      35.892  21.059  25.467  1.00  0.00     0.202 C 
BRANCH  28  29
ATOM     29  C   UNL A   1      37.241  20.482  25.022  1.00  0.00     0.261 C 
BRANCH  29  30
ATOM     30  O   UNL A   1      38.296  21.456  25.080  1.00  0.00    -0.460 OA
BRANCH  30  31
ATOM     31  C   UNL A   1      39.235  21.192  26.017  1.00  0.00     0.338 C 
ATOM     32  O   UNL A   1      39.769  20.114  26.247  1.00  0.00    -0.246 OA
BRANCH  31  33
ATOM     33  C   UNL A   1      39.694  22.430  26.672  1.00  0.00     0.060 A 
ATOM     34  C   UNL A   1      39.067  23.619  26.280  1.00  0.00     0.016 A 
ATOM     35  C   UNL A   1      40.776  22.456  27.556  1.00  0.00     0.016 A 
ATOM     36  C   UNL A   1      39.576  24.845  26.694  1.00  0.00     0.010 A 
ATOM     37  C   UNL A   1      41.293  23.692  27.966  1.00  0.00     0.010 A 
ATOM     38  C   UNL A   1      40.729  24.889  27.489  1.00  0.00    -0.014 A 
BRANCH  38  39
ATOM     39  C   UNL A   1      41.434  26.187  27.625  1.00  0.00     0.031 A 
ATOM     40  C   UNL A   1      40.762  27.296  28.390  1.00  0.00     0.074 A 
ATOM     41  C   UNL A   1      42.689  26.345  27.169  1.00  0.00     0.049 A 
ATOM     42  N   UNL A   1      41.222  28.475  28.725  1.00  0.00    -0.248 NA
ATOM     43  C   UNL A   1      39.385  27.038  28.843  1.00  0.00     0.031 C 
ATOM     44  C   UNL A   1      43.457  25.332  26.450  1.00  0.00     0.029 A 
ATOM     45  N   UNL A   1      43.541  27.416  27.263  1.00  0.00    -0.354 N 
ATOM     46  C   UNL A   1      40.195  29.094  29.426  1.00  0.00     0.074 A 
ATOM     47  C   UNL A   1      39.076  28.179  29.441  1.00  0.00     0.031 C 
ATOM     48  C   UNL A   1      44.676  25.828  26.175  1.00  0.00     0.029 A 
ATOM     49  C   UNL A   1      44.766  27.195  26.685  1.00  0.00     0.049 A 
ATOM     50  H   UNL A   1      43.296  28.262  27.702  1.00  0.00     0.167 HD
ATOM     51  C   UNL A   1      40.190  30.313  30.018  1.00  0.00     0.037 A 
ATOM     52  C   UNL A   1      45.836  28.007  26.586  1.00  0.00     0.037 A 
ATOM     53  C   UNL A   1      41.305  31.221  30.014  1.00  0.00     0.049 A 
ATOM     54  C   UNL A   1      45.787  29.377  27.211  1.00  0.00     0.074 A 
ATOM     55  C   UNL A   1      41.406  32.469  30.604  1.00  0.00     0.029 A 
ATOM     56  N   UNL A   1      42.514  30.979  29.380  1.00  0.00    -0.354 N 
ATOM     57  N   UNL A   1      44.827  29.939  27.906  1.00  0.00    -0.248 NA
ATOM     58  C   UNL A   1      46.978  30.223  27.046  1.00  0.00     0.031 C 
ATOM     59  C   UNL A   1      42.661  33.001  30.288  1.00  0.00     0.029 A 
ATOM     60  C   UNL A   1      43.360  32.064  29.544  1.00  0.00     0.049 A 
ATOM     61  H   UNL A   1      42.738  30.156  28.888  1.00  0.00     0.167 HD
ATOM     62  C   UNL A   1      45.310  31.184  28.289  1.00  0.00     0.074 A 
ATOM     63  C   UNL A   1      46.652  31.293  27.756  1.00  0.00     0.031 C 
ATOM     64  C   UNL A   1      44.698  32.150  29.018  1.00  0.00     0.037 A 
BRANCH  51  65
ATOM     65  C   UNL A   1      38.924  30.742  30.701  1.00  0.00     0.064 A 
ATOM     66  C   UNL A   1      37.887  31.378  30.003  1.00  0.00     0.173 A 
ATOM     67  C   UNL A   1      38.739  30.493  32.069  1.00  0.00     0.173 A 
ATOM     68  F   UNL A   1      38.022  31.653  28.696  1.00  0.00    -0.203 F 
ATOM     69  C   UNL A   1      36.722  31.773  30.654  1.00  0.00     0.198 A 
ATOM     70  C   UNL A   1      37.561  30.865  32.712  1.00  0.00     0.198 A 
ATOM     71  F   UNL A   1      39.699  29.886  32.781  1.00  0.00    -0.203 F 
ATOM     72  F   UNL A   1      35.763  32.420  29.978  1.00  0.00    -0.200 F 
ATOM     73  C   UNL A   1      36.557  31.510  32.007  1.00  0.00     0.200 A 
ATOM     74  F   UNL A   1      37.401  30.604  34.017  1.00  0.00    -0.200 F 
ATOM     75  F   UNL A   1      35.434  31.888  32.632  1.00  0.00    -0.200 F 
ENDBRANCH  51  65
BRANCH  52  76
ATOM     76  C   UNL A   1      47.058  27.541  25.880  1.00  0.00     0.064 A 
ATOM     77  C   UNL A   1      48.128  26.973  26.586  1.00  0.00     0.173 A 
ATOM     78  C   UNL A   1      47.188  27.673  24.491  1.00  0.00     0.173 A 
ATOM     79  F   UNL A   1      48.061  26.850  27.919  1.00  0.00    -0.203 F 
ATOM     80  C   UNL A   1      49.290  26.571  25.929  1.00  0.00     0.198 A 
ATOM     81  C   UNL A   1      48.340  27.248  23.832  1.00  0.00     0.198 A 
ATOM     82  F   UNL A   1      46.194  28.214  23.772  1.00  0.00    -0.203 F 
ATOM     83  F   UNL A   1      50.316  26.073  26.632  1.00  0.00    -0.200 F 
ATOM     84  C   UNL A   1      49.392  26.704  24.552  1.00  0.00     0.200 A 
ATOM     85  F   UNL A   1      48.431  27.370  22.501  1.00  0.00    -0.200 F 
ATOM     86  F   UNL A   1      50.509  26.317  23.921  1.00  0.00    -0.200 F 
ENDBRANCH  52  76
BRANCH  64  87
ATOM     87  C   UNL A   1      45.488  33.389  29.319  1.00  0.00     0.064 A 
ATOM     88  C   UNL A   1      46.312  33.481  30.450  1.00  0.00     0.173 A 
ATOM     89  C   UNL A   1      45.444  34.487  28.447  1.00  0.00     0.173 A 
ATOM     90  F   UNL A   1      46.379  32.463  31.321  1.00  0.00    -0.203 F 
ATOM     91  C   UNL A   1      47.041  34.638  30.711  1.00  0.00     0.198 A 
ATOM     92  C   UNL A   1      46.197  35.632  28.696  1.00  0.00     0.198 A 
ATOM     93  F   UNL A   1      44.677  34.447  27.346  1.00  0.00    -0.203 F 
ATOM     94  F   UNL A   1      47.785  34.723  31.823  1.00  0.00    -0.200 F 
ATOM     95  C   UNL A   1      46.988  35.710  29.831  1.00  0.00     0.200 A 
ATOM     96  F   UNL A   1      46.153  36.661  27.838  1.00  0.00    -0.200 F 
ATOM     97  F   UNL A   1      47.693  36.821  30.083  1.00  0.00    -0.200 F 
ENDBRANCH  64  87
ENDBRANCH  38  39
ENDBRANCH  31  33
ENDBRANCH  30  31
ENDBRANCH  29  30
ENDBRANCH  28  29
ENDBRANCH  27  28
ENDBRANCH   1  27
TORSDOF 18
ENDMDL
