MODEL 1
REMARK VINA RESULT:     -11.7      0.000      0.000
REMARK SMILES O=C(OCCOCCOC(=O)[C@H]1CSCN1C(=O)c1cnc2ccccn2c1=O)c1ccc(-c2c3nc(c(-c4c(F)c(F)c(F)c(F)c4F)c4ccc([nH]4)c(-c4c(F)c(F)c(F)c(F)c4F)c4nc(c(-c5c(F)c(F)c(F)c(F)c5F)c5ccc2[nH]5)C=C4)C=C3)cc1
REMARK SMILES IDX 6 1 5 2 4 3 3 4 2 5 1 6 30 7 31 8 92 9 32 10 91 11 33 12
REMARK SMILES IDX 34 13 35 14 85 15 36 16 90 17 84 18 86 19 37 20 89 21 83 22
REMARK SMILES IDX 82 23 38 25 70 26 50 27 69 28 51 29 54 30 68 31 87 32 52 33
REMARK SMILES IDX 53 34 67 36 88 37 55 38 39 39 40 40 48 41 41 42 42 43 46 44
REMARK SMILES IDX 49 45 43 46 44 47 47 48 45 49 71 50 72 51 80 52 73 53 74 54
REMARK SMILES IDX 78 55 81 56 75 57 76 58 79 59 77 60 56 61 57 62 65 63 58 64
REMARK SMILES IDX 59 65 63 66 66 67 60 68 61 69 64 70 62 71 7 72 8 73 9 74
REMARK SMILES IDX 10 75 11 76 12 77 13 78 16 79 14 80 15 81 17 82 18 83 19 84
REMARK SMILES IDX 20 85 28 86 21 87 27 88 29 89 22 90 26 91 23 92 25 93 24 94
REMARK H PARENT 86 24 54 35
REMARK Flexibility Score: inf
ROOT
ATOM      1  O   UNL A   1      32.228  30.383  25.662  1.00  0.00    -0.374 OA
ENDROOT
BRANCH   1   2
ATOM      2  C   UNL A   1      31.800  31.007  26.872  1.00  0.00     0.202 C 
BRANCH   2   3
ATOM      3  C   UNL A   1      31.477  32.501  26.798  1.00  0.00     0.261 C 
BRANCH   3   4
ATOM      4  O   UNL A   1      32.670  33.292  26.876  1.00  0.00    -0.460 OA
BRANCH   4   5
ATOM      5  C   UNL A   1      33.241  33.773  28.007  1.00  0.00     0.338 C 
ATOM      6  O   UNL A   1      32.734  34.742  28.568  1.00  0.00    -0.246 OA
BRANCH   5   7
ATOM      7  C   UNL A   1      34.454  33.160  28.624  1.00  0.00     0.060 A 
ATOM      8  C   UNL A   1      34.502  31.866  29.135  1.00  0.00     0.016 A 
ATOM      9  C   UNL A   1      35.643  33.905  28.629  1.00  0.00     0.016 A 
ATOM     10  C   UNL A   1      35.639  31.328  29.684  1.00  0.00     0.010 A 
ATOM     11  C   UNL A   1      36.827  33.351  29.128  1.00  0.00     0.010 A 
ATOM     12  C   UNL A   1      36.817  32.055  29.654  1.00  0.00    -0.014 A 
BRANCH  12  13
ATOM     13  C   UNL A   1      37.961  31.412  30.308  1.00  0.00     0.031 A 
ATOM     14  C   UNL A   1      38.153  31.651  31.766  1.00  0.00     0.074 A 
ATOM     15  C   UNL A   1      38.631  30.458  29.636  1.00  0.00     0.049 A 
ATOM     16  N   UNL A   1      39.088  31.208  32.559  1.00  0.00    -0.248 NA
ATOM     17  C   UNL A   1      37.140  32.489  32.433  1.00  0.00     0.031 C 
ATOM     18  C   UNL A   1      38.353  30.043  28.254  1.00  0.00     0.029 A 
ATOM     19  N   UNL A   1      39.639  29.624  30.032  1.00  0.00    -0.354 N 
ATOM     20  C   UNL A   1      38.795  31.736  33.806  1.00  0.00     0.074 A 
ATOM     21  C   UNL A   1      37.603  32.541  33.671  1.00  0.00     0.031 C 
ATOM     22  C   UNL A   1      39.154  29.017  27.931  1.00  0.00     0.029 A 
ATOM     23  C   UNL A   1      40.061  28.770  29.042  1.00  0.00     0.049 A 
ATOM     24  H   UNL A   1      40.023  29.633  30.938  1.00  0.00     0.167 HD
ATOM     25  C   UNL A   1      39.481  31.554  34.956  1.00  0.00     0.037 A 
ATOM     26  C   UNL A   1      41.107  27.925  29.034  1.00  0.00     0.037 A 
ATOM     27  C   UNL A   1      40.662  30.741  35.034  1.00  0.00     0.049 A 
ATOM     28  C   UNL A   1      41.934  27.853  30.290  1.00  0.00     0.074 A 
ATOM     29  C   UNL A   1      41.524  30.556  36.097  1.00  0.00     0.029 A 
ATOM     30  N   UNL A   1      41.142  29.965  33.983  1.00  0.00    -0.354 N 
ATOM     31  N   UNL A   1      41.738  28.447  31.444  1.00  0.00    -0.248 NA
ATOM     32  C   UNL A   1      43.133  27.012  30.242  1.00  0.00     0.031 C 
ATOM     33  C   UNL A   1      42.549  29.701  35.674  1.00  0.00     0.029 A 
ATOM     34  C   UNL A   1      42.294  29.305  34.368  1.00  0.00     0.049 A 
ATOM     35  H   UNL A   1      40.723  29.895  33.095  1.00  0.00     0.167 HD
ATOM     36  C   UNL A   1      42.775  28.038  32.268  1.00  0.00     0.074 A 
ATOM     37  C   UNL A   1      43.582  27.121  31.483  1.00  0.00     0.031 C 
ATOM     38  C   UNL A   1      43.050  28.391  33.547  1.00  0.00     0.037 A 
BRANCH  25  39
ATOM     39  C   UNL A   1      39.006  32.312  36.159  1.00  0.00     0.064 A 
ATOM     40  C   UNL A   1      39.443  33.617  36.437  1.00  0.00     0.173 A 
ATOM     41  C   UNL A   1      38.139  31.701  37.076  1.00  0.00     0.173 A 
ATOM     42  F   UNL A   1      40.303  34.232  35.611  1.00  0.00    -0.203 F 
ATOM     43  C   UNL A   1      39.050  34.269  37.604  1.00  0.00     0.198 A 
ATOM     44  C   UNL A   1      37.725  32.367  38.226  1.00  0.00     0.198 A 
ATOM     45  F   UNL A   1      37.706  30.449  36.866  1.00  0.00    -0.203 F 
ATOM     46  F   UNL A   1      39.531  35.489  37.882  1.00  0.00    -0.200 F 
ATOM     47  C   UNL A   1      38.188  33.646  38.495  1.00  0.00     0.200 A 
ATOM     48  F   UNL A   1      36.893  31.763  39.085  1.00  0.00    -0.200 F 
ATOM     49  F   UNL A   1      37.818  34.272  39.621  1.00  0.00    -0.200 F 
ENDBRANCH  25  39
BRANCH  26  50
ATOM     50  C   UNL A   1      41.478  27.180  27.800  1.00  0.00     0.064 A 
ATOM     51  C   UNL A   1      41.098  25.845  27.606  1.00  0.00     0.173 A 
ATOM     52  C   UNL A   1      42.266  27.778  26.802  1.00  0.00     0.173 A 
ATOM     53  F   UNL A   1      40.361  25.215  28.533  1.00  0.00    -0.203 F 
ATOM     54  C   UNL A   1      41.522  25.130  26.485  1.00  0.00     0.198 A 
ATOM     55  C   UNL A   1      42.656  27.075  25.665  1.00  0.00     0.198 A 
ATOM     56  F   UNL A   1      42.665  29.053  26.931  1.00  0.00    -0.203 F 
ATOM     57  F   UNL A   1      41.204  23.834  26.362  1.00  0.00    -0.200 F 
ATOM     58  C   UNL A   1      42.297  25.746  25.514  1.00  0.00     0.200 A 
ATOM     59  F   UNL A   1      43.392  27.682  24.724  1.00  0.00    -0.200 F 
ATOM     60  F   UNL A   1      42.712  25.054  24.444  1.00  0.00    -0.200 F 
ENDBRANCH  26  50
BRANCH  38  61
ATOM     61  C   UNL A   1      44.244  27.739  34.178  1.00  0.00     0.064 A 
ATOM     62  C   UNL A   1      45.507  28.347  34.166  1.00  0.00     0.173 A 
ATOM     63  C   UNL A   1      44.107  26.505  34.830  1.00  0.00     0.173 A 
ATOM     64  F   UNL A   1      45.687  29.519  33.538  1.00  0.00    -0.203 F 
ATOM     65  C   UNL A   1      46.600  27.723  34.757  1.00  0.00     0.198 A 
ATOM     66  C   UNL A   1      45.193  25.904  35.453  1.00  0.00     0.198 A 
ATOM     67  F   UNL A   1      42.915  25.890  34.874  1.00  0.00    -0.203 F 
ATOM     68  F   UNL A   1      47.812  28.290  34.682  1.00  0.00    -0.200 F 
ATOM     69  C   UNL A   1      46.441  26.509  35.407  1.00  0.00     0.200 A 
ATOM     70  F   UNL A   1      45.035  24.741  36.097  1.00  0.00    -0.200 F 
ATOM     71  F   UNL A   1      47.494  25.915  35.985  1.00  0.00    -0.200 F 
ENDBRANCH  38  61
ENDBRANCH  12  13
ENDBRANCH   5   7
ENDBRANCH   4   5
ENDBRANCH   3   4
ENDBRANCH   2   3
ENDBRANCH   1   2
BRANCH   1  72
ATOM     72  C   UNL A   1      33.140  29.299  25.782  1.00  0.00     0.202 C 
BRANCH  72  73
ATOM     73  C   UNL A   1      32.421  28.130  26.451  1.00  0.00     0.261 C 
BRANCH  73  74
ATOM     74  O   UNL A   1      33.125  26.925  26.099  1.00  0.00    -0.462 OA
BRANCH  74  75
ATOM     75  C   UNL A   1      32.388  25.769  26.110  1.00  0.00     0.329 C 
ATOM     76  O   UNL A   1      31.336  25.607  26.718  1.00  0.00    -0.250 OA
BRANCH  75  77
ATOM     77  C   UNL A   1      33.024  24.779  25.119  1.00  0.00     0.206 C 
ATOM     78  C   UNL A   1      33.344  23.464  25.818  1.00  0.00     0.108 C 
ATOM     79  N   UNL A   1      32.214  24.535  23.914  1.00  0.00    -0.314 N 
ATOM     80  S   UNL A   1      32.024  22.335  25.340  1.00  0.00    -0.138 SA
ATOM     81  C   UNL A   1      31.732  23.178  23.781  1.00  0.00     0.191 C 
BRANCH  79  82
ATOM     82  C   UNL A   1      32.216  25.441  22.871  1.00  0.00     0.262 C 
ATOM     83  O   UNL A   1      32.806  25.201  21.818  1.00  0.00    -0.269 OA
BRANCH  82  84
ATOM     84  C   UNL A   1      31.403  26.677  22.982  1.00  0.00     0.124 A 
ATOM     85  C   UNL A   1      31.985  27.850  22.696  1.00  0.00     0.133 A 
ATOM     86  C   UNL A   1      29.996  26.727  23.425  1.00  0.00     0.270 A 
ATOM     87  N   UNL A   1      31.340  29.054  22.610  1.00  0.00    -0.237 NA
ATOM     88  N   UNL A   1      29.332  27.919  23.164  1.00  0.00    -0.267 N 
ATOM     89  O   UNL A   1      29.470  25.752  23.959  1.00  0.00    -0.268 OA
ATOM     90  C   UNL A   1      30.054  29.044  22.786  1.00  0.00     0.139 A 
ATOM     91  C   UNL A   1      27.950  27.969  23.313  1.00  0.00     0.096 A 
ATOM     92  C   UNL A   1      29.281  30.294  22.552  1.00  0.00     0.048 A 
ATOM     93  C   UNL A   1      27.257  29.084  23.060  1.00  0.00     0.019 A 
ATOM     94  C   UNL A   1      27.947  30.282  22.661  1.00  0.00     0.005 A 
ENDBRANCH  82  84
ENDBRANCH  79  82
ENDBRANCH  75  77
ENDBRANCH  74  75
ENDBRANCH  73  74
ENDBRANCH  72  73
ENDBRANCH   1  72
TORSDOF 16
ENDMDL
MODEL 2
REMARK VINA RESULT:     -11.7      1.888      7.901
REMARK SMILES O=C(OCCOCCOC(=O)[C@H]1CSCN1C(=O)c1cnc2ccccn2c1=O)c1ccc(-c2c3nc(c(-c4c(F)c(F)c(F)c(F)c4F)c4ccc([nH]4)c(-c4c(F)c(F)c(F)c(F)c4F)c4nc(c(-c5c(F)c(F)c(F)c(F)c5F)c5ccc2[nH]5)C=C4)C=C3)cc1
REMARK SMILES IDX 6 1 5 2 4 3 3 4 2 5 1 6 30 7 31 8 92 9 32 10 91 11 33 12
REMARK SMILES IDX 34 13 35 14 85 15 36 16 90 17 84 18 86 19 37 20 89 21 83 22
REMARK SMILES IDX 82 23 38 25 70 26 50 27 69 28 51 29 54 30 68 31 87 32 52 33
REMARK SMILES IDX 53 34 67 36 88 37 55 38 39 39 40 40 48 41 41 42 42 43 46 44
REMARK SMILES IDX 49 45 43 46 44 47 47 48 45 49 71 50 72 51 80 52 73 53 74 54
REMARK SMILES IDX 78 55 81 56 75 57 76 58 79 59 77 60 56 61 57 62 65 63 58 64
REMARK SMILES IDX 59 65 63 66 66 67 60 68 61 69 64 70 62 71 7 72 8 73 9 74
REMARK SMILES IDX 10 75 11 76 12 77 13 78 16 79 14 80 15 81 17 82 18 83 19 84
REMARK SMILES IDX 20 85 28 86 21 87 27 88 29 89 22 90 26 91 23 92 25 93 24 94
REMARK H PARENT 86 24 54 35
REMARK Flexibility Score: inf
ROOT
ATOM      1  O   UNL A   1      31.573  30.979  26.266  1.00  0.00    -0.374 OA
ENDROOT
BRANCH   1   2
ATOM      2  C   UNL A   1      31.416  32.334  26.687  1.00  0.00     0.202 C 
BRANCH   2   3
ATOM      3  C   UNL A   1      32.656  33.024  27.259  1.00  0.00     0.261 C 
BRANCH   3   4
ATOM      4  O   UNL A   1      32.305  34.236  27.940  1.00  0.00    -0.460 OA
BRANCH   4   5
ATOM      5  C   UNL A   1      33.005  34.825  28.940  1.00  0.00     0.338 C 
ATOM      6  O   UNL A   1      32.659  35.935  29.340  1.00  0.00    -0.246 OA
BRANCH   5   7
ATOM      7  C   UNL A   1      34.175  34.174  29.601  1.00  0.00     0.060 A 
ATOM      8  C   UNL A   1      34.070  33.180  30.570  1.00  0.00     0.016 A 
ATOM      9  C   UNL A   1      35.462  34.531  29.172  1.00  0.00     0.016 A 
ATOM     10  C   UNL A   1      35.168  32.592  31.148  1.00  0.00     0.010 A 
ATOM     11  C   UNL A   1      36.590  33.898  29.706  1.00  0.00     0.010 A 
ATOM     12  C   UNL A   1      36.433  32.924  30.697  1.00  0.00    -0.014 A 
BRANCH  12  13
ATOM     13  C   UNL A   1      37.538  32.277  31.411  1.00  0.00     0.031 A 
ATOM     14  C   UNL A   1      38.346  31.265  30.671  1.00  0.00     0.074 A 
ATOM     15  C   UNL A   1      37.925  32.787  32.594  1.00  0.00     0.049 A 
ATOM     16  N   UNL A   1      39.356  30.554  31.085  1.00  0.00    -0.248 NA
ATOM     17  C   UNL A   1      37.978  31.036  29.262  1.00  0.00     0.031 C 
ATOM     18  C   UNL A   1      37.282  33.918  33.277  1.00  0.00     0.029 A 
ATOM     19  N   UNL A   1      38.980  32.472  33.404  1.00  0.00    -0.354 N 
ATOM     20  C   UNL A   1      39.725  29.773  30.001  1.00  0.00     0.074 A 
ATOM     21  C   UNL A   1      38.830  30.085  28.912  1.00  0.00     0.031 C 
ATOM     22  C   UNL A   1      37.973  34.213  34.388  1.00  0.00     0.029 A 
ATOM     23  C   UNL A   1      39.042  33.237  34.543  1.00  0.00     0.049 A 
ATOM     24  H   UNL A   1      39.632  31.765  33.191  1.00  0.00     0.167 HD
ATOM     25  C   UNL A   1      40.731  28.873  29.943  1.00  0.00     0.037 A 
ATOM     26  C   UNL A   1      39.848  33.112  35.611  1.00  0.00     0.037 A 
ATOM     27  C   UNL A   1      41.595  28.602  31.058  1.00  0.00     0.049 A 
ATOM     28  C   UNL A   1      40.867  32.005  35.570  1.00  0.00     0.074 A 
ATOM     29  C   UNL A   1      42.578  27.641  31.185  1.00  0.00     0.029 A 
ATOM     30  N   UNL A   1      41.570  29.317  32.252  1.00  0.00    -0.354 N 
ATOM     31  N   UNL A   1      41.145  31.173  34.593  1.00  0.00    -0.248 NA
ATOM     32  C   UNL A   1      41.672  31.805  36.778  1.00  0.00     0.031 C 
ATOM     33  C   UNL A   1      43.118  27.747  32.472  1.00  0.00     0.029 A 
ATOM     34  C   UNL A   1      42.514  28.813  33.126  1.00  0.00     0.049 A 
ATOM     35  H   UNL A   1      40.968  30.071  32.445  1.00  0.00     0.167 HD
ATOM     36  C   UNL A   1      42.169  30.363  35.056  1.00  0.00     0.074 A 
ATOM     37  C   UNL A   1      42.480  30.827  36.397  1.00  0.00     0.031 C 
ATOM     38  C   UNL A   1      42.791  29.325  34.447  1.00  0.00     0.037 A 
BRANCH  25  39
ATOM     39  C   UNL A   1      40.869  28.088  28.674  1.00  0.00     0.064 A 
ATOM     40  C   UNL A   1      41.657  28.535  27.602  1.00  0.00     0.173 A 
ATOM     41  C   UNL A   1      40.157  26.890  28.508  1.00  0.00     0.173 A 
ATOM     42  F   UNL A   1      42.328  29.694  27.695  1.00  0.00    -0.203 F 
ATOM     43  C   UNL A   1      41.704  27.828  26.403  1.00  0.00     0.198 A 
ATOM     44  C   UNL A   1      40.230  26.171  27.319  1.00  0.00     0.198 A 
ATOM     45  F   UNL A   1      39.375  26.426  29.495  1.00  0.00    -0.203 F 
ATOM     46  F   UNL A   1      42.411  28.309  25.370  1.00  0.00    -0.200 F 
ATOM     47  C   UNL A   1      40.994  26.644  26.264  1.00  0.00     0.200 A 
ATOM     48  F   UNL A   1      39.543  25.027  27.187  1.00  0.00    -0.200 F 
ATOM     49  F   UNL A   1      41.034  25.969  25.107  1.00  0.00    -0.200 F 
ENDBRANCH  25  39
BRANCH  26  50
ATOM     50  C   UNL A   1      39.662  33.969  36.814  1.00  0.00     0.064 A 
ATOM     51  C   UNL A   1      38.879  33.554  37.899  1.00  0.00     0.173 A 
ATOM     52  C   UNL A   1      40.230  35.253  36.883  1.00  0.00     0.173 A 
ATOM     53  F   UNL A   1      38.295  32.347  37.882  1.00  0.00    -0.203 F 
ATOM     54  C   UNL A   1      38.642  34.399  38.984  1.00  0.00     0.198 A 
ATOM     55  C   UNL A   1      40.025  36.081  37.983  1.00  0.00     0.198 A 
ATOM     56  F   UNL A   1      40.988  35.710  35.874  1.00  0.00    -0.203 F 
ATOM     57  F   UNL A   1      37.830  34.003  39.973  1.00  0.00    -0.200 F 
ATOM     58  C   UNL A   1      39.218  35.660  39.027  1.00  0.00     0.200 A 
ATOM     59  F   UNL A   1      40.599  37.292  38.024  1.00  0.00    -0.200 F 
ATOM     60  F   UNL A   1      38.981  36.474  40.065  1.00  0.00    -0.200 F 
ENDBRANCH  26  50
BRANCH  38  61
ATOM     61  C   UNL A   1      43.897  28.665  35.213  1.00  0.00     0.064 A 
ATOM     62  C   UNL A   1      45.230  29.083  35.089  1.00  0.00     0.173 A 
ATOM     63  C   UNL A   1      43.609  27.624  36.107  1.00  0.00     0.173 A 
ATOM     64  F   UNL A   1      45.554  30.064  34.233  1.00  0.00    -0.203 F 
ATOM     65  C   UNL A   1      46.240  28.456  35.810  1.00  0.00     0.198 A 
ATOM     66  C   UNL A   1      44.616  27.027  36.854  1.00  0.00     0.198 A 
ATOM     67  F   UNL A   1      42.346  27.196  36.264  1.00  0.00    -0.203 F 
ATOM     68  F   UNL A   1      47.515  28.828  35.632  1.00  0.00    -0.200 F 
ATOM     69  C   UNL A   1      45.932  27.436  36.697  1.00  0.00     0.200 A 
ATOM     70  F   UNL A   1      44.315  26.054  37.725  1.00  0.00    -0.200 F 
ATOM     71  F   UNL A   1      46.906  26.841  37.398  1.00  0.00    -0.200 F 
ENDBRANCH  38  61
ENDBRANCH  12  13
ENDBRANCH   5   7
ENDBRANCH   4   5
ENDBRANCH   3   4
ENDBRANCH   2   3
ENDBRANCH   1   2
BRANCH   1  72
ATOM     72  C   UNL A   1      32.309  30.118  27.126  1.00  0.00     0.202 C 
BRANCH  72  73
ATOM     73  C   UNL A   1      33.582  29.682  26.404  1.00  0.00     0.261 C 
BRANCH  73  74
ATOM     74  O   UNL A   1      33.398  28.319  25.980  1.00  0.00    -0.462 OA
BRANCH  74  75
ATOM     75  C   UNL A   1      33.357  28.107  24.626  1.00  0.00     0.329 C 
ATOM     76  O   UNL A   1      34.171  28.541  23.818  1.00  0.00    -0.250 OA
BRANCH  75  77
ATOM     77  C   UNL A   1      32.217  27.121  24.323  1.00  0.00     0.206 C 
ATOM     78  C   UNL A   1      30.881  27.708  24.759  1.00  0.00     0.108 C 
ATOM     79  N   UNL A   1      32.154  26.692  22.915  1.00  0.00    -0.314 N 
ATOM     80  S   UNL A   1      30.105  28.305  23.247  1.00  0.00    -0.138 SA
ATOM     81  C   UNL A   1      30.957  27.107  22.217  1.00  0.00     0.191 C 
BRANCH  79  82
ATOM     82  C   UNL A   1      33.006  25.715  22.440  1.00  0.00     0.262 C 
ATOM     83  O   UNL A   1      33.820  25.956  21.548  1.00  0.00    -0.269 OA
BRANCH  82  84
ATOM     84  C   UNL A   1      33.015  24.380  23.089  1.00  0.00     0.124 A 
ATOM     85  C   UNL A   1      31.964  23.572  22.898  1.00  0.00     0.133 A 
ATOM     86  C   UNL A   1      34.087  23.878  23.972  1.00  0.00     0.270 A 
ATOM     87  N   UNL A   1      31.884  22.267  23.304  1.00  0.00    -0.237 NA
ATOM     88  N   UNL A   1      34.059  22.511  24.220  1.00  0.00    -0.267 N 
ATOM     89  O   UNL A   1      34.945  24.639  24.416  1.00  0.00    -0.268 OA
ATOM     90  C   UNL A   1      32.931  21.771  23.889  1.00  0.00     0.139 A 
ATOM     91  C   UNL A   1      35.159  21.913  24.826  1.00  0.00     0.096 A 
ATOM     92  C   UNL A   1      32.960  20.318  24.212  1.00  0.00     0.048 A 
ATOM     93  C   UNL A   1      35.195  20.599  25.075  1.00  0.00     0.019 A 
ATOM     94  C   UNL A   1      34.060  19.777  24.751  1.00  0.00     0.005 A 
ENDBRANCH  82  84
ENDBRANCH  79  82
ENDBRANCH  75  77
ENDBRANCH  74  75
ENDBRANCH  73  74
ENDBRANCH  72  73
ENDBRANCH   1  72
TORSDOF 16
ENDMDL
MODEL 3
REMARK VINA RESULT:     -11.5      5.012     10.607
REMARK SMILES O=C(OCCOCCOC(=O)[C@H]1CSCN1C(=O)c1cnc2ccccn2c1=O)c1ccc(-c2c3nc(c(-c4c(F)c(F)c(F)c(F)c4F)c4ccc([nH]4)c(-c4c(F)c(F)c(F)c(F)c4F)c4nc(c(-c5c(F)c(F)c(F)c(F)c5F)c5ccc2[nH]5)C=C4)C=C3)cc1
REMARK SMILES IDX 6 1 5 2 4 3 3 4 2 5 1 6 30 7 31 8 92 9 32 10 91 11 33 12
REMARK SMILES IDX 34 13 35 14 85 15 36 16 90 17 84 18 86 19 37 20 89 21 83 22
REMARK SMILES IDX 82 23 38 25 70 26 50 27 69 28 51 29 54 30 68 31 87 32 52 33
REMARK SMILES IDX 53 34 67 36 88 37 55 38 39 39 40 40 48 41 41 42 42 43 46 44
REMARK SMILES IDX 49 45 43 46 44 47 47 48 45 49 71 50 72 51 80 52 73 53 74 54
REMARK SMILES IDX 78 55 81 56 75 57 76 58 79 59 77 60 56 61 57 62 65 63 58 64
REMARK SMILES IDX 59 65 63 66 66 67 60 68 61 69 64 70 62 71 7 72 8 73 9 74
REMARK SMILES IDX 10 75 11 76 12 77 13 78 16 79 14 80 15 81 17 82 18 83 19 84
REMARK SMILES IDX 20 85 28 86 21 87 27 88 29 89 22 90 26 91 23 92 25 93 24 94
REMARK H PARENT 86 24 54 35
REMARK Flexibility Score: inf
ROOT
ATOM      1  O   UNL A   1      36.602  20.320  24.904  1.00  0.00    -0.374 OA
ENDROOT
BRANCH   1   2
ATOM      2  C   UNL A   1      37.814  19.567  24.871  1.00  0.00     0.202 C 
BRANCH   2   3
ATOM      3  C   UNL A   1      38.967  20.085  25.733  1.00  0.00     0.261 C 
BRANCH   3   4
ATOM      4  O   UNL A   1      40.111  19.226  25.636  1.00  0.00    -0.460 OA
BRANCH   4   5
ATOM      5  C   UNL A   1      41.373  19.523  26.034  1.00  0.00     0.338 C 
ATOM      6  O   UNL A   1      42.228  18.640  26.019  1.00  0.00    -0.246 OA
BRANCH   5   7
ATOM      7  C   UNL A   1      41.782  20.890  26.472  1.00  0.00     0.060 A 
ATOM      8  C   UNL A   1      41.801  22.005  25.638  1.00  0.00     0.016 A 
ATOM      9  C   UNL A   1      42.099  21.085  27.825  1.00  0.00     0.016 A 
ATOM     10  C   UNL A   1      42.170  23.251  26.077  1.00  0.00     0.010 A 
ATOM     11  C   UNL A   1      42.418  22.361  28.303  1.00  0.00     0.010 A 
ATOM     12  C   UNL A   1      42.449  23.444  27.418  1.00  0.00    -0.014 A 
BRANCH  12  13
ATOM     13  C   UNL A   1      42.878  24.800  27.776  1.00  0.00     0.031 A 
ATOM     14  C   UNL A   1      44.257  25.216  27.393  1.00  0.00     0.074 A 
ATOM     15  C   UNL A   1      41.950  25.675  28.204  1.00  0.00     0.049 A 
ATOM     16  N   UNL A   1      44.866  26.348  27.607  1.00  0.00    -0.248 NA
ATOM     17  C   UNL A   1      45.057  24.229  26.646  1.00  0.00     0.031 C 
ATOM     18  C   UNL A   1      40.529  25.366  28.411  1.00  0.00     0.029 A 
ATOM     19  N   UNL A   1      42.040  27.010  28.484  1.00  0.00    -0.354 N 
ATOM     20  C   UNL A   1      46.127  26.199  27.050  1.00  0.00     0.074 A 
ATOM     21  C   UNL A   1      46.206  24.868  26.496  1.00  0.00     0.031 C 
ATOM     22  C   UNL A   1      39.880  26.487  28.761  1.00  0.00     0.029 A 
ATOM     23  C   UNL A   1      40.851  27.563  28.895  1.00  0.00     0.049 A 
ATOM     24  H   UNL A   1      42.875  27.525  28.399  1.00  0.00     0.167 HD
ATOM     25  C   UNL A   1      47.123  27.112  27.018  1.00  0.00     0.037 A 
ATOM     26  C   UNL A   1      40.605  28.792  29.379  1.00  0.00     0.037 A 
ATOM     27  C   UNL A   1      46.990  28.425  27.585  1.00  0.00     0.049 A 
ATOM     28  C   UNL A   1      41.772  29.739  29.459  1.00  0.00     0.074 A 
ATOM     29  C   UNL A   1      47.945  29.412  27.730  1.00  0.00     0.029 A 
ATOM     30  N   UNL A   1      45.801  28.932  28.101  1.00  0.00    -0.354 N 
ATOM     31  N   UNL A   1      43.007  29.566  29.048  1.00  0.00    -0.248 NA
ATOM     32  C   UNL A   1      41.523  31.041  30.083  1.00  0.00     0.031 C 
ATOM     33  C   UNL A   1      47.343  30.499  28.373  1.00  0.00     0.029 A 
ATOM     34  C   UNL A   1      45.999  30.215  28.575  1.00  0.00     0.049 A 
ATOM     35  H   UNL A   1      44.944  28.448  28.125  1.00  0.00     0.167 HD
ATOM     36  C   UNL A   1      43.679  30.741  29.344  1.00  0.00     0.074 A 
ATOM     37  C   UNL A   1      42.701  31.630  29.945  1.00  0.00     0.031 C 
ATOM     38  C   UNL A   1      44.983  31.061  29.152  1.00  0.00     0.037 A 
BRANCH  25  39
ATOM     39  C   UNL A   1      48.431  26.672  26.433  1.00  0.00     0.064 A 
ATOM     40  C   UNL A   1      49.405  26.011  27.197  1.00  0.00     0.173 A 
ATOM     41  C   UNL A   1      48.734  26.963  25.094  1.00  0.00     0.173 A 
ATOM     42  F   UNL A   1      49.179  25.742  28.492  1.00  0.00    -0.203 F 
ATOM     43  C   UNL A   1      50.644  25.685  26.650  1.00  0.00     0.198 A 
ATOM     44  C   UNL A   1      49.962  26.610  24.543  1.00  0.00     0.198 A 
ATOM     45  F   UNL A   1      47.845  27.609  24.324  1.00  0.00    -0.203 F 
ATOM     46  F   UNL A   1      51.583  25.114  27.417  1.00  0.00    -0.200 F 
ATOM     47  C   UNL A   1      50.920  25.980  25.323  1.00  0.00     0.200 A 
ATOM     48  F   UNL A   1      50.226  26.896  23.261  1.00  0.00    -0.200 F 
ATOM     49  F   UNL A   1      52.116  25.673  24.801  1.00  0.00    -0.200 F 
ENDBRANCH  25  39
BRANCH  26  50
ATOM     50  C   UNL A   1      39.258  29.153  29.900  1.00  0.00     0.064 A 
ATOM     51  C   UNL A   1      38.324  29.838  29.112  1.00  0.00     0.173 A 
ATOM     52  C   UNL A   1      38.892  28.858  31.225  1.00  0.00     0.173 A 
ATOM     53  F   UNL A   1      38.624  30.163  27.846  1.00  0.00    -0.203 F 
ATOM     54  C   UNL A   1      37.097  30.246  29.637  1.00  0.00     0.198 A 
ATOM     55  C   UNL A   1      37.651  29.231  31.736  1.00  0.00     0.198 A 
ATOM     56  F   UNL A   1      39.744  28.207  32.031  1.00  0.00    -0.203 F 
ATOM     57  F   UNL A   1      36.253  30.963  28.882  1.00  0.00    -0.200 F 
ATOM     58  C   UNL A   1      36.760  29.939  30.947  1.00  0.00     0.200 A 
ATOM     59  F   UNL A   1      37.328  28.917  32.999  1.00  0.00    -0.200 F 
ATOM     60  F   UNL A   1      35.586  30.340  31.453  1.00  0.00    -0.200 F 
ENDBRANCH  26  50
BRANCH  38  61
ATOM     61  C   UNL A   1      45.397  32.444  29.555  1.00  0.00     0.064 A 
ATOM     62  C   UNL A   1      45.913  32.716  30.830  1.00  0.00     0.173 A 
ATOM     63  C   UNL A   1      45.306  33.499  28.637  1.00  0.00     0.173 A 
ATOM     64  F   UNL A   1      46.002  31.739  31.746  1.00  0.00    -0.203 F 
ATOM     65  C   UNL A   1      46.291  34.007  31.182  1.00  0.00     0.198 A 
ATOM     66  C   UNL A   1      45.721  34.780  28.979  1.00  0.00     0.198 A 
ATOM     67  F   UNL A   1      44.826  33.284  27.402  1.00  0.00    -0.203 F 
ATOM     68  F   UNL A   1      46.724  34.259  32.424  1.00  0.00    -0.200 F 
ATOM     69  C   UNL A   1      46.204  35.035  30.255  1.00  0.00     0.200 A 
ATOM     70  F   UNL A   1      45.654  35.768  28.078  1.00  0.00    -0.200 F 
ATOM     71  F   UNL A   1      46.578  36.276  30.593  1.00  0.00    -0.200 F 
ENDBRANCH  38  61
ENDBRANCH  12  13
ENDBRANCH   5   7
ENDBRANCH   4   5
ENDBRANCH   3   4
ENDBRANCH   2   3
ENDBRANCH   1   2
BRANCH   1  72
ATOM     72  C   UNL A   1      36.681  21.650  25.400  1.00  0.00     0.202 C 
BRANCH  72  73
ATOM     73  C   UNL A   1      36.554  22.616  24.225  1.00  0.00     0.261 C 
BRANCH  73  74
ATOM     74  O   UNL A   1      35.522  23.565  24.548  1.00  0.00    -0.462 OA
BRANCH  74  75
ATOM     75  C   UNL A   1      34.634  23.859  23.546  1.00  0.00     0.329 C 
ATOM     76  O   UNL A   1      34.677  23.405  22.408  1.00  0.00    -0.250 OA
BRANCH  75  77
ATOM     77  C   UNL A   1      33.507  24.725  24.134  1.00  0.00     0.206 C 
ATOM     78  C   UNL A   1      33.597  26.147  23.595  1.00  0.00     0.108 C 
ATOM     79  N   UNL A   1      32.157  24.179  23.916  1.00  0.00    -0.314 N 
ATOM     80  S   UNL A   1      32.340  26.251  22.310  1.00  0.00    -0.138 SA
ATOM     81  C   UNL A   1      31.310  24.995  23.075  1.00  0.00     0.191 C 
BRANCH  79  82
ATOM     82  C   UNL A   1      31.673  23.162  24.716  1.00  0.00     0.262 C 
ATOM     83  O   UNL A   1      30.694  23.334  25.443  1.00  0.00    -0.269 OA
BRANCH  82  84
ATOM     84  C   UNL A   1      32.275  21.810  24.618  1.00  0.00     0.124 A 
ATOM     85  C   UNL A   1      32.888  21.306  25.697  1.00  0.00     0.133 A 
ATOM     86  C   UNL A   1      32.288  20.978  23.398  1.00  0.00     0.270 A 
ATOM     87  N   UNL A   1      33.363  20.028  25.813  1.00  0.00    -0.237 NA
ATOM     88  N   UNL A   1      32.615  19.642  23.595  1.00  0.00    -0.267 N 
ATOM     89  O   UNL A   1      31.995  21.459  22.306  1.00  0.00    -0.268 OA
ATOM     90  C   UNL A   1      33.166  19.236  24.804  1.00  0.00     0.139 A 
ATOM     91  C   UNL A   1      32.409  18.737  22.559  1.00  0.00     0.096 A 
ATOM     92  C   UNL A   1      33.522  17.796  24.933  1.00  0.00     0.048 A 
ATOM     93  C   UNL A   1      32.691  17.437  22.696  1.00  0.00     0.019 A 
ATOM     94  C   UNL A   1      33.260  16.953  23.926  1.00  0.00     0.005 A 
ENDBRANCH  82  84
ENDBRANCH  79  82
ENDBRANCH  75  77
ENDBRANCH  74  75
ENDBRANCH  73  74
ENDBRANCH  72  73
ENDBRANCH   1  72
TORSDOF 16
ENDMDL
