MODEL 1
REMARK VINA RESULT:     -11.2      0.000      0.000
REMARK SMILES Cc1cc(SCC(=O)OCCOCCOC(=O)c2ccc(-c3c4nc(c(-c5c(F)c(F)c(F)c(F)c5F)c5ccc([nH]5)c(-c5c(F)c(F)c(F)c(F)c5F)c5nc(c(-c6c(F)c(F)c(F)c(F)c6F)c6ccc3[nH]6)C=C5)C=C4)cc2)c2cc(I)ccc2n1
REMARK SMILES IDX 12 1 11 2 10 3 9 4 7 5 8 6 6 7 5 8 4 9 1 10 2 11 3 12 88 13
REMARK SMILES IDX 87 14 81 15 86 16 82 17 85 18 83 19 84 20 13 21 14 22 15 23
REMARK SMILES IDX 16 24 17 25 18 26 19 27 80 28 20 29 79 30 21 31 22 32 23 33
REMARK SMILES IDX 73 34 24 35 78 36 72 37 74 38 25 39 77 40 71 41 70 42 26 44
REMARK SMILES IDX 58 45 38 46 57 47 39 48 42 49 56 50 75 51 40 52 41 53 55 55
REMARK SMILES IDX 76 56 43 57 27 58 28 59 36 60 29 61 30 62 34 63 37 64 31 65
REMARK SMILES IDX 32 66 35 67 33 68 59 69 60 70 68 71 61 72 62 73 66 74 69 75
REMARK SMILES IDX 63 76 64 77 67 78 65 79 44 80 45 81 53 82 46 83 47 84 51 85
REMARK SMILES IDX 54 86 48 87 49 88 52 89 50 90
REMARK H PARENT 74 43 42 54
REMARK Flexibility Score: inf
ROOT
ATOM      1  O   UNL A   1      46.497  21.420  24.620  1.00  0.00    -0.374 OA
ENDROOT
BRANCH   1   2
ATOM      2  C   UNL A   1      46.353  20.106  25.147  1.00  0.00     0.202 C 
BRANCH   2   3
ATOM      3  C   UNL A   1      45.309  19.173  24.517  1.00  0.00     0.261 C 
BRANCH   3   4
ATOM      4  O   UNL A   1      44.880  18.085  25.363  1.00  0.00    -0.463 OA
BRANCH   4   5
ATOM      5  C   UNL A   1      43.670  18.251  25.966  1.00  0.00     0.316 C 
ATOM      6  O   UNL A   1      43.234  17.501  26.836  1.00  0.00    -0.251 OA
BRANCH   5   7
ATOM      7  C   UNL A   1      42.840  19.427  25.493  1.00  0.00     0.197 C 
BRANCH   7   8
ATOM      8  S   UNL A   1      41.146  19.585  26.127  1.00  0.00    -0.114 SA
BRANCH   8   9
ATOM      9  C   UNL A   1      41.067  21.081  27.154  1.00  0.00     0.019 A 
ATOM     10  C   UNL A   1      43.252  23.208  29.391  1.00  0.00     0.067 C 
ATOM     11  C   UNL A   1      42.060  22.694  28.635  1.00  0.00     0.039 A 
ATOM     12  C   UNL A   1      42.052  21.413  28.090  1.00  0.00     0.039 A 
ATOM     13  N   UNL A   1      41.129  23.619  28.329  1.00  0.00    -0.253 NA
ATOM     14  C   UNL A   1      40.140  23.298  27.486  1.00  0.00     0.072 A 
ATOM     15  C   UNL A   1      40.031  22.029  26.877  1.00  0.00     0.015 A 
ATOM     16  C   UNL A   1      39.225  24.294  27.169  1.00  0.00     0.030 A 
ATOM     17  C   UNL A   1      38.919  21.805  26.018  1.00  0.00     0.026 A 
ATOM     18  C   UNL A   1      38.161  24.072  26.294  1.00  0.00     0.017 A 
ATOM     19  C   UNL A   1      38.000  22.815  25.735  1.00  0.00     0.014 A 
ATOM     20  I   UNL A   1      36.399  22.440  24.467  1.00  0.00    -0.044 I 
ENDBRANCH   8   9
ENDBRANCH   7   8
ENDBRANCH   5   7
ENDBRANCH   4   5
ENDBRANCH   3   4
ENDBRANCH   2   3
ENDBRANCH   1   2
BRANCH   1  21
ATOM     21  C   UNL A   1      45.675  22.446  25.162  1.00  0.00     0.202 C 
BRANCH  21  22
ATOM     22  C   UNL A   1      45.839  23.871  24.623  1.00  0.00     0.261 C 
BRANCH  22  23
ATOM     23  O   UNL A   1      44.826  24.774  25.051  1.00  0.00    -0.460 OA
BRANCH  23  24
ATOM     24  C   UNL A   1      45.265  26.037  25.232  1.00  0.00     0.338 C 
ATOM     25  O   UNL A   1      46.111  26.649  24.598  1.00  0.00    -0.246 OA
BRANCH  24  26
ATOM     26  C   UNL A   1      44.412  26.658  26.242  1.00  0.00     0.060 A 
ATOM     27  C   UNL A   1      43.424  25.917  26.895  1.00  0.00     0.016 A 
ATOM     28  C   UNL A   1      44.633  28.006  26.532  1.00  0.00     0.016 A 
ATOM     29  C   UNL A   1      42.667  26.538  27.883  1.00  0.00     0.010 A 
ATOM     30  C   UNL A   1      43.879  28.621  27.520  1.00  0.00     0.010 A 
ATOM     31  C   UNL A   1      42.912  27.882  28.216  1.00  0.00    -0.014 A 
BRANCH  31  32
ATOM     32  C   UNL A   1      42.264  28.491  29.393  1.00  0.00     0.031 A 
ATOM     33  C   UNL A   1      40.936  29.167  29.274  1.00  0.00     0.074 A 
ATOM     34  C   UNL A   1      42.939  28.474  30.556  1.00  0.00     0.049 A 
ATOM     35  N   UNL A   1      40.247  29.788  30.195  1.00  0.00    -0.248 NA
ATOM     36  C   UNL A   1      40.304  29.157  27.946  1.00  0.00     0.031 C 
ATOM     37  C   UNL A   1      44.256  27.864  30.750  1.00  0.00     0.029 A 
ATOM     38  N   UNL A   1      42.622  28.982  31.786  1.00  0.00    -0.354 N 
ATOM     39  C   UNL A   1      39.092  30.228  29.566  1.00  0.00     0.074 A 
ATOM     40  C   UNL A   1      39.195  29.850  28.173  1.00  0.00     0.031 C 
ATOM     41  C   UNL A   1      44.622  28.007  32.031  1.00  0.00     0.029 A 
ATOM     42  C   UNL A   1      43.588  28.757  32.735  1.00  0.00     0.049 A 
ATOM     43  H   UNL A   1      41.782  29.463  31.973  1.00  0.00     0.167 HD
ATOM     44  C   UNL A   1      38.036  30.870  30.121  1.00  0.00     0.037 A 
ATOM     45  C   UNL A   1      43.632  29.123  34.028  1.00  0.00     0.037 A 
ATOM     46  C   UNL A   1      37.967  31.251  31.508  1.00  0.00     0.049 A 
ATOM     47  C   UNL A   1      42.471  29.889  34.597  1.00  0.00     0.074 A 
ATOM     48  C   UNL A   1      36.939  31.893  32.176  1.00  0.00     0.029 A 
ATOM     49  N   UNL A   1      38.973  31.031  32.441  1.00  0.00    -0.354 N 
ATOM     50  N   UNL A   1      41.357  30.257  34.011  1.00  0.00    -0.248 NA
ATOM     51  C   UNL A   1      42.571  30.289  36.006  1.00  0.00     0.031 C 
ATOM     52  C   UNL A   1      37.343  32.108  33.496  1.00  0.00     0.029 A 
ATOM     53  C   UNL A   1      38.599  31.546  33.672  1.00  0.00     0.049 A 
ATOM     54  H   UNL A   1      39.825  30.576  32.255  1.00  0.00     0.167 HD
ATOM     55  C   UNL A   1      40.612  30.908  34.983  1.00  0.00     0.074 A 
ATOM     56  C   UNL A   1      41.394  30.867  36.202  1.00  0.00     0.031 C 
ATOM     57  C   UNL A   1      39.392  31.490  34.875  1.00  0.00     0.037 A 
BRANCH  44  58
ATOM     58  C   UNL A   1      36.868  31.194  29.236  1.00  0.00     0.064 A 
ATOM     59  C   UNL A   1      35.911  30.221  28.907  1.00  0.00     0.173 A 
ATOM     60  C   UNL A   1      36.658  32.502  28.773  1.00  0.00     0.173 A 
ATOM     61  F   UNL A   1      36.070  28.952  29.313  1.00  0.00    -0.203 F 
ATOM     62  C   UNL A   1      34.794  30.543  28.141  1.00  0.00     0.198 A 
ATOM     63  C   UNL A   1      35.524  32.827  28.032  1.00  0.00     0.198 A 
ATOM     64  F   UNL A   1      37.539  33.471  29.060  1.00  0.00    -0.203 F 
ATOM     65  F   UNL A   1      33.911  29.589  27.813  1.00  0.00    -0.200 F 
ATOM     66  C   UNL A   1      34.595  31.847  27.713  1.00  0.00     0.200 A 
ATOM     67  F   UNL A   1      35.326  34.091  27.632  1.00  0.00    -0.200 F 
ATOM     68  F   UNL A   1      33.510  32.159  26.992  1.00  0.00    -0.200 F 
ENDBRANCH  44  58
BRANCH  45  69
ATOM     69  C   UNL A   1      44.793  28.731  34.866  1.00  0.00     0.064 A 
ATOM     70  C   UNL A   1      44.781  27.528  35.584  1.00  0.00     0.173 A 
ATOM     71  C   UNL A   1      45.947  29.525  34.942  1.00  0.00     0.173 A 
ATOM     72  F   UNL A   1      43.695  26.741  35.553  1.00  0.00    -0.203 F 
ATOM     73  C   UNL A   1      45.873  27.139  36.357  1.00  0.00     0.198 A 
ATOM     74  C   UNL A   1      47.050  29.121  35.690  1.00  0.00     0.198 A 
ATOM     75  F   UNL A   1      46.014  30.682  34.267  1.00  0.00    -0.203 F 
ATOM     76  F   UNL A   1      45.819  26.002  37.063  1.00  0.00    -0.200 F 
ATOM     77  C   UNL A   1      47.010  27.932  36.403  1.00  0.00     0.200 A 
ATOM     78  F   UNL A   1      48.154  29.879  35.717  1.00  0.00    -0.200 F 
ATOM     79  F   UNL A   1      48.064  27.551  37.137  1.00  0.00    -0.200 F 
ENDBRANCH  45  69
BRANCH  57  80
ATOM     80  C   UNL A   1      38.816  32.113  36.114  1.00  0.00     0.064 A 
ATOM     81  C   UNL A   1      38.049  31.368  37.022  1.00  0.00     0.173 A 
ATOM     82  C   UNL A   1      39.087  33.454  36.426  1.00  0.00     0.173 A 
ATOM     83  F   UNL A   1      37.751  30.087  36.761  1.00  0.00    -0.203 F 
ATOM     84  C   UNL A   1      37.558  31.950  38.188  1.00  0.00     0.198 A 
ATOM     85  C   UNL A   1      38.624  34.022  37.609  1.00  0.00     0.198 A 
ATOM     86  F   UNL A   1      39.822  34.207  35.595  1.00  0.00    -0.203 F 
ATOM     87  F   UNL A   1      36.790  31.232  39.018  1.00  0.00    -0.200 F 
ATOM     88  C   UNL A   1      37.854  33.271  38.485  1.00  0.00     0.200 A 
ATOM     89  F   UNL A   1      38.928  35.294  37.905  1.00  0.00    -0.200 F 
ATOM     90  F   UNL A   1      37.394  33.824  39.616  1.00  0.00    -0.200 F 
ENDBRANCH  57  80
ENDBRANCH  31  32
ENDBRANCH  24  26
ENDBRANCH  23  24
ENDBRANCH  22  23
ENDBRANCH  21  22
ENDBRANCH   1  21
TORSDOF 16
ENDMDL
MODEL 2
REMARK VINA RESULT:     -11.0      2.665      3.609
REMARK SMILES Cc1cc(SCC(=O)OCCOCCOC(=O)c2ccc(-c3c4nc(c(-c5c(F)c(F)c(F)c(F)c5F)c5ccc([nH]5)c(-c5c(F)c(F)c(F)c(F)c5F)c5nc(c(-c6c(F)c(F)c(F)c(F)c6F)c6ccc3[nH]6)C=C5)C=C4)cc2)c2cc(I)ccc2n1
REMARK SMILES IDX 12 1 11 2 10 3 9 4 7 5 8 6 6 7 5 8 4 9 1 10 2 11 3 12 88 13
REMARK SMILES IDX 87 14 81 15 86 16 82 17 85 18 83 19 84 20 13 21 14 22 15 23
REMARK SMILES IDX 16 24 17 25 18 26 19 27 80 28 20 29 79 30 21 31 22 32 23 33
REMARK SMILES IDX 73 34 24 35 78 36 72 37 74 38 25 39 77 40 71 41 70 42 26 44
REMARK SMILES IDX 58 45 38 46 57 47 39 48 42 49 56 50 75 51 40 52 41 53 55 55
REMARK SMILES IDX 76 56 43 57 27 58 28 59 36 60 29 61 30 62 34 63 37 64 31 65
REMARK SMILES IDX 32 66 35 67 33 68 59 69 60 70 68 71 61 72 62 73 66 74 69 75
REMARK SMILES IDX 63 76 64 77 67 78 65 79 44 80 45 81 53 82 46 83 47 84 51 85
REMARK SMILES IDX 54 86 48 87 49 88 52 89 50 90
REMARK H PARENT 74 43 42 54
REMARK Flexibility Score: inf
ROOT
ATOM      1  O   UNL A   1      42.495  20.889  25.558  1.00  0.00    -0.374 OA
ENDROOT
BRANCH   1   2
ATOM      2  C   UNL A   1      41.999  20.699  26.878  1.00  0.00     0.202 C 
BRANCH   2   3
ATOM      3  C   UNL A   1      40.655  21.339  27.256  1.00  0.00     0.261 C 
BRANCH   3   4
ATOM      4  O   UNL A   1      39.655  21.307  26.215  1.00  0.00    -0.463 OA
BRANCH   4   5
ATOM      5  C   UNL A   1      38.878  22.420  26.113  1.00  0.00     0.316 C 
ATOM      6  O   UNL A   1      39.161  23.498  26.629  1.00  0.00    -0.251 OA
BRANCH   5   7
ATOM      7  C   UNL A   1      37.591  22.271  25.327  1.00  0.00     0.197 C 
BRANCH   7   8
ATOM      8  S   UNL A   1      36.149  23.237  25.859  1.00  0.00    -0.114 SA
BRANCH   8   9
ATOM      9  C   UNL A   1      34.653  22.332  25.370  1.00  0.00     0.019 A 
ATOM     10  C   UNL A   1      33.410  18.794  24.872  1.00  0.00     0.067 C 
ATOM     11  C   UNL A   1      33.454  20.295  24.927  1.00  0.00     0.039 A 
ATOM     12  C   UNL A   1      34.664  20.976  25.024  1.00  0.00     0.039 A 
ATOM     13  N   UNL A   1      32.263  20.900  25.111  1.00  0.00    -0.253 NA
ATOM     14  C   UNL A   1      32.230  22.212  25.377  1.00  0.00     0.072 A 
ATOM     15  C   UNL A   1      33.394  23.001  25.494  1.00  0.00     0.015 A 
ATOM     16  C   UNL A   1      30.985  22.785  25.597  1.00  0.00     0.030 A 
ATOM     17  C   UNL A   1      33.223  24.390  25.755  1.00  0.00     0.026 A 
ATOM     18  C   UNL A   1      30.834  24.141  25.891  1.00  0.00     0.017 A 
ATOM     19  C   UNL A   1      31.959  24.947  25.948  1.00  0.00     0.014 A 
ATOM     20  I   UNL A   1      31.764  26.977  26.336  1.00  0.00    -0.044 I 
ENDBRANCH   8   9
ENDBRANCH   7   8
ENDBRANCH   5   7
ENDBRANCH   4   5
ENDBRANCH   3   4
ENDBRANCH   2   3
ENDBRANCH   1   2
BRANCH   1  21
ATOM     21  C   UNL A   1      43.794  21.447  25.410  1.00  0.00     0.202 C 
BRANCH  21  22
ATOM     22  C   UNL A   1      43.982  22.603  24.422  1.00  0.00     0.261 C 
BRANCH  22  23
ATOM     23  O   UNL A   1      43.261  23.782  24.763  1.00  0.00    -0.460 OA
BRANCH  23  24
ATOM     24  C   UNL A   1      44.049  24.809  25.144  1.00  0.00     0.338 C 
ATOM     25  O   UNL A   1      45.110  25.176  24.663  1.00  0.00    -0.246 OA
BRANCH  24  26
ATOM     26  C   UNL A   1      43.323  25.565  26.161  1.00  0.00     0.060 A 
ATOM     27  C   UNL A   1      42.362  24.944  26.963  1.00  0.00     0.016 A 
ATOM     28  C   UNL A   1      43.636  26.919  26.304  1.00  0.00     0.016 A 
ATOM     29  C   UNL A   1      41.729  25.692  27.950  1.00  0.00     0.010 A 
ATOM     30  C   UNL A   1      43.007  27.661  27.292  1.00  0.00     0.010 A 
ATOM     31  C   UNL A   1      42.070  27.044  28.134  1.00  0.00    -0.014 A 
BRANCH  31  32
ATOM     32  C   UNL A   1      41.563  27.791  29.300  1.00  0.00     0.031 A 
ATOM     33  C   UNL A   1      40.353  28.661  29.187  1.00  0.00     0.074 A 
ATOM     34  C   UNL A   1      42.265  27.713  30.445  1.00  0.00     0.049 A 
ATOM     35  N   UNL A   1      39.797  29.416  30.098  1.00  0.00    -0.248 NA
ATOM     36  C   UNL A   1      39.684  28.698  27.878  1.00  0.00     0.031 C 
ATOM     37  C   UNL A   1      43.477  26.913  30.630  1.00  0.00     0.029 A 
ATOM     38  N   UNL A   1      42.069  28.311  31.660  1.00  0.00    -0.354 N 
ATOM     39  C   UNL A   1      38.705  30.006  29.482  1.00  0.00     0.074 A 
ATOM     40  C   UNL A   1      38.703  29.564  28.104  1.00  0.00     0.031 C 
ATOM     41  C   UNL A   1      43.902  27.047  31.894  1.00  0.00     0.029 A 
ATOM     42  C   UNL A   1      43.019  27.975  32.592  1.00  0.00     0.049 A 
ATOM     43  H   UNL A   1      41.321  28.924  31.848  1.00  0.00     0.167 HD
ATOM     44  C   UNL A   1      37.780  30.825  30.036  1.00  0.00     0.037 A 
ATOM     45  C   UNL A   1      43.161  28.379  33.867  1.00  0.00     0.037 A 
ATOM     46  C   UNL A   1      37.814  31.265  31.407  1.00  0.00     0.049 A 
ATOM     47  C   UNL A   1      42.152  29.337  34.432  1.00  0.00     0.074 A 
ATOM     48  C   UNL A   1      36.921  32.084  32.073  1.00  0.00     0.029 A 
ATOM     49  N   UNL A   1      38.804  30.926  32.322  1.00  0.00    -0.354 N 
ATOM     50  N   UNL A   1      41.089  29.852  33.861  1.00  0.00    -0.248 NA
ATOM     51  C   UNL A   1      42.359  29.770  35.819  1.00  0.00     0.031 C 
ATOM     52  C   UNL A   1      37.395  32.284  33.372  1.00  0.00     0.029 A 
ATOM     53  C   UNL A   1      38.555  31.541  33.538  1.00  0.00     0.049 A 
ATOM     54  H   UNL A   1      39.569  30.338  32.133  1.00  0.00     0.167 HD
ATOM     55  C   UNL A   1      40.486  30.647  34.822  1.00  0.00     0.074 A 
ATOM     56  C   UNL A   1      41.292  30.531  36.022  1.00  0.00     0.031 C 
ATOM     57  C   UNL A   1      39.368  31.408  34.722  1.00  0.00     0.037 A 
BRANCH  44  58
ATOM     58  C   UNL A   1      36.647  31.293  29.168  1.00  0.00     0.064 A 
ATOM     59  C   UNL A   1      35.607  30.426  28.799  1.00  0.00     0.173 A 
ATOM     60  C   UNL A   1      36.557  32.633  28.765  1.00  0.00     0.173 A 
ATOM     61  F   UNL A   1      35.649  29.131  29.147  1.00  0.00    -0.203 F 
ATOM     62  C   UNL A   1      34.525  30.882  28.050  1.00  0.00     0.198 A 
ATOM     63  C   UNL A   1      35.459  33.093  28.041  1.00  0.00     0.198 A 
ATOM     64  F   UNL A   1      37.522  33.505  29.093  1.00  0.00    -0.203 F 
ATOM     65  F   UNL A   1      33.559  30.028  27.681  1.00  0.00    -0.200 F 
ATOM     66  C   UNL A   1      34.446  32.216  27.681  1.00  0.00     0.200 A 
ATOM     67  F   UNL A   1      35.378  34.386  27.698  1.00  0.00    -0.200 F 
ATOM     68  F   UNL A   1      33.395  32.658  26.977  1.00  0.00    -0.200 F 
ENDBRANCH  44  58
BRANCH  45  69
ATOM     69  C   UNL A   1      44.275  27.843  34.691  1.00  0.00     0.064 A 
ATOM     70  C   UNL A   1      44.111  26.667  35.434  1.00  0.00     0.173 A 
ATOM     71  C   UNL A   1      45.530  28.469  34.727  1.00  0.00     0.173 A 
ATOM     72  F   UNL A   1      42.925  26.040  35.440  1.00  0.00    -0.203 F 
ATOM     73  C   UNL A   1      45.154  26.143  36.193  1.00  0.00     0.198 A 
ATOM     74  C   UNL A   1      46.582  27.928  35.462  1.00  0.00     0.198 A 
ATOM     75  F   UNL A   1      45.743  29.593  34.027  1.00  0.00    -0.203 F 
ATOM     76  F   UNL A   1      44.958  25.038  36.923  1.00  0.00    -0.200 F 
ATOM     77  C   UNL A   1      46.391  26.769  36.201  1.00  0.00     0.200 A 
ATOM     78  F   UNL A   1      47.782  28.524  35.452  1.00  0.00    -0.200 F 
ATOM     79  F   UNL A   1      47.398  26.258  36.921  1.00  0.00    -0.200 F 
ENDBRANCH  45  69
BRANCH  57  80
ATOM     80  C   UNL A   1      38.935  32.160  35.947  1.00  0.00     0.064 A 
ATOM     81  C   UNL A   1      38.214  31.535  36.976  1.00  0.00     0.173 A 
ATOM     82  C   UNL A   1      39.301  33.504  36.122  1.00  0.00     0.173 A 
ATOM     83  F   UNL A   1      37.830  30.257  36.850  1.00  0.00    -0.203 F 
ATOM     84  C   UNL A   1      37.857  32.236  38.125  1.00  0.00     0.198 A 
ATOM     85  C   UNL A   1      38.973  34.189  37.287  1.00  0.00     0.198 A 
ATOM     86  F   UNL A   1      39.998  34.144  35.172  1.00  0.00    -0.203 F 
ATOM     87  F   UNL A   1      37.130  31.632  39.074  1.00  0.00    -0.200 F 
ATOM     88  C   UNL A   1      38.246  33.557  38.285  1.00  0.00     0.200 A 
ATOM     89  F   UNL A   1      39.366  35.461  37.448  1.00  0.00    -0.200 F 
ATOM     90  F   UNL A   1      37.916  34.224  39.399  1.00  0.00    -0.200 F 
ENDBRANCH  57  80
ENDBRANCH  31  32
ENDBRANCH  24  26
ENDBRANCH  23  24
ENDBRANCH  22  23
ENDBRANCH  21  22
ENDBRANCH   1  21
TORSDOF 16
ENDMDL
MODEL 3
REMARK VINA RESULT:     -10.9      2.726      3.998
REMARK SMILES Cc1cc(SCC(=O)OCCOCCOC(=O)c2ccc(-c3c4nc(c(-c5c(F)c(F)c(F)c(F)c5F)c5ccc([nH]5)c(-c5c(F)c(F)c(F)c(F)c5F)c5nc(c(-c6c(F)c(F)c(F)c(F)c6F)c6ccc3[nH]6)C=C5)C=C4)cc2)c2cc(I)ccc2n1
REMARK SMILES IDX 12 1 11 2 10 3 9 4 7 5 8 6 6 7 5 8 4 9 1 10 2 11 3 12 88 13
REMARK SMILES IDX 87 14 81 15 86 16 82 17 85 18 83 19 84 20 13 21 14 22 15 23
REMARK SMILES IDX 16 24 17 25 18 26 19 27 80 28 20 29 79 30 21 31 22 32 23 33
REMARK SMILES IDX 73 34 24 35 78 36 72 37 74 38 25 39 77 40 71 41 70 42 26 44
REMARK SMILES IDX 58 45 38 46 57 47 39 48 42 49 56 50 75 51 40 52 41 53 55 55
REMARK SMILES IDX 76 56 43 57 27 58 28 59 36 60 29 61 30 62 34 63 37 64 31 65
REMARK SMILES IDX 32 66 35 67 33 68 59 69 60 70 68 71 61 72 62 73 66 74 69 75
REMARK SMILES IDX 63 76 64 77 67 78 65 79 44 80 45 81 53 82 46 83 47 84 51 85
REMARK SMILES IDX 54 86 48 87 49 88 52 89 50 90
REMARK H PARENT 74 43 42 54
REMARK Flexibility Score: inf
ROOT
ATOM      1  O   UNL A   1      42.036  21.158  25.746  1.00  0.00    -0.374 OA
ENDROOT
BRANCH   1   2
ATOM      2  C   UNL A   1      41.355  21.085  26.994  1.00  0.00     0.202 C 
BRANCH   2   3
ATOM      3  C   UNL A   1      40.182  22.044  27.247  1.00  0.00     0.261 C 
BRANCH   3   4
ATOM      4  O   UNL A   1      39.287  22.215  26.127  1.00  0.00    -0.463 OA
BRANCH   4   5
ATOM      5  C   UNL A   1      38.499  23.325  26.168  1.00  0.00     0.316 C 
ATOM      6  O   UNL A   1      38.713  24.285  26.905  1.00  0.00    -0.251 OA
BRANCH   5   7
ATOM      7  C   UNL A   1      37.292  23.326  25.254  1.00  0.00     0.197 C 
BRANCH   7   8
ATOM      8  S   UNL A   1      35.784  22.495  25.830  1.00  0.00    -0.114 SA
BRANCH   8   9
ATOM      9  C   UNL A   1      34.438  22.915  24.686  1.00  0.00     0.019 A 
ATOM     10  C   UNL A   1      33.347  25.680  22.347  1.00  0.00     0.067 C 
ATOM     11  C   UNL A   1      33.366  24.392  23.120  1.00  0.00     0.039 A 
ATOM     12  C   UNL A   1      34.238  24.207  24.189  1.00  0.00     0.039 A 
ATOM     13  N   UNL A   1      32.669  23.378  22.568  1.00  0.00    -0.253 NA
ATOM     14  C   UNL A   1      32.796  22.145  23.074  1.00  0.00     0.072 A 
ATOM     15  C   UNL A   1      33.648  21.844  24.158  1.00  0.00     0.015 A 
ATOM     16  C   UNL A   1      32.090  21.126  22.450  1.00  0.00     0.030 A 
ATOM     17  C   UNL A   1      33.676  20.497  24.618  1.00  0.00     0.026 A 
ATOM     18  C   UNL A   1      32.156  19.802  22.888  1.00  0.00     0.017 A 
ATOM     19  C   UNL A   1      32.937  19.495  23.990  1.00  0.00     0.014 A 
ATOM     20  I   UNL A   1      33.019  17.544  24.694  1.00  0.00    -0.044 I 
ENDBRANCH   8   9
ENDBRANCH   7   8
ENDBRANCH   5   7
ENDBRANCH   4   5
ENDBRANCH   3   4
ENDBRANCH   2   3
ENDBRANCH   1   2
BRANCH   1  21
ATOM     21  C   UNL A   1      43.418  21.486  25.763  1.00  0.00     0.202 C 
BRANCH  21  22
ATOM     22  C   UNL A   1      43.917  22.588  24.822  1.00  0.00     0.261 C 
BRANCH  22  23
ATOM     23  O   UNL A   1      43.168  23.796  24.893  1.00  0.00    -0.460 OA
BRANCH  23  24
ATOM     24  C   UNL A   1      43.915  24.882  25.182  1.00  0.00     0.338 C 
ATOM     25  O   UNL A   1      44.929  25.279  24.629  1.00  0.00    -0.246 OA
BRANCH  24  26
ATOM     26  C   UNL A   1      43.198  25.650  26.197  1.00  0.00     0.060 A 
ATOM     27  C   UNL A   1      42.198  25.054  26.970  1.00  0.00     0.016 A 
ATOM     28  C   UNL A   1      43.560  26.988  26.368  1.00  0.00     0.016 A 
ATOM     29  C   UNL A   1      41.575  25.811  27.956  1.00  0.00     0.010 A 
ATOM     30  C   UNL A   1      42.940  27.739  27.355  1.00  0.00     0.010 A 
ATOM     31  C   UNL A   1      41.964  27.145  28.169  1.00  0.00    -0.014 A 
BRANCH  31  32
ATOM     32  C   UNL A   1      41.462  27.893  29.336  1.00  0.00     0.031 A 
ATOM     33  C   UNL A   1      40.264  28.779  29.224  1.00  0.00     0.074 A 
ATOM     34  C   UNL A   1      42.160  27.802  30.483  1.00  0.00     0.049 A 
ATOM     35  N   UNL A   1      39.715  29.536  30.137  1.00  0.00    -0.248 NA
ATOM     36  C   UNL A   1      39.599  28.829  27.913  1.00  0.00     0.031 C 
ATOM     37  C   UNL A   1      43.362  26.987  30.668  1.00  0.00     0.029 A 
ATOM     38  N   UNL A   1      41.969  28.398  31.700  1.00  0.00    -0.354 N 
ATOM     39  C   UNL A   1      38.631  30.142  29.520  1.00  0.00     0.074 A 
ATOM     40  C   UNL A   1      38.628  29.706  28.140  1.00  0.00     0.031 C 
ATOM     41  C   UNL A   1      43.786  27.110  31.934  1.00  0.00     0.029 A 
ATOM     42  C   UNL A   1      42.912  28.046  32.633  1.00  0.00     0.049 A 
ATOM     43  H   UNL A   1      41.228  29.018  31.888  1.00  0.00     0.167 HD
ATOM     44  C   UNL A   1      37.715  30.971  30.075  1.00  0.00     0.037 A 
ATOM     45  C   UNL A   1      43.056  28.443  33.910  1.00  0.00     0.037 A 
ATOM     46  C   UNL A   1      37.751  31.404  31.448  1.00  0.00     0.049 A 
ATOM     47  C   UNL A   1      42.057  29.411  34.477  1.00  0.00     0.074 A 
ATOM     48  C   UNL A   1      36.866  32.231  32.115  1.00  0.00     0.029 A 
ATOM     49  N   UNL A   1      38.734  31.050  32.364  1.00  0.00    -0.354 N 
ATOM     50  N   UNL A   1      41.002  29.941  33.905  1.00  0.00    -0.248 NA
ATOM     51  C   UNL A   1      42.264  29.835  35.867  1.00  0.00     0.031 C 
ATOM     52  C   UNL A   1      37.339  32.420  33.416  1.00  0.00     0.029 A 
ATOM     53  C   UNL A   1      38.489  31.662  33.583  1.00  0.00     0.049 A 
ATOM     54  H   UNL A   1      39.493  30.452  32.175  1.00  0.00     0.167 HD
ATOM     55  C   UNL A   1      40.405  30.739  34.868  1.00  0.00     0.074 A 
ATOM     56  C   UNL A   1      41.207  30.608  36.070  1.00  0.00     0.031 C 
ATOM     57  C   UNL A   1      39.297  31.514  34.768  1.00  0.00     0.037 A 
BRANCH  44  58
ATOM     58  C   UNL A   1      36.591  31.456  29.207  1.00  0.00     0.064 A 
ATOM     59  C   UNL A   1      35.528  30.610  28.851  1.00  0.00     0.173 A 
ATOM     60  C   UNL A   1      36.531  32.794  28.788  1.00  0.00     0.173 A 
ATOM     61  F   UNL A   1      35.540  29.319  29.215  1.00  0.00    -0.203 F 
ATOM     62  C   UNL A   1      34.455  31.085  28.101  1.00  0.00     0.198 A 
ATOM     63  C   UNL A   1      35.442  33.271  28.063  1.00  0.00     0.198 A 
ATOM     64  F   UNL A   1      37.519  33.645  29.103  1.00  0.00    -0.203 F 
ATOM     65  F   UNL A   1      33.466  30.250  27.746  1.00  0.00    -0.200 F 
ATOM     66  C   UNL A   1      34.406  32.416  27.717  1.00  0.00     0.200 A 
ATOM     67  F   UNL A   1      35.391  34.562  27.706  1.00  0.00    -0.200 F 
ATOM     68  F   UNL A   1      33.364  32.874  27.012  1.00  0.00    -0.200 F 
ENDBRANCH  44  58
BRANCH  45  69
ATOM     69  C   UNL A   1      44.160  27.890  34.735  1.00  0.00     0.064 A 
ATOM     70  C   UNL A   1      45.383  28.566  34.835  1.00  0.00     0.173 A 
ATOM     71  C   UNL A   1      44.010  26.701  35.464  1.00  0.00     0.173 A 
ATOM     72  F   UNL A   1      45.579  29.700  34.146  1.00  0.00    -0.203 F 
ATOM     73  C   UNL A   1      46.420  28.069  35.621  1.00  0.00     0.198 A 
ATOM     74  C   UNL A   1      45.035  26.220  36.275  1.00  0.00     0.198 A 
ATOM     75  F   UNL A   1      42.856  26.020  35.411  1.00  0.00    -0.203 F 
ATOM     76  F   UNL A   1      47.591  28.716  35.669  1.00  0.00    -0.200 F 
ATOM     77  C   UNL A   1      46.242  26.900  36.348  1.00  0.00     0.200 A 
ATOM     78  F   UNL A   1      44.854  25.102  36.990  1.00  0.00    -0.200 F 
ATOM     79  F   UNL A   1      47.234  26.429  37.114  1.00  0.00    -0.200 F 
ENDBRANCH  45  69
BRANCH  57  80
ATOM     80  C   UNL A   1      38.870  32.265  35.996  1.00  0.00     0.064 A 
ATOM     81  C   UNL A   1      38.147  31.643  37.024  1.00  0.00     0.173 A 
ATOM     82  C   UNL A   1      39.244  33.607  36.172  1.00  0.00     0.173 A 
ATOM     83  F   UNL A   1      37.755  30.367  36.896  1.00  0.00    -0.203 F 
ATOM     84  C   UNL A   1      37.795  32.343  38.175  1.00  0.00     0.198 A 
ATOM     85  C   UNL A   1      38.922  34.292  37.339  1.00  0.00     0.198 A 
ATOM     86  F   UNL A   1      39.943  34.246  35.223  1.00  0.00    -0.203 F 
ATOM     87  F   UNL A   1      37.065  31.742  39.124  1.00  0.00    -0.200 F 
ATOM     88  C   UNL A   1      38.192  33.662  38.337  1.00  0.00     0.200 A 
ATOM     89  F   UNL A   1      39.322  35.561  37.503  1.00  0.00    -0.200 F 
ATOM     90  F   UNL A   1      37.867  34.329  39.453  1.00  0.00    -0.200 F 
ENDBRANCH  57  80
ENDBRANCH  31  32
ENDBRANCH  24  26
ENDBRANCH  23  24
ENDBRANCH  22  23
ENDBRANCH  21  22
ENDBRANCH   1  21
TORSDOF 16
ENDMDL
