MODEL 1
REMARK VINA RESULT:     -11.1      0.000      0.000
REMARK SMILES C[C@H](Nc1ccc(F)cc1Br)[C@@H](C)C(=O)OCCOCCOC(=O)c1ccc(-c2c3nc(c(-c4c(F)c(F)c(F)c(F)c4F)c4ccc([nH]4)c(-c4c(F)c(F)c(F)c(F)c4F)c4nc(c(-c5c(F)c(F)c(F)c(F)c5F)c5ccc2[nH]5)C=C4)C=C3)cc1
REMARK SMILES IDX 18 1 17 2 16 3 14 4 15 5 12 6 13 7 2 8 1 9 3 10 4 12 5 13
REMARK SMILES IDX 10 14 6 15 9 16 11 17 7 18 8 19 19 20 20 21 21 22 22 23
REMARK SMILES IDX 23 24 24 25 25 26 26 27 87 28 27 29 86 30 28 31 29 32 30 33
REMARK SMILES IDX 80 34 31 35 85 36 79 37 81 38 32 39 84 40 78 41 77 42 33 44
REMARK SMILES IDX 65 45 45 46 64 47 46 48 49 49 63 50 82 51 47 52 48 53 62 55
REMARK SMILES IDX 83 56 50 57 34 58 35 59 43 60 36 61 37 62 41 63 44 64 38 65
REMARK SMILES IDX 39 66 42 67 40 68 66 69 67 70 75 71 68 72 69 73 73 74 76 75
REMARK SMILES IDX 70 76 71 77 74 78 72 79 51 80 52 81 60 82 53 83 54 84 58 85
REMARK SMILES IDX 61 86 55 87 56 88 59 89 57 90
REMARK H PARENT 3 11 81 43 49 54
REMARK Flexibility Score: inf
ROOT
ATOM      1  C   UNL A   1      32.867  28.685  23.727  1.00  0.00     0.202 C 
ENDROOT
BRANCH   1   2
ATOM      2  C   UNL A   1      33.103  27.732  22.553  1.00  0.00     0.261 C 
BRANCH   2   3
ATOM      3  O   UNL A   1      31.998  26.889  22.166  1.00  0.00    -0.463 OA
BRANCH   3   4
ATOM      4  C   UNL A   1      32.328  25.585  21.934  1.00  0.00     0.310 C 
ATOM      5  O   UNL A   1      33.038  25.210  21.009  1.00  0.00    -0.252 OA
BRANCH   4   6
ATOM      6  C   UNL A   1      31.606  24.601  22.851  1.00  0.00     0.118 C 
ATOM      7  C   UNL A   1      30.459  25.384  23.492  1.00  0.00     0.022 C 
BRANCH   6   8
ATOM      8  C   UNL A   1      32.530  23.862  23.846  1.00  0.00     0.090 C 
ATOM      9  C   UNL A   1      33.078  24.856  24.888  1.00  0.00     0.031 C 
BRANCH   8  10
ATOM     10  N   UNL A   1      33.627  23.122  23.154  1.00  0.00    -0.381 N 
ATOM     11  H   UNL A   1      33.647  23.088  22.170  1.00  0.00     0.160 HD
BRANCH  10  12
ATOM     12  C   UNL A   1      34.628  22.475  23.890  1.00  0.00     0.049 A 
ATOM     13  C   UNL A   1      35.948  22.954  23.810  1.00  0.00     0.030 A 
ATOM     14  C   UNL A   1      34.409  21.250  24.550  1.00  0.00     0.044 A 
ATOM     15  C   UNL A   1      37.022  22.186  24.261  1.00  0.00     0.041 A 
ATOM     16  C   UNL A   1      35.481  20.481  25.006  1.00  0.00     0.057 A 
ATOM     17  Br  UNL A   1      32.661  20.559  24.816  1.00  0.00    -0.048 Br
ATOM     18  C   UNL A   1      36.777  20.944  24.829  1.00  0.00     0.124 A 
ATOM     19  F   UNL A   1      37.809  20.177  25.204  1.00  0.00    -0.207 F 
ENDBRANCH  10  12
ENDBRANCH   8  10
ENDBRANCH   6   8
ENDBRANCH   4   6
ENDBRANCH   3   4
ENDBRANCH   2   3
ENDBRANCH   1   2
BRANCH   1  20
ATOM     20  O   UNL A   1      31.615  28.698  24.384  1.00  0.00    -0.374 OA
BRANCH  20  21
ATOM     21  C   UNL A   1      31.469  29.293  25.661  1.00  0.00     0.202 C 
BRANCH  21  22
ATOM     22  C   UNL A   1      32.193  30.599  26.021  1.00  0.00     0.261 C 
BRANCH  22  23
ATOM     23  O   UNL A   1      32.869  30.638  27.260  1.00  0.00    -0.460 OA
BRANCH  23  24
ATOM     24  C   UNL A   1      33.454  31.806  27.573  1.00  0.00     0.338 C 
ATOM     25  O   UNL A   1      32.986  32.922  27.566  1.00  0.00    -0.246 OA
BRANCH  24  26
ATOM     26  C   UNL A   1      34.798  31.422  28.008  1.00  0.00     0.060 A 
ATOM     27  C   UNL A   1      35.031  30.083  28.310  1.00  0.00     0.016 A 
ATOM     28  C   UNL A   1      35.821  32.378  28.051  1.00  0.00     0.016 A 
ATOM     29  C   UNL A   1      36.291  29.707  28.745  1.00  0.00     0.010 A 
ATOM     30  C   UNL A   1      37.091  31.993  28.470  1.00  0.00     0.010 A 
ATOM     31  C   UNL A   1      37.312  30.666  28.869  1.00  0.00    -0.014 A 
BRANCH  31  32
ATOM     32  C   UNL A   1      38.550  30.272  29.567  1.00  0.00     0.031 A 
ATOM     33  C   UNL A   1      38.752  30.718  30.986  1.00  0.00     0.074 A 
ATOM     34  C   UNL A   1      39.407  29.424  28.975  1.00  0.00     0.049 A 
ATOM     35  N   UNL A   1      39.656  30.339  31.853  1.00  0.00    -0.248 NA
ATOM     36  C   UNL A   1      37.807  31.719  31.505  1.00  0.00     0.031 C 
ATOM     37  C   UNL A   1      39.291  28.937  27.601  1.00  0.00     0.029 A 
ATOM     38  N   UNL A   1      40.521  28.797  29.466  1.00  0.00    -0.354 N 
ATOM     39  C   UNL A   1      39.379  31.044  33.016  1.00  0.00     0.074 A 
ATOM     40  C   UNL A   1      38.259  31.913  32.734  1.00  0.00     0.031 C 
ATOM     41  C   UNL A   1      40.278  28.056  27.368  1.00  0.00     0.029 A 
ATOM     42  C   UNL A   1      41.102  27.937  28.569  1.00  0.00     0.049 A 
ATOM     43  H   UNL A   1      40.871  28.949  30.373  1.00  0.00     0.167 HD
ATOM     44  C   UNL A   1      39.995  30.956  34.218  1.00  0.00     0.037 A 
ATOM     45  C   UNL A   1      42.173  27.135  28.714  1.00  0.00     0.037 A 
ATOM     46  C   UNL A   1      41.113  30.088  34.479  1.00  0.00     0.049 A 
ATOM     47  C   UNL A   1      42.857  27.077  30.053  1.00  0.00     0.074 A 
ATOM     48  C   UNL A   1      41.807  29.904  35.662  1.00  0.00     0.029 A 
ATOM     49  N   UNL A   1      41.707  29.263  33.534  1.00  0.00    -0.354 N 
ATOM     50  N   UNL A   1      42.560  27.707  31.165  1.00  0.00    -0.248 NA
ATOM     51  C   UNL A   1      44.013  26.180  30.163  1.00  0.00     0.031 C 
ATOM     52  C   UNL A   1      42.859  29.015  35.416  1.00  0.00     0.029 A 
ATOM     53  C   UNL A   1      42.779  28.590  34.099  1.00  0.00     0.049 A 
ATOM     54  H   UNL A   1      41.412  29.170  32.600  1.00  0.00     0.167 HD
ATOM     55  C   UNL A   1      43.475  27.267  32.112  1.00  0.00     0.074 A 
ATOM     56  C   UNL A   1      44.319  26.294  31.447  1.00  0.00     0.031 C 
ATOM     57  C   UNL A   1      43.610  27.631  33.412  1.00  0.00     0.037 A 
BRANCH  44  58
ATOM     58  C   UNL A   1      39.492  31.840  35.323  1.00  0.00     0.064 A 
ATOM     59  C   UNL A   1      39.901  33.178  35.450  1.00  0.00     0.173 A 
ATOM     60  C   UNL A   1      38.570  31.347  36.259  1.00  0.00     0.173 A 
ATOM     61  F   UNL A   1      40.795  33.695  34.594  1.00  0.00    -0.203 F 
ATOM     62  C   UNL A   1      39.425  33.977  36.488  1.00  0.00     0.198 A 
ATOM     63  C   UNL A   1      38.072  32.158  37.273  1.00  0.00     0.198 A 
ATOM     64  F   UNL A   1      38.148  30.076  36.186  1.00  0.00    -0.203 F 
ATOM     65  F   UNL A   1      39.871  35.235  36.619  1.00  0.00    -0.200 F 
ATOM     66  C   UNL A   1      38.506  33.470  37.393  1.00  0.00     0.200 A 
ATOM     67  F   UNL A   1      37.175  31.669  38.141  1.00  0.00    -0.200 F 
ATOM     68  F   UNL A   1      38.044  34.242  38.385  1.00  0.00    -0.200 F 
ENDBRANCH  44  58
BRANCH  45  69
ATOM     69  C   UNL A   1      42.645  26.317  27.567  1.00  0.00     0.064 A 
ATOM     70  C   UNL A   1      43.646  26.777  26.699  1.00  0.00     0.173 A 
ATOM     71  C   UNL A   1      42.098  25.050  27.312  1.00  0.00     0.173 A 
ATOM     72  F   UNL A   1      44.190  27.988  26.889  1.00  0.00    -0.203 F 
ATOM     73  C   UNL A   1      44.065  26.013  25.612  1.00  0.00     0.198 A 
ATOM     74  C   UNL A   1      42.540  24.273  26.245  1.00  0.00     0.198 A 
ATOM     75  F   UNL A   1      41.141  24.558  28.115  1.00  0.00    -0.203 F 
ATOM     76  F   UNL A   1      44.988  26.498  24.771  1.00  0.00    -0.200 F 
ATOM     77  C   UNL A   1      43.517  24.758  25.390  1.00  0.00     0.200 A 
ATOM     78  F   UNL A   1      42.020  23.054  26.046  1.00  0.00    -0.200 F 
ATOM     79  F   UNL A   1      43.924  24.022  24.347  1.00  0.00    -0.200 F 
ENDBRANCH  45  69
BRANCH  57  80
ATOM     80  C   UNL A   1      44.691  26.947  34.200  1.00  0.00     0.064 A 
ATOM     81  C   UNL A   1      45.978  27.492  34.318  1.00  0.00     0.173 A 
ATOM     82  C   UNL A   1      44.432  25.729  34.848  1.00  0.00     0.173 A 
ATOM     83  F   UNL A   1      46.281  28.649  33.710  1.00  0.00    -0.203 F 
ATOM     84  C   UNL A   1      46.981  26.815  35.007  1.00  0.00     0.198 A 
ATOM     85  C   UNL A   1      45.427  25.076  35.571  1.00  0.00     0.198 A 
ATOM     86  F   UNL A   1      43.215  25.170  34.780  1.00  0.00    -0.203 F 
ATOM     87  F   UNL A   1      48.224  27.317  35.040  1.00  0.00    -0.200 F 
ATOM     88  C   UNL A   1      46.704  25.612  35.637  1.00  0.00     0.200 A 
ATOM     89  F   UNL A   1      45.151  23.922  36.194  1.00  0.00    -0.200 F 
ATOM     90  F   UNL A   1      47.671  24.960  36.297  1.00  0.00    -0.200 F 
ENDBRANCH  57  80
ENDBRANCH  31  32
ENDBRANCH  24  26
ENDBRANCH  23  24
ENDBRANCH  22  23
ENDBRANCH  21  22
ENDBRANCH  20  21
ENDBRANCH   1  20
TORSDOF 17
ENDMDL
MODEL 2
REMARK VINA RESULT:     -11.1      4.608     10.012
REMARK SMILES C[C@H](Nc1ccc(F)cc1Br)[C@@H](C)C(=O)OCCOCCOC(=O)c1ccc(-c2c3nc(c(-c4c(F)c(F)c(F)c(F)c4F)c4ccc([nH]4)c(-c4c(F)c(F)c(F)c(F)c4F)c4nc(c(-c5c(F)c(F)c(F)c(F)c5F)c5ccc2[nH]5)C=C4)C=C3)cc1
REMARK SMILES IDX 18 1 17 2 16 3 14 4 15 5 12 6 13 7 2 8 1 9 3 10 4 12 5 13
REMARK SMILES IDX 10 14 6 15 9 16 11 17 7 18 8 19 19 20 20 21 21 22 22 23
REMARK SMILES IDX 23 24 24 25 25 26 26 27 87 28 27 29 86 30 28 31 29 32 30 33
REMARK SMILES IDX 80 34 31 35 85 36 79 37 81 38 32 39 84 40 78 41 77 42 33 44
REMARK SMILES IDX 65 45 45 46 64 47 46 48 49 49 63 50 82 51 47 52 48 53 62 55
REMARK SMILES IDX 83 56 50 57 34 58 35 59 43 60 36 61 37 62 41 63 44 64 38 65
REMARK SMILES IDX 39 66 42 67 40 68 66 69 67 70 75 71 68 72 69 73 73 74 76 75
REMARK SMILES IDX 70 76 71 77 74 78 72 79 51 80 52 81 60 82 53 83 54 84 58 85
REMARK SMILES IDX 61 86 55 87 56 88 59 89 57 90
REMARK H PARENT 3 11 81 43 49 54
REMARK Flexibility Score: inf
ROOT
ATOM      1  C   UNL A   1      34.206  19.061  24.328  1.00  0.00     0.202 C 
ENDROOT
BRANCH   1   2
ATOM      2  C   UNL A   1      32.698  19.114  24.585  1.00  0.00     0.261 C 
BRANCH   2   3
ATOM      3  O   UNL A   1      32.206  20.244  25.337  1.00  0.00    -0.463 OA
BRANCH   3   4
ATOM      4  C   UNL A   1      32.138  21.411  24.633  1.00  0.00     0.310 C 
ATOM      5  O   UNL A   1      31.969  21.474  23.421  1.00  0.00    -0.252 OA
BRANCH   4   6
ATOM      6  C   UNL A   1      32.442  22.649  25.472  1.00  0.00     0.118 C 
ATOM      7  C   UNL A   1      33.060  22.135  26.773  1.00  0.00     0.022 C 
BRANCH   6   8
ATOM      8  C   UNL A   1      31.242  23.608  25.651  1.00  0.00     0.090 C 
ATOM      9  C   UNL A   1      30.228  22.996  26.637  1.00  0.00     0.031 C 
BRANCH   8  10
ATOM     10  N   UNL A   1      30.605  23.964  24.349  1.00  0.00    -0.381 N 
ATOM     11  H   UNL A   1      30.189  23.259  23.800  1.00  0.00     0.160 HD
BRANCH  10  12
ATOM     12  C   UNL A   1      30.593  25.290  23.898  1.00  0.00     0.049 A 
ATOM     13  C   UNL A   1      29.533  26.130  24.284  1.00  0.00     0.030 A 
ATOM     14  C   UNL A   1      31.487  25.764  22.919  1.00  0.00     0.044 A 
ATOM     15  C   UNL A   1      29.300  27.342  23.634  1.00  0.00     0.041 A 
ATOM     16  C   UNL A   1      31.260  26.979  22.269  1.00  0.00     0.057 A 
ATOM     17  Br  UNL A   1      33.017  24.766  22.398  1.00  0.00    -0.048 Br
ATOM     18  C   UNL A   1      30.152  27.740  22.614  1.00  0.00     0.124 A 
ATOM     19  F   UNL A   1      29.895  28.871  21.945  1.00  0.00    -0.207 F 
ENDBRANCH  10  12
ENDBRANCH   8  10
ENDBRANCH   6   8
ENDBRANCH   4   6
ENDBRANCH   3   4
ENDBRANCH   2   3
ENDBRANCH   1   2
BRANCH   1  20
ATOM     20  O   UNL A   1      35.104  19.601  25.279  1.00  0.00    -0.374 OA
BRANCH  20  21
ATOM     21  C   UNL A   1      35.907  20.725  24.965  1.00  0.00     0.202 C 
BRANCH  21  22
ATOM     22  C   UNL A   1      37.440  20.639  24.979  1.00  0.00     0.261 C 
BRANCH  22  23
ATOM     23  O   UNL A   1      38.133  21.625  25.715  1.00  0.00    -0.460 OA
BRANCH  23  24
ATOM     24  C   UNL A   1      39.349  21.277  26.164  1.00  0.00     0.338 C 
ATOM     25  O   UNL A   1      39.938  20.227  26.042  1.00  0.00    -0.246 OA
BRANCH  24  26
ATOM     26  C   UNL A   1      39.858  22.499  26.790  1.00  0.00     0.060 A 
ATOM     27  C   UNL A   1      39.225  23.701  26.487  1.00  0.00     0.016 A 
ATOM     28  C   UNL A   1      40.911  22.430  27.711  1.00  0.00     0.016 A 
ATOM     29  C   UNL A   1      39.708  24.870  27.053  1.00  0.00     0.010 A 
ATOM     30  C   UNL A   1      41.381  23.603  28.292  1.00  0.00     0.010 A 
ATOM     31  C   UNL A   1      40.813  24.831  27.921  1.00  0.00    -0.014 A 
BRANCH  31  32
ATOM     32  C   UNL A   1      41.443  26.111  28.297  1.00  0.00     0.031 A 
ATOM     33  C   UNL A   1      42.827  26.408  27.798  1.00  0.00     0.074 A 
ATOM     34  C   UNL A   1      40.729  27.034  28.962  1.00  0.00     0.049 A 
ATOM     35  N   UNL A   1      43.498  27.531  27.837  1.00  0.00    -0.248 NA
ATOM     36  C   UNL A   1      43.555  25.296  27.165  1.00  0.00     0.031 C 
ATOM     37  C   UNL A   1      39.377  26.835  29.483  1.00  0.00     0.029 A 
ATOM     38  N   UNL A   1      41.028  28.332  29.280  1.00  0.00    -0.354 N 
ATOM     39  C   UNL A   1      44.714  27.261  27.224  1.00  0.00     0.074 A 
ATOM     40  C   UNL A   1      44.715  25.861  26.870  1.00  0.00     0.031 C 
ATOM     41  C   UNL A   1      38.948  27.985  30.027  1.00  0.00     0.029 A 
ATOM     42  C   UNL A   1      40.002  28.989  29.910  1.00  0.00     0.049 A 
ATOM     43  H   UNL A   1      41.895  28.751  29.077  1.00  0.00     0.167 HD
ATOM     44  C   UNL A   1      45.730  28.117  26.964  1.00  0.00     0.037 A 
ATOM     45  C   UNL A   1      39.926  30.265  30.330  1.00  0.00     0.037 A 
ATOM     46  C   UNL A   1      45.714  29.510  27.328  1.00  0.00     0.049 A 
ATOM     47  C   UNL A   1      41.082  31.189  30.051  1.00  0.00     0.074 A 
ATOM     48  C   UNL A   1      46.680  30.474  27.102  1.00  0.00     0.029 A 
ATOM     49  N   UNL A   1      44.677  30.134  28.008  1.00  0.00    -0.354 N 
ATOM     50  N   UNL A   1      42.208  30.943  29.427  1.00  0.00    -0.248 NA
ATOM     51  C   UNL A   1      40.946  32.572  30.521  1.00  0.00     0.031 C 
ATOM     52  C   UNL A   1      46.254  31.665  27.699  1.00  0.00     0.029 A 
ATOM     53  C   UNL A   1      44.992  31.464  28.236  1.00  0.00     0.049 A 
ATOM     54  H   UNL A   1      43.841  29.695  28.288  1.00  0.00     0.167 HD
ATOM     55  C   UNL A   1      42.905  32.144  29.405  1.00  0.00     0.074 A 
ATOM     56  C   UNL A   1      42.058  33.122  30.057  1.00  0.00     0.031 C 
ATOM     57  C   UNL A   1      44.133  32.416  28.896  1.00  0.00     0.037 A 
BRANCH  44  58
ATOM     58  C   UNL A   1      46.948  27.563  26.281  1.00  0.00     0.064 A 
ATOM     59  C   UNL A   1      48.010  26.993  27.002  1.00  0.00     0.173 A 
ATOM     60  C   UNL A   1      47.045  27.583  24.881  1.00  0.00     0.173 A 
ATOM     61  F   UNL A   1      47.978  26.965  28.342  1.00  0.00    -0.203 F 
ATOM     62  C   UNL A   1      49.133  26.491  26.347  1.00  0.00     0.198 A 
ATOM     63  C   UNL A   1      48.152  27.050  24.230  1.00  0.00     0.198 A 
ATOM     64  F   UNL A   1      46.060  28.117  24.143  1.00  0.00    -0.203 F 
ATOM     65  F   UNL A   1      50.157  26.000  27.059  1.00  0.00    -0.200 F 
ATOM     66  C   UNL A   1      49.200  26.511  24.963  1.00  0.00     0.200 A 
ATOM     67  F   UNL A   1      48.210  27.061  22.891  1.00  0.00    -0.200 F 
ATOM     68  F   UNL A   1      50.276  26.021  24.334  1.00  0.00    -0.200 F 
ENDBRANCH  44  58
BRANCH  45  69
ATOM     69  C   UNL A   1      38.708  30.740  31.037  1.00  0.00     0.064 A 
ATOM     70  C   UNL A   1      38.630  30.750  32.437  1.00  0.00     0.173 A 
ATOM     71  C   UNL A   1      37.590  31.193  30.320  1.00  0.00     0.173 A 
ATOM     72  F   UNL A   1      39.665  30.312  33.169  1.00  0.00    -0.203 F 
ATOM     73  C   UNL A   1      37.474  31.174  33.091  1.00  0.00     0.198 A 
ATOM     74  C   UNL A   1      36.448  31.647  30.975  1.00  0.00     0.198 A 
ATOM     75  F   UNL A   1      37.613  31.209  28.979  1.00  0.00    -0.203 F 
ATOM     76  F   UNL A   1      37.408  31.127  34.428  1.00  0.00    -0.200 F 
ATOM     77  C   UNL A   1      36.387  31.629  32.360  1.00  0.00     0.200 A 
ATOM     78  F   UNL A   1      35.408  32.102  30.264  1.00  0.00    -0.200 F 
ATOM     79  F   UNL A   1      35.278  32.042  32.989  1.00  0.00    -0.200 F 
ENDBRANCH  45  69
BRANCH  57  80
ATOM     80  C   UNL A   1      44.611  33.838  28.999  1.00  0.00     0.064 A 
ATOM     81  C   UNL A   1      45.373  34.285  30.089  1.00  0.00     0.173 A 
ATOM     82  C   UNL A   1      44.301  34.764  27.992  1.00  0.00     0.173 A 
ATOM     83  F   UNL A   1      45.688  33.442  31.085  1.00  0.00    -0.203 F 
ATOM     84  C   UNL A   1      45.759  35.618  30.194  1.00  0.00     0.198 A 
ATOM     85  C   UNL A   1      44.725  36.087  28.080  1.00  0.00     0.198 A 
ATOM     86  F   UNL A   1      43.587  34.388  26.921  1.00  0.00    -0.203 F 
ATOM     87  F   UNL A   1      46.420  36.039  31.282  1.00  0.00    -0.200 F 
ATOM     88  C   UNL A   1      45.440  36.517  29.187  1.00  0.00     0.200 A 
ATOM     89  F   UNL A   1      44.431  36.950  27.097  1.00  0.00    -0.200 F 
ATOM     90  F   UNL A   1      45.809  37.801  29.291  1.00  0.00    -0.200 F 
ENDBRANCH  57  80
ENDBRANCH  31  32
ENDBRANCH  24  26
ENDBRANCH  23  24
ENDBRANCH  22  23
ENDBRANCH  21  22
ENDBRANCH  20  21
ENDBRANCH   1  20
TORSDOF 17
ENDMDL
MODEL 3
REMARK VINA RESULT:     -10.9      3.774      8.632
REMARK SMILES C[C@H](Nc1ccc(F)cc1Br)[C@@H](C)C(=O)OCCOCCOC(=O)c1ccc(-c2c3nc(c(-c4c(F)c(F)c(F)c(F)c4F)c4ccc([nH]4)c(-c4c(F)c(F)c(F)c(F)c4F)c4nc(c(-c5c(F)c(F)c(F)c(F)c5F)c5ccc2[nH]5)C=C4)C=C3)cc1
REMARK SMILES IDX 18 1 17 2 16 3 14 4 15 5 12 6 13 7 2 8 1 9 3 10 4 12 5 13
REMARK SMILES IDX 10 14 6 15 9 16 11 17 7 18 8 19 19 20 20 21 21 22 22 23
REMARK SMILES IDX 23 24 24 25 25 26 26 27 87 28 27 29 86 30 28 31 29 32 30 33
REMARK SMILES IDX 80 34 31 35 85 36 79 37 81 38 32 39 84 40 78 41 77 42 33 44
REMARK SMILES IDX 65 45 45 46 64 47 46 48 49 49 63 50 82 51 47 52 48 53 62 55
REMARK SMILES IDX 83 56 50 57 34 58 35 59 43 60 36 61 37 62 41 63 44 64 38 65
REMARK SMILES IDX 39 66 42 67 40 68 66 69 67 70 75 71 68 72 69 73 73 74 76 75
REMARK SMILES IDX 70 76 71 77 74 78 72 79 51 80 52 81 60 82 53 83 54 84 58 85
REMARK SMILES IDX 61 86 55 87 56 88 59 89 57 90
REMARK H PARENT 3 11 81 43 49 54
REMARK Flexibility Score: inf
ROOT
ATOM      1  C   UNL A   1      41.765  20.913  26.434  1.00  0.00     0.202 C 
ENDROOT
BRANCH   1   2
ATOM      2  C   UNL A   1      40.240  20.790  26.498  1.00  0.00     0.261 C 
BRANCH   2   3
ATOM      3  O   UNL A   1      39.481  22.001  26.297  1.00  0.00    -0.463 OA
BRANCH   3   4
ATOM      4  C   UNL A   1      38.334  21.842  25.575  1.00  0.00     0.310 C 
ATOM      5  O   UNL A   1      37.940  20.767  25.138  1.00  0.00    -0.252 OA
BRANCH   4   6
ATOM      6  C   UNL A   1      37.647  23.158  25.223  1.00  0.00     0.118 C 
ATOM      7  C   UNL A   1      38.160  24.186  26.233  1.00  0.00     0.022 C 
BRANCH   6   8
ATOM      8  C   UNL A   1      36.108  23.064  25.111  1.00  0.00     0.090 C 
ATOM      9  C   UNL A   1      35.701  22.896  23.634  1.00  0.00     0.031 C 
BRANCH   8  10
ATOM     10  N   UNL A   1      35.424  24.228  25.747  1.00  0.00    -0.381 N 
ATOM     11  H   UNL A   1      35.881  25.100  25.787  1.00  0.00     0.160 HD
BRANCH  10  12
ATOM     12  C   UNL A   1      34.139  24.095  26.288  1.00  0.00     0.049 A 
ATOM     13  C   UNL A   1      33.772  22.872  26.877  1.00  0.00     0.030 A 
ATOM     14  C   UNL A   1      33.133  25.062  26.094  1.00  0.00     0.044 A 
ATOM     15  C   UNL A   1      32.436  22.576  27.151  1.00  0.00     0.041 A 
ATOM     16  C   UNL A   1      31.796  24.771  26.370  1.00  0.00     0.057 A 
ATOM     17  Br  UNL A   1      33.528  26.789  25.410  1.00  0.00    -0.048 Br
ATOM     18  C   UNL A   1      31.460  23.520  26.868  1.00  0.00     0.124 A 
ATOM     19  F   UNL A   1      30.172  23.214  27.069  1.00  0.00    -0.207 F 
ENDBRANCH  10  12
ENDBRANCH   8  10
ENDBRANCH   6   8
ENDBRANCH   4   6
ENDBRANCH   3   4
ENDBRANCH   2   3
ENDBRANCH   1   2
BRANCH   1  20
ATOM     20  O   UNL A   1      42.367  21.712  25.435  1.00  0.00    -0.374 OA
BRANCH  20  21
ATOM     21  C   UNL A   1      43.776  21.817  25.337  1.00  0.00     0.202 C 
BRANCH  21  22
ATOM     22  C   UNL A   1      44.440  22.970  24.570  1.00  0.00     0.261 C 
BRANCH  22  23
ATOM     23  O   UNL A   1      43.797  24.227  24.616  1.00  0.00    -0.460 OA
BRANCH  23  24
ATOM     24  C   UNL A   1      44.551  25.257  25.031  1.00  0.00     0.338 C 
ATOM     25  O   UNL A   1      45.626  25.633  24.623  1.00  0.00    -0.246 OA
BRANCH  24  26
ATOM     26  C   UNL A   1      43.736  25.894  26.068  1.00  0.00     0.060 A 
ATOM     27  C   UNL A   1      44.057  27.196  26.444  1.00  0.00     0.016 A 
ATOM     28  C   UNL A   1      42.633  25.220  26.607  1.00  0.00     0.016 A 
ATOM     29  C   UNL A   1      43.310  27.805  27.439  1.00  0.00     0.010 A 
ATOM     30  C   UNL A   1      41.873  25.842  27.593  1.00  0.00     0.010 A 
ATOM     31  C   UNL A   1      42.246  27.116  28.047  1.00  0.00    -0.014 A 
BRANCH  31  32
ATOM     32  C   UNL A   1      41.647  27.702  29.261  1.00  0.00     0.031 A 
ATOM     33  C   UNL A   1      42.370  27.551  30.568  1.00  0.00     0.074 A 
ATOM     34  C   UNL A   1      40.544  28.462  29.159  1.00  0.00     0.049 A 
ATOM     35  N   UNL A   1      42.140  28.138  31.715  1.00  0.00    -0.248 NA
ATOM     36  C   UNL A   1      43.511  26.622  30.588  1.00  0.00     0.031 C 
ATOM     37  C   UNL A   1      39.776  28.666  27.932  1.00  0.00     0.029 A 
ATOM     38  N   UNL A   1      39.902  29.229  30.094  1.00  0.00    -0.354 N 
ATOM     39  C   UNL A   1      43.111  27.658  32.582  1.00  0.00     0.074 A 
ATOM     40  C   UNL A   1      43.902  26.695  31.851  1.00  0.00     0.031 C 
ATOM     41  C   UNL A   1      38.782  29.535  28.181  1.00  0.00     0.029 A 
ATOM     42  C   UNL A   1      38.836  29.927  29.588  1.00  0.00     0.049 A 
ATOM     43  H   UNL A   1      40.178  29.274  31.038  1.00  0.00     0.167 HD
ATOM     44  C   UNL A   1      43.333  28.009  33.871  1.00  0.00     0.037 A 
ATOM     45  C   UNL A   1      38.008  30.796  30.195  1.00  0.00     0.037 A 
ATOM     46  C   UNL A   1      42.533  28.969  34.585  1.00  0.00     0.049 A 
ATOM     47  C   UNL A   1      38.261  31.149  31.637  1.00  0.00     0.074 A 
ATOM     48  C   UNL A   1      42.674  29.414  35.887  1.00  0.00     0.029 A 
ATOM     49  N   UNL A   1      41.429  29.624  34.055  1.00  0.00    -0.354 N 
ATOM     50  N   UNL A   1      39.211  30.732  32.439  1.00  0.00    -0.248 NA
ATOM     51  C   UNL A   1      37.335  32.108  32.252  1.00  0.00     0.031 C 
ATOM     52  C   UNL A   1      41.620  30.291  36.164  1.00  0.00     0.029 A 
ATOM     53  C   UNL A   1      40.862  30.449  35.014  1.00  0.00     0.049 A 
ATOM     54  H   UNL A   1      41.098  29.518  33.135  1.00  0.00     0.167 HD
ATOM     55  C   UNL A   1      39.015  31.394  33.643  1.00  0.00     0.074 A 
ATOM     56  C   UNL A   1      37.870  32.262  33.454  1.00  0.00     0.031 C 
ATOM     57  C   UNL A   1      39.715  31.297  34.802  1.00  0.00     0.037 A 
BRANCH  44  58
ATOM     58  C   UNL A   1      44.464  27.332  34.590  1.00  0.00     0.064 A 
ATOM     59  C   UNL A   1      45.756  27.882  34.629  1.00  0.00     0.173 A 
ATOM     60  C   UNL A   1      44.248  26.124  35.270  1.00  0.00     0.173 A 
ATOM     61  F   UNL A   1      46.023  29.025  33.980  1.00  0.00    -0.203 F 
ATOM     62  C   UNL A   1      46.792  27.233  35.297  1.00  0.00     0.198 A 
ATOM     63  C   UNL A   1      45.277  25.496  35.965  1.00  0.00     0.198 A 
ATOM     64  F   UNL A   1      43.034  25.554  35.265  1.00  0.00    -0.203 F 
ATOM     65  F   UNL A   1      48.029  27.750  35.275  1.00  0.00    -0.200 F 
ATOM     66  C   UNL A   1      46.550  26.046  35.972  1.00  0.00     0.200 A 
ATOM     67  F   UNL A   1      45.038  24.355  36.625  1.00  0.00    -0.200 F 
ATOM     68  F   UNL A   1      47.545  25.427  36.620  1.00  0.00    -0.200 F 
ENDBRANCH  44  58
BRANCH  45  69
ATOM     69  C   UNL A   1      36.881  31.400  29.437  1.00  0.00     0.064 A 
ATOM     70  C   UNL A   1      36.877  32.757  29.085  1.00  0.00     0.173 A 
ATOM     71  C   UNL A   1      35.778  30.624  29.049  1.00  0.00     0.173 A 
ATOM     72  F   UNL A   1      37.900  33.545  29.446  1.00  0.00    -0.203 F 
ATOM     73  C   UNL A   1      35.804  33.319  28.395  1.00  0.00     0.198 A 
ATOM     74  C   UNL A   1      34.722  31.179  28.331  1.00  0.00     0.198 A 
ATOM     75  F   UNL A   1      35.733  29.319  29.355  1.00  0.00    -0.203 F 
ATOM     76  F   UNL A   1      35.803  34.629  28.114  1.00  0.00    -0.200 F 
ATOM     77  C   UNL A   1      34.731  32.528  28.012  1.00  0.00     0.200 A 
ATOM     78  F   UNL A   1      33.696  30.407  27.947  1.00  0.00    -0.200 F 
ATOM     79  F   UNL A   1      33.703  33.068  27.343  1.00  0.00    -0.200 F 
ENDBRANCH  45  69
BRANCH  57  80
ATOM     80  C   UNL A   1      39.273  32.176  35.938  1.00  0.00     0.064 A 
ATOM     81  C   UNL A   1      39.791  33.468  36.118  1.00  0.00     0.173 A 
ATOM     82  C   UNL A   1      38.316  31.720  36.856  1.00  0.00     0.173 A 
ATOM     83  F   UNL A   1      40.717  33.949  35.274  1.00  0.00    -0.203 F 
ATOM     84  C   UNL A   1      39.410  34.246  37.208  1.00  0.00     0.198 A 
ATOM     85  C   UNL A   1      37.905  32.518  37.921  1.00  0.00     0.198 A 
ATOM     86  F   UNL A   1      37.776  30.499  36.724  1.00  0.00    -0.203 F 
ATOM     87  F   UNL A   1      39.977  35.445  37.403  1.00  0.00    -0.200 F 
ATOM     88  C   UNL A   1      38.464  33.773  38.105  1.00  0.00     0.200 A 
ATOM     89  F   UNL A   1      36.978  32.066  38.776  1.00  0.00    -0.200 F 
ATOM     90  F   UNL A   1      38.101  34.522  39.155  1.00  0.00    -0.200 F 
ENDBRANCH  57  80
ENDBRANCH  31  32
ENDBRANCH  24  26
ENDBRANCH  23  24
ENDBRANCH  22  23
ENDBRANCH  21  22
ENDBRANCH  20  21
ENDBRANCH   1  20
TORSDOF 17
ENDMDL
