MODEL 1
REMARK VINA RESULT:     -11.0      0.000      0.000
REMARK SMILES O=C(OCCOCCOC(=O)[C@H]1C[C@@H](O)CN1C(=O)C[C@@H]1CSCC[NH2+]1)c1ccc(-c2c3nc(c(-c4c(F)c(F)c(F)c(F)c4F)c4ccc([nH]4)c(-c4c(F)c(F)c(F)c(F)c4F)c4nc(c(-c5c(F)c(F)c(F)c(F)c5F)c5ccc2[nH]5)C=C4)C=C3)cc1
REMARK SMILES IDX 7 1 6 2 5 3 4 4 3 5 2 6 1 7 27 8 28 9 89 10 29 11 88 12
REMARK SMILES IDX 30 13 31 14 32 15 82 16 33 17 87 18 81 19 83 20 34 21 86 22
REMARK SMILES IDX 80 23 79 24 35 26 67 27 47 28 66 29 48 30 51 31 65 32 84 33
REMARK SMILES IDX 49 34 50 35 64 37 85 38 52 39 36 40 37 41 45 42 38 43 39 44
REMARK SMILES IDX 43 45 46 46 40 47 41 48 44 49 42 50 68 51 69 52 77 53 70 54
REMARK SMILES IDX 71 55 75 56 78 57 72 58 73 59 76 60 74 61 53 62 54 63 62 64
REMARK SMILES IDX 55 65 56 66 60 67 63 68 57 69 58 70 61 71 59 72 8 73 9 74
REMARK SMILES IDX 10 75 11 76 12 77 13 78 17 79 14 80 16 81 18 82 19 83 20 84
REMARK SMILES IDX 21 85 22 86 26 87 23 88 25 89 24 92 15 93
REMARK H PARENT 83 25 51 36 26 90 26 91 15 94
REMARK Flexibility Score: inf
ROOT
ATOM      1  C   UNL A   1      33.024  29.983  27.273  1.00  0.00     0.202 C 
ENDROOT
BRANCH   1   2
ATOM      2  O   UNL A   1      31.874  30.460  26.564  1.00  0.00    -0.374 OA
BRANCH   2   3
ATOM      3  C   UNL A   1      31.526  31.820  26.804  1.00  0.00     0.202 C 
BRANCH   3   4
ATOM      4  C   UNL A   1      32.681  32.793  27.059  1.00  0.00     0.261 C 
BRANCH   4   5
ATOM      5  O   UNL A   1      32.226  33.977  27.742  1.00  0.00    -0.460 OA
BRANCH   5   6
ATOM      6  C   UNL A   1      32.935  34.695  28.651  1.00  0.00     0.338 C 
ATOM      7  O   UNL A   1      32.579  35.823  28.970  1.00  0.00    -0.246 OA
BRANCH   6   8
ATOM      8  C   UNL A   1      34.146  34.117  29.285  1.00  0.00     0.060 A 
ATOM      9  C   UNL A   1      34.062  33.080  30.206  1.00  0.00     0.016 A 
ATOM     10  C   UNL A   1      35.412  34.572  28.908  1.00  0.00     0.016 A 
ATOM     11  C   UNL A   1      35.166  32.604  30.872  1.00  0.00     0.010 A 
ATOM     12  C   UNL A   1      36.555  34.001  29.480  1.00  0.00     0.010 A 
ATOM     13  C   UNL A   1      36.428  33.020  30.474  1.00  0.00    -0.014 A 
BRANCH  13  14
ATOM     14  C   UNL A   1      37.578  32.396  31.147  1.00  0.00     0.031 A 
ATOM     15  C   UNL A   1      38.384  31.386  30.405  1.00  0.00     0.074 A 
ATOM     16  C   UNL A   1      37.948  32.855  32.359  1.00  0.00     0.049 A 
ATOM     17  N   UNL A   1      39.353  30.627  30.836  1.00  0.00    -0.248 NA
ATOM     18  C   UNL A   1      38.058  31.204  28.981  1.00  0.00     0.031 C 
ATOM     19  C   UNL A   1      37.290  33.945  33.090  1.00  0.00     0.029 A 
ATOM     20  N   UNL A   1      38.987  32.498  33.174  1.00  0.00    -0.354 N 
ATOM     21  C   UNL A   1      39.712  29.834  29.757  1.00  0.00     0.074 A 
ATOM     22  C   UNL A   1      38.871  30.214  28.644  1.00  0.00     0.031 C 
ATOM     23  C   UNL A   1      37.970  34.198  34.215  1.00  0.00     0.029 A 
ATOM     24  C   UNL A   1      39.036  33.217  34.344  1.00  0.00     0.049 A 
ATOM     25  H   UNL A   1      39.637  31.796  32.944  1.00  0.00     0.167 HD
ATOM     26  C   UNL A   1      40.653  28.865  29.726  1.00  0.00     0.037 A 
ATOM     27  C   UNL A   1      39.821  33.051  35.422  1.00  0.00     0.037 A 
ATOM     28  C   UNL A   1      41.476  28.538  30.860  1.00  0.00     0.049 A 
ATOM     29  C   UNL A   1      40.804  31.915  35.389  1.00  0.00     0.074 A 
ATOM     30  C   UNL A   1      42.411  27.531  30.995  1.00  0.00     0.029 A 
ATOM     31  N   UNL A   1      41.458  29.238  32.061  1.00  0.00    -0.354 N 
ATOM     32  N   UNL A   1      41.068  31.082  34.410  1.00  0.00    -0.248 NA
ATOM     33  C   UNL A   1      41.574  31.672  36.612  1.00  0.00     0.031 C 
ATOM     34  C   UNL A   1      42.933  27.600  32.292  1.00  0.00     0.029 A 
ATOM     35  C   UNL A   1      42.361  28.681  32.949  1.00  0.00     0.049 A 
ATOM     36  H   UNL A   1      40.886  30.017  32.252  1.00  0.00     0.167 HD
ATOM     37  C   UNL A   1      42.039  30.220  34.892  1.00  0.00     0.074 A 
ATOM     38  C   UNL A   1      42.335  30.651  36.246  1.00  0.00     0.031 C 
ATOM     39  C   UNL A   1      42.625  29.159  34.284  1.00  0.00     0.037 A 
BRANCH  26  40
ATOM     40  C   UNL A   1      40.758  28.057  28.468  1.00  0.00     0.064 A 
ATOM     41  C   UNL A   1      40.095  26.831  28.308  1.00  0.00     0.173 A 
ATOM     42  C   UNL A   1      41.585  28.494  27.421  1.00  0.00     0.173 A 
ATOM     43  F   UNL A   1      39.319  26.351  29.291  1.00  0.00    -0.203 F 
ATOM     44  C   UNL A   1      40.282  26.058  27.164  1.00  0.00     0.198 A 
ATOM     45  C   UNL A   1      41.749  27.732  26.267  1.00  0.00     0.198 A 
ATOM     46  F   UNL A   1      42.252  29.653  27.525  1.00  0.00    -0.203 F 
ATOM     47  F   UNL A   1      39.691  24.860  27.063  1.00  0.00    -0.200 F 
ATOM     48  C   UNL A   1      41.107  26.511  26.143  1.00  0.00     0.200 A 
ATOM     49  F   UNL A   1      42.546  28.171  25.282  1.00  0.00    -0.200 F 
ATOM     50  F   UNL A   1      41.295  25.759  25.050  1.00  0.00    -0.200 F 
ENDBRANCH  26  40
BRANCH  27  51
ATOM     51  C   UNL A   1      39.652  33.915  36.622  1.00  0.00     0.064 A 
ATOM     52  C   UNL A   1      40.284  35.162  36.714  1.00  0.00     0.173 A 
ATOM     53  C   UNL A   1      38.853  33.513  37.706  1.00  0.00     0.173 A 
ATOM     54  F   UNL A   1      41.075  35.587  35.719  1.00  0.00    -0.203 F 
ATOM     55  C   UNL A   1      40.138  35.964  37.847  1.00  0.00     0.198 A 
ATOM     56  C   UNL A   1      38.679  34.331  38.821  1.00  0.00     0.198 A 
ATOM     57  F   UNL A   1      38.224  32.330  37.676  1.00  0.00    -0.203 F 
ATOM     58  F   UNL A   1      40.793  37.131  37.927  1.00  0.00    -0.200 F 
ATOM     59  C   UNL A   1      39.329  35.552  38.895  1.00  0.00     0.200 A 
ATOM     60  F   UNL A   1      37.882  33.933  39.822  1.00  0.00    -0.200 F 
ATOM     61  F   UNL A   1      39.185  36.325  39.979  1.00  0.00    -0.200 F 
ENDBRANCH  27  51
BRANCH  39  62
ATOM     62  C   UNL A   1      43.667  28.431  35.074  1.00  0.00     0.064 A 
ATOM     63  C   UNL A   1      45.001  28.861  35.101  1.00  0.00     0.173 A 
ATOM     64  C   UNL A   1      43.312  27.315  35.844  1.00  0.00     0.173 A 
ATOM     65  F   UNL A   1      45.386  29.913  34.362  1.00  0.00    -0.203 F 
ATOM     66  C   UNL A   1      45.950  28.183  35.857  1.00  0.00     0.198 A 
ATOM     67  C   UNL A   1      44.258  26.658  36.623  1.00  0.00     0.198 A 
ATOM     68  F   UNL A   1      42.046  26.872  35.852  1.00  0.00    -0.203 F 
ATOM     69  F   UNL A   1      47.230  28.580  35.835  1.00  0.00    -0.200 F 
ATOM     70  C   UNL A   1      45.576  27.089  36.624  1.00  0.00     0.200 A 
ATOM     71  F   UNL A   1      43.893  25.609  37.372  1.00  0.00    -0.200 F 
ATOM     72  F   UNL A   1      46.491  26.443  37.361  1.00  0.00    -0.200 F 
ENDBRANCH  39  62
ENDBRANCH  13  14
ENDBRANCH   6   8
ENDBRANCH   5   6
ENDBRANCH   4   5
ENDBRANCH   3   4
ENDBRANCH   2   3
ENDBRANCH   1   2
BRANCH   1  73
ATOM     73  C   UNL A   1      33.714  28.944  26.401  1.00  0.00     0.261 C 
BRANCH  73  74
ATOM     74  O   UNL A   1      32.843  28.748  25.280  1.00  0.00    -0.462 OA
BRANCH  74  75
ATOM     75  C   UNL A   1      33.351  28.090  24.207  1.00  0.00     0.329 C 
ATOM     76  O   UNL A   1      34.258  28.511  23.493  1.00  0.00    -0.250 OA
BRANCH  75  77
ATOM     77  C   UNL A   1      32.627  26.748  23.962  1.00  0.00     0.197 C 
ATOM     78  C   UNL A   1      32.931  25.795  25.131  1.00  0.00     0.070 C 
ATOM     79  N   UNL A   1      31.163  26.808  23.880  1.00  0.00    -0.326 N 
ATOM     80  C   UNL A   1      31.609  25.181  25.582  1.00  0.00     0.136 C 
ATOM     81  C   UNL A   1      30.527  25.817  24.727  1.00  0.00     0.152 C 
BRANCH  79  82
ATOM     82  C   UNL A   1      30.514  27.482  22.860  1.00  0.00     0.229 C 
ATOM     83  O   UNL A   1      30.747  27.264  21.673  1.00  0.00    -0.275 OA
BRANCH  82  84
ATOM     84  C   UNL A   1      29.494  28.530  23.274  1.00  0.00     0.166 C 
BRANCH  84  85
ATOM     85  C   UNL A   1      30.058  29.946  23.056  1.00  0.00     0.201 C 
ATOM     86  C   UNL A   1      29.382  30.989  23.975  1.00  0.00     0.135 C 
ATOM     87  N   UNL A   1      30.090  30.348  21.628  1.00  0.00    -0.342 N 
ATOM     88  S   UNL A   1      27.688  31.440  23.468  1.00  0.00    -0.150 SA
ATOM     89  C   UNL A   1      28.769  30.633  21.059  1.00  0.00     0.271 C 
ATOM     90  H   UNL A   1      30.514  29.590  21.092  1.00  0.00     0.346 HD
ATOM     91  H   UNL A   1      30.627  31.213  21.578  1.00  0.00     0.346 HD
ATOM     92  C   UNL A   1      28.056  31.807  21.727  1.00  0.00     0.131 C 
ENDBRANCH  84  85
ENDBRANCH  82  84
ENDBRANCH  79  82
BRANCH  80  93
ATOM     93  O   UNL A   1      31.358  25.448  26.960  1.00  0.00    -0.391 OA
ATOM     94  H   UNL A   1      32.058  25.049  27.499  1.00  0.00     0.211 HD
ENDBRANCH  80  93
ENDBRANCH  75  77
ENDBRANCH  74  75
ENDBRANCH  73  74
ENDBRANCH   1  73
TORSDOF 18
ENDMDL
MODEL 2
REMARK VINA RESULT:     -10.8      3.426      5.027
REMARK SMILES O=C(OCCOCCOC(=O)[C@H]1C[C@@H](O)CN1C(=O)C[C@@H]1CSCC[NH2+]1)c1ccc(-c2c3nc(c(-c4c(F)c(F)c(F)c(F)c4F)c4ccc([nH]4)c(-c4c(F)c(F)c(F)c(F)c4F)c4nc(c(-c5c(F)c(F)c(F)c(F)c5F)c5ccc2[nH]5)C=C4)C=C3)cc1
REMARK SMILES IDX 7 1 6 2 5 3 4 4 3 5 2 6 1 7 27 8 28 9 89 10 29 11 88 12
REMARK SMILES IDX 30 13 31 14 32 15 82 16 33 17 87 18 81 19 83 20 34 21 86 22
REMARK SMILES IDX 80 23 79 24 35 26 67 27 47 28 66 29 48 30 51 31 65 32 84 33
REMARK SMILES IDX 49 34 50 35 64 37 85 38 52 39 36 40 37 41 45 42 38 43 39 44
REMARK SMILES IDX 43 45 46 46 40 47 41 48 44 49 42 50 68 51 69 52 77 53 70 54
REMARK SMILES IDX 71 55 75 56 78 57 72 58 73 59 76 60 74 61 53 62 54 63 62 64
REMARK SMILES IDX 55 65 56 66 60 67 63 68 57 69 58 70 61 71 59 72 8 73 9 74
REMARK SMILES IDX 10 75 11 76 12 77 13 78 17 79 14 80 16 81 18 82 19 83 20 84
REMARK SMILES IDX 21 85 22 86 26 87 23 88 25 89 24 92 15 93
REMARK H PARENT 83 25 51 36 26 90 26 91 15 94
REMARK Flexibility Score: inf
ROOT
ATOM      1  C   UNL A   1      32.483  26.647  24.394  1.00  0.00     0.202 C 
ENDROOT
BRANCH   1   2
ATOM      2  O   UNL A   1      32.583  28.073  24.289  1.00  0.00    -0.374 OA
BRANCH   2   3
ATOM      3  C   UNL A   1      31.408  28.797  24.640  1.00  0.00     0.202 C 
BRANCH   3   4
ATOM      4  C   UNL A   1      31.609  30.131  25.363  1.00  0.00     0.261 C 
BRANCH   4   5
ATOM      5  O   UNL A   1      32.942  30.238  25.901  1.00  0.00    -0.460 OA
BRANCH   5   6
ATOM      6  C   UNL A   1      33.355  31.131  26.837  1.00  0.00     0.338 C 
ATOM      7  O   UNL A   1      32.712  32.152  27.052  1.00  0.00    -0.246 OA
BRANCH   6   8
ATOM      8  C   UNL A   1      34.584  30.876  27.629  1.00  0.00     0.060 A 
ATOM      9  C   UNL A   1      34.925  29.599  28.056  1.00  0.00     0.016 A 
ATOM     10  C   UNL A   1      35.464  31.927  27.901  1.00  0.00     0.016 A 
ATOM     11  C   UNL A   1      36.007  29.366  28.871  1.00  0.00     0.010 A 
ATOM     12  C   UNL A   1      36.641  31.679  28.616  1.00  0.00     0.010 A 
ATOM     13  C   UNL A   1      36.907  30.393  29.111  1.00  0.00    -0.014 A 
BRANCH  13  14
ATOM     14  C   UNL A   1      38.103  30.061  29.900  1.00  0.00     0.031 A 
ATOM     15  C   UNL A   1      39.182  29.253  29.263  1.00  0.00     0.074 A 
ATOM     16  C   UNL A   1      38.249  30.609  31.122  1.00  0.00     0.049 A 
ATOM     17  N   UNL A   1      40.255  28.743  29.800  1.00  0.00    -0.248 NA
ATOM     18  C   UNL A   1      39.035  28.980  27.824  1.00  0.00     0.031 C 
ATOM     19  C   UNL A   1      37.296  31.528  31.758  1.00  0.00     0.029 A 
ATOM     20  N   UNL A   1      39.265  30.512  32.033  1.00  0.00    -0.354 N 
ATOM     21  C   UNL A   1      40.881  28.039  28.783  1.00  0.00     0.074 A 
ATOM     22  C   UNL A   1      40.079  28.199  27.590  1.00  0.00     0.031 C 
ATOM     23  C   UNL A   1      37.797  31.947  32.927  1.00  0.00     0.029 A 
ATOM     24  C   UNL A   1      39.043  31.239  33.178  1.00  0.00     0.049 A 
ATOM     25  H   UNL A   1      40.075  29.975  31.883  1.00  0.00     0.167 HD
ATOM     26  C   UNL A   1      42.017  27.311  28.864  1.00  0.00     0.037 A 
ATOM     27  C   UNL A   1      39.745  31.273  34.324  1.00  0.00     0.037 A 
ATOM     28  C   UNL A   1      42.787  27.198  30.074  1.00  0.00     0.049 A 
ATOM     29  C   UNL A   1      40.960  30.393  34.412  1.00  0.00     0.074 A 
ATOM     30  C   UNL A   1      43.911  26.435  30.322  1.00  0.00     0.029 A 
ATOM     31  N   UNL A   1      42.502  27.892  31.245  1.00  0.00    -0.354 N 
ATOM     32  N   UNL A   1      41.494  29.630  33.488  1.00  0.00    -0.248 NA
ATOM     33  C   UNL A   1      41.651  30.351  35.704  1.00  0.00     0.031 C 
ATOM     34  C   UNL A   1      44.285  26.641  31.656  1.00  0.00     0.029 A 
ATOM     35  C   UNL A   1      43.425  27.570  32.224  1.00  0.00     0.049 A 
ATOM     36  H   UNL A   1      41.754  28.521  31.361  1.00  0.00     0.167 HD
ATOM     37  C   UNL A   1      42.588  29.020  34.079  1.00  0.00     0.074 A 
ATOM     38  C   UNL A   1      42.655  29.527  35.438  1.00  0.00     0.031 C 
ATOM     39  C   UNL A   1      43.452  28.115  33.559  1.00  0.00     0.037 A 
BRANCH  26  40
ATOM     40  C   UNL A   1      42.416  26.532  27.648  1.00  0.00     0.064 A 
ATOM     41  C   UNL A   1      41.911  25.250  27.382  1.00  0.00     0.173 A 
ATOM     42  C   UNL A   1      43.367  27.057  26.759  1.00  0.00     0.173 A 
ATOM     43  F   UNL A   1      41.026  24.687  28.217  1.00  0.00    -0.203 F 
ATOM     44  C   UNL A   1      42.367  24.512  26.291  1.00  0.00     0.198 A 
ATOM     45  C   UNL A   1      43.800  26.328  25.654  1.00  0.00     0.198 A 
ATOM     46  F   UNL A   1      43.891  28.274  26.971  1.00  0.00    -0.203 F 
ATOM     47  F   UNL A   1      41.920  23.264  26.095  1.00  0.00    -0.200 F 
ATOM     48  C   UNL A   1      43.309  25.053  25.427  1.00  0.00     0.200 A 
ATOM     49  F   UNL A   1      44.710  26.853  24.821  1.00  0.00    -0.200 F 
ATOM     50  F   UNL A   1      43.756  24.335  24.388  1.00  0.00    -0.200 F 
ENDBRANCH  26  40
BRANCH  27  51
ATOM     51  C   UNL A   1      39.276  32.092  35.475  1.00  0.00     0.064 A 
ATOM     52  C   UNL A   1      38.466  31.540  36.476  1.00  0.00     0.173 A 
ATOM     53  C   UNL A   1      39.627  33.446  35.600  1.00  0.00     0.173 A 
ATOM     54  F   UNL A   1      38.083  30.258  36.397  1.00  0.00    -0.203 F 
ATOM     55  C   UNL A   1      38.013  32.313  37.546  1.00  0.00     0.198 A 
ATOM     56  C   UNL A   1      39.204  34.207  36.688  1.00  0.00     0.198 A 
ATOM     57  F   UNL A   1      40.399  34.030  34.672  1.00  0.00    -0.203 F 
ATOM     58  F   UNL A   1      37.201  31.771  38.464  1.00  0.00    -0.200 F 
ATOM     59  C   UNL A   1      38.390  33.643  37.656  1.00  0.00     0.200 A 
ATOM     60  F   UNL A   1      39.586  35.487  36.796  1.00  0.00    -0.200 F 
ATOM     61  F   UNL A   1      37.959  34.382  38.686  1.00  0.00    -0.200 F 
ENDBRANCH  27  51
BRANCH  39  62
ATOM     62  C   UNL A   1      44.557  27.657  34.459  1.00  0.00     0.064 A 
ATOM     63  C   UNL A   1      45.781  28.336  34.522  1.00  0.00     0.173 A 
ATOM     64  C   UNL A   1      44.367  26.548  35.296  1.00  0.00     0.173 A 
ATOM     65  F   UNL A   1      46.011  29.390  33.723  1.00  0.00    -0.203 F 
ATOM     66  C   UNL A   1      46.788  27.908  35.379  1.00  0.00     0.198 A 
ATOM     67  C   UNL A   1      45.366  26.141  36.174  1.00  0.00     0.198 A 
ATOM     68  F   UNL A   1      43.210  25.871  35.272  1.00  0.00    -0.203 F 
ATOM     69  F   UNL A   1      47.969  28.542  35.392  1.00  0.00    -0.200 F 
ATOM     70  C   UNL A   1      46.577  26.816  36.210  1.00  0.00     0.200 A 
ATOM     71  F   UNL A   1      45.156  25.095  36.984  1.00  0.00    -0.200 F 
ATOM     72  F   UNL A   1      47.545  26.411  37.043  1.00  0.00    -0.200 F 
ENDBRANCH  39  62
ENDBRANCH  13  14
ENDBRANCH   6   8
ENDBRANCH   5   6
ENDBRANCH   4   5
ENDBRANCH   3   4
ENDBRANCH   2   3
ENDBRANCH   1   2
BRANCH   1  73
ATOM     73  C   UNL A   1      33.704  26.042  23.717  1.00  0.00     0.261 C 
BRANCH  73  74
ATOM     74  O   UNL A   1      33.724  24.667  24.121  1.00  0.00    -0.462 OA
BRANCH  74  75
ATOM     75  C   UNL A   1      33.952  23.740  23.157  1.00  0.00     0.329 C 
ATOM     76  O   UNL A   1      33.634  23.865  21.977  1.00  0.00    -0.250 OA
BRANCH  75  77
ATOM     77  C   UNL A   1      34.635  22.477  23.725  1.00  0.00     0.197 C 
ATOM     78  C   UNL A   1      36.060  22.843  24.180  1.00  0.00     0.070 C 
ATOM     79  N   UNL A   1      33.997  21.868  24.898  1.00  0.00    -0.326 N 
ATOM     80  C   UNL A   1      36.263  22.257  25.575  1.00  0.00     0.136 C 
ATOM     81  C   UNL A   1      34.945  21.609  25.964  1.00  0.00     0.152 C 
BRANCH  79  82
ATOM     82  C   UNL A   1      32.736  21.301  24.832  1.00  0.00     0.229 C 
ATOM     83  O   UNL A   1      31.718  21.926  25.122  1.00  0.00    -0.275 OA
BRANCH  82  84
ATOM     84  C   UNL A   1      32.661  19.849  24.393  1.00  0.00     0.166 C 
BRANCH  84  85
ATOM     85  C   UNL A   1      33.596  18.977  25.251  1.00  0.00     0.201 C 
ATOM     86  C   UNL A   1      34.644  18.232  24.394  1.00  0.00     0.135 C 
ATOM     87  N   UNL A   1      32.868  18.094  26.195  1.00  0.00    -0.342 N 
ATOM     88  S   UNL A   1      33.970  16.820  23.455  1.00  0.00    -0.150 SA
ATOM     89  C   UNL A   1      32.180  16.971  25.552  1.00  0.00     0.271 C 
ATOM     90  H   UNL A   1      32.174  18.656  26.688  1.00  0.00     0.346 HD
ATOM     91  H   UNL A   1      33.566  17.694  26.822  1.00  0.00     0.346 HD
ATOM     92  C   UNL A   1      33.122  16.003  24.840  1.00  0.00     0.131 C 
ENDBRANCH  84  85
ENDBRANCH  82  84
ENDBRANCH  79  82
BRANCH  80  93
ATOM     93  O   UNL A   1      36.600  23.272  26.518  1.00  0.00    -0.391 OA
ATOM     94  H   UNL A   1      37.426  23.703  26.248  1.00  0.00     0.211 HD
ENDBRANCH  80  93
ENDBRANCH  75  77
ENDBRANCH  74  75
ENDBRANCH  73  74
ENDBRANCH   1  73
TORSDOF 18
ENDMDL
MODEL 3
REMARK VINA RESULT:     -10.8      2.303      3.877
REMARK SMILES O=C(OCCOCCOC(=O)[C@H]1C[C@@H](O)CN1C(=O)C[C@@H]1CSCC[NH2+]1)c1ccc(-c2c3nc(c(-c4c(F)c(F)c(F)c(F)c4F)c4ccc([nH]4)c(-c4c(F)c(F)c(F)c(F)c4F)c4nc(c(-c5c(F)c(F)c(F)c(F)c5F)c5ccc2[nH]5)C=C4)C=C3)cc1
REMARK SMILES IDX 7 1 6 2 5 3 4 4 3 5 2 6 1 7 27 8 28 9 89 10 29 11 88 12
REMARK SMILES IDX 30 13 31 14 32 15 82 16 33 17 87 18 81 19 83 20 34 21 86 22
REMARK SMILES IDX 80 23 79 24 35 26 67 27 47 28 66 29 48 30 51 31 65 32 84 33
REMARK SMILES IDX 49 34 50 35 64 37 85 38 52 39 36 40 37 41 45 42 38 43 39 44
REMARK SMILES IDX 43 45 46 46 40 47 41 48 44 49 42 50 68 51 69 52 77 53 70 54
REMARK SMILES IDX 71 55 75 56 78 57 72 58 73 59 76 60 74 61 53 62 54 63 62 64
REMARK SMILES IDX 55 65 56 66 60 67 63 68 57 69 58 70 61 71 59 72 8 73 9 74
REMARK SMILES IDX 10 75 11 76 12 77 13 78 17 79 14 80 16 81 18 82 19 83 20 84
REMARK SMILES IDX 21 85 22 86 26 87 23 88 25 89 24 92 15 93
REMARK H PARENT 83 25 51 36 26 90 26 91 15 94
REMARK Flexibility Score: inf
ROOT
ATOM      1  C   UNL A   1      31.126  26.178  26.345  1.00  0.00     0.202 C 
ENDROOT
BRANCH   1   2
ATOM      2  O   UNL A   1      31.035  27.602  26.200  1.00  0.00    -0.374 OA
BRANCH   2   3
ATOM      3  C   UNL A   1      31.883  28.360  27.058  1.00  0.00     0.202 C 
BRANCH   3   4
ATOM      4  C   UNL A   1      33.204  28.854  26.461  1.00  0.00     0.261 C 
BRANCH   4   5
ATOM      5  O   UNL A   1      33.184  30.281  26.258  1.00  0.00    -0.460 OA
BRANCH   5   6
ATOM      6  C   UNL A   1      33.676  31.214  27.114  1.00  0.00     0.338 C 
ATOM      7  O   UNL A   1      33.113  32.294  27.251  1.00  0.00    -0.246 OA
BRANCH   6   8
ATOM      8  C   UNL A   1      34.897  30.934  27.911  1.00  0.00     0.060 A 
ATOM      9  C   UNL A   1      35.102  29.703  28.522  1.00  0.00     0.016 A 
ATOM     10  C   UNL A   1      35.903  31.899  28.001  1.00  0.00     0.016 A 
ATOM     11  C   UNL A   1      36.179  29.465  29.341  1.00  0.00     0.010 A 
ATOM     12  C   UNL A   1      37.070  31.620  28.722  1.00  0.00     0.010 A 
ATOM     13  C   UNL A   1      37.201  30.401  29.403  1.00  0.00    -0.014 A 
BRANCH  13  14
ATOM     14  C   UNL A   1      38.381  30.047  30.209  1.00  0.00     0.031 A 
ATOM     15  C   UNL A   1      39.447  29.209  29.593  1.00  0.00     0.074 A 
ATOM     16  C   UNL A   1      38.524  30.603  31.429  1.00  0.00     0.049 A 
ATOM     17  N   UNL A   1      40.502  28.679  30.147  1.00  0.00    -0.248 NA
ATOM     18  C   UNL A   1      39.313  28.928  28.154  1.00  0.00     0.031 C 
ATOM     19  C   UNL A   1      37.585  31.549  32.044  1.00  0.00     0.029 A 
ATOM     20  N   UNL A   1      39.526  30.490  32.353  1.00  0.00    -0.354 N 
ATOM     21  C   UNL A   1      41.124  27.953  29.144  1.00  0.00     0.074 A 
ATOM     22  C   UNL A   1      40.341  28.121  27.940  1.00  0.00     0.031 C 
ATOM     23  C   UNL A   1      38.081  31.966  33.216  1.00  0.00     0.029 A 
ATOM     24  C   UNL A   1      39.306  31.232  33.489  1.00  0.00     0.049 A 
ATOM     25  H   UNL A   1      40.325  29.933  32.217  1.00  0.00     0.167 HD
ATOM     26  C   UNL A   1      42.242  27.200  29.246  1.00  0.00     0.037 A 
ATOM     27  C   UNL A   1      39.995  31.260  34.643  1.00  0.00     0.037 A 
ATOM     28  C   UNL A   1      42.994  27.079  30.466  1.00  0.00     0.049 A 
ATOM     29  C   UNL A   1      41.188  30.353  34.754  1.00  0.00     0.074 A 
ATOM     30  C   UNL A   1      44.097  26.293  30.734  1.00  0.00     0.029 A 
ATOM     31  N   UNL A   1      42.711  27.789  31.627  1.00  0.00    -0.354 N 
ATOM     32  N   UNL A   1      41.715  29.569  33.843  1.00  0.00    -0.248 NA
ATOM     33  C   UNL A   1      41.862  30.306  36.055  1.00  0.00     0.031 C 
ATOM     34  C   UNL A   1      44.460  26.501  32.071  1.00  0.00     0.029 A 
ATOM     35  C   UNL A   1      43.614  27.455  32.621  1.00  0.00     0.049 A 
ATOM     36  H   UNL A   1      41.976  28.437  31.728  1.00  0.00     0.167 HD
ATOM     37  C   UNL A   1      42.788  28.940  34.453  1.00  0.00     0.074 A 
ATOM     38  C   UNL A   1      42.850  29.457  35.808  1.00  0.00     0.031 C 
ATOM     39  C   UNL A   1      43.637  28.011  33.952  1.00  0.00     0.037 A 
BRANCH  26  40
ATOM     40  C   UNL A   1      42.638  26.401  28.041  1.00  0.00     0.064 A 
ATOM     41  C   UNL A   1      43.545  26.887  27.087  1.00  0.00     0.173 A 
ATOM     42  C   UNL A   1      42.054  25.146  27.808  1.00  0.00     0.173 A 
ATOM     43  F   UNL A   1      44.105  28.095  27.242  1.00  0.00    -0.203 F 
ATOM     44  C   UNL A   1      43.826  26.161  25.930  1.00  0.00     0.198 A 
ATOM     45  C   UNL A   1      42.359  24.410  26.666  1.00  0.00     0.198 A 
ATOM     46  F   UNL A   1      41.172  24.639  28.683  1.00  0.00    -0.203 F 
ATOM     47  F   UNL A   1      44.643  26.675  25.001  1.00  0.00    -0.200 F 
ATOM     48  C   UNL A   1      43.235  24.923  25.723  1.00  0.00     0.200 A 
ATOM     49  F   UNL A   1      41.786  23.215  26.468  1.00  0.00    -0.200 F 
ATOM     50  F   UNL A   1      43.497  24.234  24.604  1.00  0.00    -0.200 F 
ENDBRANCH  26  40
BRANCH  27  51
ATOM     51  C   UNL A   1      39.531  32.099  35.781  1.00  0.00     0.064 A 
ATOM     52  C   UNL A   1      40.062  33.376  36.006  1.00  0.00     0.173 A 
ATOM     53  C   UNL A   1      38.545  31.642  36.672  1.00  0.00     0.173 A 
ATOM     54  F   UNL A   1      41.021  33.854  35.200  1.00  0.00    -0.203 F 
ATOM     55  C   UNL A   1      39.638  34.155  37.084  1.00  0.00     0.198 A 
ATOM     56  C   UNL A   1      38.097  32.436  37.726  1.00  0.00     0.198 A 
ATOM     57  F   UNL A   1      38.001  30.428  36.509  1.00  0.00    -0.203 F 
ATOM     58  F   UNL A   1      40.198  35.353  37.301  1.00  0.00    -0.200 F 
ATOM     59  C   UNL A   1      38.650  33.688  37.937  1.00  0.00     0.200 A 
ATOM     60  F   UNL A   1      37.130  31.985  38.537  1.00  0.00    -0.200 F 
ATOM     61  F   UNL A   1      38.241  34.439  38.968  1.00  0.00    -0.200 F 
ENDBRANCH  27  51
BRANCH  39  62
ATOM     62  C   UNL A   1      44.720  27.535  34.869  1.00  0.00     0.064 A 
ATOM     63  C   UNL A   1      45.927  28.235  35.004  1.00  0.00     0.173 A 
ATOM     64  C   UNL A   1      44.526  26.387  35.650  1.00  0.00     0.173 A 
ATOM     65  F   UNL A   1      46.161  29.327  34.260  1.00  0.00    -0.203 F 
ATOM     66  C   UNL A   1      46.913  27.789  35.877  1.00  0.00     0.198 A 
ATOM     67  C   UNL A   1      45.502  25.961  36.543  1.00  0.00     0.198 A 
ATOM     68  F   UNL A   1      43.384  25.689  35.555  1.00  0.00    -0.203 F 
ATOM     69  F   UNL A   1      48.078  28.445  35.959  1.00  0.00    -0.200 F 
ATOM     70  C   UNL A   1      46.696  26.658  36.651  1.00  0.00     0.200 A 
ATOM     71  F   UNL A   1      45.287  24.876  37.299  1.00  0.00    -0.200 F 
ATOM     72  F   UNL A   1      47.644  26.235  37.499  1.00  0.00    -0.200 F 
ENDBRANCH  39  62
ENDBRANCH  13  14
ENDBRANCH   6   8
ENDBRANCH   5   6
ENDBRANCH   4   5
ENDBRANCH   3   4
ENDBRANCH   2   3
ENDBRANCH   1   2
BRANCH   1  73
ATOM     73  C   UNL A   1      29.843  25.571  25.796  1.00  0.00     0.261 C 
BRANCH  73  74
ATOM     74  O   UNL A   1      29.622  26.218  24.536  1.00  0.00    -0.462 OA
BRANCH  74  75
ATOM     75  C   UNL A   1      30.253  25.700  23.453  1.00  0.00     0.329 C 
ATOM     76  O   UNL A   1      30.350  24.500  23.206  1.00  0.00    -0.250 OA
BRANCH  75  77
ATOM     77  C   UNL A   1      30.874  26.803  22.568  1.00  0.00     0.197 C 
ATOM     78  C   UNL A   1      30.051  28.094  22.730  1.00  0.00     0.070 C 
ATOM     79  N   UNL A   1      32.257  27.182  22.880  1.00  0.00    -0.326 N 
ATOM     80  C   UNL A   1      31.033  29.240  22.959  1.00  0.00     0.136 C 
ATOM     81  C   UNL A   1      32.418  28.618  22.997  1.00  0.00     0.152 C 
BRANCH  79  82
ATOM     82  C   UNL A   1      33.310  26.297  22.724  1.00  0.00     0.229 C 
ATOM     83  O   UNL A   1      33.653  25.869  21.625  1.00  0.00    -0.275 OA
BRANCH  82  84
ATOM     84  C   UNL A   1      34.028  25.859  23.990  1.00  0.00     0.166 C 
BRANCH  84  85
ATOM     85  C   UNL A   1      33.478  24.508  24.482  1.00  0.00     0.201 C 
ATOM     86  C   UNL A   1      34.122  24.070  25.817  1.00  0.00     0.135 C 
ATOM     87  N   UNL A   1      33.503  23.454  23.438  1.00  0.00    -0.342 N 
ATOM     88  S   UNL A   1      35.835  23.465  25.654  1.00  0.00    -0.150 SA
ATOM     89  C   UNL A   1      34.846  22.954  23.127  1.00  0.00     0.271 C 
ATOM     90  H   UNL A   1      33.098  23.839  22.585  1.00  0.00     0.346 HD
ATOM     91  H   UNL A   1      32.971  22.665  23.804  1.00  0.00     0.346 HD
ATOM     92  C   UNL A   1      35.536  22.278  24.310  1.00  0.00     0.131 C 
ENDBRANCH  84  85
ENDBRANCH  82  84
ENDBRANCH  79  82
BRANCH  80  93
ATOM     93  O   UNL A   1      30.768  29.909  24.190  1.00  0.00    -0.391 OA
ATOM     94  H   UNL A   1      31.605  30.088  24.647  1.00  0.00     0.211 HD
ENDBRANCH  80  93
ENDBRANCH  75  77
ENDBRANCH  74  75
ENDBRANCH  73  74
ENDBRANCH   1  73
TORSDOF 18
ENDMDL
