MODEL 1
REMARK VINA RESULT:     -10.2      0.000      0.000
REMARK SMILES COC[C@@H](C)CC(=O)N1CCCC[C@@H]1CC(=O)OCCOCCOC(=O)c1ccc(-c2c3nc(c(-c4c(F)c(F)c(F)c(F)c4F)c4ccc([nH]4)c(-c4c(F)c(F)c(F)c(F)c4F)c4nc(c(-c5c(F)c(F)c(F)c(F)c5F)c5ccc2[nH]5)C=C4)C=C3)cc1
REMARK SMILES IDX 19 1 18 2 16 3 17 4 15 5 14 6 9 7 10 8 11 9 13 10 12 11 7 12
REMARK SMILES IDX 8 13 6 14 4 15 5 16 3 17 2 18 1 19 20 20 21 21 22 22 23 23
REMARK SMILES IDX 24 24 25 25 26 26 27 27 28 28 89 29 29 30 88 31 30 32 31 33
REMARK SMILES IDX 32 34 82 35 33 36 87 37 81 38 83 39 34 40 86 41 80 42 79 43
REMARK SMILES IDX 35 45 67 46 47 47 66 48 48 49 51 50 65 51 84 52 49 53 50 54
REMARK SMILES IDX 64 56 85 57 52 58 36 59 37 60 45 61 38 62 39 63 43 64 46 65
REMARK SMILES IDX 40 66 41 67 44 68 42 69 68 70 69 71 77 72 70 73 71 74 75 75
REMARK SMILES IDX 78 76 72 77 73 78 76 79 74 80 53 81 54 82 62 83 55 84 56 85
REMARK SMILES IDX 60 86 63 87 57 88 58 89 61 90 59 91
REMARK H PARENT 83 44 51 55
REMARK Flexibility Score: inf
ROOT
ATOM      1  C   UNL A   1      33.684  27.531  23.365  1.00  0.00     0.261 C 
ENDROOT
BRANCH   1   2
ATOM      2  O   UNL A   1      32.862  26.752  22.476  1.00  0.00    -0.463 OA
BRANCH   2   3
ATOM      3  C   UNL A   1      33.252  25.455  22.355  1.00  0.00     0.307 C 
ATOM      4  O   UNL A   1      33.372  24.873  21.281  1.00  0.00    -0.252 OA
BRANCH   3   5
ATOM      5  C   UNL A   1      33.470  24.734  23.669  1.00  0.00     0.147 C 
BRANCH   5   6
ATOM      6  C   UNL A   1      34.558  23.644  23.727  1.00  0.00     0.096 C 
ATOM      7  N   UNL A   1      34.055  22.294  24.119  1.00  0.00    -0.339 N 
ATOM      8  C   UNL A   1      35.004  21.324  24.658  1.00  0.00     0.120 C 
ATOM      9  C   UNL A   1      35.877  21.919  25.751  1.00  0.00     0.022 C 
ATOM     10  C   UNL A   1      35.653  24.161  24.705  1.00  0.00     0.026 C 
ATOM     11  C   UNL A   1      36.638  23.108  25.192  1.00  0.00     0.004 C 
BRANCH   7  12
ATOM     12  C   UNL A   1      32.736  21.874  24.037  1.00  0.00     0.223 C 
ATOM     13  O   UNL A   1      32.145  21.896  22.955  1.00  0.00    -0.275 OA
BRANCH  12  14
ATOM     14  C   UNL A   1      31.949  21.671  25.342  1.00  0.00     0.106 C 
BRANCH  14  15
ATOM     15  C   UNL A   1      31.975  22.829  26.355  1.00  0.00     0.021 C 
ATOM     16  C   UNL A   1      32.904  22.519  27.537  1.00  0.00     0.010 C 
BRANCH  15  17
ATOM     17  C   UNL A   1      30.563  23.125  26.876  1.00  0.00     0.163 C 
BRANCH  17  18
ATOM     18  O   UNL A   1      30.152  24.428  26.474  1.00  0.00    -0.384 OA
ATOM     19  C   UNL A   1      31.224  25.339  26.281  1.00  0.00     0.194 C 
ENDBRANCH  17  18
ENDBRANCH  15  17
ENDBRANCH  14  15
ENDBRANCH  12  14
ENDBRANCH   7  12
ENDBRANCH   5   6
ENDBRANCH   3   5
ENDBRANCH   2   3
ENDBRANCH   1   2
BRANCH   1  20
ATOM     20  C   UNL A   1      33.096  28.913  23.677  1.00  0.00     0.202 C 
BRANCH  20  21
ATOM     21  O   UNL A   1      32.871  29.239  25.045  1.00  0.00    -0.374 OA
BRANCH  21  22
ATOM     22  C   UNL A   1      31.684  29.966  25.353  1.00  0.00     0.202 C 
BRANCH  22  23
ATOM     23  C   UNL A   1      31.803  31.101  26.375  1.00  0.00     0.261 C 
BRANCH  23  24
ATOM     24  O   UNL A   1      32.826  30.845  27.356  1.00  0.00    -0.460 OA
BRANCH  24  25
ATOM     25  C   UNL A   1      33.665  31.881  27.591  1.00  0.00     0.338 C 
ATOM     26  O   UNL A   1      33.386  33.073  27.626  1.00  0.00    -0.246 OA
BRANCH  25  27
ATOM     27  C   UNL A   1      34.983  31.375  28.004  1.00  0.00     0.060 A 
ATOM     28  C   UNL A   1      35.099  30.006  28.278  1.00  0.00     0.016 A 
ATOM     29  C   UNL A   1      36.060  32.238  28.212  1.00  0.00     0.016 A 
ATOM     30  C   UNL A   1      36.285  29.496  28.796  1.00  0.00     0.010 A 
ATOM     31  C   UNL A   1      37.246  31.726  28.747  1.00  0.00     0.010 A 
ATOM     32  C   UNL A   1      37.351  30.360  29.072  1.00  0.00    -0.014 A 
BRANCH  32  33
ATOM     33  C   UNL A   1      38.510  29.856  29.846  1.00  0.00     0.031 A 
ATOM     34  C   UNL A   1      38.717  30.351  31.251  1.00  0.00     0.074 A 
ATOM     35  C   UNL A   1      39.341  28.939  29.321  1.00  0.00     0.049 A 
ATOM     36  N   UNL A   1      39.675  30.075  32.098  1.00  0.00    -0.248 NA
ATOM     37  C   UNL A   1      37.704  31.283  31.770  1.00  0.00     0.031 C 
ATOM     38  C   UNL A   1      39.210  28.346  27.992  1.00  0.00     0.029 A 
ATOM     39  N   UNL A   1      40.464  28.349  29.846  1.00  0.00    -0.354 N 
ATOM     40  C   UNL A   1      39.386  30.804  33.245  1.00  0.00     0.074 A 
ATOM     41  C   UNL A   1      38.180  31.558  32.975  1.00  0.00     0.031 C 
ATOM     42  C   UNL A   1      40.223  27.484  27.799  1.00  0.00     0.029 A 
ATOM     43  C   UNL A   1      41.090  27.492  28.976  1.00  0.00     0.049 A 
ATOM     44  H   UNL A   1      40.788  28.524  30.759  1.00  0.00     0.167 HD
ATOM     45  C   UNL A   1      40.062  30.834  34.418  1.00  0.00     0.037 A 
ATOM     46  C   UNL A   1      42.246  26.814  29.109  1.00  0.00     0.037 A 
ATOM     47  C   UNL A   1      41.260  30.081  34.679  1.00  0.00     0.049 A 
ATOM     48  C   UNL A   1      43.023  26.928  30.396  1.00  0.00     0.074 A 
ATOM     49  C   UNL A   1      42.012  30.030  35.840  1.00  0.00     0.029 A 
ATOM     50  N   UNL A   1      41.888  29.252  33.760  1.00  0.00    -0.354 N 
ATOM     51  N   UNL A   1      42.734  27.602  31.483  1.00  0.00    -0.248 NA
ATOM     52  C   UNL A   1      44.287  26.182  30.475  1.00  0.00     0.031 C 
ATOM     53  C   UNL A   1      43.127  29.220  35.603  1.00  0.00     0.029 A 
ATOM     54  C   UNL A   1      43.036  28.711  34.317  1.00  0.00     0.049 A 
ATOM     55  H   UNL A   1      41.567  29.076  32.846  1.00  0.00     0.167 HD
ATOM     56  C   UNL A   1      43.759  27.336  32.383  1.00  0.00     0.074 A 
ATOM     57  C   UNL A   1      44.671  26.429  31.719  1.00  0.00     0.031 C 
ATOM     58  C   UNL A   1      43.929  27.801  33.646  1.00  0.00     0.037 A 
BRANCH  45  59
ATOM     59  C   UNL A   1      39.538  31.736  35.498  1.00  0.00     0.064 A 
ATOM     60  C   UNL A   1      38.580  31.303  36.427  1.00  0.00     0.173 A 
ATOM     61  C   UNL A   1      40.029  33.044  35.626  1.00  0.00     0.173 A 
ATOM     62  F   UNL A   1      38.066  30.066  36.340  1.00  0.00    -0.203 F 
ATOM     63  C   UNL A   1      38.111  32.155  37.424  1.00  0.00     0.198 A 
ATOM     64  C   UNL A   1      39.582  33.883  36.645  1.00  0.00     0.198 A 
ATOM     65  F   UNL A   1      40.949  33.509  34.768  1.00  0.00    -0.203 F 
ATOM     66  F   UNL A   1      37.159  31.735  38.269  1.00  0.00    -0.200 F 
ATOM     67  C   UNL A   1      38.619  33.440  37.538  1.00  0.00     0.200 A 
ATOM     68  F   UNL A   1      40.085  35.120  36.761  1.00  0.00    -0.200 F 
ATOM     69  F   UNL A   1      38.174  34.256  38.504  1.00  0.00    -0.200 F 
ENDBRANCH  45  59
BRANCH  46  70
ATOM     70  C   UNL A   1      42.751  25.978  27.987  1.00  0.00     0.064 A 
ATOM     71  C   UNL A   1      43.611  26.510  27.017  1.00  0.00     0.173 A 
ATOM     72  C   UNL A   1      42.367  24.635  27.853  1.00  0.00     0.173 A 
ATOM     73  F   UNL A   1      43.986  27.796  27.087  1.00  0.00    -0.203 F 
ATOM     74  C   UNL A   1      44.049  25.738  25.942  1.00  0.00     0.198 A 
ATOM     75  C   UNL A   1      42.831  23.855  26.796  1.00  0.00     0.198 A 
ATOM     76  F   UNL A   1      41.544  24.078  28.753  1.00  0.00    -0.203 F 
ATOM     77  F   UNL A   1      44.828  26.287  25.000  1.00  0.00    -0.200 F 
ATOM     78  C   UNL A   1      43.664  24.409  25.837  1.00  0.00     0.200 A 
ATOM     79  F   UNL A   1      42.466  22.570  26.704  1.00  0.00    -0.200 F 
ATOM     80  F   UNL A   1      44.087  23.668  24.804  1.00  0.00    -0.200 F 
ENDBRANCH  46  70
BRANCH  58  81
ATOM     81  C   UNL A   1      45.123  27.303  34.412  1.00  0.00     0.064 A 
ATOM     82  C   UNL A   1      45.077  26.125  35.171  1.00  0.00     0.173 A 
ATOM     83  C   UNL A   1      46.343  27.995  34.349  1.00  0.00     0.173 A 
ATOM     84  F   UNL A   1      43.933  25.433  35.275  1.00  0.00    -0.203 F 
ATOM     85  C   UNL A   1      46.200  25.675  35.863  1.00  0.00     0.198 A 
ATOM     86  C   UNL A   1      47.471  27.523  35.012  1.00  0.00     0.198 A 
ATOM     87  F   UNL A   1      46.445  29.123  33.629  1.00  0.00    -0.203 F 
ATOM     88  F   UNL A   1      46.117  24.575  36.625  1.00  0.00    -0.200 F 
ATOM     89  C   UNL A   1      47.396  26.369  35.776  1.00  0.00     0.200 A 
ATOM     90  F   UNL A   1      48.632  28.187  34.913  1.00  0.00    -0.200 F 
ATOM     91  F   UNL A   1      48.477  25.929  36.435  1.00  0.00    -0.200 F 
ENDBRANCH  58  81
ENDBRANCH  32  33
ENDBRANCH  25  27
ENDBRANCH  24  25
ENDBRANCH  23  24
ENDBRANCH  22  23
ENDBRANCH  21  22
ENDBRANCH  20  21
ENDBRANCH   1  20
TORSDOF 20
ENDMDL
MODEL 2
REMARK VINA RESULT:     -10.1      0.467      7.500
REMARK SMILES COC[C@@H](C)CC(=O)N1CCCC[C@@H]1CC(=O)OCCOCCOC(=O)c1ccc(-c2c3nc(c(-c4c(F)c(F)c(F)c(F)c4F)c4ccc([nH]4)c(-c4c(F)c(F)c(F)c(F)c4F)c4nc(c(-c5c(F)c(F)c(F)c(F)c5F)c5ccc2[nH]5)C=C4)C=C3)cc1
REMARK SMILES IDX 19 1 18 2 16 3 17 4 15 5 14 6 9 7 10 8 11 9 13 10 12 11 7 12
REMARK SMILES IDX 8 13 6 14 4 15 5 16 3 17 2 18 1 19 20 20 21 21 22 22 23 23
REMARK SMILES IDX 24 24 25 25 26 26 27 27 28 28 89 29 29 30 88 31 30 32 31 33
REMARK SMILES IDX 32 34 82 35 33 36 87 37 81 38 83 39 34 40 86 41 80 42 79 43
REMARK SMILES IDX 35 45 67 46 47 47 66 48 48 49 51 50 65 51 84 52 49 53 50 54
REMARK SMILES IDX 64 56 85 57 52 58 36 59 37 60 45 61 38 62 39 63 43 64 46 65
REMARK SMILES IDX 40 66 41 67 44 68 42 69 68 70 69 71 77 72 70 73 71 74 75 75
REMARK SMILES IDX 78 76 72 77 73 78 76 79 74 80 53 81 54 82 62 83 55 84 56 85
REMARK SMILES IDX 60 86 63 87 57 88 58 89 61 90 59 91
REMARK H PARENT 83 44 51 55
REMARK Flexibility Score: inf
ROOT
ATOM      1  C   UNL A   1      33.652  27.288  22.520  1.00  0.00     0.261 C 
ENDROOT
BRANCH   1   2
ATOM      2  O   UNL A   1      32.730  26.182  22.532  1.00  0.00    -0.463 OA
BRANCH   2   3
ATOM      3  C   UNL A   1      33.328  24.962  22.489  1.00  0.00     0.307 C 
ATOM      4  O   UNL A   1      33.444  24.292  21.468  1.00  0.00    -0.252 OA
BRANCH   3   5
ATOM      5  C   UNL A   1      33.798  24.439  23.830  1.00  0.00     0.147 C 
BRANCH   5   6
ATOM      6  C   UNL A   1      34.862  23.323  23.843  1.00  0.00     0.096 C 
ATOM      7  N   UNL A   1      34.341  21.983  24.245  1.00  0.00    -0.339 N 
ATOM      8  C   UNL A   1      35.286  20.987  24.744  1.00  0.00     0.120 C 
ATOM      9  C   UNL A   1      36.212  21.554  25.807  1.00  0.00     0.022 C 
ATOM     10  C   UNL A   1      36.003  23.808  24.783  1.00  0.00     0.026 C 
ATOM     11  C   UNL A   1      36.979  22.730  25.228  1.00  0.00     0.004 C 
BRANCH   7  12
ATOM     12  C   UNL A   1      33.010  21.594  24.209  1.00  0.00     0.223 C 
ATOM     13  O   UNL A   1      32.420  21.506  23.129  1.00  0.00    -0.275 OA
BRANCH  12  14
ATOM     14  C   UNL A   1      32.218  21.568  25.525  1.00  0.00     0.106 C 
BRANCH  14  15
ATOM     15  C   UNL A   1      32.395  22.773  26.465  1.00  0.00     0.021 C 
ATOM     16  C   UNL A   1      33.147  22.381  27.745  1.00  0.00     0.010 C 
BRANCH  15  17
ATOM     17  C   UNL A   1      31.034  23.377  26.836  1.00  0.00     0.163 C 
BRANCH  17  18
ATOM     18  O   UNL A   1      30.618  24.303  25.838  1.00  0.00    -0.384 OA
ATOM     19  C   UNL A   1      31.109  25.621  26.030  1.00  0.00     0.194 C 
ENDBRANCH  17  18
ENDBRANCH  15  17
ENDBRANCH  14  15
ENDBRANCH  12  14
ENDBRANCH   7  12
ENDBRANCH   5   6
ENDBRANCH   3   5
ENDBRANCH   2   3
ENDBRANCH   1   2
BRANCH   1  20
ATOM     20  C   UNL A   1      33.017  28.611  22.969  1.00  0.00     0.202 C 
BRANCH  20  21
ATOM     21  O   UNL A   1      32.649  28.733  24.339  1.00  0.00    -0.374 OA
BRANCH  21  22
ATOM     22  C   UNL A   1      31.592  29.638  24.649  1.00  0.00     0.202 C 
BRANCH  22  23
ATOM     23  C   UNL A   1      31.703  30.419  25.963  1.00  0.00     0.261 C 
BRANCH  23  24
ATOM     24  O   UNL A   1      32.968  30.207  26.618  1.00  0.00    -0.460 OA
BRANCH  24  25
ATOM     25  C   UNL A   1      33.498  31.304  27.207  1.00  0.00     0.338 C 
ATOM     26  O   UNL A   1      32.935  32.363  27.455  1.00  0.00    -0.246 OA
BRANCH  25  27
ATOM     27  C   UNL A   1      34.846  30.999  27.711  1.00  0.00     0.060 A 
ATOM     28  C   UNL A   1      35.166  29.655  27.947  1.00  0.00     0.016 A 
ATOM     29  C   UNL A   1      35.746  32.014  28.037  1.00  0.00     0.016 A 
ATOM     30  C   UNL A   1      36.378  29.321  28.543  1.00  0.00     0.010 A 
ATOM     31  C   UNL A   1      36.957  31.678  28.651  1.00  0.00     0.010 A 
ATOM     32  C   UNL A   1      37.262  30.333  28.937  1.00  0.00    -0.014 A 
BRANCH  32  33
ATOM     33  C   UNL A   1      38.425  29.987  29.787  1.00  0.00     0.031 A 
ATOM     34  C   UNL A   1      39.453  29.025  29.258  1.00  0.00     0.074 A 
ATOM     35  C   UNL A   1      38.587  30.555  30.994  1.00  0.00     0.049 A 
ATOM     36  N   UNL A   1      40.528  28.555  29.835  1.00  0.00    -0.248 NA
ATOM     37  C   UNL A   1      39.237  28.528  27.890  1.00  0.00     0.031 C 
ATOM     38  C   UNL A   1      37.687  31.541  31.590  1.00  0.00     0.029 A 
ATOM     39  N   UNL A   1      39.567  30.379  31.938  1.00  0.00    -0.354 N 
ATOM     40  C   UNL A   1      41.112  27.702  28.908  1.00  0.00     0.074 A 
ATOM     41  C   UNL A   1      40.256  27.695  27.740  1.00  0.00     0.031 C 
ATOM     42  C   UNL A   1      38.151  31.874  32.806  1.00  0.00     0.029 A 
ATOM     43  C   UNL A   1      39.358  31.100  33.087  1.00  0.00     0.049 A 
ATOM     44  H   UNL A   1      40.347  29.793  31.803  1.00  0.00     0.167 HD
ATOM     45  C   UNL A   1      42.262  26.995  29.018  1.00  0.00     0.037 A 
ATOM     46  C   UNL A   1      40.051  31.110  34.243  1.00  0.00     0.037 A 
ATOM     47  C   UNL A   1      43.108  27.007  30.182  1.00  0.00     0.049 A 
ATOM     48  C   UNL A   1      41.283  30.251  34.370  1.00  0.00     0.074 A 
ATOM     49  C   UNL A   1      44.302  26.339  30.388  1.00  0.00     0.029 A 
ATOM     50  N   UNL A   1      42.844  27.720  31.343  1.00  0.00    -0.354 N 
ATOM     51  N   UNL A   1      41.841  29.463  33.482  1.00  0.00    -0.248 NA
ATOM     52  C   UNL A   1      41.986  30.288  35.661  1.00  0.00     0.031 C 
ATOM     53  C   UNL A   1      44.729  26.597  31.694  1.00  0.00     0.029 A 
ATOM     54  C   UNL A   1      43.837  27.481  32.281  1.00  0.00     0.049 A 
ATOM     55  H   UNL A   1      42.066  28.307  31.481  1.00  0.00     0.167 HD
ATOM     56  C   UNL A   1      42.973  28.937  34.094  1.00  0.00     0.074 A 
ATOM     57  C   UNL A   1      43.029  29.506  35.423  1.00  0.00     0.031 C 
ATOM     58  C   UNL A   1      43.883  28.063  33.598  1.00  0.00     0.037 A 
BRANCH  45  59
ATOM     59  C   UNL A   1      42.655  26.122  27.860  1.00  0.00     0.064 A 
ATOM     60  C   UNL A   1      43.557  26.556  26.877  1.00  0.00     0.173 A 
ATOM     61  C   UNL A   1      42.147  24.819  27.753  1.00  0.00     0.173 A 
ATOM     62  F   UNL A   1      44.061  27.799  26.924  1.00  0.00    -0.203 F 
ATOM     63  C   UNL A   1      43.912  25.728  25.814  1.00  0.00     0.198 A 
ATOM     64  C   UNL A   1      42.529  23.983  26.707  1.00  0.00     0.198 A 
ATOM     65  F   UNL A   1      41.284  24.351  28.668  1.00  0.00    -0.203 F 
ATOM     66  F   UNL A   1      44.736  26.182  24.860  1.00  0.00    -0.200 F 
ATOM     67  C   UNL A   1      43.405  24.441  25.735  1.00  0.00     0.200 A 
ATOM     68  F   UNL A   1      42.049  22.733  26.641  1.00  0.00    -0.200 F 
ATOM     69  F   UNL A   1      43.754  23.642  24.717  1.00  0.00    -0.200 F 
ENDBRANCH  45  59
BRANCH  46  70
ATOM     70  C   UNL A   1      39.588  31.949  35.380  1.00  0.00     0.064 A 
ATOM     71  C   UNL A   1      38.659  31.461  36.309  1.00  0.00     0.173 A 
ATOM     72  C   UNL A   1      40.050  33.263  35.548  1.00  0.00     0.173 A 
ATOM     73  F   UNL A   1      38.166  30.221  36.176  1.00  0.00    -0.203 F 
ATOM     74  C   UNL A   1      38.192  32.264  37.349  1.00  0.00     0.198 A 
ATOM     75  C   UNL A   1      39.608  34.053  36.608  1.00  0.00     0.198 A 
ATOM     76  F   UNL A   1      40.939  33.778  34.686  1.00  0.00    -0.203 F 
ATOM     77  F   UNL A   1      37.264  31.790  38.192  1.00  0.00    -0.200 F 
ATOM     78  C   UNL A   1      38.673  33.556  37.501  1.00  0.00     0.200 A 
ATOM     79  F   UNL A   1      40.084  35.296  36.757  1.00  0.00    -0.200 F 
ATOM     80  F   UNL A   1      38.225  34.325  38.503  1.00  0.00    -0.200 F 
ENDBRANCH  46  70
BRANCH  58  81
ATOM     81  C   UNL A   1      45.046  27.700  34.480  1.00  0.00     0.064 A 
ATOM     82  C   UNL A   1      46.253  28.412  34.445  1.00  0.00     0.173 A 
ATOM     83  C   UNL A   1      44.932  26.648  35.404  1.00  0.00     0.173 A 
ATOM     84  F   UNL A   1      46.420  29.417  33.573  1.00  0.00    -0.203 F 
ATOM     85  C   UNL A   1      47.313  28.067  35.281  1.00  0.00     0.198 A 
ATOM     86  C   UNL A   1      45.980  26.329  36.261  1.00  0.00     0.198 A 
ATOM     87  F   UNL A   1      43.795  25.940  35.486  1.00  0.00    -0.203 F 
ATOM     88  F   UNL A   1      48.476  28.728  35.192  1.00  0.00    -0.200 F 
ATOM     89  C   UNL A   1      47.173  27.032  36.193  1.00  0.00     0.200 A 
ATOM     90  F   UNL A   1      45.836  25.340  37.154  1.00  0.00    -0.200 F 
ATOM     91  F   UNL A   1      48.191  26.707  37.002  1.00  0.00    -0.200 F 
ENDBRANCH  58  81
ENDBRANCH  32  33
ENDBRANCH  25  27
ENDBRANCH  24  25
ENDBRANCH  23  24
ENDBRANCH  22  23
ENDBRANCH  21  22
ENDBRANCH  20  21
ENDBRANCH   1  20
TORSDOF 20
ENDMDL
MODEL 3
REMARK VINA RESULT:      -9.9      4.307      9.621
REMARK SMILES COC[C@@H](C)CC(=O)N1CCCC[C@@H]1CC(=O)OCCOCCOC(=O)c1ccc(-c2c3nc(c(-c4c(F)c(F)c(F)c(F)c4F)c4ccc([nH]4)c(-c4c(F)c(F)c(F)c(F)c4F)c4nc(c(-c5c(F)c(F)c(F)c(F)c5F)c5ccc2[nH]5)C=C4)C=C3)cc1
REMARK SMILES IDX 19 1 18 2 16 3 17 4 15 5 14 6 9 7 10 8 11 9 13 10 12 11 7 12
REMARK SMILES IDX 8 13 6 14 4 15 5 16 3 17 2 18 1 19 20 20 21 21 22 22 23 23
REMARK SMILES IDX 24 24 25 25 26 26 27 27 28 28 89 29 29 30 88 31 30 32 31 33
REMARK SMILES IDX 32 34 82 35 33 36 87 37 81 38 83 39 34 40 86 41 80 42 79 43
REMARK SMILES IDX 35 45 67 46 47 47 66 48 48 49 51 50 65 51 84 52 49 53 50 54
REMARK SMILES IDX 64 56 85 57 52 58 36 59 37 60 45 61 38 62 39 63 43 64 46 65
REMARK SMILES IDX 40 66 41 67 44 68 42 69 68 70 69 71 77 72 70 73 71 74 75 75
REMARK SMILES IDX 78 76 72 77 73 78 76 79 74 80 53 81 54 82 62 83 55 84 56 85
REMARK SMILES IDX 60 86 63 87 57 88 58 89 61 90 59 91
REMARK H PARENT 83 44 51 55
REMARK Flexibility Score: inf
ROOT
ATOM      1  C   UNL A   1      34.177  23.667  22.737  1.00  0.00     0.261 C 
ENDROOT
BRANCH   1   2
ATOM      2  O   UNL A   1      32.972  24.457  22.717  1.00  0.00    -0.463 OA
BRANCH   2   3
ATOM      3  C   UNL A   1      32.961  25.425  21.763  1.00  0.00     0.307 C 
ATOM      4  O   UNL A   1      33.036  25.201  20.558  1.00  0.00    -0.252 OA
BRANCH   3   5
ATOM      5  C   UNL A   1      32.915  26.841  22.298  1.00  0.00     0.147 C 
BRANCH   5   6
ATOM      6  C   UNL A   1      32.787  27.038  23.821  1.00  0.00     0.096 C 
ATOM      7  N   UNL A   1      31.439  27.496  24.271  1.00  0.00    -0.339 N 
ATOM      8  C   UNL A   1      31.322  28.155  25.568  1.00  0.00     0.120 C 
ATOM      9  C   UNL A   1      32.359  29.251  25.753  1.00  0.00     0.022 C 
ATOM     10  C   UNL A   1      33.907  28.037  24.235  1.00  0.00     0.026 C 
ATOM     11  C   UNL A   1      33.749  28.652  25.618  1.00  0.00     0.004 C 
BRANCH   7  12
ATOM     12  C   UNL A   1      30.265  27.370  23.544  1.00  0.00     0.223 C 
ATOM     13  O   UNL A   1      29.704  26.275  23.459  1.00  0.00    -0.275 OA
BRANCH  12  14
ATOM     14  C   UNL A   1      29.847  28.524  22.620  1.00  0.00     0.106 C 
BRANCH  14  15
ATOM     15  C   UNL A   1      28.571  29.293  23.005  1.00  0.00     0.021 C 
ATOM     16  C   UNL A   1      27.372  28.347  23.164  1.00  0.00     0.010 C 
BRANCH  15  17
ATOM     17  C   UNL A   1      28.244  30.362  21.954  1.00  0.00     0.163 C 
BRANCH  17  18
ATOM     18  O   UNL A   1      27.826  31.566  22.590  1.00  0.00    -0.384 OA
ATOM     19  C   UNL A   1      28.698  32.666  22.378  1.00  0.00     0.194 C 
ENDBRANCH  17  18
ENDBRANCH  15  17
ENDBRANCH  14  15
ENDBRANCH  12  14
ENDBRANCH   7  12
ENDBRANCH   5   6
ENDBRANCH   3   5
ENDBRANCH   2   3
ENDBRANCH   1   2
BRANCH   1  20
ATOM     20  C   UNL A   1      34.458  23.028  24.103  1.00  0.00     0.202 C 
BRANCH  20  21
ATOM     21  O   UNL A   1      35.755  22.479  24.318  1.00  0.00    -0.374 OA
BRANCH  21  22
ATOM     22  C   UNL A   1      35.824  21.222  24.987  1.00  0.00     0.202 C 
BRANCH  22  23
ATOM     23  C   UNL A   1      37.215  20.604  25.173  1.00  0.00     0.261 C 
BRANCH  23  24
ATOM     24  O   UNL A   1      38.255  21.600  25.185  1.00  0.00    -0.460 OA
BRANCH  24  25
ATOM     25  C   UNL A   1      39.278  21.349  26.034  1.00  0.00     0.338 C 
ATOM     26  O   UNL A   1      39.899  20.301  26.165  1.00  0.00    -0.246 OA
BRANCH  25  27
ATOM     27  C   UNL A   1      39.704  22.596  26.688  1.00  0.00     0.060 A 
ATOM     28  C   UNL A   1      39.050  23.780  26.322  1.00  0.00     0.016 A 
ATOM     29  C   UNL A   1      40.786  22.621  27.568  1.00  0.00     0.016 A 
ATOM     30  C   UNL A   1      39.498  25.003  26.810  1.00  0.00     0.010 A 
ATOM     31  C   UNL A   1      41.245  23.853  28.046  1.00  0.00     0.010 A 
ATOM     32  C   UNL A   1      40.623  25.051  27.642  1.00  0.00    -0.014 A 
BRANCH  32  33
ATOM     33  C   UNL A   1      41.238  26.362  27.955  1.00  0.00     0.031 A 
ATOM     34  C   UNL A   1      42.653  26.625  27.519  1.00  0.00     0.074 A 
ATOM     35  C   UNL A   1      40.533  27.320  28.580  1.00  0.00     0.049 A 
ATOM     36  N   UNL A   1      43.401  27.680  27.711  1.00  0.00    -0.248 NA
ATOM     37  C   UNL A   1      43.311  25.549  26.760  1.00  0.00     0.031 C 
ATOM     38  C   UNL A   1      39.139  27.201  29.002  1.00  0.00     0.029 A 
ATOM     39  N   UNL A   1      40.898  28.584  28.971  1.00  0.00    -0.354 N 
ATOM     40  C   UNL A   1      44.619  27.394  27.108  1.00  0.00     0.074 A 
ATOM     41  C   UNL A   1      44.521  26.055  26.568  1.00  0.00     0.031 C 
ATOM     42  C   UNL A   1      38.769  28.343  29.607  1.00  0.00     0.029 A 
ATOM     43  C   UNL A   1      39.909  29.256  29.644  1.00  0.00     0.049 A 
ATOM     44  H   UNL A   1      41.784  28.971  28.786  1.00  0.00     0.167 HD
ATOM     45  C   UNL A   1      45.716  28.182  27.007  1.00  0.00     0.037 A 
ATOM     46  C   UNL A   1      39.934  30.462  30.244  1.00  0.00     0.037 A 
ATOM     47  C   UNL A   1      45.806  29.513  27.546  1.00  0.00     0.049 A 
ATOM     48  C   UNL A   1      41.195  31.287  30.188  1.00  0.00     0.074 A 
ATOM     49  C   UNL A   1      46.867  30.400  27.484  1.00  0.00     0.029 A 
ATOM     50  N   UNL A   1      44.797  30.148  28.256  1.00  0.00    -0.354 N 
ATOM     51  N   UNL A   1      42.335  31.020  29.598  1.00  0.00    -0.248 NA
ATOM     52  C   UNL A   1      41.169  32.585  30.878  1.00  0.00     0.031 C 
ATOM     53  C   UNL A   1      46.524  31.545  28.208  1.00  0.00     0.029 A 
ATOM     54  C   UNL A   1      45.222  31.402  28.665  1.00  0.00     0.049 A 
ATOM     55  H   UNL A   1      43.910  29.764  28.443  1.00  0.00     0.167 HD
ATOM     56  C   UNL A   1      43.149  32.125  29.818  1.00  0.00     0.074 A 
ATOM     57  C   UNL A   1      42.366  33.071  30.584  1.00  0.00     0.031 C 
ATOM     58  C   UNL A   1      44.428  32.337  29.420  1.00  0.00     0.037 A 
BRANCH  45  59
ATOM     59  C   UNL A   1      46.920  27.611  26.314  1.00  0.00     0.064 A 
ATOM     60  C   UNL A   1      47.926  26.930  27.017  1.00  0.00     0.173 A 
ATOM     61  C   UNL A   1      47.051  27.717  24.922  1.00  0.00     0.173 A 
ATOM     62  F   UNL A   1      47.857  26.812  28.352  1.00  0.00    -0.203 F 
ATOM     63  C   UNL A   1      49.033  26.403  26.354  1.00  0.00     0.198 A 
ATOM     64  C   UNL A   1      48.142  27.161  24.258  1.00  0.00     0.198 A 
ATOM     65  F   UNL A   1      46.117  28.354  24.200  1.00  0.00    -0.203 F 
ATOM     66  F   UNL A   1      50.006  25.801  27.052  1.00  0.00    -0.200 F 
ATOM     67  C   UNL A   1      49.135  26.511  24.976  1.00  0.00     0.200 A 
ATOM     68  F   UNL A   1      48.232  27.254  22.924  1.00  0.00    -0.200 F 
ATOM     69  F   UNL A   1      50.196  25.997  24.338  1.00  0.00    -0.200 F 
ENDBRANCH  45  59
BRANCH  46  70
ATOM     70  C   UNL A   1      38.732  30.959  30.967  1.00  0.00     0.064 A 
ATOM     71  C   UNL A   1      38.618  30.831  32.357  1.00  0.00     0.173 A 
ATOM     72  C   UNL A   1      37.665  31.553  30.276  1.00  0.00     0.173 A 
ATOM     73  F   UNL A   1      39.601  30.246  33.059  1.00  0.00    -0.203 F 
ATOM     74  C   UNL A   1      37.473  31.257  33.028  1.00  0.00     0.198 A 
ATOM     75  C   UNL A   1      36.534  32.009  30.952  1.00  0.00     0.198 A 
ATOM     76  F   UNL A   1      37.723  31.697  28.945  1.00  0.00    -0.203 F 
ATOM     77  F   UNL A   1      37.368  31.075  34.351  1.00  0.00    -0.200 F 
ATOM     78  C   UNL A   1      36.435  31.852  32.325  1.00  0.00     0.200 A 
ATOM     79  F   UNL A   1      35.540  32.592  30.270  1.00  0.00    -0.200 F 
ATOM     80  F   UNL A   1      35.335  32.262  32.971  1.00  0.00    -0.200 F 
ENDBRANCH  46  70
BRANCH  58  81
ATOM     81  C   UNL A   1      45.050  33.662  29.766  1.00  0.00     0.064 A 
ATOM     82  C   UNL A   1      45.789  33.848  30.942  1.00  0.00     0.173 A 
ATOM     83  C   UNL A   1      44.936  34.749  28.885  1.00  0.00     0.173 A 
ATOM     84  F   UNL A   1      45.918  32.846  31.825  1.00  0.00    -0.203 F 
ATOM     85  C   UNL A   1      46.368  35.080  31.238  1.00  0.00     0.198 A 
ATOM     86  C   UNL A   1      45.545  35.968  29.166  1.00  0.00     0.198 A 
ATOM     87  F   UNL A   1      44.247  34.623  27.740  1.00  0.00    -0.203 F 
ATOM     88  F   UNL A   1      47.027  35.249  32.393  1.00  0.00    -0.200 F 
ATOM     89  C   UNL A   1      46.253  36.135  30.346  1.00  0.00     0.200 A 
ATOM     90  F   UNL A   1      45.447  36.981  28.294  1.00  0.00    -0.200 F 
ATOM     91  F   UNL A   1      46.818  37.318  30.628  1.00  0.00    -0.200 F 
ENDBRANCH  58  81
ENDBRANCH  32  33
ENDBRANCH  25  27
ENDBRANCH  24  25
ENDBRANCH  23  24
ENDBRANCH  22  23
ENDBRANCH  21  22
ENDBRANCH  20  21
ENDBRANCH   1  20
TORSDOF 20
ENDMDL
