MODEL 1
REMARK VINA RESULT:     -11.3      0.000      0.000
REMARK SMILES C[C@@H](CCO)Sc1cc(C(=O)OCCOCCOC(=O)c2ccc(-c3c4nc(c(-c5c(F)c(F)c(F)c(F)c5F)c5ccc([nH]5)c(-c5c(F)c(F)c(F)c(F)c5F)c5nc(c(-c6c(F)c(F)c(F)c(F)c6F)c6ccc3[nH]6)C=C5)C=C4)cc2)c2ccccc2n1
REMARK SMILES IDX 13 1 12 2 10 3 11 4 9 5 7 6 8 7 90 8 89 9 84 10 88 11 85 12
REMARK SMILES IDX 87 13 86 14 6 15 2 16 1 17 3 18 4 19 5 20 14 22 15 23 16 24
REMARK SMILES IDX 17 25 18 26 19 27 20 28 21 29 22 30 83 31 23 32 82 33 24 34
REMARK SMILES IDX 25 35 26 36 76 37 27 38 81 39 75 40 77 41 28 42 80 43 74 44
REMARK SMILES IDX 73 45 29 47 61 48 41 49 60 50 42 51 45 52 59 53 78 54 43 55
REMARK SMILES IDX 44 56 58 58 79 59 46 60 30 61 31 62 39 63 32 64 33 65 37 66
REMARK SMILES IDX 40 67 34 68 35 69 38 70 36 71 62 72 63 73 71 74 64 75 65 76
REMARK SMILES IDX 69 77 72 78 66 79 67 80 70 81 68 82 47 83 48 84 56 85 49 86
REMARK SMILES IDX 50 87 54 88 57 89 51 90 52 91 55 92 53 93
REMARK H PARENT 5 21 77 46 45 57
REMARK Flexibility Score: inf
ROOT
ATOM      1  C   UNL A   1      31.815  25.535  24.187  1.00  0.00     0.261 C 
ENDROOT
BRANCH   1   2
ATOM      2  O   UNL A   1      32.720  24.466  24.513  1.00  0.00    -0.460 OA
BRANCH   2   3
ATOM      3  C   UNL A   1      33.032  23.634  23.494  1.00  0.00     0.338 C 
ATOM      4  O   UNL A   1      32.941  23.883  22.301  1.00  0.00    -0.246 OA
BRANCH   3   5
ATOM      5  C   UNL A   1      33.720  22.428  24.005  1.00  0.00     0.072 A 
ATOM      6  C   UNL A   1      33.433  20.141  24.632  1.00  0.00     0.098 A 
ATOM      7  C   UNL A   1      32.882  21.324  24.204  1.00  0.00     0.052 A 
ATOM      8  N   UNL A   1      34.744  20.048  24.936  1.00  0.00    -0.241 NA
ATOM      9  C   UNL A   1      35.542  21.124  24.819  1.00  0.00     0.072 A 
ATOM     10  C   UNL A   1      35.098  22.360  24.314  1.00  0.00     0.015 A 
ATOM     11  C   UNL A   1      36.860  21.004  25.245  1.00  0.00     0.029 A 
ATOM     12  C   UNL A   1      36.035  23.422  24.198  1.00  0.00     0.011 A 
ATOM     13  C   UNL A   1      37.768  22.061  25.153  1.00  0.00     0.002 A 
ATOM     14  C   UNL A   1      37.359  23.268  24.609  1.00  0.00     0.001 A 
BRANCH   6  15
ATOM     15  S   UNL A   1      32.520  18.653  24.933  1.00  0.00    -0.103 SA
BRANCH  15  16
ATOM     16  C   UNL A   1      32.844  17.489  23.536  1.00  0.00     0.052 C 
ATOM     17  C   UNL A   1      32.494  18.048  22.157  1.00  0.00     0.020 C 
BRANCH  16  18
ATOM     18  C   UNL A   1      34.164  16.697  23.574  1.00  0.00     0.043 C 
BRANCH  18  19
ATOM     19  C   UNL A   1      34.619  16.179  24.931  1.00  0.00     0.157 C 
BRANCH  19  20
ATOM     20  O   UNL A   1      34.120  14.882  25.219  1.00  0.00    -0.396 OA
ATOM     21  H   UNL A   1      33.394  14.949  25.858  1.00  0.00     0.210 HD
ENDBRANCH  19  20
ENDBRANCH  18  19
ENDBRANCH  16  18
ENDBRANCH  15  16
ENDBRANCH   6  15
ENDBRANCH   3   5
ENDBRANCH   2   3
ENDBRANCH   1   2
BRANCH   1  22
ATOM     22  C   UNL A   1      32.584  26.853  24.098  1.00  0.00     0.202 C 
BRANCH  22  23
ATOM     23  O   UNL A   1      32.662  27.597  25.316  1.00  0.00    -0.374 OA
BRANCH  23  24
ATOM     24  C   UNL A   1      31.700  28.634  25.509  1.00  0.00     0.202 C 
BRANCH  24  25
ATOM     25  C   UNL A   1      32.253  30.055  25.669  1.00  0.00     0.261 C 
BRANCH  25  26
ATOM     26  O   UNL A   1      32.400  30.430  27.048  1.00  0.00    -0.460 OA
BRANCH  26  27
ATOM     27  C   UNL A   1      33.085  31.578  27.253  1.00  0.00     0.338 C 
ATOM     28  O   UNL A   1      32.671  32.725  27.150  1.00  0.00    -0.246 OA
BRANCH  27  29
ATOM     29  C   UNL A   1      34.413  31.268  27.808  1.00  0.00     0.060 A 
ATOM     30  C   UNL A   1      34.729  29.919  28.014  1.00  0.00     0.016 A 
ATOM     31  C   UNL A   1      35.313  32.274  28.167  1.00  0.00     0.016 A 
ATOM     32  C   UNL A   1      35.932  29.571  28.621  1.00  0.00     0.010 A 
ATOM     33  C   UNL A   1      36.517  31.923  28.787  1.00  0.00     0.010 A 
ATOM     34  C   UNL A   1      36.817  30.572  29.043  1.00  0.00    -0.014 A 
BRANCH  34  35
ATOM     35  C   UNL A   1      37.986  30.208  29.875  1.00  0.00     0.031 A 
ATOM     36  C   UNL A   1      39.005  29.254  29.321  1.00  0.00     0.074 A 
ATOM     37  C   UNL A   1      38.151  30.742  31.097  1.00  0.00     0.049 A 
ATOM     38  N   UNL A   1      40.090  28.779  29.878  1.00  0.00    -0.248 NA
ATOM     39  C   UNL A   1      38.766  28.764  27.954  1.00  0.00     0.031 C 
ATOM     40  C   UNL A   1      37.248  31.705  31.725  1.00  0.00     0.029 A 
ATOM     41  N   UNL A   1      39.137  30.544  32.030  1.00  0.00    -0.354 N 
ATOM     42  C   UNL A   1      40.661  27.937  28.934  1.00  0.00     0.074 A 
ATOM     43  C   UNL A   1      39.788  27.938  27.780  1.00  0.00     0.031 C 
ATOM     44  C   UNL A   1      37.717  32.006  32.947  1.00  0.00     0.029 A 
ATOM     45  C   UNL A   1      38.934  31.238  33.197  1.00  0.00     0.049 A 
ATOM     46  H   UNL A   1      39.915  29.960  31.877  1.00  0.00     0.167 HD
ATOM     47  C   UNL A   1      41.816  27.234  29.019  1.00  0.00     0.037 A 
ATOM     48  C   UNL A   1      39.645  31.236  34.341  1.00  0.00     0.037 A 
ATOM     49  C   UNL A   1      42.681  27.235  30.168  1.00  0.00     0.049 A 
ATOM     50  C   UNL A   1      40.891  30.394  34.436  1.00  0.00     0.074 A 
ATOM     51  C   UNL A   1      43.885  26.575  30.344  1.00  0.00     0.029 A 
ATOM     52  N   UNL A   1      42.429  27.927  31.344  1.00  0.00    -0.354 N 
ATOM     53  N   UNL A   1      41.441  29.625  33.527  1.00  0.00    -0.248 NA
ATOM     54  C   UNL A   1      41.616  30.424  35.714  1.00  0.00     0.031 C 
ATOM     55  C   UNL A   1      44.336  26.827  31.644  1.00  0.00     0.029 A 
ATOM     56  C   UNL A   1      43.440  27.687  32.260  1.00  0.00     0.049 A 
ATOM     57  H   UNL A   1      41.647  28.503  31.504  1.00  0.00     0.167 HD
ATOM     58  C   UNL A   1      42.587  29.103  34.112  1.00  0.00     0.074 A 
ATOM     59  C   UNL A   1      42.661  29.651  35.450  1.00  0.00     0.031 C 
ATOM     60  C   UNL A   1      43.500  28.247  33.586  1.00  0.00     0.037 A 
BRANCH  47  61
ATOM     61  C   UNL A   1      42.194  26.382  27.842  1.00  0.00     0.064 A 
ATOM     62  C   UNL A   1      41.653  25.102  27.655  1.00  0.00     0.173 A 
ATOM     63  C   UNL A   1      43.089  26.866  26.877  1.00  0.00     0.173 A 
ATOM     64  F   UNL A   1      40.804  24.588  28.558  1.00  0.00    -0.203 F 
ATOM     65  C   UNL A   1      42.016  24.326  26.557  1.00  0.00     0.198 A 
ATOM     66  C   UNL A   1      43.427  26.098  25.765  1.00  0.00     0.198 A 
ATOM     67  F   UNL A   1      43.632  28.085  27.007  1.00  0.00    -0.203 F 
ATOM     68  F   UNL A   1      41.522  23.086  26.422  1.00  0.00    -0.200 F 
ATOM     69  C   UNL A   1      42.897  24.826  25.610  1.00  0.00     0.200 A 
ATOM     70  F   UNL A   1      44.271  26.588  24.847  1.00  0.00    -0.200 F 
ATOM     71  F   UNL A   1      43.241  24.081  24.551  1.00  0.00    -0.200 F 
ENDBRANCH  47  61
BRANCH  48  72
ATOM     72  C   UNL A   1      39.191  32.054  35.496  1.00  0.00     0.064 A 
ATOM     73  C   UNL A   1      39.545  33.405  35.608  1.00  0.00     0.173 A 
ATOM     74  C   UNL A   1      38.399  31.498  36.511  1.00  0.00     0.173 A 
ATOM     75  F   UNL A   1      40.321  33.974  34.675  1.00  0.00    -0.203 F 
ATOM     76  C   UNL A   1      39.136  34.166  36.702  1.00  0.00     0.198 A 
ATOM     77  C   UNL A   1      37.969  32.267  37.590  1.00  0.00     0.198 A 
ATOM     78  F   UNL A   1      38.034  30.209  36.450  1.00  0.00    -0.203 F 
ATOM     79  F   UNL A   1      39.524  35.445  36.807  1.00  0.00    -0.200 F 
ATOM     80  C   UNL A   1      38.344  33.599  37.688  1.00  0.00     0.200 A 
ATOM     81  F   UNL A   1      37.194  31.718  38.535  1.00  0.00    -0.200 F 
ATOM     82  F   UNL A   1      37.948  34.333  38.736  1.00  0.00    -0.200 F 
ENDBRANCH  48  72
BRANCH  60  83
ATOM     83  C   UNL A   1      44.674  27.877  34.447  1.00  0.00     0.064 A 
ATOM     84  C   UNL A   1      45.909  28.529  34.328  1.00  0.00     0.173 A 
ATOM     85  C   UNL A   1      44.545  26.887  35.433  1.00  0.00     0.173 A 
ATOM     86  F   UNL A   1      46.087  29.472  33.392  1.00  0.00    -0.203 F 
ATOM     87  C   UNL A   1      46.980  28.188  35.150  1.00  0.00     0.198 A 
ATOM     88  C   UNL A   1      45.608  26.568  36.272  1.00  0.00     0.198 A 
ATOM     89  F   UNL A   1      43.381  26.238  35.592  1.00  0.00    -0.203 F 
ATOM     90  F   UNL A   1      48.165  28.793  34.990  1.00  0.00    -0.200 F 
ATOM     91  C   UNL A   1      46.827  27.213  36.126  1.00  0.00     0.200 A 
ATOM     92  F   UNL A   1      45.454  25.636  37.224  1.00  0.00    -0.200 F 
ATOM     93  F   UNL A   1      47.857  26.892  36.922  1.00  0.00    -0.200 F 
ENDBRANCH  60  83
ENDBRANCH  34  35
ENDBRANCH  27  29
ENDBRANCH  26  27
ENDBRANCH  25  26
ENDBRANCH  24  25
ENDBRANCH  23  24
ENDBRANCH  22  23
ENDBRANCH   1  22
TORSDOF 19
ENDMDL
MODEL 2
REMARK VINA RESULT:     -11.3      0.499      7.281
REMARK SMILES C[C@@H](CCO)Sc1cc(C(=O)OCCOCCOC(=O)c2ccc(-c3c4nc(c(-c5c(F)c(F)c(F)c(F)c5F)c5ccc([nH]5)c(-c5c(F)c(F)c(F)c(F)c5F)c5nc(c(-c6c(F)c(F)c(F)c(F)c6F)c6ccc3[nH]6)C=C5)C=C4)cc2)c2ccccc2n1
REMARK SMILES IDX 13 1 12 2 10 3 11 4 9 5 7 6 8 7 90 8 89 9 84 10 88 11 85 12
REMARK SMILES IDX 87 13 86 14 6 15 2 16 1 17 3 18 4 19 5 20 14 22 15 23 16 24
REMARK SMILES IDX 17 25 18 26 19 27 20 28 21 29 22 30 83 31 23 32 82 33 24 34
REMARK SMILES IDX 25 35 26 36 76 37 27 38 81 39 75 40 77 41 28 42 80 43 74 44
REMARK SMILES IDX 73 45 29 47 61 48 41 49 60 50 42 51 45 52 59 53 78 54 43 55
REMARK SMILES IDX 44 56 58 58 79 59 46 60 30 61 31 62 39 63 32 64 33 65 37 66
REMARK SMILES IDX 40 67 34 68 35 69 38 70 36 71 62 72 63 73 71 74 64 75 65 76
REMARK SMILES IDX 69 77 72 78 66 79 67 80 70 81 68 82 47 83 48 84 56 85 49 86
REMARK SMILES IDX 50 87 54 88 57 89 51 90 52 91 55 92 53 93
REMARK H PARENT 5 21 77 46 45 57
REMARK Flexibility Score: inf
ROOT
ATOM      1  C   UNL A   1      31.773  25.502  24.094  1.00  0.00     0.261 C 
ENDROOT
BRANCH   1   2
ATOM      2  O   UNL A   1      32.781  24.528  24.415  1.00  0.00    -0.460 OA
BRANCH   2   3
ATOM      3  C   UNL A   1      33.073  23.646  23.433  1.00  0.00     0.338 C 
ATOM      4  O   UNL A   1      32.975  23.840  22.232  1.00  0.00    -0.246 OA
BRANCH   3   5
ATOM      5  C   UNL A   1      33.751  22.455  23.994  1.00  0.00     0.072 A 
ATOM      6  C   UNL A   1      33.448  20.191  24.692  1.00  0.00     0.098 A 
ATOM      7  C   UNL A   1      32.906  21.360  24.216  1.00  0.00     0.052 A 
ATOM      8  N   UNL A   1      34.754  20.105  25.018  1.00  0.00    -0.241 NA
ATOM      9  C   UNL A   1      35.557  21.175  24.878  1.00  0.00     0.072 A 
ATOM     10  C   UNL A   1      35.123  22.395  24.326  1.00  0.00     0.015 A 
ATOM     11  C   UNL A   1      36.867  21.067  25.327  1.00  0.00     0.029 A 
ATOM     12  C   UNL A   1      36.065  23.450  24.190  1.00  0.00     0.011 A 
ATOM     13  C   UNL A   1      37.780  22.118  25.215  1.00  0.00     0.002 A 
ATOM     14  C   UNL A   1      37.382  23.308  24.626  1.00  0.00     0.001 A 
BRANCH   6  15
ATOM     15  S   UNL A   1      32.527  18.715  25.027  1.00  0.00    -0.103 SA
BRANCH  15  16
ATOM     16  C   UNL A   1      32.756  17.560  23.604  1.00  0.00     0.052 C 
ATOM     17  C   UNL A   1      32.546  18.202  22.233  1.00  0.00     0.020 C 
BRANCH  16  18
ATOM     18  C   UNL A   1      33.956  16.597  23.668  1.00  0.00     0.043 C 
BRANCH  18  19
ATOM     19  C   UNL A   1      34.298  16.012  25.031  1.00  0.00     0.157 C 
BRANCH  19  20
ATOM     20  O   UNL A   1      35.453  15.189  25.001  1.00  0.00    -0.396 OA
ATOM     21  H   UNL A   1      35.488  14.650  25.806  1.00  0.00     0.210 HD
ENDBRANCH  19  20
ENDBRANCH  18  19
ENDBRANCH  16  18
ENDBRANCH  15  16
ENDBRANCH   6  15
ENDBRANCH   3   5
ENDBRANCH   2   3
ENDBRANCH   1   2
BRANCH   1  22
ATOM     22  C   UNL A   1      32.420  26.877  23.925  1.00  0.00     0.202 C 
BRANCH  22  23
ATOM     23  O   UNL A   1      32.629  27.605  25.136  1.00  0.00    -0.374 OA
BRANCH  23  24
ATOM     24  C   UNL A   1      31.706  28.654  25.433  1.00  0.00     0.202 C 
BRANCH  24  25
ATOM     25  C   UNL A   1      32.306  30.049  25.645  1.00  0.00     0.261 C 
BRANCH  25  26
ATOM     26  O   UNL A   1      32.518  30.345  27.036  1.00  0.00    -0.460 OA
BRANCH  26  27
ATOM     27  C   UNL A   1      33.258  31.452  27.273  1.00  0.00     0.338 C 
ATOM     28  O   UNL A   1      32.886  32.618  27.255  1.00  0.00    -0.246 OA
BRANCH  27  29
ATOM     29  C   UNL A   1      34.595  31.060  27.748  1.00  0.00     0.060 A 
ATOM     30  C   UNL A   1      34.822  29.699  27.990  1.00  0.00     0.016 A 
ATOM     31  C   UNL A   1      35.592  32.004  27.999  1.00  0.00     0.016 A 
ATOM     32  C   UNL A   1      36.036  29.281  28.527  1.00  0.00     0.010 A 
ATOM     33  C   UNL A   1      36.808  31.584  28.548  1.00  0.00     0.010 A 
ATOM     34  C   UNL A   1      37.022  30.225  28.842  1.00  0.00    -0.014 A 
BRANCH  34  35
ATOM     35  C   UNL A   1      38.219  29.802  29.606  1.00  0.00     0.031 A 
ATOM     36  C   UNL A   1      38.428  30.346  30.991  1.00  0.00     0.074 A 
ATOM     37  C   UNL A   1      39.092  28.926  29.082  1.00  0.00     0.049 A 
ATOM     38  N   UNL A   1      39.411  30.132  31.828  1.00  0.00    -0.248 NA
ATOM     39  C   UNL A   1      37.391  31.258  31.499  1.00  0.00     0.031 C 
ATOM     40  C   UNL A   1      38.974  28.306  27.763  1.00  0.00     0.029 A 
ATOM     41  N   UNL A   1      40.254  28.410  29.596  1.00  0.00    -0.354 N 
ATOM     42  C   UNL A   1      39.113  30.881  32.958  1.00  0.00     0.074 A 
ATOM     43  C   UNL A   1      37.874  31.581  32.689  1.00  0.00     0.031 C 
ATOM     44  C   UNL A   1      40.030  27.499  27.568  1.00  0.00     0.029 A 
ATOM     45  C   UNL A   1      40.909  27.568  28.733  1.00  0.00     0.049 A 
ATOM     46  H   UNL A   1      40.586  28.624  30.498  1.00  0.00     0.167 HD
ATOM     47  C   UNL A   1      39.805  30.969  34.119  1.00  0.00     0.037 A 
ATOM     48  C   UNL A   1      42.095  26.942  28.866  1.00  0.00     0.037 A 
ATOM     49  C   UNL A   1      41.035  30.272  34.382  1.00  0.00     0.049 A 
ATOM     50  C   UNL A   1      42.879  27.107  30.142  1.00  0.00     0.074 A 
ATOM     51  C   UNL A   1      41.801  30.276  35.535  1.00  0.00     0.029 A 
ATOM     52  N   UNL A   1      41.686  29.450  33.473  1.00  0.00    -0.354 N 
ATOM     53  N   UNL A   1      42.574  27.792  31.218  1.00  0.00    -0.248 NA
ATOM     54  C   UNL A   1      44.170  26.409  30.222  1.00  0.00     0.031 C 
ATOM     55  C   UNL A   1      42.941  29.497  35.305  1.00  0.00     0.029 A 
ATOM     56  C   UNL A   1      42.859  28.965  34.028  1.00  0.00     0.049 A 
ATOM     57  H   UNL A   1      41.362  29.244  32.567  1.00  0.00     0.167 HD
ATOM     58  C   UNL A   1      43.618  27.586  32.110  1.00  0.00     0.074 A 
ATOM     59  C   UNL A   1      44.560  26.702  31.455  1.00  0.00     0.031 C 
ATOM     60  C   UNL A   1      43.781  28.081  33.363  1.00  0.00     0.037 A 
BRANCH  47  61
ATOM     61  C   UNL A   1      39.256  31.874  35.183  1.00  0.00     0.064 A 
ATOM     62  C   UNL A   1      38.462  31.385  36.230  1.00  0.00     0.173 A 
ATOM     63  C   UNL A   1      39.552  33.246  35.168  1.00  0.00     0.173 A 
ATOM     64  F   UNL A   1      38.137  30.084  36.281  1.00  0.00    -0.203 F 
ATOM     65  C   UNL A   1      37.961  32.239  37.208  1.00  0.00     0.198 A 
ATOM     66  C   UNL A   1      39.074  34.092  36.164  1.00  0.00     0.198 A 
ATOM     67  F   UNL A   1      40.310  33.763  34.191  1.00  0.00    -0.203 F 
ATOM     68  F   UNL A   1      37.165  31.757  38.174  1.00  0.00    -0.200 F 
ATOM     69  C   UNL A   1      38.272  33.590  37.179  1.00  0.00     0.200 A 
ATOM     70  F   UNL A   1      39.384  35.395  36.140  1.00  0.00    -0.200 F 
ATOM     71  F   UNL A   1      37.794  34.411  38.124  1.00  0.00    -0.200 F 
ENDBRANCH  47  61
BRANCH  48  72
ATOM     72  C   UNL A   1      42.617  26.104  27.755  1.00  0.00     0.064 A 
ATOM     73  C   UNL A   1      43.525  26.623  26.823  1.00  0.00     0.173 A 
ATOM     74  C   UNL A   1      42.213  24.770  27.602  1.00  0.00     0.173 A 
ATOM     75  F   UNL A   1      43.922  27.901  26.914  1.00  0.00    -0.203 F 
ATOM     76  C   UNL A   1      43.998  25.843  25.769  1.00  0.00     0.198 A 
ATOM     77  C   UNL A   1      42.707  23.984  26.564  1.00  0.00     0.198 A 
ATOM     78  F   UNL A   1      41.344  24.227  28.468  1.00  0.00    -0.203 F 
ATOM     79  F   UNL A   1      44.833  26.376  24.867  1.00  0.00    -0.200 F 
ATOM     80  C   UNL A   1      43.593  24.523  25.645  1.00  0.00     0.200 A 
ATOM     81  F   UNL A   1      42.322  22.705  26.453  1.00  0.00    -0.200 F 
ATOM     82  F   UNL A   1      44.053  23.772  24.634  1.00  0.00    -0.200 F 
ENDBRANCH  48  72
BRANCH  60  83
ATOM     83  C   UNL A   1      45.006  27.654  34.119  1.00  0.00     0.064 A 
ATOM     84  C   UNL A   1      45.020  26.491  34.903  1.00  0.00     0.173 A 
ATOM     85  C   UNL A   1      46.193  28.395  34.021  1.00  0.00     0.173 A 
ATOM     86  F   UNL A   1      43.906  25.757  35.041  1.00  0.00    -0.203 F 
ATOM     87  C   UNL A   1      46.172  26.099  35.580  1.00  0.00     0.198 A 
ATOM     88  C   UNL A   1      47.351  27.984  34.675  1.00  0.00     0.198 A 
ATOM     89  F   UNL A   1      46.235  29.511  33.277  1.00  0.00    -0.203 F 
ATOM     90  F   UNL A   1      46.150  25.008  36.359  1.00  0.00    -0.200 F 
ATOM     91  C   UNL A   1      47.338  26.841  35.460  1.00  0.00     0.200 A 
ATOM     92  F   UNL A   1      48.481  28.694  34.547  1.00  0.00    -0.200 F 
ATOM     93  F   UNL A   1      48.448  26.456  36.105  1.00  0.00    -0.200 F 
ENDBRANCH  60  83
ENDBRANCH  34  35
ENDBRANCH  27  29
ENDBRANCH  26  27
ENDBRANCH  25  26
ENDBRANCH  24  25
ENDBRANCH  23  24
ENDBRANCH  22  23
ENDBRANCH   1  22
TORSDOF 19
ENDMDL
MODEL 3
REMARK VINA RESULT:     -11.2      4.575      7.969
REMARK SMILES C[C@@H](CCO)Sc1cc(C(=O)OCCOCCOC(=O)c2ccc(-c3c4nc(c(-c5c(F)c(F)c(F)c(F)c5F)c5ccc([nH]5)c(-c5c(F)c(F)c(F)c(F)c5F)c5nc(c(-c6c(F)c(F)c(F)c(F)c6F)c6ccc3[nH]6)C=C5)C=C4)cc2)c2ccccc2n1
REMARK SMILES IDX 13 1 12 2 10 3 11 4 9 5 7 6 8 7 90 8 89 9 84 10 88 11 85 12
REMARK SMILES IDX 87 13 86 14 6 15 2 16 1 17 3 18 4 19 5 20 14 22 15 23 16 24
REMARK SMILES IDX 17 25 18 26 19 27 20 28 21 29 22 30 83 31 23 32 82 33 24 34
REMARK SMILES IDX 25 35 26 36 76 37 27 38 81 39 75 40 77 41 28 42 80 43 74 44
REMARK SMILES IDX 73 45 29 47 61 48 41 49 60 50 42 51 45 52 59 53 78 54 43 55
REMARK SMILES IDX 44 56 58 58 79 59 46 60 30 61 31 62 39 63 32 64 33 65 37 66
REMARK SMILES IDX 40 67 34 68 35 69 38 70 36 71 62 72 63 73 71 74 64 75 65 76
REMARK SMILES IDX 69 77 72 78 66 79 67 80 70 81 68 82 47 83 48 84 56 85 49 86
REMARK SMILES IDX 50 87 54 88 57 89 51 90 52 91 55 92 53 93
REMARK H PARENT 5 21 77 46 45 57
REMARK Flexibility Score: inf
ROOT
ATOM      1  C   UNL A   1      36.671  23.214  25.806  1.00  0.00     0.261 C 
ENDROOT
BRANCH   1   2
ATOM      2  O   UNL A   1      36.194  24.004  24.703  1.00  0.00    -0.460 OA
BRANCH   2   3
ATOM      3  C   UNL A   1      35.768  23.305  23.627  1.00  0.00     0.338 C 
ATOM      4  O   UNL A   1      36.443  22.971  22.665  1.00  0.00    -0.246 OA
BRANCH   3   5
ATOM      5  C   UNL A   1      34.400  22.789  23.855  1.00  0.00     0.072 A 
ATOM      6  C   UNL A   1      33.127  20.895  24.562  1.00  0.00     0.098 A 
ATOM      7  C   UNL A   1      34.349  21.454  24.278  1.00  0.00     0.052 A 
ATOM      8  N   UNL A   1      31.980  21.580  24.369  1.00  0.00    -0.241 NA
ATOM      9  C   UNL A   1      32.017  22.837  23.891  1.00  0.00     0.072 A 
ATOM     10  C   UNL A   1      33.216  23.531  23.644  1.00  0.00     0.015 A 
ATOM     11  C   UNL A   1      30.807  23.460  23.610  1.00  0.00     0.029 A 
ATOM     12  C   UNL A   1      33.140  24.870  23.175  1.00  0.00     0.011 A 
ATOM     13  C   UNL A   1      30.741  24.767  23.123  1.00  0.00     0.002 A 
ATOM     14  C   UNL A   1      31.912  25.482  22.924  1.00  0.00     0.001 A 
BRANCH   6  15
ATOM     15  S   UNL A   1      32.882  19.227  25.106  1.00  0.00    -0.103 SA
BRANCH  15  16
ATOM     16  C   UNL A   1      34.029  18.138  24.153  1.00  0.00     0.052 C 
ATOM     17  C   UNL A   1      35.481  18.186  24.627  1.00  0.00     0.020 C 
BRANCH  16  18
ATOM     18  C   UNL A   1      33.529  16.723  23.808  1.00  0.00     0.043 C 
BRANCH  18  19
ATOM     19  C   UNL A   1      33.222  15.797  24.976  1.00  0.00     0.157 C 
BRANCH  19  20
ATOM     20  O   UNL A   1      34.327  14.983  25.336  1.00  0.00    -0.396 OA
ATOM     21  H   UNL A   1      34.627  14.483  24.561  1.00  0.00     0.210 HD
ENDBRANCH  19  20
ENDBRANCH  18  19
ENDBRANCH  16  18
ENDBRANCH  15  16
ENDBRANCH   6  15
ENDBRANCH   3   5
ENDBRANCH   2   3
ENDBRANCH   1   2
BRANCH   1  22
ATOM     22  C   UNL A   1      38.198  23.269  25.858  1.00  0.00     0.202 C 
BRANCH  22  23
ATOM     23  O   UNL A   1      38.845  22.017  26.090  1.00  0.00    -0.374 OA
BRANCH  23  24
ATOM     24  C   UNL A   1      38.354  20.886  25.369  1.00  0.00     0.202 C 
BRANCH  24  25
ATOM     25  C   UNL A   1      39.188  19.603  25.464  1.00  0.00     0.261 C 
BRANCH  25  26
ATOM     26  O   UNL A   1      40.087  19.620  26.585  1.00  0.00    -0.460 OA
BRANCH  26  27
ATOM     27  C   UNL A   1      41.399  19.559  26.261  1.00  0.00     0.338 C 
ATOM     28  O   UNL A   1      42.001  18.624  25.751  1.00  0.00    -0.246 OA
BRANCH  27  29
ATOM     29  C   UNL A   1      42.016  20.883  26.449  1.00  0.00     0.060 A 
ATOM     30  C   UNL A   1      42.327  21.271  27.758  1.00  0.00     0.016 A 
ATOM     31  C   UNL A   1      42.240  21.749  25.376  1.00  0.00     0.016 A 
ATOM     32  C   UNL A   1      42.825  22.548  28.005  1.00  0.00     0.010 A 
ATOM     33  C   UNL A   1      42.731  23.034  25.628  1.00  0.00     0.010 A 
ATOM     34  C   UNL A   1      42.996  23.448  26.946  1.00  0.00    -0.014 A 
BRANCH  34  35
ATOM     35  C   UNL A   1      43.321  24.863  27.237  1.00  0.00     0.031 A 
ATOM     36  C   UNL A   1      44.704  25.369  26.942  1.00  0.00     0.074 A 
ATOM     37  C   UNL A   1      42.386  25.692  27.732  1.00  0.00     0.049 A 
ATOM     38  N   UNL A   1      45.214  26.558  27.137  1.00  0.00    -0.248 NA
ATOM     39  C   UNL A   1      45.642  24.401  26.352  1.00  0.00     0.031 C 
ATOM     40  C   UNL A   1      41.002  25.324  28.024  1.00  0.00     0.029 A 
ATOM     41  N   UNL A   1      42.465  27.017  28.081  1.00  0.00    -0.354 N 
ATOM     42  C   UNL A   1      46.528  26.481  26.696  1.00  0.00     0.074 A 
ATOM     43  C   UNL A   1      46.749  25.121  26.253  1.00  0.00     0.031 C 
ATOM     44  C   UNL A   1      40.363  26.397  28.519  1.00  0.00     0.029 A 
ATOM     45  C   UNL A   1      41.299  27.516  28.604  1.00  0.00     0.049 A 
ATOM     46  H   UNL A   1      43.281  27.557  27.966  1.00  0.00     0.167 HD
ATOM     47  C   UNL A   1      47.463  27.461  26.655  1.00  0.00     0.037 A 
ATOM     48  C   UNL A   1      41.028  28.734  29.111  1.00  0.00     0.037 A 
ATOM     49  C   UNL A   1      47.240  28.812  27.096  1.00  0.00     0.049 A 
ATOM     50  C   UNL A   1      42.105  29.789  29.115  1.00  0.00     0.074 A 
ATOM     51  C   UNL A   1      48.114  29.884  27.075  1.00  0.00     0.029 A 
ATOM     52  N   UNL A   1      46.053  29.275  27.649  1.00  0.00    -0.354 N 
ATOM     53  N   UNL A   1      43.335  29.718  28.667  1.00  0.00    -0.248 NA
ATOM     54  C   UNL A   1      41.752  31.094  29.692  1.00  0.00     0.031 C 
ATOM     55  C   UNL A   1      47.475  30.982  27.660  1.00  0.00     0.029 A 
ATOM     56  C   UNL A   1      46.184  30.609  27.999  1.00  0.00     0.049 A 
ATOM     57  H   UNL A   1      45.241  28.734  27.775  1.00  0.00     0.167 HD
ATOM     58  C   UNL A   1      43.893  30.971  28.882  1.00  0.00     0.074 A 
ATOM     59  C   UNL A   1      42.864  31.788  29.490  1.00  0.00     0.031 C 
ATOM     60  C   UNL A   1      45.146  31.408  28.598  1.00  0.00     0.037 A 
BRANCH  47  61
ATOM     61  C   UNL A   1      48.823  27.096  26.137  1.00  0.00     0.064 A 
ATOM     62  C   UNL A   1      49.138  27.173  24.773  1.00  0.00     0.173 A 
ATOM     63  C   UNL A   1      49.832  26.688  27.022  1.00  0.00     0.173 A 
ATOM     64  F   UNL A   1      48.204  27.543  23.883  1.00  0.00    -0.203 F 
ATOM     65  C   UNL A   1      50.406  26.830  24.310  1.00  0.00     0.198 A 
ATOM     66  C   UNL A   1      51.107  26.373  26.560  1.00  0.00     0.198 A 
ATOM     67  F   UNL A   1      49.584  26.600  28.337  1.00  0.00    -0.203 F 
ATOM     68  F   UNL A   1      50.671  26.867  22.996  1.00  0.00    -0.200 F 
ATOM     69  C   UNL A   1      51.391  26.437  25.204  1.00  0.00     0.200 A 
ATOM     70  F   UNL A   1      52.060  26.003  27.426  1.00  0.00    -0.200 F 
ATOM     71  F   UNL A   1      52.612  26.112  24.758  1.00  0.00    -0.200 F 
ENDBRANCH  47  61
BRANCH  48  72
ATOM     72  C   UNL A   1      39.680  29.022  29.664  1.00  0.00     0.064 A 
ATOM     73  C   UNL A   1      39.396  28.819  31.021  1.00  0.00     0.173 A 
ATOM     74  C   UNL A   1      38.647  29.500  28.845  1.00  0.00     0.173 A 
ATOM     75  F   UNL A   1      40.344  28.340  31.839  1.00  0.00    -0.203 F 
ATOM     76  C   UNL A   1      38.125  29.069  31.535  1.00  0.00     0.198 A 
ATOM     77  C   UNL A   1      37.385  29.775  29.365  1.00  0.00     0.198 A 
ATOM     78  F   UNL A   1      38.868  29.710  27.538  1.00  0.00    -0.203 F 
ATOM     79  F   UNL A   1      37.868  28.827  32.828  1.00  0.00    -0.200 F 
ATOM     80  C   UNL A   1      37.122  29.553  30.708  1.00  0.00     0.200 A 
ATOM     81  F   UNL A   1      36.422  30.253  28.565  1.00  0.00    -0.200 F 
ATOM     82  F   UNL A   1      35.902  29.797  31.204  1.00  0.00    -0.200 F 
ENDBRANCH  48  72
BRANCH  60  83
ATOM     83  C   UNL A   1      45.464  32.842  28.911  1.00  0.00     0.064 A 
ATOM     84  C   UNL A   1      46.049  33.217  30.129  1.00  0.00     0.173 A 
ATOM     85  C   UNL A   1      45.220  33.845  27.961  1.00  0.00     0.173 A 
ATOM     86  F   UNL A   1      46.288  32.298  31.075  1.00  0.00    -0.203 F 
ATOM     87  C   UNL A   1      46.357  34.550  30.393  1.00  0.00     0.198 A 
ATOM     88  C   UNL A   1      45.556  35.172  28.217  1.00  0.00     0.198 A 
ATOM     89  F   UNL A   1      44.669  33.537  26.777  1.00  0.00    -0.203 F 
ATOM     90  F   UNL A   1      46.875  34.892  31.581  1.00  0.00    -0.200 F 
ATOM     91  C   UNL A   1      46.117  35.524  29.435  1.00  0.00     0.200 A 
ATOM     92  F   UNL A   1      45.337  36.110  27.285  1.00  0.00    -0.200 F 
ATOM     93  F   UNL A   1      46.422  36.804  29.689  1.00  0.00    -0.200 F 
ENDBRANCH  60  83
ENDBRANCH  34  35
ENDBRANCH  27  29
ENDBRANCH  26  27
ENDBRANCH  25  26
ENDBRANCH  24  25
ENDBRANCH  23  24
ENDBRANCH  22  23
ENDBRANCH   1  22
TORSDOF 19
ENDMDL
