MODEL 1
REMARK VINA RESULT:     -11.8      0.000      0.000
REMARK SMILES Cc1n[nH]c(C[N@H+]2CCC[C@H](c3cccc(C(=O)OCCOCCOC(=O)c4ccc(-c5c6nc(c(-c7c(F)c(F)c(F)c(F)c7F)c7ccc([nH]7)c(-c7c(F)c(F)c(F)c(F)c7F)c7nc(c(-c8c(F)c(F)c(F)c(F)c8F)c8ccc5[nH]8)C=C7)C=C6)cc4)c3)C2)n1
REMARK SMILES IDX 21 1 20 2 19 3 17 4 18 5 16 6 12 7 13 8 91 9 14 10 15 11
REMARK SMILES IDX 11 12 7 13 8 14 92 15 9 17 10 18 6 19 5 20 1 21 2 22 3 23
REMARK SMILES IDX 93 24 4 25 22 27 23 28 24 29 25 30 26 31 27 32 28 33 29 34
REMARK SMILES IDX 90 35 30 36 89 37 31 38 32 39 33 40 83 41 34 42 88 43 82 44
REMARK SMILES IDX 84 45 35 46 87 47 81 48 80 49 36 51 68 52 48 53 67 54 49 55
REMARK SMILES IDX 52 56 66 57 85 58 50 59 51 60 65 62 86 63 53 64 37 65 38 66
REMARK SMILES IDX 46 67 39 68 40 69 44 70 47 71 41 72 42 73 45 74 43 75 69 76
REMARK SMILES IDX 70 77 78 78 71 79 72 80 76 81 79 82 73 83 74 84 77 85 75 86
REMARK SMILES IDX 54 87 55 88 63 89 56 90 57 91 61 92 64 93 58 94 59 95 62 96
REMARK SMILES IDX 60 97
REMARK H PARENT 7 16 4 26 84 50 52 61
REMARK Flexibility Score: inf
ROOT
ATOM      1  C   UNL A   1      36.036  20.268  25.015  1.00  0.00     0.202 C 
ENDROOT
BRANCH   1   2
ATOM      2  C   UNL A   1      34.530  20.003  24.953  1.00  0.00     0.261 C 
BRANCH   2   3
ATOM      3  O   UNL A   1      33.814  20.732  25.961  1.00  0.00    -0.460 OA
BRANCH   3   4
ATOM      4  C   UNL A   1      32.754  21.444  25.500  1.00  0.00     0.338 C 
ATOM      5  O   UNL A   1      31.586  21.095  25.484  1.00  0.00    -0.246 OA
BRANCH   4   6
ATOM      6  C   UNL A   1      33.180  22.827  25.196  1.00  0.00     0.060 A 
ATOM      7  C   UNL A   1      33.010  24.892  23.913  1.00  0.00    -0.038 A 
ATOM      8  C   UNL A   1      34.026  25.426  24.729  1.00  0.00     0.004 A 
ATOM      9  C   UNL A   1      32.637  23.553  24.129  1.00  0.00     0.020 A 
ATOM     10  C   UNL A   1      34.600  24.687  25.764  1.00  0.00     0.001 A 
ATOM     11  C   UNL A   1      34.161  23.395  26.013  1.00  0.00     0.016 A 
BRANCH   7  12
ATOM     12  C   UNL A   1      32.325  25.719  22.821  1.00  0.00     0.074 C 
ATOM     13  N   UNL A   1      31.895  27.823  24.121  1.00  0.00    -0.328 N 
ATOM     14  C   UNL A   1      30.444  27.603  24.107  1.00  0.00     0.262 C 
ATOM     15  C   UNL A   1      32.539  27.252  22.919  1.00  0.00     0.270 C 
ATOM     16  H   UNL A   1      32.258  27.319  24.930  1.00  0.00     0.348 HD
ATOM     17  C   UNL A   1      30.096  26.120  23.957  1.00  0.00     0.062 C 
ATOM     18  C   UNL A   1      30.796  25.501  22.747  1.00  0.00     0.020 C 
BRANCH  13  19
ATOM     19  C   UNL A   1      32.260  29.236  24.336  1.00  0.00     0.340 C 
BRANCH  19  20
ATOM     20  C   UNL A   1      32.913  29.507  25.649  1.00  0.00     0.179 A 
ATOM     21  C   UNL A   1      35.541  29.596  27.986  1.00  0.00     0.092 C 
ATOM     22  C   UNL A   1      34.276  29.725  27.240  1.00  0.00     0.147 A 
ATOM     23  N   UNL A   1      33.335  30.630  27.536  1.00  0.00    -0.159 NA
ATOM     24  N   UNL A   1      34.026  28.985  26.119  1.00  0.00    -0.211 NA
ATOM     25  N   UNL A   1      32.466  30.453  26.526  1.00  0.00    -0.258 N 
ATOM     26  H   UNL A   1      31.617  30.943  26.432  1.00  0.00     0.192 HD
ENDBRANCH  19  20
ENDBRANCH  13  19
ENDBRANCH   7  12
ENDBRANCH   4   6
ENDBRANCH   3   4
ENDBRANCH   2   3
ENDBRANCH   1   2
BRANCH   1  27
ATOM     27  O   UNL A   1      36.579  21.288  24.175  1.00  0.00    -0.374 OA
BRANCH  27  28
ATOM     28  C   UNL A   1      37.455  22.266  24.723  1.00  0.00     0.202 C 
BRANCH  28  29
ATOM     29  C   UNL A   1      38.419  21.838  25.819  1.00  0.00     0.261 C 
BRANCH  29  30
ATOM     30  O   UNL A   1      38.829  22.932  26.624  1.00  0.00    -0.460 OA
BRANCH  30  31
ATOM     31  C   UNL A   1      40.109  22.843  27.055  1.00  0.00     0.338 C 
ATOM     32  O   UNL A   1      40.675  21.866  27.504  1.00  0.00    -0.246 OA
BRANCH  31  33
ATOM     33  C   UNL A   1      40.682  24.193  27.061  1.00  0.00     0.060 A 
ATOM     34  C   UNL A   1      41.691  24.415  27.999  1.00  0.00     0.016 A 
ATOM     35  C   UNL A   1      39.996  25.244  26.432  1.00  0.00     0.016 A 
ATOM     36  C   UNL A   1      41.822  25.682  28.509  1.00  0.00     0.010 A 
ATOM     37  C   UNL A   1      40.117  26.506  26.953  1.00  0.00     0.010 A 
ATOM     38  C   UNL A   1      40.954  26.678  28.051  1.00  0.00    -0.014 A 
BRANCH  38  39
ATOM     39  C   UNL A   1      40.986  27.953  28.720  1.00  0.00     0.031 A 
ATOM     40  C   UNL A   1      42.126  28.787  28.299  1.00  0.00     0.074 A 
ATOM     41  C   UNL A   1      40.038  28.339  29.591  1.00  0.00     0.049 A 
ATOM     42  N   UNL A   1      43.163  29.086  29.004  1.00  0.00    -0.248 NA
ATOM     43  C   UNL A   1      42.219  29.167  26.883  1.00  0.00     0.031 C 
ATOM     44  C   UNL A   1      38.760  27.701  29.910  1.00  0.00     0.029 A 
ATOM     45  N   UNL A   1      40.007  29.473  30.334  1.00  0.00    -0.354 N 
ATOM     46  C   UNL A   1      43.970  29.846  28.172  1.00  0.00     0.074 A 
ATOM     47  C   UNL A   1      43.434  29.716  26.842  1.00  0.00     0.031 C 
ATOM     48  C   UNL A   1      37.990  28.575  30.601  1.00  0.00     0.029 A 
ATOM     49  C   UNL A   1      38.767  29.772  30.876  1.00  0.00     0.049 A 
ATOM     50  H   UNL A   1      40.800  30.038  30.477  1.00  0.00     0.167 HD
ATOM     51  C   UNL A   1      44.878  30.715  28.689  1.00  0.00     0.037 A 
ATOM     52  C   UNL A   1      38.417  30.963  31.425  1.00  0.00     0.037 A 
ATOM     53  C   UNL A   1      45.129  30.447  30.081  1.00  0.00     0.049 A 
ATOM     54  C   UNL A   1      39.677  31.658  31.809  1.00  0.00     0.074 A 
ATOM     55  C   UNL A   1      45.651  29.371  30.774  1.00  0.00     0.029 A 
ATOM     56  N   UNL A   1      44.462  31.207  31.011  1.00  0.00    -0.354 N 
ATOM     57  N   UNL A   1      40.453  31.247  32.775  1.00  0.00    -0.248 NA
ATOM     58  C   UNL A   1      40.324  32.503  30.811  1.00  0.00     0.031 C 
ATOM     59  C   UNL A   1      44.879  29.291  31.970  1.00  0.00     0.029 A 
ATOM     60  C   UNL A   1      43.979  30.355  31.972  1.00  0.00     0.049 A 
ATOM     61  H   UNL A   1      44.351  32.185  30.991  1.00  0.00     0.167 HD
ATOM     62  C   UNL A   1      41.743  31.403  32.285  1.00  0.00     0.074 A 
ATOM     63  C   UNL A   1      41.605  32.256  31.107  1.00  0.00     0.031 C 
ATOM     64  C   UNL A   1      42.754  30.586  32.701  1.00  0.00     0.037 A 
BRANCH  51  65
ATOM     65  C   UNL A   1      45.242  32.019  28.043  1.00  0.00     0.064 A 
ATOM     66  C   UNL A   1      44.236  32.976  27.818  1.00  0.00     0.173 A 
ATOM     67  C   UNL A   1      46.465  32.238  27.372  1.00  0.00     0.173 A 
ATOM     68  F   UNL A   1      43.030  32.845  28.390  1.00  0.00    -0.203 F 
ATOM     69  C   UNL A   1      44.421  34.036  26.928  1.00  0.00     0.198 A 
ATOM     70  C   UNL A   1      46.665  33.328  26.531  1.00  0.00     0.198 A 
ATOM     71  F   UNL A   1      47.467  31.352  27.408  1.00  0.00    -0.203 F 
ATOM     72  F   UNL A   1      43.398  34.851  26.645  1.00  0.00    -0.200 F 
ATOM     73  C   UNL A   1      45.633  34.208  26.282  1.00  0.00     0.200 A 
ATOM     74  F   UNL A   1      47.839  33.464  25.899  1.00  0.00    -0.200 F 
ATOM     75  F   UNL A   1      45.792  35.186  25.383  1.00  0.00    -0.200 F 
ENDBRANCH  51  65
BRANCH  52  76
ATOM     76  C   UNL A   1      37.113  31.662  31.320  1.00  0.00     0.064 A 
ATOM     77  C   UNL A   1      36.332  31.919  32.460  1.00  0.00     0.173 A 
ATOM     78  C   UNL A   1      36.731  32.334  30.142  1.00  0.00     0.173 A 
ATOM     79  F   UNL A   1      36.651  31.359  33.636  1.00  0.00    -0.203 F 
ATOM     80  C   UNL A   1      35.252  32.810  32.426  1.00  0.00     0.198 A 
ATOM     81  C   UNL A   1      35.650  33.216  30.108  1.00  0.00     0.198 A 
ATOM     82  F   UNL A   1      37.454  32.226  29.019  1.00  0.00    -0.203 F 
ATOM     83  F   UNL A   1      34.570  33.076  33.549  1.00  0.00    -0.200 F 
ATOM     84  C   UNL A   1      34.919  33.465  31.252  1.00  0.00     0.200 A 
ATOM     85  F   UNL A   1      35.363  33.872  28.974  1.00  0.00    -0.200 F 
ATOM     86  F   UNL A   1      33.924  34.364  31.234  1.00  0.00    -0.200 F 
ENDBRANCH  52  76
BRANCH  64  87
ATOM     87  C   UNL A   1      42.485  29.684  33.871  1.00  0.00     0.064 A 
ATOM     88  C   UNL A   1      41.878  28.420  33.763  1.00  0.00     0.173 A 
ATOM     89  C   UNL A   1      42.995  30.048  35.123  1.00  0.00     0.173 A 
ATOM     90  F   UNL A   1      41.463  27.953  32.579  1.00  0.00    -0.203 F 
ATOM     91  C   UNL A   1      41.746  27.583  34.870  1.00  0.00     0.198 A 
ATOM     92  C   UNL A   1      42.896  29.196  36.219  1.00  0.00     0.198 A 
ATOM     93  F   UNL A   1      43.638  31.216  35.271  1.00  0.00    -0.203 F 
ATOM     94  F   UNL A   1      41.152  26.387  34.743  1.00  0.00    -0.200 F 
ATOM     95  C   UNL A   1      42.261  27.970  36.095  1.00  0.00     0.200 A 
ATOM     96  F   UNL A   1      43.441  29.552  37.389  1.00  0.00    -0.200 F 
ATOM     97  F   UNL A   1      42.173  27.150  37.152  1.00  0.00    -0.200 F 
ENDBRANCH  64  87
ENDBRANCH  38  39
ENDBRANCH  31  33
ENDBRANCH  30  31
ENDBRANCH  29  30
ENDBRANCH  28  29
ENDBRANCH  27  28
ENDBRANCH   1  27
TORSDOF 17
ENDMDL
MODEL 2
REMARK VINA RESULT:     -11.8      3.005      4.706
REMARK SMILES Cc1n[nH]c(C[N@H+]2CCC[C@H](c3cccc(C(=O)OCCOCCOC(=O)c4ccc(-c5c6nc(c(-c7c(F)c(F)c(F)c(F)c7F)c7ccc([nH]7)c(-c7c(F)c(F)c(F)c(F)c7F)c7nc(c(-c8c(F)c(F)c(F)c(F)c8F)c8ccc5[nH]8)C=C7)C=C6)cc4)c3)C2)n1
REMARK SMILES IDX 21 1 20 2 19 3 17 4 18 5 16 6 12 7 13 8 91 9 14 10 15 11
REMARK SMILES IDX 11 12 7 13 8 14 92 15 9 17 10 18 6 19 5 20 1 21 2 22 3 23
REMARK SMILES IDX 93 24 4 25 22 27 23 28 24 29 25 30 26 31 27 32 28 33 29 34
REMARK SMILES IDX 90 35 30 36 89 37 31 38 32 39 33 40 83 41 34 42 88 43 82 44
REMARK SMILES IDX 84 45 35 46 87 47 81 48 80 49 36 51 68 52 48 53 67 54 49 55
REMARK SMILES IDX 52 56 66 57 85 58 50 59 51 60 65 62 86 63 53 64 37 65 38 66
REMARK SMILES IDX 46 67 39 68 40 69 44 70 47 71 41 72 42 73 45 74 43 75 69 76
REMARK SMILES IDX 70 77 78 78 71 79 72 80 76 81 79 82 73 83 74 84 77 85 75 86
REMARK SMILES IDX 54 87 55 88 63 89 56 90 57 91 61 92 64 93 58 94 59 95 62 96
REMARK SMILES IDX 60 97
REMARK H PARENT 7 16 4 26 84 50 52 61
REMARK Flexibility Score: inf
ROOT
ATOM      1  C   UNL A   1      39.531  21.893  26.338  1.00  0.00     0.202 C 
ENDROOT
BRANCH   1   2
ATOM      2  C   UNL A   1      38.303  21.414  25.560  1.00  0.00     0.261 C 
BRANCH   2   3
ATOM      3  O   UNL A   1      37.742  22.455  24.746  1.00  0.00    -0.460 OA
BRANCH   3   4
ATOM      4  C   UNL A   1      37.165  23.468  25.443  1.00  0.00     0.338 C 
ATOM      5  O   UNL A   1      37.686  24.157  26.303  1.00  0.00    -0.246 OA
BRANCH   4   6
ATOM      6  C   UNL A   1      35.840  23.778  24.863  1.00  0.00     0.060 A 
ATOM      7  C   UNL A   1      33.742  25.017  24.845  1.00  0.00    -0.038 A 
ATOM      8  C   UNL A   1      33.390  24.311  23.679  1.00  0.00     0.004 A 
ATOM      9  C   UNL A   1      34.963  24.689  25.462  1.00  0.00     0.020 A 
ATOM     10  C   UNL A   1      34.246  23.369  23.106  1.00  0.00     0.001 A 
ATOM     11  C   UNL A   1      35.481  23.118  23.685  1.00  0.00     0.016 A 
BRANCH   7  12
ATOM     12  C   UNL A   1      32.842  26.102  25.442  1.00  0.00     0.074 C 
ATOM     13  N   UNL A   1      32.082  27.204  23.317  1.00  0.00    -0.328 N 
ATOM     14  C   UNL A   1      32.836  28.428  23.615  1.00  0.00     0.262 C 
ATOM     15  C   UNL A   1      31.641  26.527  24.556  1.00  0.00     0.270 C 
ATOM     16  H   UNL A   1      32.726  26.575  22.838  1.00  0.00     0.348 HD
ATOM     17  C   UNL A   1      34.027  28.151  24.536  1.00  0.00     0.062 C 
ATOM     18  C   UNL A   1      33.596  27.405  25.799  1.00  0.00     0.020 C 
BRANCH  13  19
ATOM     19  C   UNL A   1      30.971  27.429  22.374  1.00  0.00     0.340 C 
BRANCH  19  20
ATOM     20  C   UNL A   1      29.966  28.428  22.836  1.00  0.00     0.179 A 
ATOM     21  C   UNL A   1      28.706  31.630  23.572  1.00  0.00     0.092 C 
ATOM     22  C   UNL A   1      28.926  30.192  23.331  1.00  0.00     0.147 A 
ATOM     23  N   UNL A   1      27.934  29.324  23.097  1.00  0.00    -0.159 NA
ATOM     24  N   UNL A   1      30.183  29.666  23.230  1.00  0.00    -0.211 NA
ATOM     25  N   UNL A   1      28.620  28.203  22.813  1.00  0.00    -0.258 N 
ATOM     26  H   UNL A   1      28.204  27.334  22.612  1.00  0.00     0.192 HD
ENDBRANCH  19  20
ENDBRANCH  13  19
ENDBRANCH   7  12
ENDBRANCH   4   6
ENDBRANCH   3   4
ENDBRANCH   2   3
ENDBRANCH   1   2
BRANCH   1  27
ATOM     27  O   UNL A   1      40.801  21.321  26.017  1.00  0.00    -0.374 OA
BRANCH  27  28
ATOM     28  C   UNL A   1      41.269  20.186  26.735  1.00  0.00     0.202 C 
BRANCH  28  29
ATOM     29  C   UNL A   1      42.621  19.599  26.357  1.00  0.00     0.261 C 
BRANCH  29  30
ATOM     30  O   UNL A   1      42.954  19.862  25.003  1.00  0.00    -0.460 OA
BRANCH  30  31
ATOM     31  C   UNL A   1      44.279  20.039  24.791  1.00  0.00     0.338 C 
ATOM     32  O   UNL A   1      45.131  19.182  24.662  1.00  0.00    -0.246 OA
BRANCH  31  33
ATOM     33  C   UNL A   1      44.572  21.471  24.914  1.00  0.00     0.060 A 
ATOM     34  C   UNL A   1      45.530  21.808  25.872  1.00  0.00     0.016 A 
ATOM     35  C   UNL A   1      43.683  22.413  24.375  1.00  0.00     0.016 A 
ATOM     36  C   UNL A   1      45.413  23.028  26.490  1.00  0.00     0.010 A 
ATOM     37  C   UNL A   1      43.558  23.625  25.004  1.00  0.00     0.010 A 
ATOM     38  C   UNL A   1      44.358  23.867  26.115  1.00  0.00    -0.014 A 
BRANCH  38  39
ATOM     39  C   UNL A   1      44.146  25.061  26.892  1.00  0.00     0.031 A 
ATOM     40  C   UNL A   1      45.217  26.056  26.707  1.00  0.00     0.074 A 
ATOM     41  C   UNL A   1      43.055  25.246  27.654  1.00  0.00     0.049 A 
ATOM     42  N   UNL A   1      46.111  26.396  27.572  1.00  0.00    -0.248 NA
ATOM     43  C   UNL A   1      45.440  26.589  25.357  1.00  0.00     0.031 C 
ATOM     44  C   UNL A   1      41.836  24.439  27.736  1.00  0.00     0.029 A 
ATOM     45  N   UNL A   1      42.788  26.286  28.482  1.00  0.00    -0.354 N 
ATOM     46  C   UNL A   1      46.915  27.324  26.930  1.00  0.00     0.074 A 
ATOM     47  C   UNL A   1      46.572  27.272  25.532  1.00  0.00     0.031 C 
ATOM     48  C   UNL A   1      40.881  25.144  28.388  1.00  0.00     0.029 A 
ATOM     49  C   UNL A   1      41.461  26.386  28.872  1.00  0.00     0.049 A 
ATOM     50  H   UNL A   1      43.479  26.919  28.783  1.00  0.00     0.167 HD
ATOM     51  C   UNL A   1      47.634  28.231  27.641  1.00  0.00     0.037 A 
ATOM     52  C   UNL A   1      40.898  27.467  29.469  1.00  0.00     0.037 A 
ATOM     53  C   UNL A   1      47.738  27.849  29.026  1.00  0.00     0.049 A 
ATOM     54  C   UNL A   1      42.003  28.255  30.083  1.00  0.00     0.074 A 
ATOM     55  C   UNL A   1      48.299  26.773  29.686  1.00  0.00     0.029 A 
ATOM     56  N   UNL A   1      46.869  28.429  29.918  1.00  0.00    -0.354 N 
ATOM     57  N   UNL A   1      42.696  27.837  31.108  1.00  0.00    -0.248 NA
ATOM     58  C   UNL A   1      42.660  29.266  29.262  1.00  0.00     0.031 C 
ATOM     59  C   UNL A   1      47.398  26.484  30.753  1.00  0.00     0.029 A 
ATOM     60  C   UNL A   1      46.378  27.434  30.724  1.00  0.00     0.049 A 
ATOM     61  H   UNL A   1      46.640  29.386  29.968  1.00  0.00     0.167 HD
ATOM     62  C   UNL A   1      44.007  28.186  30.816  1.00  0.00     0.074 A 
ATOM     63  C   UNL A   1      43.914  29.136  29.709  1.00  0.00     0.031 C 
ATOM     64  C   UNL A   1      45.052  27.449  31.294  1.00  0.00     0.037 A 
BRANCH  51  65
ATOM     65  C   UNL A   1      47.911  29.627  27.168  1.00  0.00     0.064 A 
ATOM     66  C   UNL A   1      49.222  30.128  27.245  1.00  0.00     0.173 A 
ATOM     67  C   UNL A   1      46.898  30.581  26.928  1.00  0.00     0.173 A 
ATOM     68  F   UNL A   1      50.253  29.307  27.495  1.00  0.00    -0.203 F 
ATOM     69  C   UNL A   1      49.488  31.497  27.161  1.00  0.00     0.198 A 
ATOM     70  C   UNL A   1      47.174  31.937  26.784  1.00  0.00     0.198 A 
ATOM     71  F   UNL A   1      45.598  30.260  26.939  1.00  0.00    -0.203 F 
ATOM     72  F   UNL A   1      50.733  31.945  27.366  1.00  0.00    -0.200 F 
ATOM     73  C   UNL A   1      48.464  32.399  26.935  1.00  0.00     0.200 A 
ATOM     74  F   UNL A   1      46.164  32.796  26.588  1.00  0.00    -0.200 F 
ATOM     75  F   UNL A   1      48.708  33.715  26.914  1.00  0.00    -0.200 F 
ENDBRANCH  51  65
BRANCH  52  76
ATOM     76  C   UNL A   1      39.541  28.022  29.247  1.00  0.00     0.064 A 
ATOM     77  C   UNL A   1      38.632  28.167  30.309  1.00  0.00     0.173 A 
ATOM     78  C   UNL A   1      39.201  28.675  28.045  1.00  0.00     0.173 A 
ATOM     79  F   UNL A   1      38.898  27.619  31.503  1.00  0.00    -0.203 F 
ATOM     80  C   UNL A   1      37.469  28.936  30.181  1.00  0.00     0.198 A 
ATOM     81  C   UNL A   1      38.037  29.435  27.918  1.00  0.00     0.198 A 
ATOM     82  F   UNL A   1      40.035  28.671  26.996  1.00  0.00    -0.203 F 
ATOM     83  F   UNL A   1      36.657  29.101  31.236  1.00  0.00    -0.200 F 
ATOM     84  C   UNL A   1      37.178  29.577  28.989  1.00  0.00     0.200 A 
ATOM     85  F   UNL A   1      37.789  30.081  26.769  1.00  0.00    -0.200 F 
ATOM     86  F   UNL A   1      36.096  30.363  28.885  1.00  0.00    -0.200 F 
ENDBRANCH  52  76
BRANCH  64  87
ATOM     87  C   UNL A   1      44.752  26.406  32.332  1.00  0.00     0.064 A 
ATOM     88  C   UNL A   1      44.582  26.688  33.700  1.00  0.00     0.173 A 
ATOM     89  C   UNL A   1      44.479  25.101  31.905  1.00  0.00     0.173 A 
ATOM     90  F   UNL A   1      44.718  27.933  34.169  1.00  0.00    -0.203 F 
ATOM     91  C   UNL A   1      44.204  25.694  34.601  1.00  0.00     0.198 A 
ATOM     92  C   UNL A   1      44.065  24.120  32.801  1.00  0.00     0.198 A 
ATOM     93  F   UNL A   1      44.565  24.790  30.602  1.00  0.00    -0.203 F 
ATOM     94  F   UNL A   1      44.061  25.985  35.903  1.00  0.00    -0.200 F 
ATOM     95  C   UNL A   1      43.939  24.413  34.149  1.00  0.00     0.200 A 
ATOM     96  F   UNL A   1      43.760  22.895  32.351  1.00  0.00    -0.200 F 
ATOM     97  F   UNL A   1      43.536  23.466  35.008  1.00  0.00    -0.200 F 
ENDBRANCH  64  87
ENDBRANCH  38  39
ENDBRANCH  31  33
ENDBRANCH  30  31
ENDBRANCH  29  30
ENDBRANCH  28  29
ENDBRANCH  27  28
ENDBRANCH   1  27
TORSDOF 17
ENDMDL
MODEL 3
REMARK VINA RESULT:     -11.7      2.616      3.931
REMARK SMILES Cc1n[nH]c(C[N@H+]2CCC[C@H](c3cccc(C(=O)OCCOCCOC(=O)c4ccc(-c5c6nc(c(-c7c(F)c(F)c(F)c(F)c7F)c7ccc([nH]7)c(-c7c(F)c(F)c(F)c(F)c7F)c7nc(c(-c8c(F)c(F)c(F)c(F)c8F)c8ccc5[nH]8)C=C7)C=C6)cc4)c3)C2)n1
REMARK SMILES IDX 21 1 20 2 19 3 17 4 18 5 16 6 12 7 13 8 91 9 14 10 15 11
REMARK SMILES IDX 11 12 7 13 8 14 92 15 9 17 10 18 6 19 5 20 1 21 2 22 3 23
REMARK SMILES IDX 93 24 4 25 22 27 23 28 24 29 25 30 26 31 27 32 28 33 29 34
REMARK SMILES IDX 90 35 30 36 89 37 31 38 32 39 33 40 83 41 34 42 88 43 82 44
REMARK SMILES IDX 84 45 35 46 87 47 81 48 80 49 36 51 68 52 48 53 67 54 49 55
REMARK SMILES IDX 52 56 66 57 85 58 50 59 51 60 65 62 86 63 53 64 37 65 38 66
REMARK SMILES IDX 46 67 39 68 40 69 44 70 47 71 41 72 42 73 45 74 43 75 69 76
REMARK SMILES IDX 70 77 78 78 71 79 72 80 76 81 79 82 73 83 74 84 77 85 75 86
REMARK SMILES IDX 54 87 55 88 63 89 56 90 57 91 61 92 64 93 58 94 59 95 62 96
REMARK SMILES IDX 60 97
REMARK H PARENT 7 16 4 26 84 50 52 61
REMARK Flexibility Score: inf
ROOT
ATOM      1  C   UNL A   1      39.760  22.105  26.431  1.00  0.00     0.202 C 
ENDROOT
BRANCH   1   2
ATOM      2  C   UNL A   1      38.649  21.245  25.823  1.00  0.00     0.261 C 
BRANCH   2   3
ATOM      3  O   UNL A   1      37.899  21.961  24.829  1.00  0.00    -0.460 OA
BRANCH   3   4
ATOM      4  C   UNL A   1      36.930  22.772  25.327  1.00  0.00     0.338 C 
ATOM      5  O   UNL A   1      37.088  23.829  25.912  1.00  0.00    -0.246 OA
BRANCH   4   6
ATOM      6  C   UNL A   1      35.605  22.298  24.874  1.00  0.00     0.060 A 
ATOM      7  C   UNL A   1      33.518  22.603  23.653  1.00  0.00    -0.038 A 
ATOM      8  C   UNL A   1      33.153  21.302  24.047  1.00  0.00     0.004 A 
ATOM      9  C   UNL A   1      34.740  23.110  24.132  1.00  0.00     0.020 A 
ATOM     10  C   UNL A   1      33.996  20.507  24.824  1.00  0.00     0.001 A 
ATOM     11  C   UNL A   1      35.232  20.996  25.219  1.00  0.00     0.016 A 
BRANCH   7  12
ATOM     12  C   UNL A   1      32.631  23.456  22.742  1.00  0.00     0.074 C 
ATOM     13  N   UNL A   1      33.020  25.703  23.794  1.00  0.00    -0.328 N 
ATOM     14  C   UNL A   1      31.642  25.772  24.293  1.00  0.00     0.262 C 
ATOM     15  C   UNL A   1      33.102  24.921  22.542  1.00  0.00     0.270 C 
ATOM     16  H   UNL A   1      33.561  25.205  24.500  1.00  0.00     0.348 HD
ATOM     17  C   UNL A   1      31.036  24.378  24.483  1.00  0.00     0.062 C 
ATOM     18  C   UNL A   1      31.159  23.538  23.211  1.00  0.00     0.020 C 
BRANCH  13  19
ATOM     19  C   UNL A   1      33.654  27.029  23.670  1.00  0.00     0.340 C 
BRANCH  19  20
ATOM     20  C   UNL A   1      33.519  27.889  24.880  1.00  0.00     0.179 A 
ATOM     21  C   UNL A   1      32.046  30.305  26.972  1.00  0.00     0.092 C 
ATOM     22  C   UNL A   1      32.865  29.247  26.352  1.00  0.00     0.147 A 
ATOM     23  N   UNL A   1      33.634  28.405  27.053  1.00  0.00    -0.159 NA
ATOM     24  N   UNL A   1      32.812  28.992  25.010  1.00  0.00    -0.211 NA
ATOM     25  N   UNL A   1      34.061  27.568  26.092  1.00  0.00    -0.258 N 
ATOM     26  H   UNL A   1      34.683  26.820  26.242  1.00  0.00     0.192 HD
ENDBRANCH  19  20
ENDBRANCH  13  19
ENDBRANCH   7  12
ENDBRANCH   4   6
ENDBRANCH   3   4
ENDBRANCH   2   3
ENDBRANCH   1   2
BRANCH   1  27
ATOM     27  O   UNL A   1      41.099  21.609  26.388  1.00  0.00    -0.374 OA
BRANCH  27  28
ATOM     28  C   UNL A   1      41.346  20.218  26.564  1.00  0.00     0.202 C 
BRANCH  28  29
ATOM     29  C   UNL A   1      42.660  19.649  26.051  1.00  0.00     0.261 C 
BRANCH  29  30
ATOM     30  O   UNL A   1      43.157  20.374  24.938  1.00  0.00    -0.460 OA
BRANCH  30  31
ATOM     31  C   UNL A   1      44.485  20.623  24.997  1.00  0.00     0.338 C 
ATOM     32  O   UNL A   1      45.388  19.817  25.109  1.00  0.00    -0.246 OA
BRANCH  31  33
ATOM     33  C   UNL A   1      44.673  22.076  25.080  1.00  0.00     0.060 A 
ATOM     34  C   UNL A   1      45.607  22.509  26.021  1.00  0.00     0.016 A 
ATOM     35  C   UNL A   1      43.714  22.935  24.522  1.00  0.00     0.016 A 
ATOM     36  C   UNL A   1      45.404  23.734  26.607  1.00  0.00     0.010 A 
ATOM     37  C   UNL A   1      43.502  24.152  25.118  1.00  0.00     0.010 A 
ATOM     38  C   UNL A   1      44.288  24.482  26.217  1.00  0.00    -0.014 A 
BRANCH  38  39
ATOM     39  C   UNL A   1      43.991  25.678  26.963  1.00  0.00     0.031 A 
ATOM     40  C   UNL A   1      44.970  26.753  26.724  1.00  0.00     0.074 A 
ATOM     41  C   UNL A   1      42.905  25.794  27.745  1.00  0.00     0.049 A 
ATOM     42  N   UNL A   1      45.850  27.194  27.557  1.00  0.00    -0.248 NA
ATOM     43  C   UNL A   1      45.119  27.260  25.353  1.00  0.00     0.031 C 
ATOM     44  C   UNL A   1      41.761  24.890  27.880  1.00  0.00     0.029 A 
ATOM     45  N   UNL A   1      42.568  26.834  28.548  1.00  0.00    -0.354 N 
ATOM     46  C   UNL A   1      46.559  28.165  26.868  1.00  0.00     0.074 A 
ATOM     47  C   UNL A   1      46.192  28.041  25.481  1.00  0.00     0.031 C 
ATOM     48  C   UNL A   1      40.764  25.533  28.533  1.00  0.00     0.029 A 
ATOM     49  C   UNL A   1      41.246  26.834  28.966  1.00  0.00     0.049 A 
ATOM     50  H   UNL A   1      43.210  27.532  28.813  1.00  0.00     0.167 HD
ATOM     51  C   UNL A   1      47.213  29.152  27.535  1.00  0.00     0.037 A 
ATOM     52  C   UNL A   1      40.607  27.882  29.544  1.00  0.00     0.037 A 
ATOM     53  C   UNL A   1      47.379  28.825  28.927  1.00  0.00     0.049 A 
ATOM     54  C   UNL A   1      41.654  28.780  30.108  1.00  0.00     0.074 A 
ATOM     55  C   UNL A   1      48.042  27.821  29.606  1.00  0.00     0.029 A 
ATOM     56  N   UNL A   1      46.482  29.357  29.822  1.00  0.00    -0.354 N 
ATOM     57  N   UNL A   1      42.400  28.453  31.128  1.00  0.00    -0.248 NA
ATOM     58  C   UNL A   1      42.205  29.816  29.242  1.00  0.00     0.031 C 
ATOM     59  C   UNL A   1      47.192  27.490  30.702  1.00  0.00     0.029 A 
ATOM     60  C   UNL A   1      46.095  28.350  30.669  1.00  0.00     0.049 A 
ATOM     61  H   UNL A   1      46.174  30.292  29.850  1.00  0.00     0.167 HD
ATOM     62  C   UNL A   1      43.671  28.903  30.795  1.00  0.00     0.074 A 
ATOM     63  C   UNL A   1      43.474  29.805  29.663  1.00  0.00     0.031 C 
ATOM     64  C   UNL A   1      44.784  28.272  31.270  1.00  0.00     0.037 A 
BRANCH  51  65
ATOM     65  C   UNL A   1      47.360  30.551  27.014  1.00  0.00     0.064 A 
ATOM     66  C   UNL A   1      48.622  31.170  27.063  1.00  0.00     0.173 A 
ATOM     67  C   UNL A   1      46.264  31.401  26.752  1.00  0.00     0.173 A 
ATOM     68  F   UNL A   1      49.723  30.454  27.331  1.00  0.00    -0.203 F 
ATOM     69  C   UNL A   1      48.763  32.554  26.932  1.00  0.00     0.198 A 
ATOM     70  C   UNL A   1      46.416  32.771  26.562  1.00  0.00     0.198 A 
ATOM     71  F   UNL A   1      44.999  30.966  26.785  1.00  0.00    -0.203 F 
ATOM     72  F   UNL A   1      49.963  33.118  27.111  1.00  0.00    -0.200 F 
ATOM     73  C   UNL A   1      47.660  33.352  26.686  1.00  0.00     0.200 A 
ATOM     74  F   UNL A   1      45.332  33.529  26.347  1.00  0.00    -0.200 F 
ATOM     75  F   UNL A   1      47.785  34.683  26.620  1.00  0.00    -0.200 F 
ENDBRANCH  51  65
BRANCH  52  76
ATOM     76  C   UNL A   1      39.203  28.314  29.338  1.00  0.00     0.064 A 
ATOM     77  C   UNL A   1      38.318  28.453  30.421  1.00  0.00     0.173 A 
ATOM     78  C   UNL A   1      38.774  28.861  28.112  1.00  0.00     0.173 A 
ATOM     79  F   UNL A   1      38.665  28.004  31.636  1.00  0.00    -0.203 F 
ATOM     80  C   UNL A   1      37.093  29.118  30.289  1.00  0.00     0.198 A 
ATOM     81  C   UNL A   1      37.549  29.517  27.981  1.00  0.00     0.198 A 
ATOM     82  F   UNL A   1      39.573  28.857  27.036  1.00  0.00    -0.203 F 
ATOM     83  F   UNL A   1      36.304  29.285  31.360  1.00  0.00    -0.200 F 
ATOM     84  C   UNL A   1      36.715  29.658  29.071  1.00  0.00     0.200 A 
ATOM     85  F   UNL A   1      37.214  30.068  26.805  1.00  0.00    -0.200 F 
ATOM     86  F   UNL A   1      35.571  30.349  28.960  1.00  0.00    -0.200 F 
ENDBRANCH  52  76
BRANCH  64  87
ATOM     87  C   UNL A   1      44.596  27.240  32.345  1.00  0.00     0.064 A 
ATOM     88  C   UNL A   1      44.369  25.876  32.091  1.00  0.00     0.173 A 
ATOM     89  C   UNL A   1      44.802  27.622  33.677  1.00  0.00     0.173 A 
ATOM     90  F   UNL A   1      44.270  25.415  30.839  1.00  0.00    -0.203 F 
ATOM     91  C   UNL A   1      44.302  24.948  33.129  1.00  0.00     0.198 A 
ATOM     92  C   UNL A   1      44.773  26.688  34.708  1.00  0.00     0.198 A 
ATOM     93  F   UNL A   1      45.084  28.900  33.972  1.00  0.00    -0.203 F 
ATOM     94  F   UNL A   1      44.072  23.654  32.862  1.00  0.00    -0.200 F 
ATOM     95  C   UNL A   1      44.511  25.355  34.436  1.00  0.00     0.200 A 
ATOM     96  F   UNL A   1      45.027  27.078  35.964  1.00  0.00    -0.200 F 
ATOM     97  F   UNL A   1      44.489  24.458  35.432  1.00  0.00    -0.200 F 
ENDBRANCH  64  87
ENDBRANCH  38  39
ENDBRANCH  31  33
ENDBRANCH  30  31
ENDBRANCH  29  30
ENDBRANCH  28  29
ENDBRANCH  27  28
ENDBRANCH   1  27
TORSDOF 17
ENDMDL
