MODEL 1
REMARK VINA RESULT:      -8.8      0.000      0.000
REMARK SMILES COc1cccc([C@H]2CC(c3ccc(S(C)(=O)=O)cc3)=NN2c2ccc(C(=O)OCCOCCOC(=O)c3ccc(-c4c5nc(c(-c6c(F)c(F)c(F)c(F)c6F)c6ccc([nH]6)c(-c6c(F)c(F)c(F)c(F)c6F)c6nc(c(-c7c(F)c(F)c(F)c(F)c7F)c7ccc4[nH]7)C=C6)C=C5)cc3)cc2)c1
REMARK SMILES IDX 31 1 30 2 29 3 27 4 28 5 26 6 23 7 24 8 102 9 25 10 101 11
REMARK SMILES IDX 22 12 8 13 9 14 10 15 21 16 7 17 3 18 4 19 103 20 5 21 6 22
REMARK SMILES IDX 2 23 1 24 11 25 12 26 20 27 13 28 19 29 14 30 15 31 16 32
REMARK SMILES IDX 17 33 18 34 32 35 33 36 34 37 35 38 36 39 37 40 38 41 39 42
REMARK SMILES IDX 100 43 40 44 99 45 41 46 42 47 43 48 93 49 44 50 98 51 92 52
REMARK SMILES IDX 94 53 45 54 97 55 91 56 90 57 46 59 78 60 58 61 77 62 59 63
REMARK SMILES IDX 62 64 76 65 95 66 60 67 61 68 75 70 96 71 63 72 47 73 48 74
REMARK SMILES IDX 56 75 49 76 50 77 54 78 57 79 51 80 52 81 55 82 53 83 79 84
REMARK SMILES IDX 80 85 88 86 81 87 82 88 86 89 89 90 83 91 84 92 87 93 85 94
REMARK SMILES IDX 64 95 65 96 73 97 66 98 67 99 71 100 74 101 68 102 69 103
REMARK SMILES IDX 72 104 70 105
REMARK H PARENT 94 58 62 69
REMARK Flexibility Score: inf
ROOT
ATOM      1  C   UNL A   1      38.741  32.528  30.452  1.00  0.00     0.202 C 
ENDROOT
BRANCH   1   2
ATOM      2  C   UNL A   1      38.432  31.635  29.247  1.00  0.00     0.261 C 
BRANCH   2   3
ATOM      3  O   UNL A   1      38.973  30.316  29.428  1.00  0.00    -0.460 OA
BRANCH   3   4
ATOM      4  C   UNL A   1      38.791  29.479  28.378  1.00  0.00     0.338 C 
ATOM      5  O   UNL A   1      37.769  29.341  27.721  1.00  0.00    -0.246 OA
BRANCH   4   6
ATOM      6  C   UNL A   1      40.068  28.826  28.015  1.00  0.00     0.060 A 
ATOM      7  C   UNL A   1      42.599  27.723  27.480  1.00  0.00     0.060 A 
ATOM      8  C   UNL A   1      42.088  27.738  28.783  1.00  0.00     0.029 A 
ATOM      9  C   UNL A   1      41.783  28.193  26.438  1.00  0.00     0.029 A 
ATOM     10  C   UNL A   1      40.847  28.312  29.056  1.00  0.00     0.018 A 
ATOM     11  C   UNL A   1      40.515  28.729  26.695  1.00  0.00     0.018 A 
BRANCH   7  12
ATOM     12  N   UNL A   1      43.918  27.342  27.244  1.00  0.00    -0.257 N 
ATOM     13  C   UNL A   1      44.566  26.276  28.020  1.00  0.00     0.144 C 
ATOM     14  C   UNL A   1      45.821  25.969  27.197  1.00  0.00     0.091 C 
ATOM     15  C   UNL A   1      45.608  26.891  26.031  1.00  0.00     0.071 C 
ATOM     16  N   UNL A   1      44.534  27.618  26.062  1.00  0.00    -0.176 NA
BRANCH  13  17
ATOM     17  C   UNL A   1      43.667  25.060  28.221  1.00  0.00    -0.019 A 
ATOM     18  C   UNL A   1      41.949  23.513  27.440  1.00  0.00     0.119 A 
ATOM     19  C   UNL A   1      41.921  22.915  28.699  1.00  0.00     0.046 A 
ATOM     20  C   UNL A   1      42.806  24.592  27.207  1.00  0.00     0.052 A 
ATOM     21  C   UNL A   1      42.766  23.363  29.712  1.00  0.00     0.004 A 
ATOM     22  C   UNL A   1      43.638  24.425  29.473  1.00  0.00     0.006 A 
BRANCH  18  23
ATOM     23  O   UNL A   1      41.061  22.998  26.536  1.00  0.00    -0.497 OA
ATOM     24  C   UNL A   1      41.349  21.687  26.066  1.00  0.00     0.278 C 
ENDBRANCH  18  23
ENDBRANCH  13  17
BRANCH  15  25
ATOM     25  C   UNL A   1      46.617  26.994  24.970  1.00  0.00    -0.002 A 
ATOM     26  C   UNL A   1      46.543  28.080  24.089  1.00  0.00     0.011 A 
ATOM     27  C   UNL A   1      47.650  26.060  24.872  1.00  0.00     0.011 A 
ATOM     28  C   UNL A   1      47.527  28.249  23.117  1.00  0.00     0.021 A 
ATOM     29  C   UNL A   1      48.622  26.213  23.880  1.00  0.00     0.021 A 
ATOM     30  C   UNL A   1      48.557  27.309  23.011  1.00  0.00     0.067 A 
BRANCH  30  31
ATOM     31  S   UNL A   1      49.820  27.544  21.781  1.00  0.00     0.175 S 
ATOM     32  C   UNL A   1      49.446  26.343  20.531  1.00  0.00     0.163 C 
ATOM     33  O   UNL A   1      49.614  28.867  21.223  1.00  0.00    -0.224 OA
ATOM     34  O   UNL A   1      51.088  27.174  22.379  1.00  0.00    -0.224 OA
ENDBRANCH  30  31
ENDBRANCH  15  25
ENDBRANCH   7  12
ENDBRANCH   4   6
ENDBRANCH   3   4
ENDBRANCH   2   3
ENDBRANCH   1   2
BRANCH   1  35
ATOM     35  O   UNL A   1      37.753  33.514  30.754  1.00  0.00    -0.374 OA
BRANCH  35  36
ATOM     36  C   UNL A   1      36.714  33.122  31.656  1.00  0.00     0.202 C 
BRANCH  36  37
ATOM     37  C   UNL A   1      36.502  31.610  31.788  1.00  0.00     0.261 C 
BRANCH  37  38
ATOM     38  O   UNL A   1      36.296  31.230  33.162  1.00  0.00    -0.460 OA
BRANCH  38  39
ATOM     39  C   UNL A   1      37.261  31.631  34.019  1.00  0.00     0.338 C 
ATOM     40  O   UNL A   1      37.125  32.312  35.027  1.00  0.00    -0.246 OA
BRANCH  39  41
ATOM     41  C   UNL A   1      38.541  30.986  33.672  1.00  0.00     0.060 A 
ATOM     42  C   UNL A   1      39.718  31.650  34.042  1.00  0.00     0.016 A 
ATOM     43  C   UNL A   1      38.599  29.791  32.950  1.00  0.00     0.016 A 
ATOM     44  C   UNL A   1      40.956  31.150  33.646  1.00  0.00     0.010 A 
ATOM     45  C   UNL A   1      39.843  29.293  32.548  1.00  0.00     0.010 A 
ATOM     46  C   UNL A   1      41.024  29.990  32.864  1.00  0.00    -0.014 A 
BRANCH  46  47
ATOM     47  C   UNL A   1      42.320  29.593  32.261  1.00  0.00     0.031 A 
ATOM     48  C   UNL A   1      43.063  28.419  32.837  1.00  0.00     0.074 A 
ATOM     49  C   UNL A   1      42.812  30.246  31.194  1.00  0.00     0.049 A 
ATOM     50  N   UNL A   1      44.211  27.905  32.477  1.00  0.00    -0.248 NA
ATOM     51  C   UNL A   1      42.424  27.733  33.970  1.00  0.00     0.031 C 
ATOM     52  C   UNL A   1      42.170  31.375  30.526  1.00  0.00     0.029 A 
ATOM     53  N   UNL A   1      43.974  30.050  30.488  1.00  0.00    -0.354 N 
ATOM     54  C   UNL A   1      44.433  26.839  33.339  1.00  0.00     0.074 A 
ATOM     55  C   UNL A   1      43.317  26.798  34.259  1.00  0.00     0.031 C 
ATOM     56  C   UNL A   1      42.951  31.780  29.511  1.00  0.00     0.029 A 
ATOM     57  C   UNL A   1      44.158  30.956  29.474  1.00  0.00     0.049 A 
ATOM     58  H   UNL A   1      44.612  29.330  30.691  1.00  0.00     0.167 HD
ATOM     59  C   UNL A   1      45.469  25.967  33.355  1.00  0.00     0.037 A 
ATOM     60  C   UNL A   1      45.194  31.111  28.626  1.00  0.00     0.037 A 
ATOM     61  C   UNL A   1      46.579  26.005  32.440  1.00  0.00     0.049 A 
ATOM     62  C   UNL A   1      46.365  30.167  28.705  1.00  0.00     0.074 A 
ATOM     63  C   UNL A   1      47.665  25.152  32.362  1.00  0.00     0.029 A 
ATOM     64  N   UNL A   1      46.746  26.957  31.445  1.00  0.00    -0.354 N 
ATOM     65  N   UNL A   1      46.552  29.143  29.503  1.00  0.00    -0.248 NA
ATOM     66  C   UNL A   1      47.469  30.399  27.762  1.00  0.00     0.031 C 
ATOM     67  C   UNL A   1      48.513  25.613  31.349  1.00  0.00     0.029 A 
ATOM     68  C   UNL A   1      47.931  26.727  30.765  1.00  0.00     0.049 A 
ATOM     69  H   UNL A   1      46.116  27.688  31.250  1.00  0.00     0.167 HD
ATOM     70  C   UNL A   1      47.776  28.594  29.142  1.00  0.00     0.074 A 
ATOM     71  C   UNL A   1      48.283  29.391  28.045  1.00  0.00     0.031 C 
ATOM     72  C   UNL A   1      48.420  27.525  29.671  1.00  0.00     0.037 A 
BRANCH  59  73
ATOM     73  C   UNL A   1      45.462  24.905  34.414  1.00  0.00     0.064 A 
ATOM     74  C   UNL A   1      44.924  23.631  34.176  1.00  0.00     0.173 A 
ATOM     75  C   UNL A   1      46.032  25.153  35.672  1.00  0.00     0.173 A 
ATOM     76  F   UNL A   1      44.355  23.349  32.994  1.00  0.00    -0.203 F 
ATOM     77  C   UNL A   1      44.938  22.652  35.166  1.00  0.00     0.198 A 
ATOM     78  C   UNL A   1      46.068  24.163  36.651  1.00  0.00     0.198 A 
ATOM     79  F   UNL A   1      46.564  26.354  35.949  1.00  0.00    -0.203 F 
ATOM     80  F   UNL A   1      44.381  21.456  34.931  1.00  0.00    -0.200 F 
ATOM     81  C   UNL A   1      45.515  22.917  36.399  1.00  0.00     0.200 A 
ATOM     82  F   UNL A   1      46.635  24.417  37.838  1.00  0.00    -0.200 F 
ATOM     83  F   UNL A   1      45.533  21.970  37.348  1.00  0.00    -0.200 F 
ENDBRANCH  59  73
BRANCH  60  84
ATOM     84  C   UNL A   1      45.175  32.211  27.628  1.00  0.00     0.064 A 
ATOM     85  C   UNL A   1      44.386  32.127  26.473  1.00  0.00     0.173 A 
ATOM     86  C   UNL A   1      45.960  33.360  27.802  1.00  0.00     0.173 A 
ATOM     87  F   UNL A   1      43.639  31.037  26.250  1.00  0.00    -0.203 F 
ATOM     88  C   UNL A   1      44.395  33.146  25.521  1.00  0.00     0.198 A 
ATOM     89  C   UNL A   1      45.948  34.389  26.862  1.00  0.00     0.198 A 
ATOM     90  F   UNL A   1      46.735  33.487  28.889  1.00  0.00    -0.203 F 
ATOM     91  F   UNL A   1      43.665  33.021  24.403  1.00  0.00    -0.200 F 
ATOM     92  C   UNL A   1      45.172  34.277  25.719  1.00  0.00     0.200 A 
ATOM     93  F   UNL A   1      46.693  35.485  27.063  1.00  0.00    -0.200 F 
ATOM     94  F   UNL A   1      45.179  35.257  24.803  1.00  0.00    -0.200 F 
ENDBRANCH  60  84
BRANCH  72  95
ATOM     95  C   UNL A   1      49.730  27.133  29.051  1.00  0.00     0.064 A 
ATOM     96  C   UNL A   1      50.937  27.726  29.445  1.00  0.00     0.173 A 
ATOM     97  C   UNL A   1      49.781  26.119  28.082  1.00  0.00     0.173 A 
ATOM     98  F   UNL A   1      50.938  28.710  30.358  1.00  0.00    -0.203 F 
ATOM     99  C   UNL A   1      52.146  27.335  28.877  1.00  0.00     0.198 A 
ATOM    100  C   UNL A   1      50.994  25.711  27.535  1.00  0.00     0.198 A 
ATOM    101  F   UNL A   1      48.655  25.515  27.675  1.00  0.00    -0.203 F 
ATOM    102  F   UNL A   1      53.283  27.944  29.238  1.00  0.00    -0.200 F 
ATOM    103  C   UNL A   1      52.174  26.324  27.928  1.00  0.00     0.200 A 
ATOM    104  F   UNL A   1      51.021  24.725  26.628  1.00  0.00    -0.200 F 
ATOM    105  F   UNL A   1      53.341  25.942  27.387  1.00  0.00    -0.200 F 
ENDBRANCH  72  95
ENDBRANCH  46  47
ENDBRANCH  39  41
ENDBRANCH  38  39
ENDBRANCH  37  38
ENDBRANCH  36  37
ENDBRANCH  35  36
ENDBRANCH   1  35
TORSDOF 19
ENDMDL
MODEL 2
REMARK VINA RESULT:      -8.8      5.078     10.721
REMARK SMILES COc1cccc([C@H]2CC(c3ccc(S(C)(=O)=O)cc3)=NN2c2ccc(C(=O)OCCOCCOC(=O)c3ccc(-c4c5nc(c(-c6c(F)c(F)c(F)c(F)c6F)c6ccc([nH]6)c(-c6c(F)c(F)c(F)c(F)c6F)c6nc(c(-c7c(F)c(F)c(F)c(F)c7F)c7ccc4[nH]7)C=C6)C=C5)cc3)cc2)c1
REMARK SMILES IDX 31 1 30 2 29 3 27 4 28 5 26 6 23 7 24 8 102 9 25 10 101 11
REMARK SMILES IDX 22 12 8 13 9 14 10 15 21 16 7 17 3 18 4 19 103 20 5 21 6 22
REMARK SMILES IDX 2 23 1 24 11 25 12 26 20 27 13 28 19 29 14 30 15 31 16 32
REMARK SMILES IDX 17 33 18 34 32 35 33 36 34 37 35 38 36 39 37 40 38 41 39 42
REMARK SMILES IDX 100 43 40 44 99 45 41 46 42 47 43 48 93 49 44 50 98 51 92 52
REMARK SMILES IDX 94 53 45 54 97 55 91 56 90 57 46 59 78 60 58 61 77 62 59 63
REMARK SMILES IDX 62 64 76 65 95 66 60 67 61 68 75 70 96 71 63 72 47 73 48 74
REMARK SMILES IDX 56 75 49 76 50 77 54 78 57 79 51 80 52 81 55 82 53 83 79 84
REMARK SMILES IDX 80 85 88 86 81 87 82 88 86 89 89 90 83 91 84 92 87 93 85 94
REMARK SMILES IDX 64 95 65 96 73 97 66 98 67 99 71 100 74 101 68 102 69 103
REMARK SMILES IDX 72 104 70 105
REMARK H PARENT 94 58 62 69
REMARK Flexibility Score: inf
ROOT
ATOM      1  C   UNL A   1      51.206  25.390  36.064  1.00  0.00     0.202 C 
ENDROOT
BRANCH   1   2
ATOM      2  C   UNL A   1      51.869  24.671  34.887  1.00  0.00     0.261 C 
BRANCH   2   3
ATOM      3  O   UNL A   1      51.442  25.229  33.633  1.00  0.00    -0.460 OA
BRANCH   3   4
ATOM      4  C   UNL A   1      50.591  24.448  32.924  1.00  0.00     0.338 C 
ATOM      5  O   UNL A   1      50.491  23.231  32.987  1.00  0.00    -0.246 OA
BRANCH   4   6
ATOM      6  C   UNL A   1      49.662  25.285  32.135  1.00  0.00     0.060 A 
ATOM      7  C   UNL A   1      48.048  27.050  30.655  1.00  0.00     0.060 A 
ATOM      8  C   UNL A   1      49.369  26.797  30.269  1.00  0.00     0.029 A 
ATOM      9  C   UNL A   1      47.524  26.339  31.746  1.00  0.00     0.029 A 
ATOM     10  C   UNL A   1      50.181  25.946  31.018  1.00  0.00     0.018 A 
ATOM     11  C   UNL A   1      48.317  25.445  32.478  1.00  0.00     0.018 A 
BRANCH   7  12
ATOM     12  N   UNL A   1      47.310  28.054  30.031  1.00  0.00    -0.257 N 
ATOM     13  C   UNL A   1      47.118  28.081  28.574  1.00  0.00     0.144 C 
ATOM     14  C   UNL A   1      45.989  29.100  28.398  1.00  0.00     0.091 C 
ATOM     15  C   UNL A   1      45.688  29.417  29.835  1.00  0.00     0.071 C 
ATOM     16  N   UNL A   1      46.409  28.804  30.722  1.00  0.00    -0.176 NA
BRANCH  13  17
ATOM     17  C   UNL A   1      46.784  26.709  27.997  1.00  0.00    -0.019 A 
ATOM     18  C   UNL A   1      45.319  24.768  27.793  1.00  0.00     0.119 A 
ATOM     19  C   UNL A   1      46.291  24.119  27.034  1.00  0.00     0.046 A 
ATOM     20  C   UNL A   1      45.571  26.051  28.286  1.00  0.00     0.052 A 
ATOM     21  C   UNL A   1      47.495  24.755  26.735  1.00  0.00     0.004 A 
ATOM     22  C   UNL A   1      47.738  26.043  27.209  1.00  0.00     0.006 A 
BRANCH  18  23
ATOM     23  O   UNL A   1      44.188  24.035  28.033  1.00  0.00    -0.497 OA
ATOM     24  C   UNL A   1      44.050  23.530  29.355  1.00  0.00     0.278 C 
ENDBRANCH  18  23
ENDBRANCH  13  17
BRANCH  15  25
ATOM     25  C   UNL A   1      44.678  30.425  30.178  1.00  0.00    -0.002 A 
ATOM     26  C   UNL A   1      44.646  30.909  31.492  1.00  0.00     0.011 A 
ATOM     27  C   UNL A   1      43.805  30.923  29.210  1.00  0.00     0.011 A 
ATOM     28  C   UNL A   1      43.750  31.921  31.834  1.00  0.00     0.021 A 
ATOM     29  C   UNL A   1      42.886  31.917  29.558  1.00  0.00     0.021 A 
ATOM     30  C   UNL A   1      42.868  32.412  30.867  1.00  0.00     0.067 A 
BRANCH  30  31
ATOM     31  S   UNL A   1      41.742  33.718  31.307  1.00  0.00     0.175 S 
ATOM     32  C   UNL A   1      41.734  33.713  33.081  1.00  0.00     0.163 C 
ATOM     33  O   UNL A   1      42.345  34.956  30.854  1.00  0.00    -0.224 OA
ATOM     34  O   UNL A   1      40.420  33.324  30.862  1.00  0.00    -0.224 OA
ENDBRANCH  30  31
ENDBRANCH  15  25
ENDBRANCH   7  12
ENDBRANCH   4   6
ENDBRANCH   3   4
ENDBRANCH   2   3
ENDBRANCH   1   2
BRANCH   1  35
ATOM     35  O   UNL A   1      50.603  24.541  37.041  1.00  0.00    -0.374 OA
BRANCH  35  36
ATOM     36  C   UNL A   1      49.296  24.045  36.737  1.00  0.00     0.202 C 
BRANCH  36  37
ATOM     37  C   UNL A   1      48.303  25.096  36.231  1.00  0.00     0.261 C 
BRANCH  37  38
ATOM     38  O   UNL A   1      47.205  25.262  37.149  1.00  0.00    -0.460 OA
BRANCH  38  39
ATOM     39  C   UNL A   1      46.790  26.537  37.321  1.00  0.00     0.338 C 
ATOM     40  O   UNL A   1      47.241  27.369  38.098  1.00  0.00    -0.246 OA
BRANCH  39  41
ATOM     41  C   UNL A   1      45.785  26.881  36.298  1.00  0.00     0.060 A 
ATOM     42  C   UNL A   1      46.026  28.018  35.515  1.00  0.00     0.016 A 
ATOM     43  C   UNL A   1      44.605  26.149  36.141  1.00  0.00     0.016 A 
ATOM     44  C   UNL A   1      45.063  28.459  34.610  1.00  0.00     0.010 A 
ATOM     45  C   UNL A   1      43.636  26.598  35.236  1.00  0.00     0.010 A 
ATOM     46  C   UNL A   1      43.847  27.774  34.493  1.00  0.00    -0.014 A 
BRANCH  46  47
ATOM     47  C   UNL A   1      42.746  28.374  33.700  1.00  0.00     0.031 A 
ATOM     48  C   UNL A   1      41.809  29.340  34.368  1.00  0.00     0.074 A 
ATOM     49  C   UNL A   1      42.604  28.087  32.394  1.00  0.00     0.049 A 
ATOM     50  N   UNL A   1      40.775  29.973  33.873  1.00  0.00    -0.248 NA
ATOM     51  C   UNL A   1      42.071  29.633  35.785  1.00  0.00     0.031 C 
ATOM     52  C   UNL A   1      43.468  27.194  31.627  1.00  0.00     0.029 A 
ATOM     53  N   UNL A   1      41.671  28.522  31.484  1.00  0.00    -0.354 N 
ATOM     54  C   UNL A   1      40.265  30.735  34.916  1.00  0.00     0.074 A 
ATOM     55  C   UNL A   1      41.082  30.464  36.079  1.00  0.00     0.031 C 
ATOM     56  C   UNL A   1      43.020  27.137  30.361  1.00  0.00     0.029 A 
ATOM     57  C   UNL A   1      41.824  27.970  30.237  1.00  0.00     0.049 A 
ATOM     58  H   UNL A   1      40.961  29.166  31.706  1.00  0.00     0.167 HD
ATOM     59  C   UNL A   1      39.217  31.593  34.901  1.00  0.00     0.037 A 
ATOM     60  C   UNL A   1      41.072  28.110  29.128  1.00  0.00     0.037 A 
ATOM     61  C   UNL A   1      38.405  31.865  33.745  1.00  0.00     0.049 A 
ATOM     62  C   UNL A   1      39.872  29.020  29.155  1.00  0.00     0.074 A 
ATOM     63  C   UNL A   1      37.335  32.734  33.625  1.00  0.00     0.029 A 
ATOM     64  N   UNL A   1      38.572  31.264  32.506  1.00  0.00    -0.354 N 
ATOM     65  N   UNL A   1      39.415  29.760  30.136  1.00  0.00    -0.248 NA
ATOM     66  C   UNL A   1      39.084  29.117  27.917  1.00  0.00     0.031 C 
ATOM     67  C   UNL A   1      36.825  32.626  32.327  1.00  0.00     0.029 A 
ATOM     68  C   UNL A   1      37.608  31.724  31.624  1.00  0.00     0.049 A 
ATOM     69  H   UNL A   1      39.271  30.607  32.287  1.00  0.00     0.167 HD
ATOM     70  C   UNL A   1      38.309  30.429  29.629  1.00  0.00     0.074 A 
ATOM     71  C   UNL A   1      38.168  30.016  28.249  1.00  0.00     0.031 C 
ATOM     72  C   UNL A   1      37.484  31.308  30.251  1.00  0.00     0.037 A 
BRANCH  59  73
ATOM     73  C   UNL A   1      38.873  32.285  36.187  1.00  0.00     0.064 A 
ATOM     74  C   UNL A   1      39.296  33.595  36.453  1.00  0.00     0.173 A 
ATOM     75  C   UNL A   1      38.079  31.642  37.148  1.00  0.00     0.173 A 
ATOM     76  F   UNL A   1      40.068  34.248  35.571  1.00  0.00    -0.203 F 
ATOM     77  C   UNL A   1      38.957  34.228  37.646  1.00  0.00     0.198 A 
ATOM     78  C   UNL A   1      37.720  32.287  38.329  1.00  0.00     0.198 A 
ATOM     79  F   UNL A   1      37.645  30.389  36.940  1.00  0.00    -0.203 F 
ATOM     80  F   UNL A   1      39.407  35.465  37.899  1.00  0.00    -0.200 F 
ATOM     81  C   UNL A   1      38.164  33.577  38.579  1.00  0.00     0.200 A 
ATOM     82  F   UNL A   1      36.945  31.660  39.224  1.00  0.00    -0.200 F 
ATOM     83  F   UNL A   1      37.832  34.190  39.724  1.00  0.00    -0.200 F 
ENDBRANCH  59  73
BRANCH  60  84
ATOM     84  C   UNL A   1      41.426  27.361  27.894  1.00  0.00     0.064 A 
ATOM     85  C   UNL A   1      41.003  26.039  27.704  1.00  0.00     0.173 A 
ATOM     86  C   UNL A   1      42.210  27.948  26.891  1.00  0.00     0.173 A 
ATOM     87  F   UNL A   1      40.274  25.427  28.647  1.00  0.00    -0.203 F 
ATOM     88  C   UNL A   1      41.364  25.326  26.561  1.00  0.00     0.198 A 
ATOM     89  C   UNL A   1      42.550  27.243  25.738  1.00  0.00     0.198 A 
ATOM     90  F   UNL A   1      42.644  29.210  27.028  1.00  0.00    -0.203 F 
ATOM     91  F   UNL A   1      40.984  24.048  26.424  1.00  0.00    -0.200 F 
ATOM     92  C   UNL A   1      42.133  25.931  25.577  1.00  0.00     0.200 A 
ATOM     93  F   UNL A   1      43.284  27.835  24.785  1.00  0.00    -0.200 F 
ATOM     94  F   UNL A   1      42.479  25.245  24.479  1.00  0.00    -0.200 F 
ENDBRANCH  60  84
BRANCH  72  95
ATOM     95  C   UNL A   1      36.375  31.908  29.437  1.00  0.00     0.064 A 
ATOM     96  C   UNL A   1      35.287  31.141  28.998  1.00  0.00     0.173 A 
ATOM     97  C   UNL A   1      36.381  33.277  29.129  1.00  0.00     0.173 A 
ATOM     98  F   UNL A   1      35.243  29.824  29.254  1.00  0.00    -0.203 F 
ATOM     99  C   UNL A   1      34.255  31.718  28.264  1.00  0.00     0.198 A 
ATOM    100  C   UNL A   1      35.334  33.857  28.418  1.00  0.00     0.198 A 
ATOM    101  F   UNL A   1      37.396  34.057  29.532  1.00  0.00    -0.203 F 
ATOM    102  F   UNL A   1      33.245  30.958  27.819  1.00  0.00    -0.200 F 
ATOM    103  C   UNL A   1      34.276  33.075  27.980  1.00  0.00     0.200 A 
ATOM    104  F   UNL A   1      35.349  35.171  28.157  1.00  0.00    -0.200 F 
ATOM    105  F   UNL A   1      33.276  33.631  27.279  1.00  0.00    -0.200 F 
ENDBRANCH  72  95
ENDBRANCH  46  47
ENDBRANCH  39  41
ENDBRANCH  38  39
ENDBRANCH  37  38
ENDBRANCH  36  37
ENDBRANCH  35  36
ENDBRANCH   1  35
TORSDOF 19
ENDMDL
MODEL 3
REMARK VINA RESULT:      -8.7      5.269     12.445
REMARK SMILES COc1cccc([C@H]2CC(c3ccc(S(C)(=O)=O)cc3)=NN2c2ccc(C(=O)OCCOCCOC(=O)c3ccc(-c4c5nc(c(-c6c(F)c(F)c(F)c(F)c6F)c6ccc([nH]6)c(-c6c(F)c(F)c(F)c(F)c6F)c6nc(c(-c7c(F)c(F)c(F)c(F)c7F)c7ccc4[nH]7)C=C6)C=C5)cc3)cc2)c1
REMARK SMILES IDX 31 1 30 2 29 3 27 4 28 5 26 6 23 7 24 8 102 9 25 10 101 11
REMARK SMILES IDX 22 12 8 13 9 14 10 15 21 16 7 17 3 18 4 19 103 20 5 21 6 22
REMARK SMILES IDX 2 23 1 24 11 25 12 26 20 27 13 28 19 29 14 30 15 31 16 32
REMARK SMILES IDX 17 33 18 34 32 35 33 36 34 37 35 38 36 39 37 40 38 41 39 42
REMARK SMILES IDX 100 43 40 44 99 45 41 46 42 47 43 48 93 49 44 50 98 51 92 52
REMARK SMILES IDX 94 53 45 54 97 55 91 56 90 57 46 59 78 60 58 61 77 62 59 63
REMARK SMILES IDX 62 64 76 65 95 66 60 67 61 68 75 70 96 71 63 72 47 73 48 74
REMARK SMILES IDX 56 75 49 76 50 77 54 78 57 79 51 80 52 81 55 82 53 83 79 84
REMARK SMILES IDX 80 85 88 86 81 87 82 88 86 89 89 90 83 91 84 92 87 93 85 94
REMARK SMILES IDX 64 95 65 96 73 97 66 98 67 99 71 100 74 101 68 102 69 103
REMARK SMILES IDX 72 104 70 105
REMARK H PARENT 94 58 62 69
REMARK Flexibility Score: inf
ROOT
ATOM      1  C   UNL A   1      43.694  24.779  27.034  1.00  0.00     0.202 C 
ENDROOT
BRANCH   1   2
ATOM      2  C   UNL A   1      43.337  26.255  26.842  1.00  0.00     0.261 C 
BRANCH   2   3
ATOM      3  O   UNL A   1      42.216  26.628  27.661  1.00  0.00    -0.460 OA
BRANCH   3   4
ATOM      4  C   UNL A   1      41.049  26.779  26.990  1.00  0.00     0.338 C 
ATOM      5  O   UNL A   1      40.790  26.365  25.869  1.00  0.00    -0.246 OA
BRANCH   4   6
ATOM      6  C   UNL A   1      40.033  27.407  27.862  1.00  0.00     0.060 A 
ATOM      7  C   UNL A   1      38.249  28.780  29.548  1.00  0.00     0.060 A 
ATOM      8  C   UNL A   1      38.755  29.392  28.395  1.00  0.00     0.029 A 
ATOM      9  C   UNL A   1      38.586  27.440  29.796  1.00  0.00     0.029 A 
ATOM     10  C   UNL A   1      39.663  28.724  27.574  1.00  0.00     0.018 A 
ATOM     11  C   UNL A   1      39.461  26.744  28.951  1.00  0.00     0.018 A 
BRANCH   7  12
ATOM     12  N   UNL A   1      37.511  29.518  30.472  1.00  0.00    -0.257 N 
ATOM     13  C   UNL A   1      37.808  29.474  31.910  1.00  0.00     0.144 C 
ATOM     14  C   UNL A   1      37.023  30.669  32.458  1.00  0.00     0.091 C 
ATOM     15  C   UNL A   1      36.469  31.233  31.180  1.00  0.00     0.071 C 
ATOM     16  N   UNL A   1      36.778  30.599  30.091  1.00  0.00    -0.176 NA
BRANCH  13  17
ATOM     17  C   UNL A   1      39.303  29.550  32.208  1.00  0.00    -0.019 A 
ATOM     18  C   UNL A   1      41.345  28.629  33.173  1.00  0.00     0.119 A 
ATOM     19  C   UNL A   1      42.017  29.812  32.870  1.00  0.00     0.046 A 
ATOM     20  C   UNL A   1      39.990  28.505  32.859  1.00  0.00     0.052 A 
ATOM     21  C   UNL A   1      41.356  30.855  32.225  1.00  0.00     0.004 A 
ATOM     22  C   UNL A   1      40.008  30.723  31.891  1.00  0.00     0.006 A 
BRANCH  18  23
ATOM     23  O   UNL A   1      42.097  27.687  33.822  1.00  0.00    -0.497 OA
ATOM     24  C   UNL A   1      43.234  28.179  34.521  1.00  0.00     0.278 C 
ENDBRANCH  18  23
ENDBRANCH  13  17
BRANCH  15  25
ATOM     25  C   UNL A   1      35.572  32.394  31.207  1.00  0.00    -0.002 A 
ATOM     26  C   UNL A   1      35.110  32.843  32.450  1.00  0.00     0.011 A 
ATOM     27  C   UNL A   1      35.228  33.061  30.030  1.00  0.00     0.011 A 
ATOM     28  C   UNL A   1      34.316  33.987  32.520  1.00  0.00     0.021 A 
ATOM     29  C   UNL A   1      34.409  34.192  30.096  1.00  0.00     0.021 A 
ATOM     30  C   UNL A   1      33.962  34.650  31.341  1.00  0.00     0.067 A 
BRANCH  30  31
ATOM     31  S   UNL A   1      32.966  36.122  31.441  1.00  0.00     0.175 S 
ATOM     32  C   UNL A   1      33.887  37.205  32.501  1.00  0.00     0.163 C 
ATOM     33  O   UNL A   1      32.940  36.695  30.109  1.00  0.00    -0.224 OA
ATOM     34  O   UNL A   1      31.739  35.773  32.129  1.00  0.00    -0.224 OA
ENDBRANCH  30  31
ENDBRANCH  15  25
ENDBRANCH   7  12
ENDBRANCH   4   6
ENDBRANCH   3   4
ENDBRANCH   2   3
ENDBRANCH   1   2
BRANCH   1  35
ATOM     35  O   UNL A   1      44.812  24.314  26.278  1.00  0.00    -0.374 OA
BRANCH  35  36
ATOM     36  C   UNL A   1      45.832  23.622  27.004  1.00  0.00     0.202 C 
BRANCH  36  37
ATOM     37  C   UNL A   1      46.950  24.509  27.563  1.00  0.00     0.261 C 
BRANCH  37  38
ATOM     38  O   UNL A   1      47.057  25.741  26.824  1.00  0.00    -0.460 OA
BRANCH  38  39
ATOM     39  C   UNL A   1      48.073  26.549  27.202  1.00  0.00     0.338 C 
ATOM     40  O   UNL A   1      49.270  26.292  27.196  1.00  0.00    -0.246 OA
BRANCH  39  41
ATOM     41  C   UNL A   1      47.560  27.903  27.484  1.00  0.00     0.060 A 
ATOM     42  C   UNL A   1      46.897  28.569  26.445  1.00  0.00     0.016 A 
ATOM     43  C   UNL A   1      47.772  28.536  28.712  1.00  0.00     0.016 A 
ATOM     44  C   UNL A   1      46.488  29.891  26.612  1.00  0.00     0.010 A 
ATOM     45  C   UNL A   1      47.367  29.866  28.875  1.00  0.00     0.010 A 
ATOM     46  C   UNL A   1      46.756  30.559  27.814  1.00  0.00    -0.014 A 
BRANCH  46  47
ATOM     47  C   UNL A   1      46.523  32.021  27.902  1.00  0.00     0.031 A 
ATOM     48  C   UNL A   1      47.597  32.960  27.430  1.00  0.00     0.074 A 
ATOM     49  C   UNL A   1      45.357  32.506  28.365  1.00  0.00     0.049 A 
ATOM     50  N   UNL A   1      47.613  34.269  27.424  1.00  0.00    -0.248 NA
ATOM     51  C   UNL A   1      48.818  32.341  26.892  1.00  0.00     0.031 C 
ATOM     52  C   UNL A   1      44.228  31.698  28.820  1.00  0.00     0.029 A 
ATOM     53  N   UNL A   1      44.935  33.802  28.530  1.00  0.00    -0.354 N 
ATOM     54  C   UNL A   1      48.842  34.628  26.885  1.00  0.00     0.074 A 
ATOM     55  C   UNL A   1      49.557  33.402  26.605  1.00  0.00     0.031 C 
ATOM     56  C   UNL A   1      43.242  32.517  29.222  1.00  0.00     0.029 A 
ATOM     57  C   UNL A   1      43.681  33.905  29.078  1.00  0.00     0.049 A 
ATOM     58  H   UNL A   1      45.480  34.582  28.280  1.00  0.00     0.167 HD
ATOM     59  C   UNL A   1      49.325  35.869  26.637  1.00  0.00     0.037 A 
ATOM     60  C   UNL A   1      42.977  34.996  29.437  1.00  0.00     0.037 A 
ATOM     61  C   UNL A   1      48.615  37.089  26.913  1.00  0.00     0.049 A 
ATOM     62  C   UNL A   1      43.563  36.365  29.209  1.00  0.00     0.074 A 
ATOM     63  C   UNL A   1      49.012  38.393  26.676  1.00  0.00     0.029 A 
ATOM     64  N   UNL A   1      47.358  37.153  27.496  1.00  0.00    -0.354 N 
ATOM     65  N   UNL A   1      44.712  36.695  28.671  1.00  0.00    -0.248 NA
ATOM     66  C   UNL A   1      42.752  37.514  29.637  1.00  0.00     0.031 C 
ATOM     67  C   UNL A   1      48.015  39.249  27.158  1.00  0.00     0.029 A 
ATOM     68  C   UNL A   1      46.976  38.476  27.651  1.00  0.00     0.049 A 
ATOM     69  H   UNL A   1      46.817  36.375  27.762  1.00  0.00     0.167 HD
ATOM     70  C   UNL A   1      44.750  38.084  28.670  1.00  0.00     0.074 A 
ATOM     71  C   UNL A   1      43.503  38.535  29.251  1.00  0.00     0.031 C 
ATOM     72  C   UNL A   1      45.729  38.910  28.226  1.00  0.00     0.037 A 
BRANCH  59  73
ATOM     73  C   UNL A   1      50.703  35.969  26.053  1.00  0.00     0.064 A 
ATOM     74  C   UNL A   1      51.848  35.964  26.864  1.00  0.00     0.173 A 
ATOM     75  C   UNL A   1      50.883  36.035  24.663  1.00  0.00     0.173 A 
ATOM     76  F   UNL A   1      51.729  35.916  28.199  1.00  0.00    -0.203 F 
ATOM     77  C   UNL A   1      53.121  36.044  26.306  1.00  0.00     0.198 A 
ATOM     78  C   UNL A   1      52.158  36.088  24.107  1.00  0.00     0.198 A 
ATOM     79  F   UNL A   1      49.820  36.039  23.844  1.00  0.00    -0.203 F 
ATOM     80  F   UNL A   1      54.199  36.080  27.101  1.00  0.00    -0.200 F 
ATOM     81  C   UNL A   1      53.275  36.100  24.928  1.00  0.00     0.200 A 
ATOM     82  F   UNL A   1      52.305  36.132  22.776  1.00  0.00    -0.200 F 
ATOM     83  F   UNL A   1      54.501  36.170  24.392  1.00  0.00    -0.200 F 
ENDBRANCH  59  73
BRANCH  60  84
ATOM     84  C   UNL A   1      41.637  34.841  30.059  1.00  0.00     0.064 A 
ATOM     85  C   UNL A   1      41.501  34.559  31.425  1.00  0.00     0.173 A 
ATOM     86  C   UNL A   1      40.466  34.952  29.295  1.00  0.00     0.173 A 
ATOM     87  F   UNL A   1      42.593  34.418  32.190  1.00  0.00    -0.203 F 
ATOM     88  C   UNL A   1      40.244  34.380  32.001  1.00  0.00     0.198 A 
ATOM     89  C   UNL A   1      39.210  34.798  29.877  1.00  0.00     0.198 A 
ATOM     90  F   UNL A   1      40.542  35.216  27.982  1.00  0.00    -0.203 F 
ATOM     91  F   UNL A   1      40.144  34.068  33.300  1.00  0.00    -0.200 F 
ATOM     92  C   UNL A   1      39.100  34.505  31.227  1.00  0.00     0.200 A 
ATOM     93  F   UNL A   1      38.106  34.929  29.127  1.00  0.00    -0.200 F 
ATOM     94  F   UNL A   1      37.892  34.333  31.782  1.00  0.00    -0.200 F 
ENDBRANCH  60  84
BRANCH  72  95
ATOM     95  C   UNL A   1      45.480  40.388  28.320  1.00  0.00     0.064 A 
ATOM     96  C   UNL A   1      44.925  41.109  27.254  1.00  0.00     0.173 A 
ATOM     97  C   UNL A   1      45.761  41.081  29.508  1.00  0.00     0.173 A 
ATOM     98  F   UNL A   1      44.653  40.495  26.092  1.00  0.00    -0.203 F 
ATOM     99  C   UNL A   1      44.680  42.475  27.365  1.00  0.00     0.198 A 
ATOM    100  C   UNL A   1      45.489  42.441  29.625  1.00  0.00     0.198 A 
ATOM    101  F   UNL A   1      46.286  40.435  30.560  1.00  0.00    -0.203 F 
ATOM    102  F   UNL A   1      44.188  43.153  26.320  1.00  0.00    -0.200 F 
ATOM    103  C   UNL A   1      44.956  43.137  28.552  1.00  0.00     0.200 A 
ATOM    104  F   UNL A   1      45.744  43.077  30.777  1.00  0.00    -0.200 F 
ATOM    105  F   UNL A   1      44.712  44.452  28.660  1.00  0.00    -0.200 F 
ENDBRANCH  72  95
ENDBRANCH  46  47
ENDBRANCH  39  41
ENDBRANCH  38  39
ENDBRANCH  37  38
ENDBRANCH  36  37
ENDBRANCH  35  36
ENDBRANCH   1  35
TORSDOF 19
ENDMDL
