MODEL 1
REMARK VINA RESULT:     -11.9      0.000      0.000
REMARK SMILES N#CCC[NH+]1CCN(c2ccc(NS(=O)(=O)c3ccccc3Cl)cc2C(=O)OCCOCCOC(=O)c2ccc(-c3c4nc(c(-c5c(F)c(F)c(F)c(F)c5F)c5ccc([nH]5)c(-c5c(F)c(F)c(F)c(F)c5F)c5nc(c(-c6c(F)c(F)c(F)c(F)c6F)c6ccc3[nH]6)C=C5)C=C4)cc2)CC1
REMARK SMILES IDX 30 1 29 2 28 3 26 4 27 5 25 6 9 7 10 8 11 9 24 10 12 11 8 12
REMARK SMILES IDX 5 13 6 14 101 15 7 17 100 18 4 19 3 20 2 21 1 22 13 23 14 25
REMARK SMILES IDX 15 26 16 27 17 28 18 29 22 30 19 31 21 32 23 33 20 34 31 35
REMARK SMILES IDX 32 36 33 37 34 38 35 39 36 40 37 41 38 42 99 43 39 44 98 45
REMARK SMILES IDX 40 46 41 47 42 48 92 49 43 50 97 51 91 52 93 53 44 54 96 55
REMARK SMILES IDX 90 56 89 57 45 59 77 60 57 61 76 62 58 63 61 64 75 65 94 66
REMARK SMILES IDX 59 67 60 68 74 70 95 71 62 72 46 73 47 74 55 75 48 76 49 77
REMARK SMILES IDX 53 78 56 79 50 80 51 81 54 82 52 83 78 84 79 85 87 86 80 87
REMARK SMILES IDX 81 88 85 89 88 90 82 91 83 92 86 93 84 94 63 95 64 96 72 97
REMARK SMILES IDX 65 98 66 99 70 100 73 101 67 102 68 103 71 104 69 105
REMARK H PARENT 5 16 13 24 93 58 61 69
REMARK Flexibility Score: inf
ROOT
ATOM      1  C   UNL A   1      36.737  21.888  25.707  1.00  0.00     0.202 C 
ENDROOT
BRANCH   1   2
ATOM      2  C   UNL A   1      36.525  23.349  25.280  1.00  0.00     0.261 C 
BRANCH   2   3
ATOM      3  O   UNL A   1      35.131  23.530  24.966  1.00  0.00    -0.460 OA
BRANCH   3   4
ATOM      4  C   UNL A   1      34.731  23.434  23.685  1.00  0.00     0.340 C 
ATOM      5  O   UNL A   1      35.375  22.956  22.766  1.00  0.00    -0.246 OA
BRANCH   4   6
ATOM      6  C   UNL A   1      33.289  23.815  23.607  1.00  0.00     0.085 A 
ATOM      7  C   UNL A   1      32.174  22.943  23.791  1.00  0.00     0.052 A 
ATOM      8  C   UNL A   1      30.933  23.492  23.394  1.00  0.00     0.029 A 
ATOM      9  C   UNL A   1      30.780  24.778  22.877  1.00  0.00     0.029 A 
ATOM     10  C   UNL A   1      33.111  25.164  23.192  1.00  0.00     0.044 A 
ATOM     11  C   UNL A   1      31.855  25.640  22.840  1.00  0.00     0.050 A 
BRANCH   7  12
ATOM     12  N   UNL A   1      32.179  21.664  24.331  1.00  0.00    -0.360 N 
ATOM     13  N   UNL A   1      33.691  19.342  25.316  1.00  0.00    -0.331 N 
ATOM     14  C   UNL A   1      33.529  19.629  23.882  1.00  0.00     0.284 C 
ATOM     15  C   UNL A   1      33.476  20.567  26.113  1.00  0.00     0.284 C 
ATOM     16  H   UNL A   1      34.655  19.030  25.438  1.00  0.00     0.348 HD
ATOM     17  C   UNL A   1      32.265  20.429  23.512  1.00  0.00     0.178 C 
ATOM     18  C   UNL A   1      32.181  21.344  25.768  1.00  0.00     0.178 C 
BRANCH  13  19
ATOM     19  C   UNL A   1      32.874  18.238  25.798  1.00  0.00     0.277 C 
BRANCH  19  20
ATOM     20  C   UNL A   1      33.019  17.089  24.820  1.00  0.00     0.181 C 
BRANCH  20  21
ATOM     21  C   UNL A   1      34.231  16.212  25.091  1.00  0.00     0.068 C 
ATOM     22  N   UNL A   1      35.236  15.485  25.316  1.00  0.00    -0.198 NA
ENDBRANCH  20  21
ENDBRANCH  19  20
ENDBRANCH  13  19
ENDBRANCH   7  12
BRANCH  11  23
ATOM     23  N   UNL A   1      31.620  26.996  22.453  1.00  0.00    -0.280 N 
ATOM     24  H   UNL A   1      31.868  27.309  21.554  1.00  0.00     0.180 HD
BRANCH  23  25
ATOM     25  S   UNL A   1      30.899  28.074  23.581  1.00  0.00     0.263 S 
ATOM     26  O   UNL A   1      30.831  29.362  22.922  1.00  0.00    -0.201 OA
ATOM     27  O   UNL A   1      29.676  27.423  23.993  1.00  0.00    -0.201 OA
BRANCH  25  28
ATOM     28  C   UNL A   1      32.018  28.252  24.954  1.00  0.00     0.106 A 
ATOM     29  C   UNL A   1      31.488  27.974  26.230  1.00  0.00     0.024 A 
ATOM     30  C   UNL A   1      33.369  28.590  24.842  1.00  0.00     0.061 A 
ATOM     31  C   UNL A   1      32.254  28.148  27.384  1.00  0.00     0.002 A 
ATOM     32  C   UNL A   1      34.142  28.725  26.009  1.00  0.00     0.022 A 
ATOM     33  Cl  UNL A   1      34.215  28.859  23.366  1.00  0.00    -0.083 Cl
ATOM     34  C   UNL A   1      33.584  28.531  27.273  1.00  0.00     0.002 A 
ENDBRANCH  25  28
ENDBRANCH  23  25
ENDBRANCH  11  23
ENDBRANCH   4   6
ENDBRANCH   3   4
ENDBRANCH   2   3
ENDBRANCH   1   2
BRANCH   1  35
ATOM     35  O   UNL A   1      37.812  21.254  25.007  1.00  0.00    -0.374 OA
BRANCH  35  36
ATOM     36  C   UNL A   1      39.012  21.061  25.758  1.00  0.00     0.202 C 
BRANCH  36  37
ATOM     37  C   UNL A   1      39.614  19.658  25.647  1.00  0.00     0.261 C 
BRANCH  37  38
ATOM     38  O   UNL A   1      40.710  19.438  26.560  1.00  0.00    -0.460 OA
BRANCH  38  39
ATOM     39  C   UNL A   1      41.947  19.704  26.063  1.00  0.00     0.338 C 
ATOM     40  O   UNL A   1      42.668  18.925  25.463  1.00  0.00    -0.246 OA
BRANCH  39  41
ATOM     41  C   UNL A   1      42.348  21.113  26.321  1.00  0.00     0.060 A 
ATOM     42  C   UNL A   1      42.285  21.608  27.634  1.00  0.00     0.016 A 
ATOM     43  C   UNL A   1      42.694  21.980  25.290  1.00  0.00     0.016 A 
ATOM     44  C   UNL A   1      42.568  22.958  27.925  1.00  0.00     0.010 A 
ATOM     45  C   UNL A   1      42.972  23.324  25.585  1.00  0.00     0.010 A 
ATOM     46  C   UNL A   1      42.926  23.845  26.908  1.00  0.00    -0.014 A 
BRANCH  46  47
ATOM     47  C   UNL A   1      43.220  25.309  27.103  1.00  0.00     0.031 A 
ATOM     48  C   UNL A   1      44.655  25.721  27.199  1.00  0.00     0.074 A 
ATOM     49  C   UNL A   1      42.311  26.299  27.283  1.00  0.00     0.049 A 
ATOM     50  N   UNL A   1      45.138  26.899  27.487  1.00  0.00    -0.248 NA
ATOM     51  C   UNL A   1      45.668  24.714  26.847  1.00  0.00     0.031 C 
ATOM     52  C   UNL A   1      40.903  26.282  26.949  1.00  0.00     0.029 A 
ATOM     53  N   UNL A   1      42.429  27.496  27.965  1.00  0.00    -0.354 N 
ATOM     54  C   UNL A   1      46.481  26.816  27.193  1.00  0.00     0.074 A 
ATOM     55  C   UNL A   1      46.781  25.426  26.925  1.00  0.00     0.031 C 
ATOM     56  C   UNL A   1      40.236  27.171  27.705  1.00  0.00     0.029 A 
ATOM     57  C   UNL A   1      41.212  27.976  28.413  1.00  0.00     0.049 A 
ATOM     58  H   UNL A   1      43.286  27.956  28.116  1.00  0.00     0.167 HD
ATOM     59  C   UNL A   1      47.343  27.840  27.014  1.00  0.00     0.037 A 
ATOM     60  C   UNL A   1      40.907  28.979  29.259  1.00  0.00     0.037 A 
ATOM     61  C   UNL A   1      47.029  29.216  27.281  1.00  0.00     0.049 A 
ATOM     62  C   UNL A   1      41.956  30.034  29.417  1.00  0.00     0.074 A 
ATOM     63  C   UNL A   1      47.812  30.337  27.085  1.00  0.00     0.029 A 
ATOM     64  N   UNL A   1      45.830  29.657  27.828  1.00  0.00    -0.354 N 
ATOM     65  N   UNL A   1      43.198  30.003  29.012  1.00  0.00    -0.248 NA
ATOM     66  C   UNL A   1      41.527  31.326  29.967  1.00  0.00     0.031 C 
ATOM     67  C   UNL A   1      47.117  31.447  27.580  1.00  0.00     0.029 A 
ATOM     68  C   UNL A   1      45.882  31.025  28.046  1.00  0.00     0.049 A 
ATOM     69  H   UNL A   1      45.058  29.082  28.033  1.00  0.00     0.167 HD
ATOM     70  C   UNL A   1      43.654  31.305  29.101  1.00  0.00     0.074 A 
ATOM     71  C   UNL A   1      42.583  32.082  29.695  1.00  0.00     0.031 C 
ATOM     72  C   UNL A   1      44.827  31.806  28.646  1.00  0.00     0.037 A 
BRANCH  59  73
ATOM     73  C   UNL A   1      48.672  27.475  26.442  1.00  0.00     0.064 A 
ATOM     74  C   UNL A   1      48.861  27.393  25.050  1.00  0.00     0.173 A 
ATOM     75  C   UNL A   1      49.744  27.146  27.277  1.00  0.00     0.173 A 
ATOM     76  F   UNL A   1      47.849  27.671  24.213  1.00  0.00    -0.203 F 
ATOM     77  C   UNL A   1      50.068  26.954  24.519  1.00  0.00     0.198 A 
ATOM     78  C   UNL A   1      50.959  26.732  26.739  1.00  0.00     0.198 A 
ATOM     79  F   UNL A   1      49.602  27.197  28.609  1.00  0.00    -0.203 F 
ATOM     80  F   UNL A   1      50.204  26.816  23.193  1.00  0.00    -0.200 F 
ATOM     81  C   UNL A   1      51.116  26.626  25.365  1.00  0.00     0.200 A 
ATOM     82  F   UNL A   1      51.971  26.411  27.555  1.00  0.00    -0.200 F 
ATOM     83  F   UNL A   1      52.274  26.188  24.854  1.00  0.00    -0.200 F 
ENDBRANCH  59  73
BRANCH  60  84
ATOM     84  C   UNL A   1      39.536  29.161  29.803  1.00  0.00     0.064 A 
ATOM     85  C   UNL A   1      38.529  29.809  29.076  1.00  0.00     0.173 A 
ATOM     86  C   UNL A   1      39.216  28.714  31.095  1.00  0.00     0.173 A 
ATOM     87  F   UNL A   1      38.792  30.273  27.846  1.00  0.00    -0.203 F 
ATOM     88  C   UNL A   1      37.263  30.020  29.622  1.00  0.00     0.198 A 
ATOM     89  C   UNL A   1      37.947  28.924  31.641  1.00  0.00     0.198 A 
ATOM     90  F   UNL A   1      40.143  28.092  31.840  1.00  0.00    -0.203 F 
ATOM     91  F   UNL A   1      36.331  30.673  28.914  1.00  0.00    -0.200 F 
ATOM     92  C   UNL A   1      36.973  29.580  30.904  1.00  0.00     0.200 A 
ATOM     93  F   UNL A   1      37.674  28.502  32.883  1.00  0.00    -0.200 F 
ATOM     94  F   UNL A   1      35.761  29.798  31.434  1.00  0.00    -0.200 F 
ENDBRANCH  60  84
BRANCH  72  95
ATOM     95  C   UNL A   1      45.009  33.289  28.731  1.00  0.00     0.064 A 
ATOM     96  C   UNL A   1      45.635  33.890  29.830  1.00  0.00     0.173 A 
ATOM     97  C   UNL A   1      44.579  34.115  27.682  1.00  0.00     0.173 A 
ATOM     98  F   UNL A   1      46.040  33.142  30.868  1.00  0.00    -0.203 F 
ATOM     99  C   UNL A   1      45.806  35.269  29.886  1.00  0.00     0.198 A 
ATOM    100  C   UNL A   1      44.780  35.491  27.726  1.00  0.00     0.198 A 
ATOM    101  F   UNL A   1      43.969  33.588  26.609  1.00  0.00    -0.203 F 
ATOM    102  F   UNL A   1      46.364  35.828  30.969  1.00  0.00    -0.200 F 
ATOM    103  C   UNL A   1      45.389  36.067  28.831  1.00  0.00     0.200 A 
ATOM    104  F   UNL A   1      44.386  36.259  26.701  1.00  0.00    -0.200 F 
ATOM    105  F   UNL A   1      45.567  37.394  28.882  1.00  0.00    -0.200 F 
ENDBRANCH  72  95
ENDBRANCH  46  47
ENDBRANCH  39  41
ENDBRANCH  38  39
ENDBRANCH  37  38
ENDBRANCH  36  37
ENDBRANCH  35  36
ENDBRANCH   1  35
TORSDOF 21
ENDMDL
MODEL 2
REMARK VINA RESULT:     -11.8      1.314      1.966
REMARK SMILES N#CCC[NH+]1CCN(c2ccc(NS(=O)(=O)c3ccccc3Cl)cc2C(=O)OCCOCCOC(=O)c2ccc(-c3c4nc(c(-c5c(F)c(F)c(F)c(F)c5F)c5ccc([nH]5)c(-c5c(F)c(F)c(F)c(F)c5F)c5nc(c(-c6c(F)c(F)c(F)c(F)c6F)c6ccc3[nH]6)C=C5)C=C4)cc2)CC1
REMARK SMILES IDX 30 1 29 2 28 3 26 4 27 5 25 6 9 7 10 8 11 9 24 10 12 11 8 12
REMARK SMILES IDX 5 13 6 14 101 15 7 17 100 18 4 19 3 20 2 21 1 22 13 23 14 25
REMARK SMILES IDX 15 26 16 27 17 28 18 29 22 30 19 31 21 32 23 33 20 34 31 35
REMARK SMILES IDX 32 36 33 37 34 38 35 39 36 40 37 41 38 42 99 43 39 44 98 45
REMARK SMILES IDX 40 46 41 47 42 48 92 49 43 50 97 51 91 52 93 53 44 54 96 55
REMARK SMILES IDX 90 56 89 57 45 59 77 60 57 61 76 62 58 63 61 64 75 65 94 66
REMARK SMILES IDX 59 67 60 68 74 70 95 71 62 72 46 73 47 74 55 75 48 76 49 77
REMARK SMILES IDX 53 78 56 79 50 80 51 81 54 82 52 83 78 84 79 85 87 86 80 87
REMARK SMILES IDX 81 88 85 89 88 90 82 91 83 92 86 93 84 94 63 95 64 96 72 97
REMARK SMILES IDX 65 98 66 99 70 100 73 101 67 102 68 103 71 104 69 105
REMARK H PARENT 5 16 13 24 93 58 61 69
REMARK Flexibility Score: inf
ROOT
ATOM      1  C   UNL A   1      38.470  23.242  26.132  1.00  0.00     0.202 C 
ENDROOT
BRANCH   1   2
ATOM      2  C   UNL A   1      37.241  22.865  25.290  1.00  0.00     0.261 C 
BRANCH   2   3
ATOM      3  O   UNL A   1      36.366  24.007  25.232  1.00  0.00    -0.460 OA
BRANCH   3   4
ATOM      4  C   UNL A   1      35.252  23.940  24.479  1.00  0.00     0.340 C 
ATOM      5  O   UNL A   1      35.168  23.456  23.363  1.00  0.00    -0.246 OA
BRANCH   4   6
ATOM      6  C   UNL A   1      34.088  24.364  25.314  1.00  0.00     0.085 A 
ATOM      7  C   UNL A   1      33.007  23.535  25.738  1.00  0.00     0.052 A 
ATOM      8  C   UNL A   1      31.908  24.242  26.280  1.00  0.00     0.029 A 
ATOM      9  C   UNL A   1      31.863  25.630  26.411  1.00  0.00     0.029 A 
ATOM     10  C   UNL A   1      34.086  25.766  25.560  1.00  0.00     0.044 A 
ATOM     11  C   UNL A   1      32.976  26.388  26.117  1.00  0.00     0.050 A 
BRANCH   7  12
ATOM     12  N   UNL A   1      32.939  22.149  25.706  1.00  0.00    -0.360 N 
ATOM     13  N   UNL A   1      33.605  19.617  24.368  1.00  0.00    -0.331 N 
ATOM     14  C   UNL A   1      32.534  20.505  23.890  1.00  0.00     0.284 C 
ATOM     15  C   UNL A   1      34.564  20.370  25.201  1.00  0.00     0.284 C 
ATOM     16  H   UNL A   1      34.084  19.274  23.535  1.00  0.00     0.348 HD
ATOM     17  C   UNL A   1      31.892  21.398  24.970  1.00  0.00     0.178 C 
ATOM     18  C   UNL A   1      33.916  21.231  26.314  1.00  0.00     0.178 C 
BRANCH  13  19
ATOM     19  C   UNL A   1      33.128  18.420  25.047  1.00  0.00     0.277 C 
BRANCH  19  20
ATOM     20  C   UNL A   1      33.286  17.251  24.095  1.00  0.00     0.181 C 
BRANCH  20  21
ATOM     21  C   UNL A   1      33.313  15.901  24.793  1.00  0.00     0.068 C 
ATOM     22  N   UNL A   1      33.335  14.781  25.372  1.00  0.00    -0.198 NA
ENDBRANCH  20  21
ENDBRANCH  19  20
ENDBRANCH  13  19
ENDBRANCH   7  12
BRANCH  11  23
ATOM     23  N   UNL A   1      32.939  27.785  26.418  1.00  0.00    -0.280 N 
ATOM     24  H   UNL A   1      32.825  28.093  27.346  1.00  0.00     0.180 HD
BRANCH  23  25
ATOM     25  S   UNL A   1      33.096  28.920  25.137  1.00  0.00     0.263 S 
ATOM     26  O   UNL A   1      33.041  30.231  25.751  1.00  0.00    -0.201 OA
ATOM     27  O   UNL A   1      34.287  28.519  24.425  1.00  0.00    -0.201 OA
BRANCH  25  28
ATOM     28  C   UNL A   1      31.655  28.773  24.102  1.00  0.00     0.106 A 
ATOM     29  C   UNL A   1      30.662  29.758  24.273  1.00  0.00     0.024 A 
ATOM     30  C   UNL A   1      31.478  27.797  23.118  1.00  0.00     0.061 A 
ATOM     31  C   UNL A   1      29.460  29.702  23.565  1.00  0.00     0.002 A 
ATOM     32  C   UNL A   1      30.278  27.773  22.383  1.00  0.00     0.022 A 
ATOM     33  Cl  UNL A   1      32.623  26.582  22.694  1.00  0.00    -0.083 Cl
ATOM     34  C   UNL A   1      29.265  28.703  22.622  1.00  0.00     0.002 A 
ENDBRANCH  25  28
ENDBRANCH  23  25
ENDBRANCH  11  23
ENDBRANCH   4   6
ENDBRANCH   3   4
ENDBRANCH   2   3
ENDBRANCH   1   2
BRANCH   1  35
ATOM     35  O   UNL A   1      39.287  22.114  26.463  1.00  0.00    -0.374 OA
BRANCH  35  36
ATOM     36  C   UNL A   1      39.170  20.989  25.590  1.00  0.00     0.202 C 
BRANCH  36  37
ATOM     37  C   UNL A   1      39.777  19.694  26.137  1.00  0.00     0.261 C 
BRANCH  37  38
ATOM     38  O   UNL A   1      40.970  19.288  25.434  1.00  0.00    -0.460 OA
BRANCH  38  39
ATOM     39  C   UNL A   1      42.128  19.386  26.139  1.00  0.00     0.338 C 
ATOM     40  O   UNL A   1      42.808  18.458  26.545  1.00  0.00    -0.246 OA
BRANCH  39  41
ATOM     41  C   UNL A   1      42.513  20.804  26.363  1.00  0.00     0.060 A 
ATOM     42  C   UNL A   1      42.426  21.335  27.661  1.00  0.00     0.016 A 
ATOM     43  C   UNL A   1      42.867  21.647  25.314  1.00  0.00     0.016 A 
ATOM     44  C   UNL A   1      42.693  22.695  27.919  1.00  0.00     0.010 A 
ATOM     45  C   UNL A   1      43.129  23.000  25.577  1.00  0.00     0.010 A 
ATOM     46  C   UNL A   1      43.059  23.557  26.883  1.00  0.00    -0.014 A 
BRANCH  46  47
ATOM     47  C   UNL A   1      43.338  25.028  27.043  1.00  0.00     0.031 A 
ATOM     48  C   UNL A   1      44.769  25.458  27.117  1.00  0.00     0.074 A 
ATOM     49  C   UNL A   1      42.419  26.011  27.208  1.00  0.00     0.049 A 
ATOM     50  N   UNL A   1      45.240  26.648  27.374  1.00  0.00    -0.248 NA
ATOM     51  C   UNL A   1      45.791  24.455  26.779  1.00  0.00     0.031 C 
ATOM     52  C   UNL A   1      41.009  25.971  26.887  1.00  0.00     0.029 A 
ATOM     53  N   UNL A   1      42.529  27.225  27.862  1.00  0.00    -0.354 N 
ATOM     54  C   UNL A   1      46.582  26.573  27.071  1.00  0.00     0.074 A 
ATOM     55  C   UNL A   1      46.896  25.182  26.832  1.00  0.00     0.031 C 
ATOM     56  C   UNL A   1      40.337  26.870  27.628  1.00  0.00     0.029 A 
ATOM     57  C   UNL A   1      41.310  27.701  28.309  1.00  0.00     0.049 A 
ATOM     58  H   UNL A   1      43.382  27.698  27.995  1.00  0.00     0.167 HD
ATOM     59  C   UNL A   1      47.430  27.603  26.861  1.00  0.00     0.037 A 
ATOM     60  C   UNL A   1      41.001  28.720  29.134  1.00  0.00     0.037 A 
ATOM     61  C   UNL A   1      47.103  28.982  27.099  1.00  0.00     0.049 A 
ATOM     62  C   UNL A   1      42.039  29.791  29.260  1.00  0.00     0.074 A 
ATOM     63  C   UNL A   1      47.872  30.106  26.870  1.00  0.00     0.029 A 
ATOM     64  N   UNL A   1      45.904  29.421  27.646  1.00  0.00    -0.354 N 
ATOM     65  N   UNL A   1      43.278  29.764  28.844  1.00  0.00    -0.248 NA
ATOM     66  C   UNL A   1      41.599  31.089  29.783  1.00  0.00     0.031 C 
ATOM     67  C   UNL A   1      47.168  31.219  27.346  1.00  0.00     0.029 A 
ATOM     68  C   UNL A   1      45.941  30.794  27.832  1.00  0.00     0.049 A 
ATOM     69  H   UNL A   1      45.140  28.842  27.870  1.00  0.00     0.167 HD
ATOM     70  C   UNL A   1      43.720  31.072  28.900  1.00  0.00     0.074 A 
ATOM     71  C   UNL A   1      42.644  31.851  29.485  1.00  0.00     0.031 C 
ATOM     72  C   UNL A   1      44.883  31.577  28.423  1.00  0.00     0.037 A 
BRANCH  59  73
ATOM     73  C   UNL A   1      48.759  27.240  26.286  1.00  0.00     0.064 A 
ATOM     74  C   UNL A   1      48.960  27.215  24.894  1.00  0.00     0.173 A 
ATOM     75  C   UNL A   1      49.817  26.857  27.115  1.00  0.00     0.173 A 
ATOM     76  F   UNL A   1      47.961  27.546  24.060  1.00  0.00    -0.203 F 
ATOM     77  C   UNL A   1      50.165  26.779  24.355  1.00  0.00     0.198 A 
ATOM     78  C   UNL A   1      51.030  26.446  26.572  1.00  0.00     0.198 A 
ATOM     79  F   UNL A   1      49.662  26.853  28.447  1.00  0.00    -0.203 F 
ATOM     80  F   UNL A   1      50.312  26.696  23.026  1.00  0.00    -0.200 F 
ATOM     81  C   UNL A   1      51.199  26.397  25.195  1.00  0.00     0.200 A 
ATOM     82  F   UNL A   1      52.028  26.072  27.382  1.00  0.00    -0.200 F 
ATOM     83  F   UNL A   1      52.355  25.960  24.677  1.00  0.00    -0.200 F 
ENDBRANCH  59  73
BRANCH  60  84
ATOM     84  C   UNL A   1      39.632  28.899  29.686  1.00  0.00     0.064 A 
ATOM     85  C   UNL A   1      38.613  29.521  28.954  1.00  0.00     0.173 A 
ATOM     86  C   UNL A   1      39.328  28.476  30.990  1.00  0.00     0.173 A 
ATOM     87  F   UNL A   1      38.861  29.962  27.713  1.00  0.00    -0.203 F 
ATOM     88  C   UNL A   1      37.349  29.730  29.506  1.00  0.00     0.198 A 
ATOM     89  C   UNL A   1      38.061  28.683  31.541  1.00  0.00     0.198 A 
ATOM     90  F   UNL A   1      40.267  27.879  31.740  1.00  0.00    -0.203 F 
ATOM     91  F   UNL A   1      36.405  30.358  28.792  1.00  0.00    -0.200 F 
ATOM     92  C   UNL A   1      37.074  29.313  30.799  1.00  0.00     0.200 A 
ATOM     93  F   UNL A   1      37.803  28.284  32.795  1.00  0.00    -0.200 F 
ATOM     94  F   UNL A   1      35.864  29.530  31.334  1.00  0.00    -0.200 F 
ENDBRANCH  60  84
BRANCH  72  95
ATOM     95  C   UNL A   1      45.049  33.063  28.473  1.00  0.00     0.064 A 
ATOM     96  C   UNL A   1      44.562  33.891  27.454  1.00  0.00     0.173 A 
ATOM     97  C   UNL A   1      45.678  33.667  29.573  1.00  0.00     0.173 A 
ATOM     98  F   UNL A   1      43.977  33.355  26.372  1.00  0.00    -0.203 F 
ATOM     99  C   UNL A   1      44.715  35.271  27.523  1.00  0.00     0.198 A 
ATOM    100  C   UNL A   1      45.801  35.051  29.654  1.00  0.00     0.198 A 
ATOM    101  F   UNL A   1      46.166  32.917  30.572  1.00  0.00    -0.203 F 
ATOM    102  F   UNL A   1      44.285  36.041  26.515  1.00  0.00    -0.200 F 
ATOM    103  C   UNL A   1      45.324  35.851  28.627  1.00  0.00     0.200 A 
ATOM    104  F   UNL A   1      46.380  35.609  30.726  1.00  0.00    -0.200 F 
ATOM    105  F   UNL A   1      45.459  37.182  28.696  1.00  0.00    -0.200 F 
ENDBRANCH  72  95
ENDBRANCH  46  47
ENDBRANCH  39  41
ENDBRANCH  38  39
ENDBRANCH  37  38
ENDBRANCH  36  37
ENDBRANCH  35  36
ENDBRANCH   1  35
TORSDOF 21
ENDMDL
MODEL 3
REMARK VINA RESULT:     -11.8      0.764      6.998
REMARK SMILES N#CCC[NH+]1CCN(c2ccc(NS(=O)(=O)c3ccccc3Cl)cc2C(=O)OCCOCCOC(=O)c2ccc(-c3c4nc(c(-c5c(F)c(F)c(F)c(F)c5F)c5ccc([nH]5)c(-c5c(F)c(F)c(F)c(F)c5F)c5nc(c(-c6c(F)c(F)c(F)c(F)c6F)c6ccc3[nH]6)C=C5)C=C4)cc2)CC1
REMARK SMILES IDX 30 1 29 2 28 3 26 4 27 5 25 6 9 7 10 8 11 9 24 10 12 11 8 12
REMARK SMILES IDX 5 13 6 14 101 15 7 17 100 18 4 19 3 20 2 21 1 22 13 23 14 25
REMARK SMILES IDX 15 26 16 27 17 28 18 29 22 30 19 31 21 32 23 33 20 34 31 35
REMARK SMILES IDX 32 36 33 37 34 38 35 39 36 40 37 41 38 42 99 43 39 44 98 45
REMARK SMILES IDX 40 46 41 47 42 48 92 49 43 50 97 51 91 52 93 53 44 54 96 55
REMARK SMILES IDX 90 56 89 57 45 59 77 60 57 61 76 62 58 63 61 64 75 65 94 66
REMARK SMILES IDX 59 67 60 68 74 70 95 71 62 72 46 73 47 74 55 75 48 76 49 77
REMARK SMILES IDX 53 78 56 79 50 80 51 81 54 82 52 83 78 84 79 85 87 86 80 87
REMARK SMILES IDX 81 88 85 89 88 90 82 91 83 92 86 93 84 94 63 95 64 96 72 97
REMARK SMILES IDX 65 98 66 99 70 100 73 101 67 102 68 103 71 104 69 105
REMARK H PARENT 5 16 13 24 93 58 61 69
REMARK Flexibility Score: inf
ROOT
ATOM      1  C   UNL A   1      36.625  22.039  25.729  1.00  0.00     0.202 C 
ENDROOT
BRANCH   1   2
ATOM      2  C   UNL A   1      36.431  23.519  25.363  1.00  0.00     0.261 C 
BRANCH   2   3
ATOM      3  O   UNL A   1      35.053  23.716  24.994  1.00  0.00    -0.460 OA
BRANCH   3   4
ATOM      4  C   UNL A   1      34.699  23.601  23.701  1.00  0.00     0.340 C 
ATOM      5  O   UNL A   1      35.386  23.134  22.807  1.00  0.00    -0.246 OA
BRANCH   4   6
ATOM      6  C   UNL A   1      33.250  23.942  23.573  1.00  0.00     0.085 A 
ATOM      7  C   UNL A   1      32.154  23.042  23.733  1.00  0.00     0.052 A 
ATOM      8  C   UNL A   1      30.912  23.554  23.290  1.00  0.00     0.029 A 
ATOM      9  C   UNL A   1      30.741  24.828  22.751  1.00  0.00     0.029 A 
ATOM     10  C   UNL A   1      33.050  25.281  23.135  1.00  0.00     0.044 A 
ATOM     11  C   UNL A   1      31.794  25.719  22.737  1.00  0.00     0.050 A 
BRANCH   7  12
ATOM     12  N   UNL A   1      32.175  21.771  24.290  1.00  0.00    -0.360 N 
ATOM     13  N   UNL A   1      33.697  19.576  25.520  1.00  0.00    -0.331 N 
ATOM     14  C   UNL A   1      33.722  19.841  24.073  1.00  0.00     0.284 C 
ATOM     15  C   UNL A   1      33.280  20.787  26.257  1.00  0.00     0.284 C 
ATOM     16  H   UNL A   1      34.653  19.338  25.784  1.00  0.00     0.348 HD
ATOM     17  C   UNL A   1      32.468  20.541  23.513  1.00  0.00     0.178 C 
ATOM     18  C   UNL A   1      31.995  21.461  25.718  1.00  0.00     0.178 C 
BRANCH  13  19
ATOM     19  C   UNL A   1      32.902  18.416  25.899  1.00  0.00     0.277 C 
BRANCH  19  20
ATOM     20  C   UNL A   1      33.054  17.372  24.810  1.00  0.00     0.181 C 
BRANCH  20  21
ATOM     21  C   UNL A   1      34.110  16.324  25.120  1.00  0.00     0.068 C 
ATOM     22  N   UNL A   1      34.986  15.454  25.376  1.00  0.00    -0.198 NA
ENDBRANCH  20  21
ENDBRANCH  19  20
ENDBRANCH  13  19
ENDBRANCH   7  12
BRANCH  11  23
ATOM     23  N   UNL A   1      31.535  27.063  22.325  1.00  0.00    -0.280 N 
ATOM     24  H   UNL A   1      31.763  27.359  21.415  1.00  0.00     0.180 HD
BRANCH  23  25
ATOM     25  S   UNL A   1      30.823  28.157  23.443  1.00  0.00     0.263 S 
ATOM     26  O   UNL A   1      30.783  29.444  22.778  1.00  0.00    -0.201 OA
ATOM     27  O   UNL A   1      29.585  27.528  23.846  1.00  0.00    -0.201 OA
BRANCH  25  28
ATOM     28  C   UNL A   1      31.932  28.321  24.825  1.00  0.00     0.106 A 
ATOM     29  C   UNL A   1      31.395  28.027  26.094  1.00  0.00     0.024 A 
ATOM     30  C   UNL A   1      33.283  28.663  24.726  1.00  0.00     0.061 A 
ATOM     31  C   UNL A   1      32.152  28.189  27.255  1.00  0.00     0.002 A 
ATOM     32  C   UNL A   1      34.048  28.786  25.900  1.00  0.00     0.022 A 
ATOM     33  Cl  UNL A   1      34.139  28.952  23.259  1.00  0.00    -0.083 Cl
ATOM     34  C   UNL A   1      33.481  28.576  27.158  1.00  0.00     0.002 A 
ENDBRANCH  25  28
ENDBRANCH  23  25
ENDBRANCH  11  23
ENDBRANCH   4   6
ENDBRANCH   3   4
ENDBRANCH   2   3
ENDBRANCH   1   2
BRANCH   1  35
ATOM     35  O   UNL A   1      37.684  21.417  24.993  1.00  0.00    -0.374 OA
BRANCH  35  36
ATOM     36  C   UNL A   1      38.877  21.149  25.733  1.00  0.00     0.202 C 
BRANCH  36  37
ATOM     37  C   UNL A   1      39.441  19.739  25.542  1.00  0.00     0.261 C 
BRANCH  37  38
ATOM     38  O   UNL A   1      40.472  19.408  26.496  1.00  0.00    -0.460 OA
BRANCH  38  39
ATOM     39  C   UNL A   1      41.748  19.564  26.056  1.00  0.00     0.338 C 
ATOM     40  O   UNL A   1      42.392  18.759  25.405  1.00  0.00    -0.246 OA
BRANCH  39  41
ATOM     41  C   UNL A   1      42.305  20.886  26.450  1.00  0.00     0.060 A 
ATOM     42  C   UNL A   1      42.143  21.323  27.775  1.00  0.00     0.016 A 
ATOM     43  C   UNL A   1      42.897  21.741  25.526  1.00  0.00     0.016 A 
ATOM     44  C   UNL A   1      42.571  22.603  28.185  1.00  0.00     0.010 A 
ATOM     45  C   UNL A   1      43.318  23.014  25.939  1.00  0.00     0.010 A 
ATOM     46  C   UNL A   1      43.176  23.475  27.277  1.00  0.00    -0.014 A 
BRANCH  46  47
ATOM     47  C   UNL A   1      43.643  24.870  27.600  1.00  0.00     0.031 A 
ATOM     48  C   UNL A   1      42.606  25.941  27.707  1.00  0.00     0.074 A 
ATOM     49  C   UNL A   1      44.929  25.280  27.729  1.00  0.00     0.049 A 
ATOM     50  N   UNL A   1      42.786  27.226  27.854  1.00  0.00    -0.248 NA
ATOM     51  C   UNL A   1      41.198  25.514  27.738  1.00  0.00     0.031 C 
ATOM     52  C   UNL A   1      46.100  24.467  27.981  1.00  0.00     0.029 A 
ATOM     53  N   UNL A   1      45.488  26.524  27.498  1.00  0.00    -0.354 N 
ATOM     54  C   UNL A   1      41.540  27.729  28.156  1.00  0.00     0.074 A 
ATOM     55  C   UNL A   1      40.581  26.666  27.950  1.00  0.00     0.031 C 
ATOM     56  C   UNL A   1      47.205  25.096  27.545  1.00  0.00     0.029 A 
ATOM     57  C   UNL A   1      46.835  26.453  27.191  1.00  0.00     0.049 A 
ATOM     58  H   UNL A   1      44.983  27.367  27.546  1.00  0.00     0.167 HD
ATOM     59  C   UNL A   1      41.255  28.929  28.705  1.00  0.00     0.037 A 
ATOM     60  C   UNL A   1      47.691  27.381  26.723  1.00  0.00     0.037 A 
ATOM     61  C   UNL A   1      42.219  29.975  28.908  1.00  0.00     0.049 A 
ATOM     62  C   UNL A   1      47.304  28.805  26.973  1.00  0.00     0.074 A 
ATOM     63  C   UNL A   1      42.046  31.210  29.503  1.00  0.00     0.029 A 
ATOM     64  N   UNL A   1      43.544  29.913  28.494  1.00  0.00    -0.354 N 
ATOM     65  N   UNL A   1      46.155  29.265  27.393  1.00  0.00    -0.248 NA
ATOM     66  C   UNL A   1      48.366  29.813  26.876  1.00  0.00     0.031 C 
ATOM     67  C   UNL A   1      43.246  31.922  29.385  1.00  0.00     0.029 A 
ATOM     68  C   UNL A   1      44.180  31.116  28.754  1.00  0.00     0.049 A 
ATOM     69  H   UNL A   1      43.968  29.129  28.076  1.00  0.00     0.167 HD
ATOM     70  C   UNL A   1      46.391  30.575  27.768  1.00  0.00     0.074 A 
ATOM     71  C   UNL A   1      47.772  30.863  27.429  1.00  0.00     0.031 C 
ATOM     72  C   UNL A   1      45.550  31.418  28.412  1.00  0.00     0.037 A 
BRANCH  59  73
ATOM     73  C   UNL A   1      39.849  29.110  29.172  1.00  0.00     0.064 A 
ATOM     74  C   UNL A   1      39.496  28.860  30.511  1.00  0.00     0.173 A 
ATOM     75  C   UNL A   1      38.838  29.471  28.277  1.00  0.00     0.173 A 
ATOM     76  F   UNL A   1      40.431  28.482  31.397  1.00  0.00    -0.203 F 
ATOM     77  C   UNL A   1      38.171  28.929  30.925  1.00  0.00     0.198 A 
ATOM     78  C   UNL A   1      37.517  29.564  28.701  1.00  0.00     0.198 A 
ATOM     79  F   UNL A   1      39.129  29.703  26.989  1.00  0.00    -0.203 F 
ATOM     80  F   UNL A   1      37.847  28.620  32.187  1.00  0.00    -0.200 F 
ATOM     81  C   UNL A   1      37.183  29.282  30.019  1.00  0.00     0.200 A 
ATOM     82  F   UNL A   1      36.560  29.901  27.827  1.00  0.00    -0.200 F 
ATOM     83  F   UNL A   1      35.903  29.333  30.412  1.00  0.00    -0.200 F 
ENDBRANCH  59  73
BRANCH  60  84
ATOM     84  C   UNL A   1      49.043  27.023  26.218  1.00  0.00     0.064 A 
ATOM     85  C   UNL A   1      50.107  26.741  27.084  1.00  0.00     0.173 A 
ATOM     86  C   UNL A   1      49.303  26.992  24.839  1.00  0.00     0.173 A 
ATOM     87  F   UNL A   1      49.914  26.780  28.409  1.00  0.00    -0.203 F 
ATOM     88  C   UNL A   1      51.383  26.460  26.595  1.00  0.00     0.198 A 
ATOM     89  C   UNL A   1      50.581  26.707  24.349  1.00  0.00     0.198 A 
ATOM     90  F   UNL A   1      48.323  27.259  23.962  1.00  0.00    -0.203 F 
ATOM     91  F   UNL A   1      52.389  26.226  27.449  1.00  0.00    -0.200 F 
ATOM     92  C   UNL A   1      51.620  26.445  25.229  1.00  0.00     0.200 A 
ATOM     93  F   UNL A   1      50.806  26.701  23.028  1.00  0.00    -0.200 F 
ATOM     94  F   UNL A   1      52.850  26.190  24.760  1.00  0.00    -0.200 F 
ENDBRANCH  60  84
BRANCH  72  95
ATOM     95  C   UNL A   1      46.109  32.738  28.841  1.00  0.00     0.064 A 
ATOM     96  C   UNL A   1      46.019  33.873  28.027  1.00  0.00     0.173 A 
ATOM     97  C   UNL A   1      46.715  32.873  30.100  1.00  0.00     0.173 A 
ATOM     98  F   UNL A   1      45.471  33.785  26.805  1.00  0.00    -0.203 F 
ATOM     99  C   UNL A   1      46.535  35.094  28.447  1.00  0.00     0.198 A 
ATOM    100  C   UNL A   1      47.201  34.103  30.531  1.00  0.00     0.198 A 
ATOM    101  F   UNL A   1      46.830  31.813  30.915  1.00  0.00    -0.203 F 
ATOM    102  F   UNL A   1      46.481  36.156  27.632  1.00  0.00    -0.200 F 
ATOM    103  C   UNL A   1      47.115  35.211  29.702  1.00  0.00     0.200 A 
ATOM    104  F   UNL A   1      47.751  34.216  31.748  1.00  0.00    -0.200 F 
ATOM    105  F   UNL A   1      47.599  36.392  30.110  1.00  0.00    -0.200 F 
ENDBRANCH  72  95
ENDBRANCH  46  47
ENDBRANCH  39  41
ENDBRANCH  38  39
ENDBRANCH  37  38
ENDBRANCH  36  37
ENDBRANCH  35  36
ENDBRANCH   1  35
TORSDOF 21
ENDMDL
