MODEL 1
REMARK VINA RESULT:     -11.6      0.000      0.000
REMARK SMILES CC1CCN(C(=O)Nc2nccnc2C(=O)OCCOCCOC(=O)c2ccc(-c3c4nc(c(-c5c(F)c(F)c(F)c(F)c5F)c5ccc([nH]5)c(-c5c(F)c(F)c(F)c(F)c5F)c5nc(c(-c6c(F)c(F)c(F)c(F)c6F)c6ccc3[nH]6)C=C5)C=C4)cc2)CC1
REMARK SMILES IDX 21 1 20 2 19 3 18 4 17 5 15 6 16 7 14 8 9 9 10 10 11 11
REMARK SMILES IDX 13 12 12 13 8 14 1 15 2 16 3 17 90 18 4 19 89 20 5 21 6 22
REMARK SMILES IDX 7 23 22 25 23 26 24 27 25 28 26 29 27 30 88 31 28 32 87 33
REMARK SMILES IDX 29 34 30 35 31 36 81 37 32 38 86 39 80 40 82 41 33 42 85 43
REMARK SMILES IDX 79 44 78 45 34 47 66 48 46 49 65 50 47 51 50 52 64 53 83 54
REMARK SMILES IDX 48 55 49 56 63 58 84 59 51 60 35 61 36 62 44 63 37 64 38 65
REMARK SMILES IDX 42 66 45 67 39 68 40 69 43 70 41 71 67 72 68 73 76 74 69 75
REMARK SMILES IDX 70 76 74 77 77 78 71 79 72 80 75 81 73 82 52 83 53 84 61 85
REMARK SMILES IDX 54 86 55 87 59 88 62 89 56 90 57 91 60 92 58 93
REMARK H PARENT 8 24 82 46 50 57
REMARK Flexibility Score: inf
ROOT
ATOM      1  C   UNL A   1      31.539  32.209  26.778  1.00  0.00     0.202 C 
ENDROOT
BRANCH   1   2
ATOM      2  O   UNL A   1      32.084  30.977  27.254  1.00  0.00    -0.374 OA
BRANCH   2   3
ATOM      3  C   UNL A   1      33.421  30.664  26.870  1.00  0.00     0.202 C 
BRANCH   3   4
ATOM      4  C   UNL A   1      33.702  29.183  26.611  1.00  0.00     0.261 C 
BRANCH   4   5
ATOM      5  O   UNL A   1      32.637  28.588  25.842  1.00  0.00    -0.458 OA
BRANCH   5   6
ATOM      6  C   UNL A   1      32.846  28.563  24.499  1.00  0.00     0.360 C 
ATOM      7  O   UNL A   1      33.930  28.362  23.970  1.00  0.00    -0.244 OA
BRANCH   6   8
ATOM      8  C   UNL A   1      31.584  28.747  23.712  1.00  0.00     0.191 A 
ATOM      9  C   UNL A   1      31.239  28.068  22.529  1.00  0.00     0.167 A 
ATOM     10  N   UNL A   1      30.006  28.255  22.001  1.00  0.00    -0.235 NA
ATOM     11  C   UNL A   1      29.208  29.195  22.556  1.00  0.00     0.133 A 
ATOM     12  N   UNL A   1      30.771  29.708  24.258  1.00  0.00    -0.244 NA
ATOM     13  C   UNL A   1      29.597  29.933  23.647  1.00  0.00     0.132 A 
BRANCH   9  14
ATOM     14  N   UNL A   1      32.129  27.201  21.875  1.00  0.00    -0.290 N 
ATOM     15  C   UNL A   1      31.370  23.566  26.823  1.00  0.00     0.008 C 
ATOM     16  C   UNL A   1      31.268  23.609  25.299  1.00  0.00    -0.011 C 
ATOM     17  C   UNL A   1      32.663  23.482  24.658  1.00  0.00     0.025 C 
ATOM     18  C   UNL A   1      30.568  24.899  24.837  1.00  0.00     0.025 C 
ATOM     19  C   UNL A   1      32.654  23.746  23.149  1.00  0.00     0.121 C 
ATOM     20  C   UNL A   1      30.578  24.989  23.310  1.00  0.00     0.121 C 
ATOM     21  N   UNL A   1      31.958  24.999  22.840  1.00  0.00    -0.324 N 
ATOM     22  C   UNL A   1      32.601  25.952  22.096  1.00  0.00     0.323 C 
ATOM     23  O   UNL A   1      33.654  25.685  21.503  1.00  0.00    -0.248 OA
ATOM     24  H   UNL A   1      32.502  27.600  21.054  1.00  0.00     0.173 HD
ENDBRANCH   9  14
ENDBRANCH   6   8
ENDBRANCH   5   6
ENDBRANCH   4   5
ENDBRANCH   3   4
ENDBRANCH   2   3
ENDBRANCH   1   2
BRANCH   1  25
ATOM     25  C   UNL A   1      32.444  33.437  26.917  1.00  0.00     0.261 C 
BRANCH  25  26
ATOM     26  O   UNL A   1      32.508  33.892  28.281  1.00  0.00    -0.460 OA
BRANCH  26  27
ATOM     27  C   UNL A   1      33.611  34.610  28.596  1.00  0.00     0.338 C 
ATOM     28  O   UNL A   1      33.693  35.825  28.726  1.00  0.00    -0.246 OA
BRANCH  27  29
ATOM     29  C   UNL A   1      34.716  33.704  28.954  1.00  0.00     0.060 A 
ATOM     30  C   UNL A   1      34.401  32.551  29.688  1.00  0.00     0.016 A 
ATOM     31  C   UNL A   1      36.041  33.998  28.629  1.00  0.00     0.016 A 
ATOM     32  C   UNL A   1      35.416  31.713  30.142  1.00  0.00     0.010 A 
ATOM     33  C   UNL A   1      37.059  33.162  29.097  1.00  0.00     0.010 A 
ATOM     34  C   UNL A   1      36.753  32.036  29.883  1.00  0.00    -0.014 A 
BRANCH  34  35
ATOM     35  C   UNL A   1      37.842  31.283  30.547  1.00  0.00     0.031 A 
ATOM     36  C   UNL A   1      38.194  31.614  31.968  1.00  0.00     0.074 A 
ATOM     37  C   UNL A   1      38.514  30.323  29.890  1.00  0.00     0.049 A 
ATOM     38  N   UNL A   1      39.160  31.151  32.718  1.00  0.00    -0.248 NA
ATOM     39  C   UNL A   1      37.341  32.613  32.632  1.00  0.00     0.031 C 
ATOM     40  C   UNL A   1      38.245  29.895  28.520  1.00  0.00     0.029 A 
ATOM     41  N   UNL A   1      39.577  29.552  30.287  1.00  0.00    -0.354 N 
ATOM     42  C   UNL A   1      39.042  31.809  33.935  1.00  0.00     0.074 A 
ATOM     43  C   UNL A   1      37.926  32.722  33.815  1.00  0.00     0.031 C 
ATOM     44  C   UNL A   1      39.138  28.951  28.179  1.00  0.00     0.029 A 
ATOM     45  C   UNL A   1      40.059  28.737  29.295  1.00  0.00     0.049 A 
ATOM     46  H   UNL A   1      39.957  29.581  31.194  1.00  0.00     0.167 HD
ATOM     47  C   UNL A   1      39.796  31.662  35.050  1.00  0.00     0.037 A 
ATOM     48  C   UNL A   1      41.141  27.935  29.279  1.00  0.00     0.037 A 
ATOM     49  C   UNL A   1      40.909  30.756  35.162  1.00  0.00     0.049 A 
ATOM     50  C   UNL A   1      42.003  27.831  30.510  1.00  0.00     0.074 A 
ATOM     51  C   UNL A   1      41.720  30.512  36.256  1.00  0.00     0.029 A 
ATOM     52  N   UNL A   1      41.375  29.952  34.131  1.00  0.00    -0.354 N 
ATOM     53  N   UNL A   1      41.872  28.434  31.666  1.00  0.00    -0.248 NA
ATOM     54  C   UNL A   1      43.162  26.930  30.432  1.00  0.00     0.031 C 
ATOM     55  C   UNL A   1      42.709  29.599  35.872  1.00  0.00     0.029 A 
ATOM     56  C   UNL A   1      42.481  29.232  34.555  1.00  0.00     0.049 A 
ATOM     57  H   UNL A   1      40.980  29.901  33.231  1.00  0.00     0.167 HD
ATOM     58  C   UNL A   1      42.913  27.971  32.461  1.00  0.00     0.074 A 
ATOM     59  C   UNL A   1      43.663  27.029  31.656  1.00  0.00     0.031 C 
ATOM     60  C   UNL A   1      43.217  28.296  33.742  1.00  0.00     0.037 A 
BRANCH  47  61
ATOM     61  C   UNL A   1      39.460  32.533  36.226  1.00  0.00     0.064 A 
ATOM     62  C   UNL A   1      38.468  32.176  37.152  1.00  0.00     0.173 A 
ATOM     63  C   UNL A   1      40.140  33.743  36.429  1.00  0.00     0.173 A 
ATOM     64  F   UNL A   1      37.777  31.037  36.997  1.00  0.00    -0.203 F 
ATOM     65  C   UNL A   1      38.146  33.015  38.216  1.00  0.00     0.198 A 
ATOM     66  C   UNL A   1      39.837  34.565  37.510  1.00  0.00     0.198 A 
ATOM     67  F   UNL A   1      41.100  34.131  35.576  1.00  0.00    -0.203 F 
ATOM     68  F   UNL A   1      37.155  32.681  39.055  1.00  0.00    -0.200 F 
ATOM     69  C   UNL A   1      38.833  34.206  38.397  1.00  0.00     0.200 A 
ATOM     70  F   UNL A   1      40.509  35.711  37.690  1.00  0.00    -0.200 F 
ATOM     71  F   UNL A   1      38.520  35.015  39.420  1.00  0.00    -0.200 F 
ENDBRANCH  47  61
BRANCH  48  72
ATOM     72  C   UNL A   1      41.473  27.182  28.044  1.00  0.00     0.064 A 
ATOM     73  C   UNL A   1      42.290  27.743  27.054  1.00  0.00     0.173 A 
ATOM     74  C   UNL A   1      40.998  25.878  27.839  1.00  0.00     0.173 A 
ATOM     75  F   UNL A   1      42.746  28.997  27.193  1.00  0.00    -0.203 F 
ATOM     76  C   UNL A   1      42.616  27.030  25.902  1.00  0.00     0.198 A 
ATOM     77  C   UNL A   1      41.345  25.156  26.700  1.00  0.00     0.198 A 
ATOM     78  F   UNL A   1      40.209  25.299  28.756  1.00  0.00    -0.203 F 
ATOM     79  F   UNL A   1      43.373  27.600  24.955  1.00  0.00    -0.200 F 
ATOM     80  C   UNL A   1      42.152  25.734  25.730  1.00  0.00     0.200 A 
ATOM     81  F   UNL A   1      40.903  23.901  26.543  1.00  0.00    -0.200 F 
ATOM     82  F   UNL A   1      42.475  25.044  24.629  1.00  0.00    -0.200 F 
ENDBRANCH  48  72
BRANCH  60  83
ATOM     83  C   UNL A   1      44.393  27.603  34.369  1.00  0.00     0.064 A 
ATOM     84  C   UNL A   1      44.270  26.345  34.978  1.00  0.00     0.173 A 
ATOM     85  C   UNL A   1      45.669  28.186  34.317  1.00  0.00     0.173 A 
ATOM     86  F   UNL A   1      43.070  25.752  35.066  1.00  0.00    -0.203 F 
ATOM     87  C   UNL A   1      45.379  25.707  35.531  1.00  0.00     0.198 A 
ATOM     88  C   UNL A   1      46.778  27.532  34.845  1.00  0.00     0.198 A 
ATOM     89  F   UNL A   1      45.842  29.384  33.741  1.00  0.00    -0.203 F 
ATOM     90  F   UNL A   1      45.230  24.525  36.145  1.00  0.00    -0.200 F 
ATOM     91  C   UNL A   1      46.631  26.296  35.457  1.00  0.00     0.200 A 
ATOM     92  F   UNL A   1      47.991  28.097  34.761  1.00  0.00    -0.200 F 
ATOM     93  F   UNL A   1      47.698  25.676  35.981  1.00  0.00    -0.200 F 
ENDBRANCH  60  83
ENDBRANCH  34  35
ENDBRANCH  27  29
ENDBRANCH  26  27
ENDBRANCH  25  26
ENDBRANCH   1  25
TORSDOF 15
ENDMDL
MODEL 2
REMARK VINA RESULT:     -11.5      1.464      7.495
REMARK SMILES CC1CCN(C(=O)Nc2nccnc2C(=O)OCCOCCOC(=O)c2ccc(-c3c4nc(c(-c5c(F)c(F)c(F)c(F)c5F)c5ccc([nH]5)c(-c5c(F)c(F)c(F)c(F)c5F)c5nc(c(-c6c(F)c(F)c(F)c(F)c6F)c6ccc3[nH]6)C=C5)C=C4)cc2)CC1
REMARK SMILES IDX 21 1 20 2 19 3 18 4 17 5 15 6 16 7 14 8 9 9 10 10 11 11
REMARK SMILES IDX 13 12 12 13 8 14 1 15 2 16 3 17 90 18 4 19 89 20 5 21 6 22
REMARK SMILES IDX 7 23 22 25 23 26 24 27 25 28 26 29 27 30 88 31 28 32 87 33
REMARK SMILES IDX 29 34 30 35 31 36 81 37 32 38 86 39 80 40 82 41 33 42 85 43
REMARK SMILES IDX 79 44 78 45 34 47 66 48 46 49 65 50 47 51 50 52 64 53 83 54
REMARK SMILES IDX 48 55 49 56 63 58 84 59 51 60 35 61 36 62 44 63 37 64 38 65
REMARK SMILES IDX 42 66 45 67 39 68 40 69 43 70 41 71 67 72 68 73 76 74 69 75
REMARK SMILES IDX 70 76 74 77 77 78 71 79 72 80 75 81 73 82 52 83 53 84 61 85
REMARK SMILES IDX 54 86 55 87 59 88 62 89 56 90 57 91 60 92 58 93
REMARK H PARENT 8 24 82 46 50 57
REMARK Flexibility Score: inf
ROOT
ATOM      1  C   UNL A   1      31.476  32.361  26.876  1.00  0.00     0.202 C 
ENDROOT
BRANCH   1   2
ATOM      2  O   UNL A   1      31.932  31.015  26.726  1.00  0.00    -0.374 OA
BRANCH   2   3
ATOM      3  C   UNL A   1      33.216  30.698  27.261  1.00  0.00     0.202 C 
BRANCH   3   4
ATOM      4  C   UNL A   1      33.904  29.480  26.643  1.00  0.00     0.261 C 
BRANCH   4   5
ATOM      5  O   UNL A   1      33.102  28.925  25.581  1.00  0.00    -0.458 OA
BRANCH   5   6
ATOM      6  C   UNL A   1      32.911  27.581  25.652  1.00  0.00     0.360 C 
ATOM      7  O   UNL A   1      33.687  26.797  26.180  1.00  0.00    -0.244 OA
BRANCH   6   8
ATOM      8  C   UNL A   1      31.602  27.149  25.064  1.00  0.00     0.191 A 
ATOM      9  C   UNL A   1      30.795  26.092  25.524  1.00  0.00     0.167 A 
ATOM     10  N   UNL A   1      29.578  25.903  24.962  1.00  0.00    -0.235 NA
ATOM     11  C   UNL A   1      29.246  26.652  23.885  1.00  0.00     0.133 A 
ATOM     12  N   UNL A   1      31.261  27.894  23.963  1.00  0.00    -0.244 NA
ATOM     13  C   UNL A   1      30.088  27.610  23.374  1.00  0.00     0.132 A 
BRANCH   9  14
ATOM     14  N   UNL A   1      31.208  25.224  26.547  1.00  0.00    -0.290 N 
ATOM     15  C   UNL A   1      31.883  21.074  22.009  1.00  0.00     0.008 C 
ATOM     16  C   UNL A   1      32.610  21.773  23.157  1.00  0.00    -0.011 C 
ATOM     17  C   UNL A   1      32.225  21.141  24.508  1.00  0.00     0.025 C 
ATOM     18  C   UNL A   1      32.310  23.281  23.152  1.00  0.00     0.025 C 
ATOM     19  C   UNL A   1      32.739  21.939  25.710  1.00  0.00     0.121 C 
ATOM     20  C   UNL A   1      32.944  23.951  24.373  1.00  0.00     0.121 C 
ATOM     21  N   UNL A   1      32.392  23.358  25.585  1.00  0.00    -0.324 N 
ATOM     22  C   UNL A   1      31.716  23.971  26.606  1.00  0.00     0.323 C 
ATOM     23  O   UNL A   1      31.594  23.415  27.706  1.00  0.00    -0.248 OA
ATOM     24  H   UNL A   1      31.102  25.625  27.441  1.00  0.00     0.173 HD
ENDBRANCH   9  14
ENDBRANCH   6   8
ENDBRANCH   5   6
ENDBRANCH   4   5
ENDBRANCH   3   4
ENDBRANCH   2   3
ENDBRANCH   1   2
BRANCH   1  25
ATOM     25  C   UNL A   1      32.558  33.402  27.182  1.00  0.00     0.261 C 
BRANCH  25  26
ATOM     26  O   UNL A   1      32.152  34.287  28.243  1.00  0.00    -0.460 OA
BRANCH  26  27
ATOM     27  C   UNL A   1      33.117  35.120  28.698  1.00  0.00     0.338 C 
ATOM     28  O   UNL A   1      33.026  36.326  28.888  1.00  0.00    -0.246 OA
BRANCH  27  29
ATOM     29  C   UNL A   1      34.292  34.341  29.126  1.00  0.00     0.060 A 
ATOM     30  C   UNL A   1      34.095  33.339  30.087  1.00  0.00     0.016 A 
ATOM     31  C   UNL A   1      35.572  34.618  28.642  1.00  0.00     0.016 A 
ATOM     32  C   UNL A   1      35.184  32.642  30.604  1.00  0.00     0.010 A 
ATOM     33  C   UNL A   1      36.664  33.926  29.172  1.00  0.00     0.010 A 
ATOM     34  C   UNL A   1      36.479  32.960  30.178  1.00  0.00    -0.014 A 
BRANCH  34  35
ATOM     35  C   UNL A   1      37.653  32.390  30.878  1.00  0.00     0.031 A 
ATOM     36  C   UNL A   1      38.422  31.280  30.222  1.00  0.00     0.074 A 
ATOM     37  C   UNL A   1      38.022  32.847  32.086  1.00  0.00     0.049 A 
ATOM     38  N   UNL A   1      39.423  30.574  30.681  1.00  0.00    -0.248 NA
ATOM     39  C   UNL A   1      37.998  30.912  28.862  1.00  0.00     0.031 C 
ATOM     40  C   UNL A   1      37.372  33.937  32.808  1.00  0.00     0.029 A 
ATOM     41  N   UNL A   1      39.026  32.433  32.923  1.00  0.00    -0.354 N 
ATOM     42  C   UNL A   1      39.740  29.670  29.676  1.00  0.00     0.074 A 
ATOM     43  C   UNL A   1      38.809  29.900  28.592  1.00  0.00     0.031 C 
ATOM     44  C   UNL A   1      37.979  34.091  33.996  1.00  0.00     0.029 A 
ATOM     45  C   UNL A   1      39.036  33.089  34.128  1.00  0.00     0.049 A 
ATOM     46  H   UNL A   1      39.677  31.734  32.684  1.00  0.00     0.167 HD
ATOM     47  C   UNL A   1      40.720  28.735  29.660  1.00  0.00     0.037 A 
ATOM     48  C   UNL A   1      39.789  32.880  35.225  1.00  0.00     0.037 A 
ATOM     49  C   UNL A   1      41.639  28.507  30.744  1.00  0.00     0.049 A 
ATOM     50  C   UNL A   1      40.834  31.795  35.209  1.00  0.00     0.074 A 
ATOM     51  C   UNL A   1      42.685  27.605  30.816  1.00  0.00     0.029 A 
ATOM     52  N   UNL A   1      41.611  29.185  31.955  1.00  0.00    -0.354 N 
ATOM     53  N   UNL A   1      41.147  30.961  34.248  1.00  0.00    -0.248 NA
ATOM     54  C   UNL A   1      41.631  31.625  36.432  1.00  0.00     0.031 C 
ATOM     55  C   UNL A   1      43.257  27.699  32.090  1.00  0.00     0.029 A 
ATOM     56  C   UNL A   1      42.604  28.700  32.792  1.00  0.00     0.049 A 
ATOM     57  H   UNL A   1      40.979  29.904  32.186  1.00  0.00     0.167 HD
ATOM     58  C   UNL A   1      42.191  30.185  34.738  1.00  0.00     0.074 A 
ATOM     59  C   UNL A   1      42.462  30.654  36.080  1.00  0.00     0.031 C 
ATOM     60  C   UNL A   1      42.863  29.178  34.127  1.00  0.00     0.037 A 
BRANCH  47  61
ATOM     61  C   UNL A   1      40.817  27.865  28.441  1.00  0.00     0.064 A 
ATOM     62  C   UNL A   1      41.583  28.237  27.325  1.00  0.00     0.173 A 
ATOM     63  C   UNL A   1      40.136  26.640  28.389  1.00  0.00     0.173 A 
ATOM     64  F   UNL A   1      42.242  29.404  27.317  1.00  0.00    -0.203 F 
ATOM     65  C   UNL A   1      41.632  27.431  26.189  1.00  0.00     0.198 A 
ATOM     66  C   UNL A   1      40.211  25.823  27.264  1.00  0.00     0.198 A 
ATOM     67  F   UNL A   1      39.393  26.233  29.430  1.00  0.00    -0.203 F 
ATOM     68  F   UNL A   1      42.321  27.835  25.113  1.00  0.00    -0.200 F 
ATOM     69  C   UNL A   1      40.950  26.224  26.161  1.00  0.00     0.200 A 
ATOM     70  F   UNL A   1      39.561  24.651  27.243  1.00  0.00    -0.200 F 
ATOM     71  F   UNL A   1      40.995  25.451  25.067  1.00  0.00    -0.200 F 
ENDBRANCH  47  61
BRANCH  48  72
ATOM     72  C   UNL A   1      39.566  33.712  36.434  1.00  0.00     0.064 A 
ATOM     73  C   UNL A   1      40.154  34.977  36.558  1.00  0.00     0.173 A 
ATOM     74  C   UNL A   1      38.742  33.268  37.479  1.00  0.00     0.173 A 
ATOM     75  F   UNL A   1      40.971  35.433  35.596  1.00  0.00    -0.203 F 
ATOM     76  C   UNL A   1      39.931  35.766  37.684  1.00  0.00     0.198 A 
ATOM     77  C   UNL A   1      38.499  34.068  38.592  1.00  0.00     0.198 A 
ATOM     78  F   UNL A   1      38.160  32.062  37.408  1.00  0.00    -0.203 F 
ATOM     79  F   UNL A   1      40.530  36.959  37.793  1.00  0.00    -0.200 F 
ATOM     80  C   UNL A   1      39.096  35.315  38.696  1.00  0.00     0.200 A 
ATOM     81  F   UNL A   1      37.683  33.632  39.563  1.00  0.00    -0.200 F 
ATOM     82  F   UNL A   1      38.872  36.079  39.773  1.00  0.00    -0.200 F 
ENDBRANCH  48  72
BRANCH  60  83
ATOM     83  C   UNL A   1      43.984  28.534  34.892  1.00  0.00     0.064 A 
ATOM     84  C   UNL A   1      43.763  27.442  35.744  1.00  0.00     0.173 A 
ATOM     85  C   UNL A   1      45.303  28.986  34.731  1.00  0.00     0.173 A 
ATOM     86  F   UNL A   1      42.520  26.981  35.944  1.00  0.00    -0.203 F 
ATOM     87  C   UNL A   1      44.821  26.841  36.425  1.00  0.00     0.198 A 
ATOM     88  C   UNL A   1      46.359  28.364  35.390  1.00  0.00     0.198 A 
ATOM     89  F   UNL A   1      45.569  30.022  33.923  1.00  0.00    -0.203 F 
ATOM     90  F   UNL A   1      44.581  25.826  37.268  1.00  0.00    -0.200 F 
ATOM     91  C   UNL A   1      46.117  27.297  36.242  1.00  0.00     0.200 A 
ATOM     92  F   UNL A   1      47.614  28.798  35.201  1.00  0.00    -0.200 F 
ATOM     93  F   UNL A   1      47.134  26.711  36.890  1.00  0.00    -0.200 F 
ENDBRANCH  60  83
ENDBRANCH  34  35
ENDBRANCH  27  29
ENDBRANCH  26  27
ENDBRANCH  25  26
ENDBRANCH   1  25
TORSDOF 15
ENDMDL
MODEL 3
REMARK VINA RESULT:     -11.5      1.027      7.429
REMARK SMILES CC1CCN(C(=O)Nc2nccnc2C(=O)OCCOCCOC(=O)c2ccc(-c3c4nc(c(-c5c(F)c(F)c(F)c(F)c5F)c5ccc([nH]5)c(-c5c(F)c(F)c(F)c(F)c5F)c5nc(c(-c6c(F)c(F)c(F)c(F)c6F)c6ccc3[nH]6)C=C5)C=C4)cc2)CC1
REMARK SMILES IDX 21 1 20 2 19 3 18 4 17 5 15 6 16 7 14 8 9 9 10 10 11 11
REMARK SMILES IDX 13 12 12 13 8 14 1 15 2 16 3 17 90 18 4 19 89 20 5 21 6 22
REMARK SMILES IDX 7 23 22 25 23 26 24 27 25 28 26 29 27 30 88 31 28 32 87 33
REMARK SMILES IDX 29 34 30 35 31 36 81 37 32 38 86 39 80 40 82 41 33 42 85 43
REMARK SMILES IDX 79 44 78 45 34 47 66 48 46 49 65 50 47 51 50 52 64 53 83 54
REMARK SMILES IDX 48 55 49 56 63 58 84 59 51 60 35 61 36 62 44 63 37 64 38 65
REMARK SMILES IDX 42 66 45 67 39 68 40 69 43 70 41 71 67 72 68 73 76 74 69 75
REMARK SMILES IDX 70 76 74 77 77 78 71 79 72 80 75 81 73 82 52 83 53 84 61 85
REMARK SMILES IDX 54 86 55 87 59 88 62 89 56 90 57 91 60 92 58 93
REMARK H PARENT 8 24 82 46 50 57
REMARK Flexibility Score: inf
ROOT
ATOM      1  C   UNL A   1      31.837  31.204  26.864  1.00  0.00     0.202 C 
ENDROOT
BRANCH   1   2
ATOM      2  O   UNL A   1      33.144  30.629  26.833  1.00  0.00    -0.374 OA
BRANCH   2   3
ATOM      3  C   UNL A   1      33.284  29.297  27.324  1.00  0.00     0.202 C 
BRANCH   3   4
ATOM      4  C   UNL A   1      33.944  28.308  26.362  1.00  0.00     0.261 C 
BRANCH   4   5
ATOM      5  O   UNL A   1      32.973  27.761  25.446  1.00  0.00    -0.458 OA
BRANCH   5   6
ATOM      6  C   UNL A   1      33.085  28.202  24.166  1.00  0.00     0.360 C 
ATOM      7  O   UNL A   1      34.140  28.298  23.554  1.00  0.00    -0.244 OA
BRANCH   6   8
ATOM      8  C   UNL A   1      31.758  28.505  23.539  1.00  0.00     0.191 A 
ATOM      9  C   UNL A   1      31.219  27.885  22.396  1.00  0.00     0.167 A 
ATOM     10  N   UNL A   1      29.952  28.183  22.023  1.00  0.00    -0.235 NA
ATOM     11  C   UNL A   1      29.306  29.170  22.684  1.00  0.00     0.133 A 
ATOM     12  N   UNL A   1      31.097  29.515  24.193  1.00  0.00    -0.244 NA
ATOM     13  C   UNL A   1      29.881  29.848  23.731  1.00  0.00     0.132 A 
BRANCH   9  14
ATOM     14  N   UNL A   1      31.951  26.965  21.627  1.00  0.00    -0.290 N 
ATOM     15  C   UNL A   1      31.981  23.520  26.765  1.00  0.00     0.008 C 
ATOM     16  C   UNL A   1      31.609  23.518  25.283  1.00  0.00    -0.011 C 
ATOM     17  C   UNL A   1      32.862  23.320  24.409  1.00  0.00     0.025 C 
ATOM     18  C   UNL A   1      30.877  24.817  24.905  1.00  0.00     0.025 C 
ATOM     19  C   UNL A   1      32.590  23.536  22.917  1.00  0.00     0.121 C 
ATOM     20  C   UNL A   1      30.616  24.858  23.398  1.00  0.00     0.121 C 
ATOM     21  N   UNL A   1      31.889  24.803  22.690  1.00  0.00    -0.324 N 
ATOM     22  C   UNL A   1      32.417  25.708  21.808  1.00  0.00     0.323 C 
ATOM     23  O   UNL A   1      33.338  25.384  21.047  1.00  0.00    -0.248 OA
ATOM     24  H   UNL A   1      32.183  27.324  20.739  1.00  0.00     0.173 HD
ENDBRANCH   9  14
ENDBRANCH   6   8
ENDBRANCH   5   6
ENDBRANCH   4   5
ENDBRANCH   3   4
ENDBRANCH   2   3
ENDBRANCH   1   2
BRANCH   1  25
ATOM     25  C   UNL A   1      31.777  32.714  27.114  1.00  0.00     0.261 C 
BRANCH  25  26
ATOM     26  O   UNL A   1      33.094  33.275  27.268  1.00  0.00    -0.460 OA
BRANCH  26  27
ATOM     27  C   UNL A   1      33.215  34.195  28.253  1.00  0.00     0.338 C 
ATOM     28  O   UNL A   1      32.455  35.123  28.499  1.00  0.00    -0.246 OA
BRANCH  27  29
ATOM     29  C   UNL A   1      34.328  33.830  29.148  1.00  0.00     0.060 A 
ATOM     30  C   UNL A   1      35.602  34.328  28.838  1.00  0.00     0.016 A 
ATOM     31  C   UNL A   1      34.145  32.975  30.235  1.00  0.00     0.016 A 
ATOM     32  C   UNL A   1      36.707  33.933  29.587  1.00  0.00     0.010 A 
ATOM     33  C   UNL A   1      35.258  32.570  30.978  1.00  0.00     0.010 A 
ATOM     34  C   UNL A   1      36.547  33.021  30.636  1.00  0.00    -0.014 A 
BRANCH  34  35
ATOM     35  C   UNL A   1      37.733  32.423  31.290  1.00  0.00     0.031 A 
ATOM     36  C   UNL A   1      38.480  31.329  30.583  1.00  0.00     0.074 A 
ATOM     37  C   UNL A   1      38.135  32.843  32.502  1.00  0.00     0.049 A 
ATOM     38  N   UNL A   1      39.488  30.605  30.997  1.00  0.00    -0.248 NA
ATOM     39  C   UNL A   1      38.021  31.004  29.224  1.00  0.00     0.031 C 
ATOM     40  C   UNL A   1      37.509  33.914  33.271  1.00  0.00     0.029 A 
ATOM     41  N   UNL A   1      39.156  32.399  33.302  1.00  0.00    -0.354 N 
ATOM     42  C   UNL A   1      39.774  29.729  29.958  1.00  0.00     0.074 A 
ATOM     43  C   UNL A   1      38.819  29.996  28.905  1.00  0.00     0.031 C 
ATOM     44  C   UNL A   1      38.146  34.030  34.448  1.00  0.00     0.029 A 
ATOM     45  C   UNL A   1      39.199  33.018  34.526  1.00  0.00     0.049 A 
ATOM     46  H   UNL A   1      39.797  31.703  33.027  1.00  0.00     0.167 HD
ATOM     47  C   UNL A   1      40.747  28.790  29.891  1.00  0.00     0.037 A 
ATOM     48  C   UNL A   1      39.977  32.772  35.597  1.00  0.00     0.037 A 
ATOM     49  C   UNL A   1      41.691  28.525  30.945  1.00  0.00     0.049 A 
ATOM     50  C   UNL A   1      41.015  31.682  35.524  1.00  0.00     0.074 A 
ATOM     51  C   UNL A   1      42.733  27.615  30.965  1.00  0.00     0.029 A 
ATOM     52  N   UNL A   1      41.697  29.167  32.176  1.00  0.00    -0.354 N 
ATOM     53  N   UNL A   1      41.300  30.876  34.531  1.00  0.00    -0.248 NA
ATOM     54  C   UNL A   1      41.840  31.472  36.721  1.00  0.00     0.031 C 
ATOM     55  C   UNL A   1      43.336  27.668  32.227  1.00  0.00     0.029 A 
ATOM     56  C   UNL A   1      42.706  28.651  32.974  1.00  0.00     0.049 A 
ATOM     57  H   UNL A   1      41.075  29.881  32.443  1.00  0.00     0.167 HD
ATOM     58  C   UNL A   1      42.349  30.080  34.972  1.00  0.00     0.074 A 
ATOM     59  C   UNL A   1      42.657  30.508  36.321  1.00  0.00     0.031 C 
ATOM     60  C   UNL A   1      43.001  29.088  34.316  1.00  0.00     0.037 A 
BRANCH  47  61
ATOM     61  C   UNL A   1      40.810  27.955  28.645  1.00  0.00     0.064 A 
ATOM     62  C   UNL A   1      41.566  28.347  27.529  1.00  0.00     0.173 A 
ATOM     63  C   UNL A   1      40.104  26.746  28.566  1.00  0.00     0.173 A 
ATOM     64  F   UNL A   1      42.248  29.501  27.546  1.00  0.00    -0.203 F 
ATOM     65  C   UNL A   1      41.583  27.576  26.369  1.00  0.00     0.198 A 
ATOM     66  C   UNL A   1      40.147  25.963  27.416  1.00  0.00     0.198 A 
ATOM     67  F   UNL A   1      39.369  26.322  29.605  1.00  0.00    -0.203 F 
ATOM     68  F   UNL A   1      42.264  27.999  25.295  1.00  0.00    -0.200 F 
ATOM     69  C   UNL A   1      40.878  26.383  26.314  1.00  0.00     0.200 A 
ATOM     70  F   UNL A   1      39.474  24.804  27.369  1.00  0.00    -0.200 F 
ATOM     71  F   UNL A   1      40.892  25.643  25.197  1.00  0.00    -0.200 F 
ENDBRANCH  47  61
BRANCH  48  72
ATOM     72  C   UNL A   1      39.788  33.569  36.835  1.00  0.00     0.064 A 
ATOM     73  C   UNL A   1      40.546  34.724  37.073  1.00  0.00     0.173 A 
ATOM     74  C   UNL A   1      38.832  33.205  37.794  1.00  0.00     0.173 A 
ATOM     75  F   UNL A   1      41.491  35.096  36.197  1.00  0.00    -0.203 F 
ATOM     76  C   UNL A   1      40.357  35.482  38.226  1.00  0.00     0.198 A 
ATOM     77  C   UNL A   1      38.625  33.978  38.934  1.00  0.00     0.198 A 
ATOM     78  F   UNL A   1      38.085  32.106  37.613  1.00  0.00    -0.203 F 
ATOM     79  F   UNL A   1      41.115  36.564  38.445  1.00  0.00    -0.200 F 
ATOM     80  C   UNL A   1      39.390  35.114  39.151  1.00  0.00     0.200 A 
ATOM     81  F   UNL A   1      37.684  33.625  39.820  1.00  0.00    -0.200 F 
ATOM     82  F   UNL A   1      39.200  35.850  40.253  1.00  0.00    -0.200 F 
ENDBRANCH  48  72
BRANCH  60  83
ATOM     83  C   UNL A   1      44.135  28.415  35.034  1.00  0.00     0.064 A 
ATOM     84  C   UNL A   1      45.450  28.899  34.955  1.00  0.00     0.173 A 
ATOM     85  C   UNL A   1      43.894  27.298  35.851  1.00  0.00     0.173 A 
ATOM     86  F   UNL A   1      45.735  29.954  34.177  1.00  0.00    -0.203 F 
ATOM     87  C   UNL A   1      46.484  28.276  35.650  1.00  0.00     0.198 A 
ATOM     88  C   UNL A   1      44.925  26.698  36.566  1.00  0.00     0.198 A 
ATOM     89  F   UNL A   1      42.655  26.801  35.965  1.00  0.00    -0.203 F 
ATOM     90  F   UNL A   1      47.740  28.729  35.526  1.00  0.00    -0.200 F 
ATOM     91  C   UNL A   1      46.220  27.182  36.460  1.00  0.00     0.200 A 
ATOM     92  F   UNL A   1      44.666  25.648  37.359  1.00  0.00    -0.200 F 
ATOM     93  F   UNL A   1      47.215  26.590  37.136  1.00  0.00    -0.200 F 
ENDBRANCH  60  83
ENDBRANCH  34  35
ENDBRANCH  27  29
ENDBRANCH  26  27
ENDBRANCH  25  26
ENDBRANCH   1  25
TORSDOF 15
ENDMDL
