MODEL 1
REMARK VINA RESULT:     -10.0      0.000      0.000
REMARK SMILES CNC(=O)[C@H]1CCCCN1C(=O)NCCOCC(=O)OCCOCCOC(=O)c1ccc(-c2c3nc(c(-c4c(F)c(F)c(F)c(F)c4F)c4ccc([nH]4)c(-c4c(F)c(F)c(F)c(F)c4F)c4nc(c(-c5c(F)c(F)c(F)c(F)c5F)c5ccc2[nH]5)C=C4)C=C3)cc1
REMARK SMILES IDX 21 1 20 2 18 3 19 4 17 5 16 6 15 7 14 8 13 9 11 10 12 11
REMARK SMILES IDX 10 13 5 14 6 15 7 16 9 17 8 18 3 19 1 20 2 21 4 23 22 24
REMARK SMILES IDX 23 25 24 26 25 27 26 28 27 29 28 30 29 31 30 32 91 33 31 34
REMARK SMILES IDX 90 35 32 36 33 37 34 38 84 39 35 40 89 41 83 42 85 43 36 44
REMARK SMILES IDX 88 45 82 46 81 47 37 49 69 50 49 51 68 52 50 53 53 54 67 55
REMARK SMILES IDX 86 56 51 57 52 58 66 60 87 61 54 62 38 63 39 64 47 65 40 66
REMARK SMILES IDX 41 67 45 68 48 69 42 70 43 71 46 72 44 73 70 74 71 75 79 76
REMARK SMILES IDX 72 77 73 78 77 79 80 80 74 81 75 82 78 83 76 84 55 85 56 86
REMARK SMILES IDX 64 87 57 88 58 89 62 90 65 91 59 92 60 93 63 94 61 95
REMARK H PARENT 13 12 2 22 85 48 53 59
REMARK Flexibility Score: inf
ROOT
ATOM      1  C   UNL A   1      33.549  28.792  25.188  1.00  0.00     0.261 C 
ENDROOT
BRANCH   1   2
ATOM      2  O   UNL A   1      33.616  29.254  23.820  1.00  0.00    -0.462 OA
BRANCH   2   3
ATOM      3  C   UNL A   1      33.529  28.289  22.865  1.00  0.00     0.332 C 
ATOM      4  O   UNL A   1      34.176  28.267  21.824  1.00  0.00    -0.250 OA
BRANCH   3   5
ATOM      5  C   UNL A   1      32.440  27.255  23.175  1.00  0.00     0.282 C 
BRANCH   5   6
ATOM      6  O   UNL A   1      31.522  26.768  22.217  1.00  0.00    -0.368 OA
BRANCH   6   7
ATOM      7  C   UNL A   1      31.998  25.819  21.260  1.00  0.00     0.182 C 
BRANCH   7   8
ATOM      8  C   UNL A   1      33.086  24.852  21.754  1.00  0.00     0.146 C 
BRANCH   8   9
ATOM      9  N   UNL A   1      32.552  23.557  22.165  1.00  0.00    -0.336 N 
ATOM     10  C   UNL A   1      32.724  22.610  23.092  1.00  0.00     0.318 C 
ATOM     11  O   UNL A   1      31.974  21.641  22.929  1.00  0.00    -0.249 OA
ATOM     12  H   UNL A   1      31.822  23.294  21.558  1.00  0.00     0.165 HD
BRANCH  10  13
ATOM     13  N   UNL A   1      33.605  22.655  24.129  1.00  0.00    -0.313 N 
ATOM     14  C   UNL A   1      33.285  23.619  25.224  1.00  0.00     0.176 C 
ATOM     15  C   UNL A   1      34.374  24.701  25.308  1.00  0.00     0.035 C 
ATOM     16  C   UNL A   1      35.784  24.112  25.379  1.00  0.00     0.004 C 
ATOM     17  C   UNL A   1      34.913  22.019  24.270  1.00  0.00     0.122 C 
ATOM     18  C   UNL A   1      36.017  23.073  24.280  1.00  0.00     0.022 C 
BRANCH  14  19
ATOM     19  C   UNL A   1      33.049  22.973  26.616  1.00  0.00     0.242 C 
ATOM     20  C   UNL A   1      30.574  22.479  26.239  1.00  0.00     0.142 C 
ATOM     21  N   UNL A   1      31.800  22.571  26.996  1.00  0.00    -0.357 N 
ATOM     22  H   UNL A   1      31.725  22.301  27.939  1.00  0.00     0.163 HD
ATOM     23  O   UNL A   1      33.947  22.854  27.454  1.00  0.00    -0.273 OA
ENDBRANCH  14  19
ENDBRANCH  10  13
ENDBRANCH   8   9
ENDBRANCH   7   8
ENDBRANCH   6   7
ENDBRANCH   5   6
ENDBRANCH   3   5
ENDBRANCH   2   3
ENDBRANCH   1   2
BRANCH   1  24
ATOM     24  C   UNL A   1      32.988  29.878  26.107  1.00  0.00     0.202 C 
BRANCH  24  25
ATOM     25  O   UNL A   1      31.692  30.372  25.763  1.00  0.00    -0.374 OA
BRANCH  25  26
ATOM     26  C   UNL A   1      31.416  31.726  26.118  1.00  0.00     0.202 C 
BRANCH  26  27
ATOM     27  C   UNL A   1      32.007  32.180  27.459  1.00  0.00     0.261 C 
BRANCH  27  28
ATOM     28  O   UNL A   1      33.106  33.089  27.273  1.00  0.00    -0.460 OA
BRANCH  28  29
ATOM     29  C   UNL A   1      33.197  34.040  28.232  1.00  0.00     0.338 C 
ATOM     30  O   UNL A   1      32.426  34.959  28.449  1.00  0.00    -0.246 OA
BRANCH  29  31
ATOM     31  C   UNL A   1      34.300  33.731  29.160  1.00  0.00     0.060 A 
ATOM     32  C   UNL A   1      35.547  34.285  28.848  1.00  0.00     0.016 A 
ATOM     33  C   UNL A   1      34.160  32.850  30.235  1.00  0.00     0.016 A 
ATOM     34  C   UNL A   1      36.677  33.891  29.552  1.00  0.00     0.010 A 
ATOM     35  C   UNL A   1      35.301  32.452  30.944  1.00  0.00     0.010 A 
ATOM     36  C   UNL A   1      36.570  32.928  30.567  1.00  0.00    -0.014 A 
BRANCH  36  37
ATOM     37  C   UNL A   1      37.823  32.299  31.057  1.00  0.00     0.031 A 
ATOM     38  C   UNL A   1      38.299  32.625  32.447  1.00  0.00     0.074 A 
ATOM     39  C   UNL A   1      38.446  31.351  30.336  1.00  0.00     0.049 A 
ATOM     40  N   UNL A   1      39.272  32.089  33.142  1.00  0.00    -0.248 NA
ATOM     41  C   UNL A   1      37.576  33.694  33.154  1.00  0.00     0.031 C 
ATOM     42  C   UNL A   1      38.054  30.916  28.998  1.00  0.00     0.029 A 
ATOM     43  N   UNL A   1      39.525  30.561  30.647  1.00  0.00    -0.354 N 
ATOM     44  C   UNL A   1      39.265  32.744  34.367  1.00  0.00     0.074 A 
ATOM     45  C   UNL A   1      38.227  33.750  34.305  1.00  0.00     0.031 C 
ATOM     46  C   UNL A   1      38.867  29.919  28.609  1.00  0.00     0.029 A 
ATOM     47  C   UNL A   1      39.843  29.657  29.665  1.00  0.00     0.049 A 
ATOM     48  H   UNL A   1      40.021  30.636  31.494  1.00  0.00     0.167 HD
ATOM     49  C   UNL A   1      40.036  32.514  35.457  1.00  0.00     0.037 A 
ATOM     50  C   UNL A   1      40.808  28.718  29.631  1.00  0.00     0.037 A 
ATOM     51  C   UNL A   1      41.075  31.520  35.520  1.00  0.00     0.049 A 
ATOM     52  C   UNL A   1      41.699  28.527  30.831  1.00  0.00     0.074 A 
ATOM     53  C   UNL A   1      41.925  31.221  36.571  1.00  0.00     0.029 A 
ATOM     54  N   UNL A   1      41.408  30.663  34.481  1.00  0.00    -0.354 N 
ATOM     55  N   UNL A   1      41.670  29.135  31.993  1.00  0.00    -0.248 NA
ATOM     56  C   UNL A   1      42.747  27.503  30.717  1.00  0.00     0.031 C 
ATOM     57  C   UNL A   1      42.800  30.211  36.153  1.00  0.00     0.029 A 
ATOM     58  C   UNL A   1      42.460  29.846  34.860  1.00  0.00     0.049 A 
ATOM     59  H   UNL A   1      40.961  30.640  33.604  1.00  0.00     0.167 HD
ATOM     60  C   UNL A   1      42.669  28.545  32.758  1.00  0.00     0.074 A 
ATOM     61  C   UNL A   1      43.276  27.522  31.932  1.00  0.00     0.031 C 
ATOM     62  C   UNL A   1      43.047  28.824  34.031  1.00  0.00     0.037 A 
BRANCH  49  63
ATOM     63  C   UNL A   1      39.795  33.377  36.661  1.00  0.00     0.064 A 
ATOM     64  C   UNL A   1      40.524  34.556  36.880  1.00  0.00     0.173 A 
ATOM     65  C   UNL A   1      38.820  33.025  37.606  1.00  0.00     0.173 A 
ATOM     66  F   UNL A   1      41.479  34.929  36.015  1.00  0.00    -0.203 F 
ATOM     67  C   UNL A   1      40.306  35.334  38.015  1.00  0.00     0.198 A 
ATOM     68  C   UNL A   1      38.585  33.821  38.725  1.00  0.00     0.198 A 
ATOM     69  F   UNL A   1      38.093  31.909  37.445  1.00  0.00    -0.203 F 
ATOM     70  F   UNL A   1      41.051  36.428  38.229  1.00  0.00    -0.200 F 
ATOM     71  C   UNL A   1      39.334  34.969  38.933  1.00  0.00     0.200 A 
ATOM     72  F   UNL A   1      37.638  33.471  39.607  1.00  0.00    -0.200 F 
ATOM     73  F   UNL A   1      39.125  35.718  40.025  1.00  0.00    -0.200 F 
ENDBRANCH  49  63
BRANCH  50  74
ATOM     74  C   UNL A   1      40.970  27.862  28.426  1.00  0.00     0.064 A 
ATOM     75  C   UNL A   1      41.783  28.263  27.357  1.00  0.00     0.173 A 
ATOM     76  C   UNL A   1      40.297  26.637  28.311  1.00  0.00     0.173 A 
ATOM     77  F   UNL A   1      42.427  29.438  27.408  1.00  0.00    -0.203 F 
ATOM     78  C   UNL A   1      41.903  27.479  26.211  1.00  0.00     0.198 A 
ATOM     79  C   UNL A   1      40.439  25.841  27.176  1.00  0.00     0.198 A 
ATOM     80  F   UNL A   1      39.504  26.210  29.305  1.00  0.00    -0.203 F 
ATOM     81  F   UNL A   1      42.650  27.907  25.183  1.00  0.00    -0.200 F 
ATOM     82  C   UNL A   1      41.235  26.267  26.124  1.00  0.00     0.200 A 
ATOM     83  F   UNL A   1      39.799  24.667  27.100  1.00  0.00    -0.200 F 
ATOM     84  F   UNL A   1      41.351  25.514  25.022  1.00  0.00    -0.200 F 
ENDBRANCH  50  74
BRANCH  62  85
ATOM     85  C   UNL A   1      44.137  27.978  34.623  1.00  0.00     0.064 A 
ATOM     86  C   UNL A   1      45.487  28.355  34.555  1.00  0.00     0.173 A 
ATOM     87  C   UNL A   1      43.824  26.778  35.280  1.00  0.00     0.173 A 
ATOM     88  F   UNL A   1      45.841  29.486  33.925  1.00  0.00    -0.203 F 
ATOM     89  C   UNL A   1      46.485  27.543  35.087  1.00  0.00     0.198 A 
ATOM     90  C   UNL A   1      44.822  25.985  35.841  1.00  0.00     0.198 A 
ATOM     91  F   UNL A   1      42.549  26.375  35.383  1.00  0.00    -0.203 F 
ATOM     92  F   UNL A   1      47.772  27.894  34.956  1.00  0.00    -0.200 F 
ATOM     93  C   UNL A   1      46.152  26.362  35.734  1.00  0.00     0.200 A 
ATOM     94  F   UNL A   1      44.498  24.851  36.476  1.00  0.00    -0.200 F 
ATOM     95  F   UNL A   1      47.114  25.582  36.243  1.00  0.00    -0.200 F 
ENDBRANCH  62  85
ENDBRANCH  36  37
ENDBRANCH  29  31
ENDBRANCH  28  29
ENDBRANCH  27  28
ENDBRANCH  26  27
ENDBRANCH  25  26
ENDBRANCH  24  25
ENDBRANCH   1  24
TORSDOF 20
ENDMDL
MODEL 2
REMARK VINA RESULT:     -10.0      3.314      8.447
REMARK SMILES CNC(=O)[C@H]1CCCCN1C(=O)NCCOCC(=O)OCCOCCOC(=O)c1ccc(-c2c3nc(c(-c4c(F)c(F)c(F)c(F)c4F)c4ccc([nH]4)c(-c4c(F)c(F)c(F)c(F)c4F)c4nc(c(-c5c(F)c(F)c(F)c(F)c5F)c5ccc2[nH]5)C=C4)C=C3)cc1
REMARK SMILES IDX 21 1 20 2 18 3 19 4 17 5 16 6 15 7 14 8 13 9 11 10 12 11
REMARK SMILES IDX 10 13 5 14 6 15 7 16 9 17 8 18 3 19 1 20 2 21 4 23 22 24
REMARK SMILES IDX 23 25 24 26 25 27 26 28 27 29 28 30 29 31 30 32 91 33 31 34
REMARK SMILES IDX 90 35 32 36 33 37 34 38 84 39 35 40 89 41 83 42 85 43 36 44
REMARK SMILES IDX 88 45 82 46 81 47 37 49 69 50 49 51 68 52 50 53 53 54 67 55
REMARK SMILES IDX 86 56 51 57 52 58 66 60 87 61 54 62 38 63 39 64 47 65 40 66
REMARK SMILES IDX 41 67 45 68 48 69 42 70 43 71 46 72 44 73 70 74 71 75 79 76
REMARK SMILES IDX 72 77 73 78 77 79 80 80 74 81 75 82 78 83 76 84 55 85 56 86
REMARK SMILES IDX 64 87 57 88 58 89 62 90 65 91 59 92 60 93 63 94 61 95
REMARK H PARENT 13 12 2 22 85 48 53 59
REMARK Flexibility Score: inf
ROOT
ATOM      1  C   UNL A   1      40.869  20.981  26.518  1.00  0.00     0.261 C 
ENDROOT
BRANCH   1   2
ATOM      2  O   UNL A   1      39.922  22.016  26.867  1.00  0.00    -0.462 OA
BRANCH   2   3
ATOM      3  C   UNL A   1      38.806  22.083  26.092  1.00  0.00     0.332 C 
ATOM      4  O   UNL A   1      38.394  21.183  25.369  1.00  0.00    -0.250 OA
BRANCH   3   5
ATOM      5  C   UNL A   1      38.148  23.467  26.132  1.00  0.00     0.282 C 
BRANCH   5   6
ATOM      6  O   UNL A   1      36.787  23.701  25.833  1.00  0.00    -0.368 OA
BRANCH   6   7
ATOM      7  C   UNL A   1      36.399  23.712  24.457  1.00  0.00     0.182 C 
BRANCH   7   8
ATOM      8  C   UNL A   1      35.297  22.716  24.060  1.00  0.00     0.146 C 
BRANCH   8   9
ATOM      9  N   UNL A   1      34.180  23.350  23.366  1.00  0.00    -0.336 N 
ATOM     10  C   UNL A   1      33.058  24.032  23.612  1.00  0.00     0.318 C 
ATOM     11  O   UNL A   1      32.429  24.302  22.582  1.00  0.00    -0.249 OA
ATOM     12  H   UNL A   1      34.291  23.238  22.394  1.00  0.00     0.165 HD
BRANCH  10  13
ATOM     13  N   UNL A   1      32.609  24.421  24.836  1.00  0.00    -0.313 N 
ATOM     14  C   UNL A   1      31.140  24.289  25.072  1.00  0.00     0.176 C 
ATOM     15  C   UNL A   1      30.515  25.676  25.295  1.00  0.00     0.035 C 
ATOM     16  C   UNL A   1      31.254  26.489  26.360  1.00  0.00     0.004 C 
ATOM     17  C   UNL A   1      33.318  25.106  25.915  1.00  0.00     0.122 C 
ATOM     18  C   UNL A   1      32.762  26.515  26.104  1.00  0.00     0.022 C 
BRANCH  14  19
ATOM     19  C   UNL A   1      30.746  23.322  26.221  1.00  0.00     0.242 C 
ATOM     20  C   UNL A   1      31.879  21.270  25.212  1.00  0.00     0.142 C 
ATOM     21  N   UNL A   1      31.055  21.993  26.151  1.00  0.00    -0.357 N 
ATOM     22  H   UNL A   1      30.648  21.439  26.856  1.00  0.00     0.163 HD
ATOM     23  O   UNL A   1      30.092  23.687  27.201  1.00  0.00    -0.273 OA
ENDBRANCH  14  19
ENDBRANCH  10  13
ENDBRANCH   8   9
ENDBRANCH   7   8
ENDBRANCH   6   7
ENDBRANCH   5   6
ENDBRANCH   3   5
ENDBRANCH   2   3
ENDBRANCH   1   2
BRANCH   1  24
ATOM     24  C   UNL A   1      42.206  21.199  27.227  1.00  0.00     0.202 C 
BRANCH  24  25
ATOM     25  O   UNL A   1      43.307  21.538  26.381  1.00  0.00    -0.374 OA
BRANCH  25  26
ATOM     26  C   UNL A   1      42.982  22.092  25.108  1.00  0.00     0.202 C 
BRANCH  26  27
ATOM     27  C   UNL A   1      44.005  23.091  24.553  1.00  0.00     0.261 C 
BRANCH  27  28
ATOM     28  O   UNL A   1      44.688  23.792  25.608  1.00  0.00    -0.460 OA
BRANCH  28  29
ATOM     29  C   UNL A   1      44.787  25.126  25.403  1.00  0.00     0.338 C 
ATOM     30  O   UNL A   1      45.468  25.706  24.574  1.00  0.00    -0.246 OA
BRANCH  29  31
ATOM     31  C   UNL A   1      43.793  25.847  26.217  1.00  0.00     0.060 A 
ATOM     32  C   UNL A   1      44.129  27.152  26.596  1.00  0.00     0.016 A 
ATOM     33  C   UNL A   1      42.621  25.248  26.687  1.00  0.00     0.016 A 
ATOM     34  C   UNL A   1      43.344  27.831  27.519  1.00  0.00     0.010 A 
ATOM     35  C   UNL A   1      41.831  25.933  27.619  1.00  0.00     0.010 A 
ATOM     36  C   UNL A   1      42.223  27.203  28.081  1.00  0.00    -0.014 A 
BRANCH  36  37
ATOM     37  C   UNL A   1      41.617  27.821  29.287  1.00  0.00     0.031 A 
ATOM     38  C   UNL A   1      42.338  27.699  30.603  1.00  0.00     0.074 A 
ATOM     39  C   UNL A   1      40.521  28.595  29.189  1.00  0.00     0.049 A 
ATOM     40  N   UNL A   1      42.083  28.277  31.750  1.00  0.00    -0.248 NA
ATOM     41  C   UNL A   1      43.511  26.811  30.626  1.00  0.00     0.031 C 
ATOM     42  C   UNL A   1      39.762  28.827  27.963  1.00  0.00     0.029 A 
ATOM     43  N   UNL A   1      39.878  29.352  30.136  1.00  0.00    -0.354 N 
ATOM     44  C   UNL A   1      43.070  27.835  32.622  1.00  0.00     0.074 A 
ATOM     45  C   UNL A   1      43.898  26.903  31.889  1.00  0.00     0.031 C 
ATOM     46  C   UNL A   1      38.765  29.691  28.226  1.00  0.00     0.029 A 
ATOM     47  C   UNL A   1      38.811  30.059  29.640  1.00  0.00     0.049 A 
ATOM     48  H   UNL A   1      40.156  29.386  31.079  1.00  0.00     0.167 HD
ATOM     49  C   UNL A   1      43.284  28.190  33.912  1.00  0.00     0.037 A 
ATOM     50  C   UNL A   1      37.974  30.914  30.259  1.00  0.00     0.037 A 
ATOM     51  C   UNL A   1      42.458  29.111  34.647  1.00  0.00     0.049 A 
ATOM     52  C   UNL A   1      38.193  31.242  31.713  1.00  0.00     0.074 A 
ATOM     53  C   UNL A   1      42.579  29.523  35.963  1.00  0.00     0.029 A 
ATOM     54  N   UNL A   1      41.348  29.761  34.126  1.00  0.00    -0.354 N 
ATOM     55  N   UNL A   1      39.142  30.837  32.523  1.00  0.00    -0.248 NA
ATOM     56  C   UNL A   1      37.229  32.161  32.334  1.00  0.00     0.031 C 
ATOM     57  C   UNL A   1      41.519  30.390  36.250  1.00  0.00     0.029 A 
ATOM     58  C   UNL A   1      40.768  30.559  35.098  1.00  0.00     0.049 A 
ATOM     59  H   UNL A   1      41.023  29.668  33.202  1.00  0.00     0.167 HD
ATOM     60  C   UNL A   1      38.911  31.478  33.735  1.00  0.00     0.074 A 
ATOM     61  C   UNL A   1      37.739  32.309  33.548  1.00  0.00     0.031 C 
ATOM     62  C   UNL A   1      39.608  31.389  34.895  1.00  0.00     0.037 A 
BRANCH  49  63
ATOM     63  C   UNL A   1      44.450  27.556  34.612  1.00  0.00     0.064 A 
ATOM     64  C   UNL A   1      44.328  26.328  35.281  1.00  0.00     0.173 A 
ATOM     65  C   UNL A   1      45.707  28.179  34.611  1.00  0.00     0.173 A 
ATOM     66  F   UNL A   1      43.144  25.699  35.325  1.00  0.00    -0.203 F 
ATOM     67  C   UNL A   1      45.413  25.763  35.947  1.00  0.00     0.198 A 
ATOM     68  C   UNL A   1      46.797  27.597  35.255  1.00  0.00     0.198 A 
ATOM     69  F   UNL A   1      45.880  29.353  33.986  1.00  0.00    -0.203 F 
ATOM     70  F   UNL A   1      45.259  24.616  36.623  1.00  0.00    -0.200 F 
ATOM     71  C   UNL A   1      46.647  26.395  35.929  1.00  0.00     0.200 A 
ATOM     72  F   UNL A   1      47.991  28.204  35.228  1.00  0.00    -0.200 F 
ATOM     73  F   UNL A   1      47.690  25.850  36.571  1.00  0.00    -0.200 F 
ENDBRANCH  49  63
BRANCH  50  74
ATOM     74  C   UNL A   1      36.863  31.547  29.501  1.00  0.00     0.064 A 
ATOM     75  C   UNL A   1      36.870  32.919  29.216  1.00  0.00     0.173 A 
ATOM     76  C   UNL A   1      35.763  30.795  29.065  1.00  0.00     0.173 A 
ATOM     77  F   UNL A   1      37.888  33.686  29.635  1.00  0.00    -0.203 F 
ATOM     78  C   UNL A   1      35.809  33.519  28.540  1.00  0.00     0.198 A 
ATOM     79  C   UNL A   1      34.716  31.390  28.365  1.00  0.00     0.198 A 
ATOM     80  F   UNL A   1      35.707  29.478  29.315  1.00  0.00    -0.203 F 
ATOM     81  F   UNL A   1      35.818  34.842  28.322  1.00  0.00    -0.200 F 
ATOM     82  C   UNL A   1      34.735  32.753  28.111  1.00  0.00     0.200 A 
ATOM     83  F   UNL A   1      33.685  30.645  27.944  1.00  0.00    -0.200 F 
ATOM     84  F   UNL A   1      33.716  33.330  27.460  1.00  0.00    -0.200 F 
ENDBRANCH  50  74
BRANCH  62  85
ATOM     85  C   UNL A   1      39.148  32.248  36.038  1.00  0.00     0.064 A 
ATOM     86  C   UNL A   1      39.553  33.584  36.170  1.00  0.00     0.173 A 
ATOM     87  C   UNL A   1      38.277  31.727  37.008  1.00  0.00     0.173 A 
ATOM     88  F   UNL A   1      40.396  34.126  35.277  1.00  0.00    -0.203 F 
ATOM     89  C   UNL A   1      39.135  34.355  37.252  1.00  0.00     0.198 A 
ATOM     90  C   UNL A   1      37.835  32.512  38.071  1.00  0.00     0.198 A 
ATOM     91  F   UNL A   1      37.851  30.459  36.924  1.00  0.00    -0.203 F 
ATOM     92  F   UNL A   1      39.584  35.611  37.390  1.00  0.00    -0.200 F 
ATOM     93  C   UNL A   1      38.274  33.820  38.198  1.00  0.00     0.200 A 
ATOM     94  F   UNL A   1      36.992  31.997  38.977  1.00  0.00    -0.200 F 
ATOM     95  F   UNL A   1      37.875  34.564  39.239  1.00  0.00    -0.200 F 
ENDBRANCH  62  85
ENDBRANCH  36  37
ENDBRANCH  29  31
ENDBRANCH  28  29
ENDBRANCH  27  28
ENDBRANCH  26  27
ENDBRANCH  25  26
ENDBRANCH  24  25
ENDBRANCH   1  24
TORSDOF 20
ENDMDL
MODEL 3
REMARK VINA RESULT:      -9.8      1.387      7.667
REMARK SMILES CNC(=O)[C@H]1CCCCN1C(=O)NCCOCC(=O)OCCOCCOC(=O)c1ccc(-c2c3nc(c(-c4c(F)c(F)c(F)c(F)c4F)c4ccc([nH]4)c(-c4c(F)c(F)c(F)c(F)c4F)c4nc(c(-c5c(F)c(F)c(F)c(F)c5F)c5ccc2[nH]5)C=C4)C=C3)cc1
REMARK SMILES IDX 21 1 20 2 18 3 19 4 17 5 16 6 15 7 14 8 13 9 11 10 12 11
REMARK SMILES IDX 10 13 5 14 6 15 7 16 9 17 8 18 3 19 1 20 2 21 4 23 22 24
REMARK SMILES IDX 23 25 24 26 25 27 26 28 27 29 28 30 29 31 30 32 91 33 31 34
REMARK SMILES IDX 90 35 32 36 33 37 34 38 84 39 35 40 89 41 83 42 85 43 36 44
REMARK SMILES IDX 88 45 82 46 81 47 37 49 69 50 49 51 68 52 50 53 53 54 67 55
REMARK SMILES IDX 86 56 51 57 52 58 66 60 87 61 54 62 38 63 39 64 47 65 40 66
REMARK SMILES IDX 41 67 45 68 48 69 42 70 43 71 46 72 44 73 70 74 71 75 79 76
REMARK SMILES IDX 72 77 73 78 77 79 80 80 74 81 75 82 78 83 76 84 55 85 56 86
REMARK SMILES IDX 64 87 57 88 58 89 62 90 65 91 59 92 60 93 63 94 61 95
REMARK H PARENT 13 12 2 22 85 48 53 59
REMARK Flexibility Score: inf
ROOT
ATOM      1  C   UNL A   1      32.936  29.006  24.675  1.00  0.00     0.261 C 
ENDROOT
BRANCH   1   2
ATOM      2  O   UNL A   1      32.119  29.003  23.484  1.00  0.00    -0.462 OA
BRANCH   2   3
ATOM      3  C   UNL A   1      30.806  28.700  23.667  1.00  0.00     0.332 C 
ATOM      4  O   UNL A   1      29.908  29.518  23.826  1.00  0.00    -0.250 OA
BRANCH   3   5
ATOM      5  C   UNL A   1      30.563  27.188  23.761  1.00  0.00     0.282 C 
BRANCH   5   6
ATOM      6  O   UNL A   1      30.378  26.495  24.979  1.00  0.00    -0.368 OA
BRANCH   6   7
ATOM      7  C   UNL A   1      31.207  25.358  25.231  1.00  0.00     0.182 C 
BRANCH   7   8
ATOM      8  C   UNL A   1      32.450  25.610  26.100  1.00  0.00     0.146 C 
BRANCH   8   9
ATOM      9  N   UNL A   1      33.067  24.379  26.582  1.00  0.00    -0.336 N 
ATOM     10  C   UNL A   1      33.653  23.265  26.131  1.00  0.00     0.318 C 
ATOM     11  O   UNL A   1      33.968  22.490  27.041  1.00  0.00    -0.249 OA
ATOM     12  H   UNL A   1      33.044  24.362  27.566  1.00  0.00     0.165 HD
BRANCH  10  13
ATOM     13  N   UNL A   1      33.910  22.966  24.828  1.00  0.00    -0.313 N 
ATOM     14  C   UNL A   1      34.793  23.921  24.095  1.00  0.00     0.176 C 
ATOM     15  C   UNL A   1      34.014  24.586  22.949  1.00  0.00     0.035 C 
ATOM     16  C   UNL A   1      33.304  23.569  22.053  1.00  0.00     0.004 C 
ATOM     17  C   UNL A   1      33.325  21.934  23.975  1.00  0.00     0.122 C 
ATOM     18  C   UNL A   1      32.483  22.572  22.873  1.00  0.00     0.022 C 
BRANCH  14  19
ATOM     19  C   UNL A   1      36.121  23.312  23.570  1.00  0.00     0.242 C 
ATOM     20  C   UNL A   1      37.391  23.565  25.769  1.00  0.00     0.142 C 
ATOM     21  N   UNL A   1      37.232  23.270  24.364  1.00  0.00    -0.357 N 
ATOM     22  H   UNL A   1      38.057  22.994  23.904  1.00  0.00     0.163 HD
ATOM     23  O   UNL A   1      36.255  22.906  22.412  1.00  0.00    -0.273 OA
ENDBRANCH  14  19
ENDBRANCH  10  13
ENDBRANCH   8   9
ENDBRANCH   7   8
ENDBRANCH   6   7
ENDBRANCH   5   6
ENDBRANCH   3   5
ENDBRANCH   2   3
ENDBRANCH   1   2
BRANCH   1  24
ATOM     24  C   UNL A   1      32.402  30.002  25.705  1.00  0.00     0.202 C 
BRANCH  24  25
ATOM     25  O   UNL A   1      33.058  29.992  26.975  1.00  0.00    -0.374 OA
BRANCH  25  26
ATOM     26  C   UNL A   1      33.730  31.193  27.351  1.00  0.00     0.202 C 
BRANCH  26  27
ATOM     27  C   UNL A   1      32.810  32.374  27.686  1.00  0.00     0.261 C 
BRANCH  27  28
ATOM     28  O   UNL A   1      33.467  33.636  27.467  1.00  0.00    -0.460 OA
BRANCH  28  29
ATOM     29  C   UNL A   1      33.346  34.501  28.501  1.00  0.00     0.338 C 
ATOM     30  O   UNL A   1      32.461  35.318  28.691  1.00  0.00    -0.246 OA
BRANCH  29  31
ATOM     31  C   UNL A   1      34.361  34.219  29.530  1.00  0.00     0.060 A 
ATOM     32  C   UNL A   1      35.697  34.275  29.117  1.00  0.00     0.016 A 
ATOM     33  C   UNL A   1      34.033  33.810  30.826  1.00  0.00     0.016 A 
ATOM     34  C   UNL A   1      36.706  33.836  29.965  1.00  0.00     0.010 A 
ATOM     35  C   UNL A   1      35.051  33.367  31.680  1.00  0.00     0.010 A 
ATOM     36  C   UNL A   1      36.384  33.325  31.230  1.00  0.00    -0.014 A 
BRANCH  36  37
ATOM     37  C   UNL A   1      37.434  32.570  31.958  1.00  0.00     0.031 A 
ATOM     38  C   UNL A   1      38.094  31.403  31.273  1.00  0.00     0.074 A 
ATOM     39  C   UNL A   1      37.891  32.998  33.148  1.00  0.00     0.049 A 
ATOM     40  N   UNL A   1      39.130  30.694  31.646  1.00  0.00    -0.248 NA
ATOM     41  C   UNL A   1      37.514  30.985  29.987  1.00  0.00     0.031 C 
ATOM     42  C   UNL A   1      37.365  34.141  33.891  1.00  0.00     0.029 A 
ATOM     43  N   UNL A   1      38.925  32.536  33.924  1.00  0.00    -0.354 N 
ATOM     44  C   UNL A   1      39.332  29.761  30.637  1.00  0.00     0.074 A 
ATOM     45  C   UNL A   1      38.283  29.959  29.660  1.00  0.00     0.031 C 
ATOM     46  C   UNL A   1      38.094  34.306  35.008  1.00  0.00     0.029 A 
ATOM     47  C   UNL A   1      39.127  33.274  35.063  1.00  0.00     0.049 A 
ATOM     48  H   UNL A   1      39.468  31.750  33.686  1.00  0.00     0.167 HD
ATOM     49  C   UNL A   1      40.315  28.836  30.519  1.00  0.00     0.037 A 
ATOM     50  C   UNL A   1      40.052  33.136  36.033  1.00  0.00     0.037 A 
ATOM     51  C   UNL A   1      41.355  28.631  31.492  1.00  0.00     0.049 A 
ATOM     52  C   UNL A   1      41.095  32.056  35.913  1.00  0.00     0.074 A 
ATOM     53  C   UNL A   1      42.387  27.709  31.476  1.00  0.00     0.029 A 
ATOM     54  N   UNL A   1      41.491  29.361  32.664  1.00  0.00    -0.354 N 
ATOM     55  N   UNL A   1      41.292  31.193  34.944  1.00  0.00    -0.248 NA
ATOM     56  C   UNL A   1      42.058  31.943  37.018  1.00  0.00     0.031 C 
ATOM     57  C   UNL A   1      43.123  27.853  32.657  1.00  0.00     0.029 A 
ATOM     58  C   UNL A   1      42.581  28.900  33.385  1.00  0.00     0.049 A 
ATOM     59  H   UNL A   1      40.901  30.098  32.941  1.00  0.00     0.167 HD
ATOM     60  C   UNL A   1      42.417  30.462  35.305  1.00  0.00     0.074 A 
ATOM     61  C   UNL A   1      42.867  30.991  36.576  1.00  0.00     0.031 C 
ATOM     62  C   UNL A   1      43.024  29.445  34.643  1.00  0.00     0.037 A 
BRANCH  49  63
ATOM     63  C   UNL A   1      40.291  27.962  29.300  1.00  0.00     0.064 A 
ATOM     64  C   UNL A   1      39.566  26.760  29.271  1.00  0.00     0.173 A 
ATOM     65  C   UNL A   1      40.995  28.331  28.144  1.00  0.00     0.173 A 
ATOM     66  F   UNL A   1      38.889  26.354  30.355  1.00  0.00    -0.203 F 
ATOM     67  C   UNL A   1      39.573  25.946  28.140  1.00  0.00     0.198 A 
ATOM     68  C   UNL A   1      40.975  27.528  27.006  1.00  0.00     0.198 A 
ATOM     69  F   UNL A   1      41.703  29.470  28.117  1.00  0.00    -0.203 F 
ATOM     70  F   UNL A   1      38.916  24.778  28.153  1.00  0.00    -0.200 F 
ATOM     71  C   UNL A   1      40.272  26.334  27.007  1.00  0.00     0.200 A 
ATOM     72  F   UNL A   1      41.645  27.909  25.909  1.00  0.00    -0.200 F 
ATOM     73  F   UNL A   1      40.278  25.550  25.920  1.00  0.00    -0.200 F 
ENDBRANCH  49  63
BRANCH  50  74
ATOM     74  C   UNL A   1      40.053  34.062  37.196  1.00  0.00     0.064 A 
ATOM     75  C   UNL A   1      39.280  33.796  38.334  1.00  0.00     0.173 A 
ATOM     76  C   UNL A   1      40.812  35.241  37.182  1.00  0.00     0.173 A 
ATOM     77  F   UNL A   1      38.518  32.694  38.384  1.00  0.00    -0.203 F 
ATOM     78  C   UNL A   1      39.250  34.685  39.407  1.00  0.00     0.198 A 
ATOM     79  C   UNL A   1      40.803  36.116  38.267  1.00  0.00     0.198 A 
ATOM     80  F   UNL A   1      41.566  35.543  36.115  1.00  0.00    -0.203 F 
ATOM     81  F   UNL A   1      38.466  34.430  40.464  1.00  0.00    -0.200 F 
ATOM     82  C   UNL A   1      40.016  35.841  39.375  1.00  0.00     0.200 A 
ATOM     83  F   UNL A   1      41.551  37.227  38.235  1.00  0.00    -0.200 F 
ATOM     84  F   UNL A   1      39.988  36.694  40.408  1.00  0.00    -0.200 F 
ENDBRANCH  50  74
BRANCH  62  85
ATOM     85  C   UNL A   1      44.268  28.872  35.259  1.00  0.00     0.064 A 
ATOM     86  C   UNL A   1      44.222  27.797  36.159  1.00  0.00     0.173 A 
ATOM     87  C   UNL A   1      45.527  29.400  34.932  1.00  0.00     0.173 A 
ATOM     88  F   UNL A   1      43.042  27.264  36.514  1.00  0.00    -0.203 F 
ATOM     89  C   UNL A   1      45.385  27.297  36.738  1.00  0.00     0.198 A 
ATOM     90  C   UNL A   1      46.691  28.876  35.489  1.00  0.00     0.198 A 
ATOM     91  F   UNL A   1      45.629  30.422  34.070  1.00  0.00    -0.203 F 
ATOM     92  F   UNL A   1      45.310  26.310  37.641  1.00  0.00    -0.200 F 
ATOM     93  C   UNL A   1      46.618  27.834  36.399  1.00  0.00     0.200 A 
ATOM     94  F   UNL A   1      47.883  29.387  35.150  1.00  0.00    -0.200 F 
ATOM     95  F   UNL A   1      47.736  27.353  36.960  1.00  0.00    -0.200 F 
ENDBRANCH  62  85
ENDBRANCH  36  37
ENDBRANCH  29  31
ENDBRANCH  28  29
ENDBRANCH  27  28
ENDBRANCH  26  27
ENDBRANCH  25  26
ENDBRANCH  24  25
ENDBRANCH   1  24
TORSDOF 20
ENDMDL
