MODEL 1
REMARK VINA RESULT:     -11.9      0.000      0.000
REMARK SMILES NS(=O)(=O)c1ccc(N2N=C(C(=O)OCCOCCOC(=O)c3ccc(-c4c5nc(c(-c6c(F)c(F)c(F)c(F)c6F)c6ccc([nH]6)c(-c6c(F)c(F)c(F)c(F)c6F)c6nc(c(-c7c(F)c(F)c(F)c(F)c7F)c7ccc4[nH]7)C=C6)C=C5)cc3)C[C@H]2c2ccco2)cc1
REMARK SMILES IDX 16 1 15 2 14 3 12 4 13 5 11 6 9 7 10 8 87 9 86 10 8 11 5 12
REMARK SMILES IDX 6 13 94 14 7 15 93 16 2 17 3 18 4 19 1 20 88 23 89 24 92 25
REMARK SMILES IDX 90 26 91 27 17 28 18 29 19 30 20 31 21 32 22 33 23 34 24 35
REMARK SMILES IDX 85 36 25 37 84 38 26 39 27 40 28 41 78 42 29 43 83 44 77 45
REMARK SMILES IDX 79 46 30 47 82 48 76 49 75 50 31 52 63 53 43 54 62 55 44 56
REMARK SMILES IDX 47 57 61 58 80 59 45 60 46 61 60 63 81 64 48 65 32 66 33 67
REMARK SMILES IDX 41 68 34 69 35 70 39 71 42 72 36 73 37 74 40 75 38 76 64 77
REMARK SMILES IDX 65 78 73 79 66 80 67 81 71 82 74 83 68 84 69 85 72 86 70 87
REMARK SMILES IDX 49 88 50 89 58 90 51 91 52 92 56 93 59 94 53 95 54 96 57 97
REMARK SMILES IDX 55 98
REMARK H PARENT 1 21 1 22 79 51 47 62
REMARK Flexibility Score: inf
ROOT
ATOM      1  C   UNL A   1      33.493  21.677  26.435  1.00  0.00     0.202 C 
ENDROOT
BRANCH   1   2
ATOM      2  C   UNL A   1      32.065  21.319  26.016  1.00  0.00     0.261 C 
BRANCH   2   3
ATOM      3  O   UNL A   1      31.450  22.431  25.351  1.00  0.00    -0.459 OA
BRANCH   3   4
ATOM      4  C   UNL A   1      31.065  23.434  26.167  1.00  0.00     0.354 C 
ATOM      5  O   UNL A   1      30.584  23.351  27.280  1.00  0.00    -0.245 OA
BRANCH   4   6
ATOM      6  C   UNL A   1      31.441  24.749  25.536  1.00  0.00     0.148 C 
ATOM      7  N   UNL A   1      31.271  26.686  24.697  1.00  0.00    -0.254 N 
ATOM      8  N   UNL A   1      30.571  25.684  25.307  1.00  0.00    -0.169 NA
ATOM      9  C   UNL A   1      32.607  26.246  24.257  1.00  0.00     0.180 C 
ATOM     10  C   UNL A   1      32.866  25.093  25.241  1.00  0.00     0.101 C 
BRANCH   7  11
ATOM     11  C   UNL A   1      30.549  27.740  24.158  1.00  0.00     0.060 A 
ATOM     12  C   UNL A   1      29.063  29.921  23.190  1.00  0.00     0.082 A 
ATOM     13  C   UNL A   1      30.255  30.148  23.881  1.00  0.00     0.024 A 
ATOM     14  C   UNL A   1      28.603  28.622  22.983  1.00  0.00     0.024 A 
ATOM     15  C   UNL A   1      30.988  29.057  24.360  1.00  0.00     0.029 A 
ATOM     16  C   UNL A   1      29.337  27.543  23.483  1.00  0.00     0.029 A 
BRANCH  12  17
ATOM     17  S   UNL A   1      28.113  31.282  22.587  1.00  0.00     0.238 S 
ATOM     18  O   UNL A   1      27.037  31.545  23.511  1.00  0.00    -0.207 OA
ATOM     19  O   UNL A   1      27.904  31.120  21.165  1.00  0.00    -0.207 OA
BRANCH  17  20
ATOM     20  N   UNL A   1      29.170  32.585  22.719  1.00  0.00    -0.225 NA
ATOM     21  H   UNL A   1      28.677  33.383  23.119  1.00  0.00     0.137 HD
ATOM     22  H   UNL A   1      29.522  32.832  21.793  1.00  0.00     0.137 HD
ENDBRANCH  17  20
ENDBRANCH  12  17
ENDBRANCH   7  11
BRANCH   9  23
ATOM     23  C   UNL A   1      32.755  25.800  22.827  1.00  0.00     0.128 A 
ATOM     24  C   UNL A   1      32.716  26.476  21.622  1.00  0.00     0.048 A 
ATOM     25  O   UNL A   1      32.981  24.471  22.593  1.00  0.00    -0.467 OA
ATOM     26  C   UNL A   1      32.903  25.507  20.606  1.00  0.00     0.042 A 
ATOM     27  C   UNL A   1      33.075  24.306  21.251  1.00  0.00     0.195 A 
ENDBRANCH   9  23
ENDBRANCH   4   6
ENDBRANCH   3   4
ENDBRANCH   2   3
ENDBRANCH   1   2
BRANCH   1  28
ATOM     28  O   UNL A   1      34.533  20.964  25.770  1.00  0.00    -0.374 OA
BRANCH  28  29
ATOM     29  C   UNL A   1      35.872  21.437  25.929  1.00  0.00     0.202 C 
BRANCH  29  30
ATOM     30  C   UNL A   1      36.956  20.698  25.134  1.00  0.00     0.261 C 
BRANCH  30  31
ATOM     31  O   UNL A   1      38.165  21.470  24.999  1.00  0.00    -0.460 OA
BRANCH  31  32
ATOM     32  C   UNL A   1      39.108  21.210  25.938  1.00  0.00     0.338 C 
ATOM     33  O   UNL A   1      39.643  20.141  26.177  1.00  0.00    -0.246 OA
BRANCH  32  34
ATOM     34  C   UNL A   1      39.559  22.467  26.567  1.00  0.00     0.060 A 
ATOM     35  C   UNL A   1      38.988  23.661  26.104  1.00  0.00     0.016 A 
ATOM     36  C   UNL A   1      40.576  22.491  27.522  1.00  0.00     0.016 A 
ATOM     37  C   UNL A   1      39.465  24.886  26.565  1.00  0.00     0.010 A 
ATOM     38  C   UNL A   1      41.058  23.724  27.978  1.00  0.00     0.010 A 
ATOM     39  C   UNL A   1      40.527  24.928  27.478  1.00  0.00    -0.014 A 
BRANCH  39  40
ATOM     40  C   UNL A   1      41.161  26.229  27.803  1.00  0.00     0.031 A 
ATOM     41  C   UNL A   1      42.572  26.493  27.355  1.00  0.00     0.074 A 
ATOM     42  C   UNL A   1      40.475  27.181  28.460  1.00  0.00     0.049 A 
ATOM     43  N   UNL A   1      43.319  27.553  27.537  1.00  0.00    -0.248 NA
ATOM     44  C   UNL A   1      43.231  25.416  26.600  1.00  0.00     0.031 C 
ATOM     45  C   UNL A   1      39.093  27.060  28.917  1.00  0.00     0.029 A 
ATOM     46  N   UNL A   1      40.853  28.439  28.856  1.00  0.00    -0.354 N 
ATOM     47  C   UNL A   1      44.533  27.271  26.924  1.00  0.00     0.074 A 
ATOM     48  C   UNL A   1      44.436  25.927  26.395  1.00  0.00     0.031 C 
ATOM     49  C   UNL A   1      38.739  28.198  29.539  1.00  0.00     0.029 A 
ATOM     50  C   UNL A   1      39.878  29.114  29.547  1.00  0.00     0.049 A 
ATOM     51  H   UNL A   1      41.740  28.822  28.665  1.00  0.00     0.167 HD
ATOM     52  C   UNL A   1      45.624  28.064  26.803  1.00  0.00     0.037 A 
ATOM     53  C   UNL A   1      39.908  30.327  30.133  1.00  0.00     0.037 A 
ATOM     54  C   UNL A   1      45.719  29.402  27.327  1.00  0.00     0.049 A 
ATOM     55  C   UNL A   1      41.157  31.163  30.041  1.00  0.00     0.074 A 
ATOM     56  C   UNL A   1      46.773  30.294  27.232  1.00  0.00     0.029 A 
ATOM     57  N   UNL A   1      44.723  30.038  28.054  1.00  0.00    -0.354 N 
ATOM     58  N   UNL A   1      42.288  30.902  29.433  1.00  0.00    -0.248 NA
ATOM     59  C   UNL A   1      41.132  32.468  30.719  1.00  0.00     0.031 C 
ATOM     60  C   UNL A   1      46.436  31.449  27.947  1.00  0.00     0.029 A 
ATOM     61  C   UNL A   1      45.150  31.298  28.439  1.00  0.00     0.049 A 
ATOM     62  H   UNL A   1      43.843  29.650  28.264  1.00  0.00     0.167 HD
ATOM     63  C   UNL A   1      43.096  32.015  29.629  1.00  0.00     0.074 A 
ATOM     64  C   UNL A   1      42.319  32.962  30.401  1.00  0.00     0.031 C 
ATOM     65  C   UNL A   1      44.367  32.233  29.208  1.00  0.00     0.037 A 
BRANCH  52  66
ATOM     66  C   UNL A   1      46.817  27.495  26.091  1.00  0.00     0.064 A 
ATOM     67  C   UNL A   1      46.980  27.627  24.703  1.00  0.00     0.173 A 
ATOM     68  C   UNL A   1      47.825  26.836  26.810  1.00  0.00     0.173 A 
ATOM     69  F   UNL A   1      46.040  28.236  23.968  1.00  0.00    -0.203 F 
ATOM     70  C   UNL A   1      48.096  27.097  24.061  1.00  0.00     0.198 A 
ATOM     71  C   UNL A   1      48.953  26.333  26.169  1.00  0.00     0.198 A 
ATOM     72  F   UNL A   1      47.720  26.687  28.140  1.00  0.00    -0.203 F 
ATOM     73  F   UNL A   1      48.209  27.192  22.728  1.00  0.00    -0.200 F 
ATOM     74  C   UNL A   1      49.085  26.456  24.793  1.00  0.00     0.200 A 
ATOM     75  F   UNL A   1      49.912  25.724  26.880  1.00  0.00    -0.200 F 
ATOM     76  F   UNL A   1      50.160  25.951  24.174  1.00  0.00    -0.200 F 
ENDBRANCH  52  66
BRANCH  53  77
ATOM     77  C   UNL A   1      38.715  30.826  30.867  1.00  0.00     0.064 A 
ATOM     78  C   UNL A   1      37.671  31.475  30.194  1.00  0.00     0.173 A 
ATOM     79  C   UNL A   1      38.605  30.680  32.257  1.00  0.00     0.173 A 
ATOM     80  F   UNL A   1      37.742  31.661  28.867  1.00  0.00    -0.203 F 
ATOM     81  C   UNL A   1      36.570  31.975  30.887  1.00  0.00     0.198 A 
ATOM     82  C   UNL A   1      37.491  31.155  32.946  1.00  0.00     0.198 A 
ATOM     83  F   UNL A   1      39.579  30.069  32.948  1.00  0.00    -0.203 F 
ATOM     84  F   UNL A   1      35.607  32.633  30.225  1.00  0.00    -0.200 F 
ATOM     85  C   UNL A   1      36.477  31.809  32.261  1.00  0.00     0.200 A 
ATOM     86  F   UNL A   1      37.401  30.983  34.271  1.00  0.00    -0.200 F 
ATOM     87  F   UNL A   1      35.418  32.288  32.926  1.00  0.00    -0.200 F 
ENDBRANCH  53  77
BRANCH  65  88
ATOM     88  C   UNL A   1      44.988  33.557  29.548  1.00  0.00     0.064 A 
ATOM     89  C   UNL A   1      44.856  34.671  28.706  1.00  0.00     0.173 A 
ATOM     90  C   UNL A   1      45.700  33.723  30.746  1.00  0.00     0.173 A 
ATOM     91  F   UNL A   1      44.198  34.562  27.541  1.00  0.00    -0.203 F 
ATOM     92  C   UNL A   1      45.437  35.893  29.036  1.00  0.00     0.198 A 
ATOM     93  C   UNL A   1      46.252  34.954  31.089  1.00  0.00     0.198 A 
ATOM     94  F   UNL A   1      45.850  32.692  31.592  1.00  0.00    -0.203 F 
ATOM     95  F   UNL A   1      45.340  36.929  28.192  1.00  0.00    -0.200 F 
ATOM     96  C   UNL A   1      46.127  36.036  30.231  1.00  0.00     0.200 A 
ATOM     97  F   UNL A   1      46.907  35.093  32.250  1.00  0.00    -0.200 F 
ATOM     98  F   UNL A   1      46.681  37.214  30.549  1.00  0.00    -0.200 F 
ENDBRANCH  65  88
ENDBRANCH  39  40
ENDBRANCH  32  34
ENDBRANCH  31  32
ENDBRANCH  30  31
ENDBRANCH  29  30
ENDBRANCH  28  29
ENDBRANCH   1  28
TORSDOF 18
ENDMDL
MODEL 2
REMARK VINA RESULT:     -11.8      4.040      9.236
REMARK SMILES NS(=O)(=O)c1ccc(N2N=C(C(=O)OCCOCCOC(=O)c3ccc(-c4c5nc(c(-c6c(F)c(F)c(F)c(F)c6F)c6ccc([nH]6)c(-c6c(F)c(F)c(F)c(F)c6F)c6nc(c(-c7c(F)c(F)c(F)c(F)c7F)c7ccc4[nH]7)C=C6)C=C5)cc3)C[C@H]2c2ccco2)cc1
REMARK SMILES IDX 16 1 15 2 14 3 12 4 13 5 11 6 9 7 10 8 87 9 86 10 8 11 5 12
REMARK SMILES IDX 6 13 94 14 7 15 93 16 2 17 3 18 4 19 1 20 88 23 89 24 92 25
REMARK SMILES IDX 90 26 91 27 17 28 18 29 19 30 20 31 21 32 22 33 23 34 24 35
REMARK SMILES IDX 85 36 25 37 84 38 26 39 27 40 28 41 78 42 29 43 83 44 77 45
REMARK SMILES IDX 79 46 30 47 82 48 76 49 75 50 31 52 63 53 43 54 62 55 44 56
REMARK SMILES IDX 47 57 61 58 80 59 45 60 46 61 60 63 81 64 48 65 32 66 33 67
REMARK SMILES IDX 41 68 34 69 35 70 39 71 42 72 36 73 37 74 40 75 38 76 64 77
REMARK SMILES IDX 65 78 73 79 66 80 67 81 71 82 74 83 68 84 69 85 72 86 70 87
REMARK SMILES IDX 49 88 50 89 58 90 51 91 52 92 56 93 59 94 53 95 54 96 57 97
REMARK SMILES IDX 55 98
REMARK H PARENT 1 21 1 22 79 51 47 62
REMARK Flexibility Score: inf
ROOT
ATOM      1  C   UNL A   1      33.233  35.293  32.299  1.00  0.00     0.202 C 
ENDROOT
BRANCH   1   2
ATOM      2  C   UNL A   1      33.650  35.545  30.848  1.00  0.00     0.261 C 
BRANCH   2   3
ATOM      3  O   UNL A   1      33.945  34.303  30.194  1.00  0.00    -0.459 OA
BRANCH   3   4
ATOM      4  C   UNL A   1      33.453  34.193  28.942  1.00  0.00     0.354 C 
ATOM      5  O   UNL A   1      32.748  34.981  28.343  1.00  0.00    -0.245 OA
BRANCH   4   6
ATOM      6  C   UNL A   1      34.022  32.954  28.301  1.00  0.00     0.148 C 
ATOM      7  N   UNL A   1      34.137  31.034  27.415  1.00  0.00    -0.254 N 
ATOM      8  N   UNL A   1      33.272  31.978  27.890  1.00  0.00    -0.169 NA
ATOM      9  C   UNL A   1      35.532  31.307  27.808  1.00  0.00     0.180 C 
ATOM     10  C   UNL A   1      35.480  32.833  27.998  1.00  0.00     0.101 C 
BRANCH   7  11
ATOM     11  C   UNL A   1      33.619  29.790  27.091  1.00  0.00     0.060 A 
ATOM     12  C   UNL A   1      32.583  27.299  26.301  1.00  0.00     0.082 A 
ATOM     13  C   UNL A   1      33.907  27.623  26.001  1.00  0.00     0.024 A 
ATOM     14  C   UNL A   1      31.770  28.202  26.985  1.00  0.00     0.024 A 
ATOM     15  C   UNL A   1      34.415  28.866  26.397  1.00  0.00     0.029 A 
ATOM     16  C   UNL A   1      32.287  29.447  27.357  1.00  0.00     0.029 A 
BRANCH  12  17
ATOM     17  S   UNL A   1      31.916  25.742  25.801  1.00  0.00     0.238 S 
ATOM     18  O   UNL A   1      31.447  25.852  24.442  1.00  0.00    -0.207 OA
ATOM     19  O   UNL A   1      31.101  25.211  26.872  1.00  0.00    -0.207 OA
BRANCH  17  20
ATOM     20  N   UNL A   1      33.264  24.737  25.750  1.00  0.00    -0.225 NA
ATOM     21  H   UNL A   1      34.039  25.183  26.241  1.00  0.00     0.137 HD
ATOM     22  H   UNL A   1      33.528  24.571  24.778  1.00  0.00     0.137 HD
ENDBRANCH  17  20
ENDBRANCH  12  17
ENDBRANCH   7  11
BRANCH   9  23
ATOM     23  C   UNL A   1      36.056  30.612  29.036  1.00  0.00     0.128 A 
ATOM     24  C   UNL A   1      36.886  29.522  29.217  1.00  0.00     0.048 A 
ATOM     25  O   UNL A   1      35.683  31.104  30.257  1.00  0.00    -0.467 OA
ATOM     26  C   UNL A   1      37.004  29.329  30.615  1.00  0.00     0.042 A 
ATOM     27  C   UNL A   1      36.265  30.327  31.203  1.00  0.00     0.195 A 
ENDBRANCH   9  23
ENDBRANCH   4   6
ENDBRANCH   3   4
ENDBRANCH   2   3
ENDBRANCH   1   2
BRANCH   1  28
ATOM     28  O   UNL A   1      33.394  33.957  32.770  1.00  0.00    -0.374 OA
BRANCH  28  29
ATOM     29  C   UNL A   1      34.430  33.706  33.722  1.00  0.00     0.202 C 
BRANCH  29  30
ATOM     30  C   UNL A   1      35.554  32.763  33.275  1.00  0.00     0.261 C 
BRANCH  30  31
ATOM     31  O   UNL A   1      36.760  32.939  34.043  1.00  0.00    -0.460 OA
BRANCH  31  32
ATOM     32  C   UNL A   1      37.696  33.722  33.452  1.00  0.00     0.338 C 
ATOM     33  O   UNL A   1      37.953  34.887  33.700  1.00  0.00    -0.246 OA
BRANCH  32  34
ATOM     34  C   UNL A   1      38.526  32.916  32.535  1.00  0.00     0.060 A 
ATOM     35  C   UNL A   1      39.452  32.034  33.108  1.00  0.00     0.016 A 
ATOM     36  C   UNL A   1      38.465  33.078  31.150  1.00  0.00     0.016 A 
ATOM     37  C   UNL A   1      40.352  31.344  32.298  1.00  0.00     0.010 A 
ATOM     38  C   UNL A   1      39.375  32.389  30.339  1.00  0.00     0.010 A 
ATOM     39  C   UNL A   1      40.344  31.544  30.912  1.00  0.00    -0.014 A 
BRANCH  39  40
ATOM     40  C   UNL A   1      41.431  30.968  30.084  1.00  0.00     0.031 A 
ATOM     41  C   UNL A   1      42.637  31.807  29.765  1.00  0.00     0.074 A 
ATOM     42  C   UNL A   1      41.363  29.697  29.650  1.00  0.00     0.049 A 
ATOM     43  N   UNL A   1      43.696  31.508  29.055  1.00  0.00    -0.248 NA
ATOM     44  C   UNL A   1      42.651  33.170  30.320  1.00  0.00     0.031 C 
ATOM     45  C   UNL A   1      40.266  28.772  29.921  1.00  0.00     0.029 A 
ATOM     46  N   UNL A   1      42.241  28.967  28.887  1.00  0.00    -0.354 N 
ATOM     47  C   UNL A   1      44.499  32.642  29.075  1.00  0.00     0.074 A 
ATOM     48  C   UNL A   1      43.790  33.647  29.839  1.00  0.00     0.031 C 
ATOM     49  C   UNL A   1      40.532  27.596  29.326  1.00  0.00     0.029 A 
ATOM     50  C   UNL A   1      41.804  27.695  28.613  1.00  0.00     0.049 A 
ATOM     51  H   UNL A   1      43.102  29.321  28.567  1.00  0.00     0.167 HD
ATOM     52  C   UNL A   1      45.721  32.824  28.520  1.00  0.00     0.037 A 
ATOM     53  C   UNL A   1      42.360  26.729  27.857  1.00  0.00     0.037 A 
ATOM     54  C   UNL A   1      46.427  31.823  27.763  1.00  0.00     0.049 A 
ATOM     55  C   UNL A   1      43.689  26.979  27.193  1.00  0.00     0.074 A 
ATOM     56  C   UNL A   1      47.680  31.904  27.182  1.00  0.00     0.029 A 
ATOM     57  N   UNL A   1      45.935  30.558  27.474  1.00  0.00    -0.354 N 
ATOM     58  N   UNL A   1      44.455  28.041  27.245  1.00  0.00    -0.248 NA
ATOM     59  C   UNL A   1      44.232  25.891  26.367  1.00  0.00     0.031 C 
ATOM     60  C   UNL A   1      47.925  30.708  26.498  1.00  0.00     0.029 A 
ATOM     61  C   UNL A   1      46.847  29.861  26.698  1.00  0.00     0.049 A 
ATOM     62  H   UNL A   1      45.065  30.209  27.776  1.00  0.00     0.167 HD
ATOM     63  C   UNL A   1      45.579  27.742  26.485  1.00  0.00     0.074 A 
ATOM     64  C   UNL A   1      45.401  26.391  25.994  1.00  0.00     0.031 C 
ATOM     65  C   UNL A   1      46.659  28.516  26.216  1.00  0.00     0.037 A 
BRANCH  52  66
ATOM     66  C   UNL A   1      46.365  34.168  28.692  1.00  0.00     0.064 A 
ATOM     67  C   UNL A   1      47.270  34.426  29.733  1.00  0.00     0.173 A 
ATOM     68  C   UNL A   1      46.098  35.205  27.784  1.00  0.00     0.173 A 
ATOM     69  F   UNL A   1      47.549  33.474  30.635  1.00  0.00    -0.203 F 
ATOM     70  C   UNL A   1      47.862  35.678  29.874  1.00  0.00     0.198 A 
ATOM     71  C   UNL A   1      46.714  36.446  27.911  1.00  0.00     0.198 A 
ATOM     72  F   UNL A   1      45.244  35.010  26.767  1.00  0.00    -0.203 F 
ATOM     73  F   UNL A   1      48.686  35.917  30.904  1.00  0.00    -0.200 F 
ATOM     74  C   UNL A   1      47.589  36.686  28.960  1.00  0.00     0.200 A 
ATOM     75  F   UNL A   1      46.458  37.415  27.020  1.00  0.00    -0.200 F 
ATOM     76  F   UNL A   1      48.164  37.888  29.094  1.00  0.00    -0.200 F 
ENDBRANCH  52  66
BRANCH  53  77
ATOM     77  C   UNL A   1      41.658  25.430  27.680  1.00  0.00     0.064 A 
ATOM     78  C   UNL A   1      40.530  25.323  26.856  1.00  0.00     0.173 A 
ATOM     79  C   UNL A   1      42.091  24.275  28.347  1.00  0.00     0.173 A 
ATOM     80  F   UNL A   1      40.062  26.407  26.218  1.00  0.00    -0.203 F 
ATOM     81  C   UNL A   1      39.851  24.114  26.719  1.00  0.00     0.198 A 
ATOM     82  C   UNL A   1      41.429  23.059  28.187  1.00  0.00     0.198 A 
ATOM     83  F   UNL A   1      43.164  24.324  29.150  1.00  0.00    -0.203 F 
ATOM     84  F   UNL A   1      38.747  24.051  25.961  1.00  0.00    -0.200 F 
ATOM     85  C   UNL A   1      40.304  22.982  27.379  1.00  0.00     0.200 A 
ATOM     86  F   UNL A   1      41.877  21.966  28.818  1.00  0.00    -0.200 F 
ATOM     87  F   UNL A   1      39.653  21.819  27.245  1.00  0.00    -0.200 F 
ENDBRANCH  53  77
BRANCH  65  88
ATOM     88  C   UNL A   1      47.748  27.912  25.377  1.00  0.00     0.064 A 
ATOM     89  C   UNL A   1      47.641  27.828  23.980  1.00  0.00     0.173 A 
ATOM     90  C   UNL A   1      48.927  27.438  25.973  1.00  0.00     0.173 A 
ATOM     91  F   UNL A   1      46.529  28.253  23.362  1.00  0.00    -0.203 F 
ATOM     92  C   UNL A   1      48.661  27.266  23.216  1.00  0.00     0.198 A 
ATOM     93  C   UNL A   1      49.958  26.907  25.203  1.00  0.00     0.198 A 
ATOM     94  F   UNL A   1      49.084  27.502  27.304  1.00  0.00    -0.203 F 
ATOM     95  F   UNL A   1      48.515  27.151  21.889  1.00  0.00    -0.200 F 
ATOM     96  C   UNL A   1      49.822  26.814  23.826  1.00  0.00     0.200 A 
ATOM     97  F   UNL A   1      51.083  26.482  25.794  1.00  0.00    -0.200 F 
ATOM     98  F   UNL A   1      50.804  26.278  23.089  1.00  0.00    -0.200 F 
ENDBRANCH  65  88
ENDBRANCH  39  40
ENDBRANCH  32  34
ENDBRANCH  31  32
ENDBRANCH  30  31
ENDBRANCH  29  30
ENDBRANCH  28  29
ENDBRANCH   1  28
TORSDOF 18
ENDMDL
MODEL 3
REMARK VINA RESULT:     -11.7      4.349      6.831
REMARK SMILES NS(=O)(=O)c1ccc(N2N=C(C(=O)OCCOCCOC(=O)c3ccc(-c4c5nc(c(-c6c(F)c(F)c(F)c(F)c6F)c6ccc([nH]6)c(-c6c(F)c(F)c(F)c(F)c6F)c6nc(c(-c7c(F)c(F)c(F)c(F)c7F)c7ccc4[nH]7)C=C6)C=C5)cc3)C[C@H]2c2ccco2)cc1
REMARK SMILES IDX 16 1 15 2 14 3 12 4 13 5 11 6 9 7 10 8 87 9 86 10 8 11 5 12
REMARK SMILES IDX 6 13 94 14 7 15 93 16 2 17 3 18 4 19 1 20 88 23 89 24 92 25
REMARK SMILES IDX 90 26 91 27 17 28 18 29 19 30 20 31 21 32 22 33 23 34 24 35
REMARK SMILES IDX 85 36 25 37 84 38 26 39 27 40 28 41 78 42 29 43 83 44 77 45
REMARK SMILES IDX 79 46 30 47 82 48 76 49 75 50 31 52 63 53 43 54 62 55 44 56
REMARK SMILES IDX 47 57 61 58 80 59 45 60 46 61 60 63 81 64 48 65 32 66 33 67
REMARK SMILES IDX 41 68 34 69 35 70 39 71 42 72 36 73 37 74 40 75 38 76 64 77
REMARK SMILES IDX 65 78 73 79 66 80 67 81 71 82 74 83 68 84 69 85 72 86 70 87
REMARK SMILES IDX 49 88 50 89 58 90 51 91 52 92 56 93 59 94 53 95 54 96 57 97
REMARK SMILES IDX 55 98
REMARK H PARENT 1 21 1 22 79 51 47 62
REMARK Flexibility Score: inf
ROOT
ATOM      1  C   UNL A   1      40.575  20.521  26.352  1.00  0.00     0.202 C 
ENDROOT
BRANCH   1   2
ATOM      2  C   UNL A   1      39.984  21.919  26.554  1.00  0.00     0.261 C 
BRANCH   2   3
ATOM      3  O   UNL A   1      38.768  22.057  25.807  1.00  0.00    -0.459 OA
BRANCH   3   4
ATOM      4  C   UNL A   1      38.059  23.171  26.083  1.00  0.00     0.354 C 
ATOM      5  O   UNL A   1      38.338  24.062  26.861  1.00  0.00    -0.245 OA
BRANCH   4   6
ATOM      6  C   UNL A   1      36.869  23.233  25.162  1.00  0.00     0.148 C 
ATOM      7  N   UNL A   1      35.111  23.934  24.210  1.00  0.00    -0.254 N 
ATOM      8  N   UNL A   1      36.079  24.263  25.115  1.00  0.00    -0.169 NA
ATOM      9  C   UNL A   1      35.127  22.499  23.872  1.00  0.00     0.180 C 
ATOM     10  C   UNL A   1      36.597  22.154  24.164  1.00  0.00     0.101 C 
BRANCH   7  11
ATOM     11  C   UNL A   1      34.015  24.776  24.104  1.00  0.00     0.060 A 
ATOM     12  C   UNL A   1      31.827  26.506  23.761  1.00  0.00     0.082 A 
ATOM     13  C   UNL A   1      31.886  25.315  23.036  1.00  0.00     0.024 A 
ATOM     14  C   UNL A   1      32.846  26.846  24.648  1.00  0.00     0.024 A 
ATOM     15  C   UNL A   1      32.980  24.460  23.212  1.00  0.00     0.029 A 
ATOM     16  C   UNL A   1      33.941  25.990  24.800  1.00  0.00     0.029 A 
BRANCH  12  17
ATOM     17  S   UNL A   1      30.464  27.608  23.546  1.00  0.00     0.238 S 
ATOM     18  O   UNL A   1      30.657  28.759  24.393  1.00  0.00    -0.207 OA
ATOM     19  O   UNL A   1      29.236  26.844  23.530  1.00  0.00    -0.207 OA
BRANCH  17  20
ATOM     20  N   UNL A   1      30.648  28.155  21.966  1.00  0.00    -0.225 NA
ATOM     21  H   UNL A   1      30.185  29.058  21.862  1.00  0.00     0.137 HD
ATOM     22  H   UNL A   1      30.229  27.483  21.322  1.00  0.00     0.137 HD
ENDBRANCH  17  20
ENDBRANCH  12  17
ENDBRANCH   7  11
BRANCH   9  23
ATOM     23  C   UNL A   1      34.184  21.598  24.624  1.00  0.00     0.128 A 
ATOM     24  C   UNL A   1      33.919  21.428  25.970  1.00  0.00     0.048 A 
ATOM     25  O   UNL A   1      33.394  20.750  23.896  1.00  0.00    -0.467 OA
ATOM     26  C   UNL A   1      32.937  20.411  26.065  1.00  0.00     0.042 A 
ATOM     27  C   UNL A   1      32.642  20.043  24.774  1.00  0.00     0.195 A 
ENDBRANCH   9  23
ENDBRANCH   4   6
ENDBRANCH   3   4
ENDBRANCH   2   3
ENDBRANCH   1   2
BRANCH   1  28
ATOM     28  O   UNL A   1      41.687  20.439  25.463  1.00  0.00    -0.374 OA
BRANCH  28  29
ATOM     29  C   UNL A   1      42.998  20.488  26.029  1.00  0.00     0.202 C 
BRANCH  29  30
ATOM     30  C   UNL A   1      43.682  21.860  26.047  1.00  0.00     0.261 C 
BRANCH  30  31
ATOM     31  O   UNL A   1      43.146  22.757  25.056  1.00  0.00    -0.460 OA
BRANCH  31  32
ATOM     32  C   UNL A   1      43.738  23.977  25.019  1.00  0.00     0.338 C 
ATOM     33  O   UNL A   1      44.603  24.359  24.250  1.00  0.00    -0.246 OA
BRANCH  32  34
ATOM     34  C   UNL A   1      43.067  24.895  25.960  1.00  0.00     0.060 A 
ATOM     35  C   UNL A   1      43.671  26.138  26.191  1.00  0.00     0.016 A 
ATOM     36  C   UNL A   1      41.923  24.521  26.667  1.00  0.00     0.016 A 
ATOM     37  C   UNL A   1      43.158  26.994  27.164  1.00  0.00     0.010 A 
ATOM     38  C   UNL A   1      41.414  25.379  27.649  1.00  0.00     0.010 A 
ATOM     39  C   UNL A   1      42.048  26.605  27.925  1.00  0.00    -0.014 A 
BRANCH  39  40
ATOM     40  C   UNL A   1      41.637  27.425  29.090  1.00  0.00     0.031 A 
ATOM     41  C   UNL A   1      42.412  27.321  30.374  1.00  0.00     0.074 A 
ATOM     42  C   UNL A   1      40.604  28.282  28.996  1.00  0.00     0.049 A 
ATOM     43  N   UNL A   1      42.223  27.938  31.514  1.00  0.00    -0.248 NA
ATOM     44  C   UNL A   1      43.556  26.396  30.374  1.00  0.00     0.031 C 
ATOM     45  C   UNL A   1      39.796  28.499  27.799  1.00  0.00     0.029 A 
ATOM     46  N   UNL A   1      40.061  29.129  29.930  1.00  0.00    -0.354 N 
ATOM     47  C   UNL A   1      43.219  27.475  32.365  1.00  0.00     0.074 A 
ATOM     48  C   UNL A   1      43.989  26.500  31.622  1.00  0.00     0.031 C 
ATOM     49  C   UNL A   1      38.852  29.416  28.072  1.00  0.00     0.029 A 
ATOM     50  C   UNL A   1      38.974  29.830  29.469  1.00  0.00     0.049 A 
ATOM     51  H   UNL A   1      40.415  29.224  30.844  1.00  0.00     0.167 HD
ATOM     52  C   UNL A   1      43.475  27.839  33.645  1.00  0.00     0.037 A 
ATOM     53  C   UNL A   1      38.162  30.693  30.107  1.00  0.00     0.037 A 
ATOM     54  C   UNL A   1      42.710  28.811  34.382  1.00  0.00     0.049 A 
ATOM     55  C   UNL A   1      38.427  31.031  31.552  1.00  0.00     0.074 A 
ATOM     56  C   UNL A   1      42.907  29.265  35.674  1.00  0.00     0.029 A 
ATOM     57  N   UNL A   1      41.593  29.472  33.893  1.00  0.00    -0.354 N 
ATOM     58  N   UNL A   1      39.389  30.614  32.338  1.00  0.00    -0.248 NA
ATOM     59  C   UNL A   1      37.492  31.965  32.196  1.00  0.00     0.031 C 
ATOM     60  C   UNL A   1      41.879  30.162  35.985  1.00  0.00     0.029 A 
ATOM     61  C   UNL A   1      41.073  30.308  34.869  1.00  0.00     0.049 A 
ATOM     62  H   UNL A   1      41.224  29.363  32.987  1.00  0.00     0.167 HD
ATOM     63  C   UNL A   1      39.193  31.251  33.557  1.00  0.00     0.074 A 
ATOM     64  C   UNL A   1      38.028  32.097  33.400  1.00  0.00     0.031 C 
ATOM     65  C   UNL A   1      39.912  31.146  34.701  1.00  0.00     0.037 A 
BRANCH  52  66
ATOM     66  C   UNL A   1      44.621  27.163  34.339  1.00  0.00     0.064 A 
ATOM     67  C   UNL A   1      45.935  27.644  34.232  1.00  0.00     0.173 A 
ATOM     68  C   UNL A   1      44.399  26.038  35.147  1.00  0.00     0.173 A 
ATOM     69  F   UNL A   1      46.204  28.708  33.462  1.00  0.00    -0.203 F 
ATOM     70  C   UNL A   1      46.986  27.008  34.888  1.00  0.00     0.198 A 
ATOM     71  C   UNL A   1      45.446  25.422  35.824  1.00  0.00     0.198 A 
ATOM     72  F   UNL A   1      43.160  25.541  35.287  1.00  0.00    -0.203 F 
ATOM     73  F   UNL A   1      48.240  27.455  34.733  1.00  0.00    -0.200 F 
ATOM     74  C   UNL A   1      46.741  25.901  35.688  1.00  0.00     0.200 A 
ATOM     75  F   UNL A   1      45.206  24.360  36.606  1.00  0.00    -0.200 F 
ATOM     76  F   UNL A   1      47.752  25.293  36.322  1.00  0.00    -0.200 F 
ENDBRANCH  52  66
BRANCH  53  77
ATOM     77  C   UNL A   1      37.011  31.300  29.388  1.00  0.00     0.064 A 
ATOM     78  C   UNL A   1      35.895  30.531  29.029  1.00  0.00     0.173 A 
ATOM     79  C   UNL A   1      37.013  32.655  29.028  1.00  0.00     0.173 A 
ATOM     80  F   UNL A   1      35.859  29.224  29.327  1.00  0.00    -0.203 F 
ATOM     81  C   UNL A   1      34.833  31.092  28.322  1.00  0.00     0.198 A 
ATOM     82  C   UNL A   1      35.938  33.222  28.346  1.00  0.00     0.198 A 
ATOM     83  F   UNL A   1      38.058  33.433  29.346  1.00  0.00    -0.203 F 
ATOM     84  F   UNL A   1      33.800  30.323  27.950  1.00  0.00    -0.200 F 
ATOM     85  C   UNL A   1      34.852  32.437  27.987  1.00  0.00     0.200 A 
ATOM     86  F   UNL A   1      35.956  34.524  28.034  1.00  0.00    -0.200 F 
ATOM     87  F   UNL A   1      33.829  32.976  27.309  1.00  0.00    -0.200 F 
ENDBRANCH  53  77
BRANCH  65  88
ATOM     88  C   UNL A   1      39.478  31.986  35.868  1.00  0.00     0.064 A 
ATOM     89  C   UNL A   1      40.091  33.214  36.160  1.00  0.00     0.173 A 
ATOM     90  C   UNL A   1      38.416  31.573  36.687  1.00  0.00     0.173 A 
ATOM     91  F   UNL A   1      41.121  33.647  35.417  1.00  0.00    -0.203 F 
ATOM     92  C   UNL A   1      39.676  33.982  37.245  1.00  0.00     0.198 A 
ATOM     93  C   UNL A   1      37.982  32.358  37.751  1.00  0.00     0.198 A 
ATOM     94  F   UNL A   1      37.790  30.411  36.447  1.00  0.00    -0.203 F 
ATOM     95  F   UNL A   1      40.310  35.127  37.535  1.00  0.00    -0.200 F 
ATOM     96  C   UNL A   1      38.617  33.558  38.035  1.00  0.00     0.200 A 
ATOM     97  F   UNL A   1      36.951  31.953  38.505  1.00  0.00    -0.200 F 
ATOM     98  F   UNL A   1      38.216  34.301  39.075  1.00  0.00    -0.200 F 
ENDBRANCH  65  88
ENDBRANCH  39  40
ENDBRANCH  32  34
ENDBRANCH  31  32
ENDBRANCH  30  31
ENDBRANCH  29  30
ENDBRANCH  28  29
ENDBRANCH   1  28
TORSDOF 18
ENDMDL
