MODEL 1
REMARK VINA RESULT:     -11.3      0.000      0.000
REMARK SMILES CN(C(=O)N[C@@](C)(C(=O)OCCOCCOC(=O)c1ccc(-c2c3nc(c(-c4c(F)c(F)c(F)c(F)c4F)c4ccc([nH]4)c(-c4c(F)c(F)c(F)c(F)c4F)c4nc(c(-c5c(F)c(F)c(F)c(F)c5F)c5ccc2[nH]5)C=C4)C=C3)cc1)C(F)(F)F)c1ccc(F)cc1
REMARK SMILES IDX 12 1 11 2 10 3 8 4 9 5 6 6 7 7 5 8 3 9 4 10 2 12 1 13 86 14
REMARK SMILES IDX 87 15 92 16 88 17 91 18 89 19 90 20 82 21 83 22 84 23 85 24
REMARK SMILES IDX 13 25 14 26 15 27 16 28 17 29 18 30 19 31 20 32 81 33 21 34
REMARK SMILES IDX 80 35 22 36 23 37 24 38 74 39 25 40 79 41 73 42 75 43 26 44
REMARK SMILES IDX 78 45 72 46 71 47 27 49 59 50 39 51 58 52 40 53 43 54 57 55
REMARK SMILES IDX 76 56 41 57 42 58 56 60 77 61 44 62 28 63 29 64 37 65 30 66
REMARK SMILES IDX 31 67 35 68 38 69 32 70 33 71 36 72 34 73 60 74 61 75 69 76
REMARK SMILES IDX 62 77 63 78 67 79 70 80 64 81 65 82 68 83 66 84 45 85 46 86
REMARK SMILES IDX 54 87 47 88 48 89 52 90 55 91 49 92 50 93 53 94 51 95
REMARK H PARENT 5 11 75 48 43 59
REMARK Flexibility Score: inf
ROOT
ATOM      1  C   UNL A   1      30.445  27.653  23.650  1.00  0.00     0.202 C 
ENDROOT
BRANCH   1   2
ATOM      2  C   UNL A   1      31.242  27.501  22.344  1.00  0.00     0.261 C 
BRANCH   2   3
ATOM      3  O   UNL A   1      31.388  26.154  21.872  1.00  0.00    -0.461 OA
BRANCH   3   4
ATOM      4  C   UNL A   1      32.613  25.588  22.102  1.00  0.00     0.341 C 
ATOM      5  O   UNL A   1      33.602  25.850  21.430  1.00  0.00    -0.249 OA
BRANCH   4   6
ATOM      6  C   UNL A   1      32.533  24.462  23.151  1.00  0.00     0.232 C 
ATOM      7  C   UNL A   1      31.060  23.987  23.140  1.00  0.00     0.058 C 
BRANCH   6   8
ATOM      8  N   UNL A   1      32.744  24.999  24.568  1.00  0.00    -0.314 N 
ATOM      9  C   UNL A   1      33.064  24.784  25.852  1.00  0.00     0.322 C 
ATOM     10  O   UNL A   1      33.078  25.844  26.497  1.00  0.00    -0.248 OA
ATOM     11  H   UNL A   1      32.556  25.965  24.508  1.00  0.00     0.166 HD
BRANCH   9  12
ATOM     12  N   UNL A   1      33.391  23.587  26.425  1.00  0.00    -0.298 N 
ATOM     13  C   UNL A   1      32.592  22.854  27.385  1.00  0.00     0.155 C 
BRANCH  12  14
ATOM     14  C   UNL A   1      34.643  22.937  26.100  1.00  0.00     0.045 A 
ATOM     15  C   UNL A   1      34.704  21.559  25.839  1.00  0.00     0.029 A 
ATOM     16  C   UNL A   1      35.812  23.700  25.918  1.00  0.00     0.029 A 
ATOM     17  C   UNL A   1      35.879  20.980  25.341  1.00  0.00     0.041 A 
ATOM     18  C   UNL A   1      36.987  23.121  25.432  1.00  0.00     0.041 A 
ATOM     19  C   UNL A   1      37.003  21.769  25.129  1.00  0.00     0.123 A 
ATOM     20  F   UNL A   1      38.113  21.221  24.617  1.00  0.00    -0.207 F 
ENDBRANCH  12  14
ENDBRANCH   9  12
ENDBRANCH   6   8
BRANCH   6  21
ATOM     21  C   UNL A   1      33.364  23.317  22.567  1.00  0.00     0.422 C 
ATOM     22  F   UNL A   1      33.030  22.114  23.077  1.00  0.00    -0.168 F 
ATOM     23  F   UNL A   1      33.227  23.261  21.219  1.00  0.00    -0.168 F 
ATOM     24  F   UNL A   1      34.694  23.474  22.773  1.00  0.00    -0.168 F 
ENDBRANCH   6  21
ENDBRANCH   4   6
ENDBRANCH   3   4
ENDBRANCH   2   3
ENDBRANCH   1   2
BRANCH   1  25
ATOM     25  O   UNL A   1      31.039  28.345  24.739  1.00  0.00    -0.374 OA
BRANCH  25  26
ATOM     26  C   UNL A   1      31.953  29.404  24.465  1.00  0.00     0.202 C 
BRANCH  26  27
ATOM     27  C   UNL A   1      33.081  29.689  25.463  1.00  0.00     0.261 C 
BRANCH  27  28
ATOM     28  O   UNL A   1      32.600  30.191  26.724  1.00  0.00    -0.460 OA
BRANCH  28  29
ATOM     29  C   UNL A   1      33.212  31.326  27.145  1.00  0.00     0.338 C 
ATOM     30  O   UNL A   1      32.737  32.445  27.226  1.00  0.00    -0.246 OA
BRANCH  29  31
ATOM     31  C   UNL A   1      34.546  31.007  27.675  1.00  0.00     0.060 A 
ATOM     32  C   UNL A   1      34.775  29.708  28.145  1.00  0.00     0.016 A 
ATOM     33  C   UNL A   1      35.519  31.998  27.816  1.00  0.00     0.016 A 
ATOM     34  C   UNL A   1      35.978  29.398  28.777  1.00  0.00     0.010 A 
ATOM     35  C   UNL A   1      36.719  31.689  28.461  1.00  0.00     0.010 A 
ATOM     36  C   UNL A   1      36.946  30.394  28.964  1.00  0.00    -0.014 A 
BRANCH  36  37
ATOM     37  C   UNL A   1      38.162  30.104  29.759  1.00  0.00     0.031 A 
ATOM     38  C   UNL A   1      39.189  29.148  29.226  1.00  0.00     0.074 A 
ATOM     39  C   UNL A   1      38.341  30.690  30.957  1.00  0.00     0.049 A 
ATOM     40  N   UNL A   1      40.287  28.710  29.788  1.00  0.00    -0.248 NA
ATOM     41  C   UNL A   1      38.946  28.612  27.878  1.00  0.00     0.031 C 
ATOM     42  C   UNL A   1      37.429  31.656  31.563  1.00  0.00     0.029 A 
ATOM     43  N   UNL A   1      39.344  30.542  31.882  1.00  0.00    -0.354 N 
ATOM     44  C   UNL A   1      40.863  27.843  28.869  1.00  0.00     0.074 A 
ATOM     45  C   UNL A   1      39.982  27.800  27.719  1.00  0.00     0.031 C 
ATOM     46  C   UNL A   1      37.899  31.995  32.775  1.00  0.00     0.029 A 
ATOM     47  C   UNL A   1      39.126  31.246  33.039  1.00  0.00     0.049 A 
ATOM     48  H   UNL A   1      40.140  29.983  31.730  1.00  0.00     0.167 HD
ATOM     49  C   UNL A   1      42.022  27.150  28.975  1.00  0.00     0.037 A 
ATOM     50  C   UNL A   1      39.821  31.258  34.193  1.00  0.00     0.037 A 
ATOM     51  C   UNL A   1      42.893  27.196  30.120  1.00  0.00     0.049 A 
ATOM     52  C   UNL A   1      41.069  30.425  34.314  1.00  0.00     0.074 A 
ATOM     53  C   UNL A   1      44.114  26.570  30.302  1.00  0.00     0.029 A 
ATOM     54  N   UNL A   1      42.625  27.897  31.288  1.00  0.00    -0.354 N 
ATOM     55  N   UNL A   1      41.631  29.643  33.424  1.00  0.00    -0.248 NA
ATOM     56  C   UNL A   1      41.778  30.473  35.601  1.00  0.00     0.031 C 
ATOM     57  C   UNL A   1      44.559  26.848  31.599  1.00  0.00     0.029 A 
ATOM     58  C   UNL A   1      43.639  27.686  32.209  1.00  0.00     0.049 A 
ATOM     59  H   UNL A   1      41.832  28.460  31.440  1.00  0.00     0.167 HD
ATOM     60  C   UNL A   1      42.762  29.119  34.035  1.00  0.00     0.074 A 
ATOM     61  C   UNL A   1      42.819  29.685  35.366  1.00  0.00     0.031 C 
ATOM     62  C   UNL A   1      43.673  28.246  33.536  1.00  0.00     0.037 A 
BRANCH  49  63
ATOM     63  C   UNL A   1      42.401  26.256  27.832  1.00  0.00     0.064 A 
ATOM     64  C   UNL A   1      41.847  24.977  27.680  1.00  0.00     0.173 A 
ATOM     65  C   UNL A   1      43.306  26.701  26.857  1.00  0.00     0.173 A 
ATOM     66  F   UNL A   1      40.986  24.501  28.592  1.00  0.00    -0.203 F 
ATOM     67  C   UNL A   1      42.204  24.166  26.605  1.00  0.00     0.198 A 
ATOM     68  C   UNL A   1      43.641  25.898  25.770  1.00  0.00     0.198 A 
ATOM     69  F   UNL A   1      43.859  27.919  26.953  1.00  0.00    -0.203 F 
ATOM     70  F   UNL A   1      41.694  22.931  26.500  1.00  0.00    -0.200 F 
ATOM     71  C   UNL A   1      43.095  24.630  25.648  1.00  0.00     0.200 A 
ATOM     72  F   UNL A   1      44.494  26.352  24.841  1.00  0.00    -0.200 F 
ATOM     73  F   UNL A   1      43.434  23.850  24.612  1.00  0.00    -0.200 F 
ENDBRANCH  49  63
BRANCH  50  74
ATOM     74  C   UNL A   1      39.329  32.067  35.337  1.00  0.00     0.064 A 
ATOM     75  C   UNL A   1      38.521  31.501  36.332  1.00  0.00     0.173 A 
ATOM     76  C   UNL A   1      39.663  33.424  35.459  1.00  0.00     0.173 A 
ATOM     77  F   UNL A   1      38.153  30.214  36.244  1.00  0.00    -0.203 F 
ATOM     78  C   UNL A   1      38.056  32.265  37.400  1.00  0.00     0.198 A 
ATOM     79  C   UNL A   1      39.221  34.180  36.542  1.00  0.00     0.198 A 
ATOM     80  F   UNL A   1      40.434  34.012  34.533  1.00  0.00    -0.203 F 
ATOM     81  F   UNL A   1      37.255  31.711  38.320  1.00  0.00    -0.200 F 
ATOM     82  C   UNL A   1      38.413  33.602  37.508  1.00  0.00     0.200 A 
ATOM     83  F   UNL A   1      39.579  35.466  36.648  1.00  0.00    -0.200 F 
ATOM     84  F   UNL A   1      37.975  34.333  38.542  1.00  0.00    -0.200 F 
ENDBRANCH  50  74
BRANCH  62  85
ATOM     85  C   UNL A   1      44.813  27.854  34.430  1.00  0.00     0.064 A 
ATOM     86  C   UNL A   1      45.999  28.600  34.471  1.00  0.00     0.173 A 
ATOM     87  C   UNL A   1      44.700  26.749  35.288  1.00  0.00     0.173 A 
ATOM     88  F   UNL A   1      46.162  29.655  33.659  1.00  0.00    -0.203 F 
ATOM     89  C   UNL A   1      47.039  28.244  35.327  1.00  0.00     0.198 A 
ATOM     90  C   UNL A   1      45.731  26.412  36.161  1.00  0.00     0.198 A 
ATOM     91  F   UNL A   1      43.583  26.006  35.290  1.00  0.00    -0.203 F 
ATOM     92  F   UNL A   1      48.179  28.948  35.322  1.00  0.00    -0.200 F 
ATOM     93  C   UNL A   1      46.900  27.156  36.177  1.00  0.00     0.200 A 
ATOM     94  F   UNL A   1      45.590  25.369  36.990  1.00  0.00    -0.200 F 
ATOM     95  F   UNL A   1      47.899  26.821  37.006  1.00  0.00    -0.200 F 
ENDBRANCH  62  85
ENDBRANCH  36  37
ENDBRANCH  29  31
ENDBRANCH  28  29
ENDBRANCH  27  28
ENDBRANCH  26  27
ENDBRANCH  25  26
ENDBRANCH   1  25
TORSDOF 18
ENDMDL
MODEL 2
REMARK VINA RESULT:     -11.2      4.911     10.079
REMARK SMILES CN(C(=O)N[C@@](C)(C(=O)OCCOCCOC(=O)c1ccc(-c2c3nc(c(-c4c(F)c(F)c(F)c(F)c4F)c4ccc([nH]4)c(-c4c(F)c(F)c(F)c(F)c4F)c4nc(c(-c5c(F)c(F)c(F)c(F)c5F)c5ccc2[nH]5)C=C4)C=C3)cc1)C(F)(F)F)c1ccc(F)cc1
REMARK SMILES IDX 12 1 11 2 10 3 8 4 9 5 6 6 7 7 5 8 3 9 4 10 2 12 1 13 86 14
REMARK SMILES IDX 87 15 92 16 88 17 91 18 89 19 90 20 82 21 83 22 84 23 85 24
REMARK SMILES IDX 13 25 14 26 15 27 16 28 17 29 18 30 19 31 20 32 81 33 21 34
REMARK SMILES IDX 80 35 22 36 23 37 24 38 74 39 25 40 79 41 73 42 75 43 26 44
REMARK SMILES IDX 78 45 72 46 71 47 27 49 59 50 39 51 58 52 40 53 43 54 57 55
REMARK SMILES IDX 76 56 41 57 42 58 56 60 77 61 44 62 28 63 29 64 37 65 30 66
REMARK SMILES IDX 31 67 35 68 38 69 32 70 33 71 36 72 34 73 60 74 61 75 69 76
REMARK SMILES IDX 62 77 63 78 67 79 70 80 64 81 65 82 68 83 66 84 45 85 46 86
REMARK SMILES IDX 54 87 47 88 48 89 52 90 55 91 49 92 50 93 53 94 51 95
REMARK H PARENT 5 11 75 48 43 59
REMARK Flexibility Score: inf
ROOT
ATOM      1  C   UNL A   1      35.791  20.965  25.262  1.00  0.00     0.202 C 
ENDROOT
BRANCH   1   2
ATOM      2  C   UNL A   1      34.382  20.489  24.870  1.00  0.00     0.261 C 
BRANCH   2   3
ATOM      3  O   UNL A   1      33.551  21.485  24.257  1.00  0.00    -0.461 OA
BRANCH   3   4
ATOM      4  C   UNL A   1      32.452  21.853  24.986  1.00  0.00     0.341 C 
ATOM      5  O   UNL A   1      31.627  21.046  25.395  1.00  0.00    -0.249 OA
BRANCH   4   6
ATOM      6  C   UNL A   1      32.289  23.384  25.039  1.00  0.00     0.232 C 
ATOM      7  C   UNL A   1      30.766  23.644  24.941  1.00  0.00     0.058 C 
BRANCH   6   8
ATOM      8  N   UNL A   1      32.866  24.053  23.789  1.00  0.00    -0.314 N 
ATOM      9  C   UNL A   1      32.956  25.123  22.986  1.00  0.00     0.322 C 
ATOM     10  O   UNL A   1      33.766  24.928  22.066  1.00  0.00    -0.248 OA
ATOM     11  H   UNL A   1      33.451  23.373  23.380  1.00  0.00     0.166 HD
BRANCH   9  12
ATOM     12  N   UNL A   1      32.308  26.316  23.135  1.00  0.00    -0.298 N 
ATOM     13  C   UNL A   1      31.394  26.915  22.184  1.00  0.00     0.155 C 
BRANCH  12  14
ATOM     14  C   UNL A   1      32.513  27.119  24.322  1.00  0.00     0.045 A 
ATOM     15  C   UNL A   1      31.472  27.354  25.234  1.00  0.00     0.029 A 
ATOM     16  C   UNL A   1      33.802  27.581  24.652  1.00  0.00     0.029 A 
ATOM     17  C   UNL A   1      31.731  27.966  26.467  1.00  0.00     0.041 A 
ATOM     18  C   UNL A   1      34.058  28.202  25.876  1.00  0.00     0.041 A 
ATOM     19  C   UNL A   1      33.022  28.371  26.782  1.00  0.00     0.123 A 
ATOM     20  F   UNL A   1      33.274  28.921  27.977  1.00  0.00    -0.207 F 
ENDBRANCH  12  14
ENDBRANCH   9  12
ENDBRANCH   6   8
BRANCH   6  21
ATOM     21  C   UNL A   1      32.707  23.778  26.457  1.00  0.00     0.422 C 
ATOM     22  F   UNL A   1      33.477  24.885  26.488  1.00  0.00    -0.168 F 
ATOM     23  F   UNL A   1      31.621  23.994  27.239  1.00  0.00    -0.168 F 
ATOM     24  F   UNL A   1      33.401  22.802  27.091  1.00  0.00    -0.168 F 
ENDBRANCH   6  21
ENDBRANCH   4   6
ENDBRANCH   3   4
ENDBRANCH   2   3
ENDBRANCH   1   2
BRANCH   1  25
ATOM     25  O   UNL A   1      36.907  20.156  24.921  1.00  0.00    -0.374 OA
BRANCH  25  26
ATOM     26  C   UNL A   1      38.196  20.518  25.411  1.00  0.00     0.202 C 
BRANCH  26  27
ATOM     27  C   UNL A   1      39.326  19.484  25.365  1.00  0.00     0.261 C 
BRANCH  27  28
ATOM     28  O   UNL A   1      40.186  19.543  26.518  1.00  0.00    -0.460 OA
BRANCH  28  29
ATOM     29  C   UNL A   1      41.506  19.396  26.241  1.00  0.00     0.338 C 
ATOM     30  O   UNL A   1      42.063  18.432  25.750  1.00  0.00    -0.246 OA
BRANCH  29  31
ATOM     31  C   UNL A   1      42.208  20.668  26.469  1.00  0.00     0.060 A 
ATOM     32  C   UNL A   1      42.374  21.102  27.791  1.00  0.00     0.016 A 
ATOM     33  C   UNL A   1      42.593  21.478  25.399  1.00  0.00     0.016 A 
ATOM     34  C   UNL A   1      42.912  22.362  28.047  1.00  0.00     0.010 A 
ATOM     35  C   UNL A   1      43.121  22.746  25.659  1.00  0.00     0.010 A 
ATOM     36  C   UNL A   1      43.263  23.202  26.982  1.00  0.00    -0.014 A 
BRANCH  36  37
ATOM     37  C   UNL A   1      43.700  24.592  27.249  1.00  0.00     0.031 A 
ATOM     38  C   UNL A   1      42.703  25.607  27.730  1.00  0.00     0.074 A 
ATOM     39  C   UNL A   1      44.984  24.946  27.056  1.00  0.00     0.049 A 
ATOM     40  N   UNL A   1      42.864  26.885  27.961  1.00  0.00    -0.248 NA
ATOM     41  C   UNL A   1      41.340  25.114  27.984  1.00  0.00     0.031 C 
ATOM     42  C   UNL A   1      46.046  24.043  26.621  1.00  0.00     0.029 A 
ATOM     43  N   UNL A   1      45.603  26.164  27.184  1.00  0.00    -0.354 N 
ATOM     44  C   UNL A   1      41.625  27.352  28.380  1.00  0.00     0.074 A 
ATOM     45  C   UNL A   1      40.716  26.225  28.352  1.00  0.00     0.031 C 
ATOM     46  C   UNL A   1      47.185  24.744  26.490  1.00  0.00     0.029 A 
ATOM     47  C   UNL A   1      46.921  26.147  26.802  1.00  0.00     0.049 A 
ATOM     48  H   UNL A   1      45.146  26.970  27.516  1.00  0.00     0.167 HD
ATOM     49  C   UNL A   1      41.281  28.607  28.756  1.00  0.00     0.037 A 
ATOM     50  C   UNL A   1      47.805  27.158  26.685  1.00  0.00     0.037 A 
ATOM     51  C   UNL A   1      42.188  29.725  28.781  1.00  0.00     0.049 A 
ATOM     52  C   UNL A   1      47.380  28.557  27.041  1.00  0.00     0.074 A 
ATOM     53  C   UNL A   1      41.948  31.023  29.195  1.00  0.00     0.029 A 
ATOM     54  N   UNL A   1      43.509  29.678  28.357  1.00  0.00    -0.354 N 
ATOM     55  N   UNL A   1      46.220  28.983  27.480  1.00  0.00    -0.248 NA
ATOM     56  C   UNL A   1      48.386  29.618  26.884  1.00  0.00     0.031 C 
ATOM     57  C   UNL A   1      43.106  31.775  28.971  1.00  0.00     0.029 A 
ATOM     58  C   UNL A   1      44.084  30.935  28.464  1.00  0.00     0.049 A 
ATOM     59  H   UNL A   1      43.970  28.872  28.031  1.00  0.00     0.167 HD
ATOM     60  C   UNL A   1      46.359  30.352  27.664  1.00  0.00     0.074 A 
ATOM     61  C   UNL A   1      47.722  30.685  27.307  1.00  0.00     0.031 C 
ATOM     62  C   UNL A   1      45.439  31.253  28.091  1.00  0.00     0.037 A 
BRANCH  49  63
ATOM     63  C   UNL A   1      39.852  28.847  29.143  1.00  0.00     0.064 A 
ATOM     64  C   UNL A   1      39.418  28.737  30.471  1.00  0.00     0.173 A 
ATOM     65  C   UNL A   1      38.911  29.226  28.173  1.00  0.00     0.173 A 
ATOM     66  F   UNL A   1      40.276  28.366  31.433  1.00  0.00    -0.203 F 
ATOM     67  C   UNL A   1      38.088  28.975  30.812  1.00  0.00     0.198 A 
ATOM     68  C   UNL A   1      37.589  29.487  28.520  1.00  0.00     0.198 A 
ATOM     69  F   UNL A   1      39.277  29.350  26.888  1.00  0.00    -0.203 F 
ATOM     70  F   UNL A   1      37.686  28.825  32.081  1.00  0.00    -0.200 F 
ATOM     71  C   UNL A   1      37.177  29.356  29.838  1.00  0.00     0.200 A 
ATOM     72  F   UNL A   1      36.712  29.866  27.580  1.00  0.00    -0.200 F 
ATOM     73  F   UNL A   1      35.899  29.589  30.168  1.00  0.00    -0.200 F 
ENDBRANCH  49  63
BRANCH  50  74
ATOM     74  C   UNL A   1      49.172  26.881  26.177  1.00  0.00     0.064 A 
ATOM     75  C   UNL A   1      49.472  26.972  24.812  1.00  0.00     0.173 A 
ATOM     76  C   UNL A   1      50.209  26.523  27.051  1.00  0.00     0.173 A 
ATOM     77  F   UNL A   1      48.507  27.286  23.934  1.00  0.00    -0.203 F 
ATOM     78  C   UNL A   1      50.754  26.706  24.339  1.00  0.00     0.198 A 
ATOM     79  C   UNL A   1      51.498  26.283  26.581  1.00  0.00     0.198 A 
ATOM     80  F   UNL A   1      49.972  26.421  28.367  1.00  0.00    -0.203 F 
ATOM     81  F   UNL A   1      51.008  26.765  23.024  1.00  0.00    -0.200 F 
ATOM     82  C   UNL A   1      51.768  26.369  25.224  1.00  0.00     0.200 A 
ATOM     83  F   UNL A   1      52.475  25.971  27.442  1.00  0.00    -0.200 F 
ATOM     84  F   UNL A   1      53.005  26.123  24.769  1.00  0.00    -0.200 F 
ENDBRANCH  50  74
BRANCH  62  85
ATOM     85  C   UNL A   1      45.876  32.684  28.201  1.00  0.00     0.064 A 
ATOM     86  C   UNL A   1      46.483  33.175  29.367  1.00  0.00     0.173 A 
ATOM     87  C   UNL A   1      45.729  33.562  27.117  1.00  0.00     0.173 A 
ATOM     88  F   UNL A   1      46.631  32.379  30.437  1.00  0.00    -0.203 F 
ATOM     89  C   UNL A   1      46.912  34.497  29.448  1.00  0.00     0.198 A 
ATOM     90  C   UNL A   1      46.184  34.876  27.193  1.00  0.00     0.198 A 
ATOM     91  F   UNL A   1      45.159  33.141  25.978  1.00  0.00    -0.203 F 
ATOM     92  F   UNL A   1      47.454  34.955  30.584  1.00  0.00    -0.200 F 
ATOM     93  C   UNL A   1      46.770  35.344  28.358  1.00  0.00     0.200 A 
ATOM     94  F   UNL A   1      46.056  35.689  26.135  1.00  0.00    -0.200 F 
ATOM     95  F   UNL A   1      47.192  36.613  28.436  1.00  0.00    -0.200 F 
ENDBRANCH  62  85
ENDBRANCH  36  37
ENDBRANCH  29  31
ENDBRANCH  28  29
ENDBRANCH  27  28
ENDBRANCH  26  27
ENDBRANCH  25  26
ENDBRANCH   1  25
TORSDOF 18
ENDMDL
MODEL 3
REMARK VINA RESULT:     -11.2      4.726      9.646
REMARK SMILES CN(C(=O)N[C@@](C)(C(=O)OCCOCCOC(=O)c1ccc(-c2c3nc(c(-c4c(F)c(F)c(F)c(F)c4F)c4ccc([nH]4)c(-c4c(F)c(F)c(F)c(F)c4F)c4nc(c(-c5c(F)c(F)c(F)c(F)c5F)c5ccc2[nH]5)C=C4)C=C3)cc1)C(F)(F)F)c1ccc(F)cc1
REMARK SMILES IDX 12 1 11 2 10 3 8 4 9 5 6 6 7 7 5 8 3 9 4 10 2 12 1 13 86 14
REMARK SMILES IDX 87 15 92 16 88 17 91 18 89 19 90 20 82 21 83 22 84 23 85 24
REMARK SMILES IDX 13 25 14 26 15 27 16 28 17 29 18 30 19 31 20 32 81 33 21 34
REMARK SMILES IDX 80 35 22 36 23 37 24 38 74 39 25 40 79 41 73 42 75 43 26 44
REMARK SMILES IDX 78 45 72 46 71 47 27 49 59 50 39 51 58 52 40 53 43 54 57 55
REMARK SMILES IDX 76 56 41 57 42 58 56 60 77 61 44 62 28 63 29 64 37 65 30 66
REMARK SMILES IDX 31 67 35 68 38 69 32 70 33 71 36 72 34 73 60 74 61 75 69 76
REMARK SMILES IDX 62 77 63 78 67 79 70 80 64 81 65 82 68 83 66 84 45 85 46 86
REMARK SMILES IDX 54 87 47 88 48 89 52 90 55 91 49 92 50 93 53 94 51 95
REMARK H PARENT 5 11 75 48 43 59
REMARK Flexibility Score: inf
ROOT
ATOM      1  C   UNL A   1      37.261  22.996  25.611  1.00  0.00     0.202 C 
ENDROOT
BRANCH   1   2
ATOM      2  C   UNL A   1      35.892  22.488  26.092  1.00  0.00     0.261 C 
BRANCH   2   3
ATOM      3  O   UNL A   1      34.761  23.208  25.582  1.00  0.00    -0.461 OA
BRANCH   3   4
ATOM      4  C   UNL A   1      34.182  22.664  24.466  1.00  0.00     0.341 C 
ATOM      5  O   UNL A   1      34.609  22.859  23.336  1.00  0.00    -0.249 OA
BRANCH   4   6
ATOM      6  C   UNL A   1      32.846  21.972  24.798  1.00  0.00     0.232 C 
ATOM      7  C   UNL A   1      32.022  22.009  23.488  1.00  0.00     0.058 C 
BRANCH   6   8
ATOM      8  N   UNL A   1      32.018  22.795  25.787  1.00  0.00    -0.314 N 
ATOM      9  C   UNL A   1      31.397  23.940  26.105  1.00  0.00     0.322 C 
ATOM     10  O   UNL A   1      30.812  23.847  27.195  1.00  0.00    -0.248 OA
ATOM     11  H   UNL A   1      31.871  22.199  26.558  1.00  0.00     0.166 HD
BRANCH   9  12
ATOM     12  N   UNL A   1      31.337  25.077  25.348  1.00  0.00    -0.298 N 
ATOM     13  C   UNL A   1      30.697  25.208  24.056  1.00  0.00     0.155 C 
BRANCH  12  14
ATOM     14  C   UNL A   1      31.959  26.299  25.811  1.00  0.00     0.045 A 
ATOM     15  C   UNL A   1      31.253  27.228  26.592  1.00  0.00     0.029 A 
ATOM     16  C   UNL A   1      33.331  26.524  25.591  1.00  0.00     0.029 A 
ATOM     17  C   UNL A   1      31.917  28.306  27.191  1.00  0.00     0.041 A 
ATOM     18  C   UNL A   1      33.992  27.606  26.178  1.00  0.00     0.041 A 
ATOM     19  C   UNL A   1      33.282  28.476  26.990  1.00  0.00     0.123 A 
ATOM     20  F   UNL A   1      33.922  29.485  27.594  1.00  0.00    -0.207 F 
ENDBRANCH  12  14
ENDBRANCH   9  12
ENDBRANCH   6   8
BRANCH   6  21
ATOM     21  C   UNL A   1      33.211  20.506  25.042  1.00  0.00     0.422 C 
ATOM     22  F   UNL A   1      34.351  20.140  24.422  1.00  0.00    -0.168 F 
ATOM     23  F   UNL A   1      33.351  20.257  26.368  1.00  0.00    -0.168 F 
ATOM     24  F   UNL A   1      32.248  19.647  24.629  1.00  0.00    -0.168 F 
ENDBRANCH   6  21
ENDBRANCH   4   6
ENDBRANCH   3   4
ENDBRANCH   2   3
ENDBRANCH   1   2
BRANCH   1  25
ATOM     25  O   UNL A   1      38.312  22.060  25.420  1.00  0.00    -0.374 OA
BRANCH  25  26
ATOM     26  C   UNL A   1      37.981  20.701  25.144  1.00  0.00     0.202 C 
BRANCH  26  27
ATOM     27  C   UNL A   1      39.088  19.643  25.184  1.00  0.00     0.261 C 
BRANCH  27  28
ATOM     28  O   UNL A   1      39.895  19.720  26.374  1.00  0.00    -0.460 OA
BRANCH  28  29
ATOM     29  C   UNL A   1      41.223  19.544  26.164  1.00  0.00     0.338 C 
ATOM     30  O   UNL A   1      41.779  18.585  25.661  1.00  0.00    -0.246 OA
BRANCH  29  31
ATOM     31  C   UNL A   1      41.948  20.782  26.489  1.00  0.00     0.060 A 
ATOM     32  C   UNL A   1      42.201  21.063  27.837  1.00  0.00     0.016 A 
ATOM     33  C   UNL A   1      42.269  21.708  25.494  1.00  0.00     0.016 A 
ATOM     34  C   UNL A   1      42.763  22.286  28.199  1.00  0.00     0.010 A 
ATOM     35  C   UNL A   1      42.822  22.938  25.861  1.00  0.00     0.010 A 
ATOM     36  C   UNL A   1      43.052  23.241  27.215  1.00  0.00    -0.014 A 
BRANCH  36  37
ATOM     37  C   UNL A   1      43.516  24.593  27.609  1.00  0.00     0.031 A 
ATOM     38  C   UNL A   1      42.511  25.643  27.986  1.00  0.00     0.074 A 
ATOM     39  C   UNL A   1      44.830  24.879  27.622  1.00  0.00     0.049 A 
ATOM     40  N   UNL A   1      42.702  26.900  28.299  1.00  0.00    -0.248 NA
ATOM     41  C   UNL A   1      41.103  25.221  28.015  1.00  0.00     0.031 C 
ATOM     42  C   UNL A   1      45.898  23.934  27.304  1.00  0.00     0.029 A 
ATOM     43  N   UNL A   1      45.485  26.053  27.896  1.00  0.00    -0.354 N 
ATOM     44  C   UNL A   1      41.441  27.421  28.554  1.00  0.00     0.074 A 
ATOM     45  C   UNL A   1      40.489  26.350  28.340  1.00  0.00     0.031 C 
ATOM     46  C   UNL A   1      47.077  24.572  27.374  1.00  0.00     0.029 A 
ATOM     47  C   UNL A   1      46.843  25.975  27.710  1.00  0.00     0.049 A 
ATOM     48  H   UNL A   1      45.026  26.871  28.195  1.00  0.00     0.167 HD
ATOM     49  C   UNL A   1      41.110  28.678  28.935  1.00  0.00     0.037 A 
ATOM     50  C   UNL A   1      47.785  26.937  27.771  1.00  0.00     0.037 A 
ATOM     51  C   UNL A   1      42.059  29.740  29.145  1.00  0.00     0.049 A 
ATOM     52  C   UNL A   1      47.384  28.343  28.127  1.00  0.00     0.074 A 
ATOM     53  C   UNL A   1      41.827  31.032  29.580  1.00  0.00     0.029 A 
ATOM     54  N   UNL A   1      43.424  29.634  28.917  1.00  0.00    -0.354 N 
ATOM     55  N   UNL A   1      46.196  28.818  28.412  1.00  0.00    -0.248 NA
ATOM     56  C   UNL A   1      48.455  29.349  28.169  1.00  0.00     0.031 C 
ATOM     57  C   UNL A   1      43.043  31.725  29.564  1.00  0.00     0.029 A 
ATOM     58  C   UNL A   1      44.040  30.850  29.165  1.00  0.00     0.049 A 
ATOM     59  H   UNL A   1      43.886  28.815  28.623  1.00  0.00     0.167 HD
ATOM     60  C   UNL A   1      46.376  30.168  28.679  1.00  0.00     0.074 A 
ATOM     61  C   UNL A   1      47.792  30.436  28.541  1.00  0.00     0.031 C 
ATOM     62  C   UNL A   1      45.450  31.103  29.009  1.00  0.00     0.037 A 
BRANCH  49  63
ATOM     63  C   UNL A   1      39.653  28.985  29.120  1.00  0.00     0.064 A 
ATOM     64  C   UNL A   1      38.846  29.407  28.054  1.00  0.00     0.173 A 
ATOM     65  C   UNL A   1      39.049  28.819  30.375  1.00  0.00     0.173 A 
ATOM     66  F   UNL A   1      39.378  29.592  26.836  1.00  0.00    -0.203 F 
ATOM     67  C   UNL A   1      37.492  29.676  28.243  1.00  0.00     0.198 A 
ATOM     68  C   UNL A   1      37.691  29.064  30.556  1.00  0.00     0.198 A 
ATOM     69  F   UNL A   1      39.776  28.411  31.426  1.00  0.00    -0.203 F 
ATOM     70  F   UNL A   1      36.748  30.118  27.220  1.00  0.00    -0.200 F 
ATOM     71  C   UNL A   1      36.915  29.498  29.492  1.00  0.00     0.200 A 
ATOM     72  F   UNL A   1      37.133  28.880  31.761  1.00  0.00    -0.200 F 
ATOM     73  F   UNL A   1      35.612  29.753  29.672  1.00  0.00    -0.200 F 
ENDBRANCH  49  63
BRANCH  50  74
ATOM     74  C   UNL A   1      49.196  26.602  27.455  1.00  0.00     0.064 A 
ATOM     75  C   UNL A   1      50.106  26.265  28.466  1.00  0.00     0.173 A 
ATOM     76  C   UNL A   1      49.661  26.608  26.132  1.00  0.00     0.173 A 
ATOM     77  F   UNL A   1      49.715  26.271  29.748  1.00  0.00    -0.203 F 
ATOM     78  C   UNL A   1      51.431  25.957  28.165  1.00  0.00     0.198 A 
ATOM     79  C   UNL A   1      50.979  26.274  25.829  1.00  0.00     0.198 A 
ATOM     80  F   UNL A   1      48.829  26.924  25.129  1.00  0.00    -0.203 F 
ATOM     81  F   UNL A   1      52.292  25.673  29.152  1.00  0.00    -0.200 F 
ATOM     82  C   UNL A   1      51.865  25.954  26.846  1.00  0.00     0.200 A 
ATOM     83  F   UNL A   1      51.388  26.260  24.554  1.00  0.00    -0.200 F 
ATOM     84  F   UNL A   1      53.137  25.647  26.557  1.00  0.00    -0.200 F 
ENDBRANCH  50  74
BRANCH  62  85
ATOM     85  C   UNL A   1      45.939  32.502  29.250  1.00  0.00     0.064 A 
ATOM     86  C   UNL A   1      46.410  32.904  30.508  1.00  0.00     0.173 A 
ATOM     87  C   UNL A   1      45.981  33.434  28.202  1.00  0.00     0.173 A 
ATOM     88  F   UNL A   1      46.374  32.054  31.546  1.00  0.00    -0.203 F 
ATOM     89  C   UNL A   1      46.889  34.195  30.713  1.00  0.00     0.198 A 
ATOM     90  C   UNL A   1      46.486  34.716  28.405  1.00  0.00     0.198 A 
ATOM     91  F   UNL A   1      45.547  33.097  26.979  1.00  0.00    -0.203 F 
ATOM     92  F   UNL A   1      47.297  34.571  31.933  1.00  0.00    -0.200 F 
ATOM     93  C   UNL A   1      46.935  35.097  29.660  1.00  0.00     0.200 A 
ATOM     94  F   UNL A   1      46.541  35.582  27.383  1.00  0.00    -0.200 F 
ATOM     95  F   UNL A   1      47.405  36.336  29.858  1.00  0.00    -0.200 F 
ENDBRANCH  62  85
ENDBRANCH  36  37
ENDBRANCH  29  31
ENDBRANCH  28  29
ENDBRANCH  27  28
ENDBRANCH  26  27
ENDBRANCH  25  26
ENDBRANCH   1  25
TORSDOF 18
ENDMDL
