MODEL 1
REMARK VINA RESULT:     -11.3      0.000      0.000
REMARK SMILES Cc1c(N)cccc1SCc1cc(C(=O)OCCOCCOC(=O)c2ccc(-c3c4nc(c(-c5c(F)c(F)c(F)c(F)c5F)c5ccc([nH]5)c(-c5c(F)c(F)c(F)c(F)c5F)c5nc(c(-c6c(F)c(F)c(F)c(F)c6F)c6ccc3[nH]6)C=C5)C=C4)cc2)no1
REMARK SMILES IDX 18 1 17 2 16 3 14 4 15 5 13 6 11 7 12 8 89 9 88 10 10 11
REMARK SMILES IDX 9 12 8 13 1 14 2 15 3 16 5 17 7 18 6 19 4 20 19 23 20 24
REMARK SMILES IDX 21 25 22 26 23 27 24 28 25 29 26 30 87 31 27 32 86 33 28 34
REMARK SMILES IDX 29 35 30 36 80 37 31 38 85 39 79 40 81 41 32 42 84 43 78 44
REMARK SMILES IDX 77 45 33 47 65 48 45 49 64 50 46 51 49 52 63 53 82 54 47 55
REMARK SMILES IDX 48 56 62 58 83 59 50 60 34 61 35 62 43 63 36 64 37 65 41 66
REMARK SMILES IDX 44 67 38 68 39 69 42 70 40 71 66 72 67 73 75 74 68 75 69 76
REMARK SMILES IDX 73 77 76 78 70 79 71 80 74 81 72 82 51 83 52 84 60 85 53 86
REMARK SMILES IDX 54 87 58 88 61 89 55 90 56 91 59 92 57 93
REMARK H PARENT 4 21 4 22 81 46 49 57
REMARK Flexibility Score: inf
ROOT
ATOM      1  C   UNL A   1      44.138  18.942  25.043  1.00  0.00     0.202 C 
ENDROOT
BRANCH   1   2
ATOM      2  C   UNL A   1      43.161  18.554  26.156  1.00  0.00     0.261 C 
BRANCH   2   3
ATOM      3  O   UNL A   1      41.819  18.869  25.745  1.00  0.00    -0.458 OA
BRANCH   3   4
ATOM      4  C   UNL A   1      41.081  19.620  26.617  1.00  0.00     0.360 C 
ATOM      5  O   UNL A   1      41.420  19.877  27.767  1.00  0.00    -0.244 OA
BRANCH   4   6
ATOM      6  C   UNL A   1      39.894  20.168  25.964  1.00  0.00     0.191 A 
ATOM      7  C   UNL A   1      38.165  21.448  25.413  1.00  0.00     0.147 A 
ATOM      8  C   UNL A   1      39.404  21.503  26.006  1.00  0.00     0.085 A 
ATOM      9  O   UNL A   1      37.963  20.175  24.966  1.00  0.00    -0.360 OA
ATOM     10  N   UNL A   1      39.037  19.381  25.297  1.00  0.00    -0.072 NA
BRANCH   7  11
ATOM     11  C   UNL A   1      36.998  22.343  25.224  1.00  0.00     0.153 C 
BRANCH  11  12
ATOM     12  S   UNL A   1      35.351  21.745  25.697  1.00  0.00    -0.118 SA
BRANCH  12  13
ATOM     13  C   UNL A   1      34.258  23.168  25.666  1.00  0.00     0.013 A 
ATOM     14  C   UNL A   1      32.027  21.920  25.666  1.00  0.00     0.048 C 
ATOM     15  C   UNL A   1      32.846  23.183  25.712  1.00  0.00    -0.015 A 
ATOM     16  C   UNL A   1      32.178  24.429  25.814  1.00  0.00     0.035 A 
ATOM     17  C   UNL A   1      32.900  25.621  25.683  1.00  0.00     0.026 A 
ATOM     18  C   UNL A   1      34.952  24.389  25.556  1.00  0.00     0.015 A 
ATOM     19  C   UNL A   1      34.281  25.605  25.545  1.00  0.00     0.003 A 
BRANCH  16  20
ATOM     20  N   UNL A   1      30.796  24.516  25.934  1.00  0.00    -0.398 N 
ATOM     21  H   UNL A   1      30.223  23.826  25.528  1.00  0.00     0.156 HD
ATOM     22  H   UNL A   1      30.390  25.267  26.422  1.00  0.00     0.156 HD
ENDBRANCH  16  20
ENDBRANCH  12  13
ENDBRANCH  11  12
ENDBRANCH   7  11
ENDBRANCH   4   6
ENDBRANCH   3   4
ENDBRANCH   2   3
ENDBRANCH   1   2
BRANCH   1  23
ATOM     23  O   UNL A   1      44.805  20.171  25.335  1.00  0.00    -0.374 OA
BRANCH  23  24
ATOM     24  C   UNL A   1      44.267  21.329  24.693  1.00  0.00     0.202 C 
BRANCH  24  25
ATOM     25  C   UNL A   1      43.357  22.137  25.621  1.00  0.00     0.261 C 
BRANCH  25  26
ATOM     26  O   UNL A   1      42.903  23.329  24.951  1.00  0.00    -0.460 OA
BRANCH  26  27
ATOM     27  C   UNL A   1      43.671  24.429  25.136  1.00  0.00     0.338 C 
ATOM     28  O   UNL A   1      44.687  24.738  24.538  1.00  0.00    -0.246 OA
BRANCH  27  29
ATOM     29  C   UNL A   1      43.004  25.323  26.104  1.00  0.00     0.060 A 
ATOM     30  C   UNL A   1      43.374  26.673  26.116  1.00  0.00     0.016 A 
ATOM     31  C   UNL A   1      42.046  24.846  27.004  1.00  0.00     0.016 A 
ATOM     32  C   UNL A   1      42.806  27.547  27.043  1.00  0.00     0.010 A 
ATOM     33  C   UNL A   1      41.475  25.722  27.929  1.00  0.00     0.010 A 
ATOM     34  C   UNL A   1      41.871  27.070  27.970  1.00  0.00    -0.014 A 
BRANCH  34  35
ATOM     35  C   UNL A   1      41.432  27.920  29.100  1.00  0.00     0.031 A 
ATOM     36  C   UNL A   1      42.193  27.833  30.393  1.00  0.00     0.074 A 
ATOM     37  C   UNL A   1      40.373  28.741  28.989  1.00  0.00     0.049 A 
ATOM     38  N   UNL A   1      41.928  28.376  31.552  1.00  0.00    -0.248 NA
ATOM     39  C   UNL A   1      43.417  27.014  30.374  1.00  0.00     0.031 C 
ATOM     40  C   UNL A   1      39.584  28.948  27.776  1.00  0.00     0.029 A 
ATOM     41  N   UNL A   1      39.773  29.545  29.924  1.00  0.00    -0.354 N 
ATOM     42  C   UNL A   1      42.937  27.947  32.404  1.00  0.00     0.074 A 
ATOM     43  C   UNL A   1      43.811  27.089  31.635  1.00  0.00     0.031 C 
ATOM     44  C   UNL A   1      38.591  29.815  28.048  1.00  0.00     0.029 A 
ATOM     45  C   UNL A   1      38.657  30.194  29.458  1.00  0.00     0.049 A 
ATOM     46  H   UNL A   1      40.111  29.647  30.844  1.00  0.00     0.167 HD
ATOM     47  C   UNL A   1      43.120  28.245  33.710  1.00  0.00     0.037 A 
ATOM     48  C   UNL A   1      37.779  30.984  30.107  1.00  0.00     0.037 A 
ATOM     49  C   UNL A   1      42.264  29.111  34.471  1.00  0.00     0.049 A 
ATOM     50  C   UNL A   1      37.979  31.267  31.574  1.00  0.00     0.074 A 
ATOM     51  C   UNL A   1      42.366  29.478  35.801  1.00  0.00     0.029 A 
ATOM     52  N   UNL A   1      41.144  29.751  33.961  1.00  0.00    -0.354 N 
ATOM     53  N   UNL A   1      38.933  30.855  32.373  1.00  0.00    -0.248 NA
ATOM     54  C   UNL A   1      36.977  32.119  32.231  1.00  0.00     0.031 C 
ATOM     55  C   UNL A   1      41.292  30.323  36.103  1.00  0.00     0.029 A 
ATOM     56  C   UNL A   1      40.541  30.504  34.952  1.00  0.00     0.049 A 
ATOM     57  H   UNL A   1      40.826  29.680  33.032  1.00  0.00     0.167 HD
ATOM     58  C   UNL A   1      38.664  31.420  33.614  1.00  0.00     0.074 A 
ATOM     59  C   UNL A   1      37.457  32.204  33.464  1.00  0.00     0.031 C 
ATOM     60  C   UNL A   1      39.357  31.301  34.772  1.00  0.00     0.037 A 
BRANCH  47  61
ATOM     61  C   UNL A   1      44.283  27.607  34.403  1.00  0.00     0.064 A 
ATOM     62  C   UNL A   1      45.533  28.238  34.470  1.00  0.00     0.173 A 
ATOM     63  C   UNL A   1      44.141  26.355  35.018  1.00  0.00     0.173 A 
ATOM     64  F   UNL A   1      45.721  29.427  33.877  1.00  0.00    -0.203 F 
ATOM     65  C   UNL A   1      46.606  27.630  35.115  1.00  0.00     0.198 A 
ATOM     66  C   UNL A   1      45.210  25.758  35.680  1.00  0.00     0.198 A 
ATOM     67  F   UNL A   1      42.965  25.711  34.977  1.00  0.00    -0.203 F 
ATOM     68  F   UNL A   1      47.804  28.231  35.133  1.00  0.00    -0.200 F 
ATOM     69  C   UNL A   1      46.442  26.393  35.723  1.00  0.00     0.200 A 
ATOM     70  F   UNL A   1      45.050  24.566  36.270  1.00  0.00    -0.200 F 
ATOM     71  F   UNL A   1      47.477  25.809  36.343  1.00  0.00    -0.200 F 
ENDBRANCH  47  61
BRANCH  48  72
ATOM     72  C   UNL A   1      36.620  31.559  29.380  1.00  0.00     0.064 A 
ATOM     73  C   UNL A   1      35.551  30.750  28.972  1.00  0.00     0.173 A 
ATOM     74  C   UNL A   1      36.565  32.924  29.062  1.00  0.00     0.173 A 
ATOM     75  F   UNL A   1      35.572  29.434  29.232  1.00  0.00    -0.203 F 
ATOM     76  C   UNL A   1      34.476  31.281  28.263  1.00  0.00     0.198 A 
ATOM     77  C   UNL A   1      35.479  33.459  28.373  1.00  0.00     0.198 A 
ATOM     78  F   UNL A   1      37.563  33.739  29.430  1.00  0.00    -0.203 F 
ATOM     79  F   UNL A   1      33.484  30.480  27.853  1.00  0.00    -0.200 F 
ATOM     80  C   UNL A   1      34.439  32.636  27.967  1.00  0.00     0.200 A 
ATOM     81  F   UNL A   1      35.442  34.770  28.098  1.00  0.00    -0.200 F 
ATOM     82  F   UNL A   1      33.404  33.147  27.287  1.00  0.00    -0.200 F 
ENDBRANCH  48  72
BRANCH  60  83
ATOM     83  C   UNL A   1      38.864  32.072  35.958  1.00  0.00     0.064 A 
ATOM     84  C   UNL A   1      38.089  31.464  36.956  1.00  0.00     0.173 A 
ATOM     85  C   UNL A   1      39.242  33.411  36.136  1.00  0.00     0.173 A 
ATOM     86  F   UNL A   1      37.695  30.190  36.821  1.00  0.00    -0.203 F 
ATOM     87  C   UNL A   1      37.706  32.174  38.090  1.00  0.00     0.198 A 
ATOM     88  C   UNL A   1      38.873  34.111  37.280  1.00  0.00     0.198 A 
ATOM     89  F   UNL A   1      39.989  34.030  35.211  1.00  0.00    -0.203 F 
ATOM     90  F   UNL A   1      36.949  31.582  39.024  1.00  0.00    -0.200 F 
ATOM     91  C   UNL A   1      38.105  33.493  38.255  1.00  0.00     0.200 A 
ATOM     92  F   UNL A   1      39.267  35.382  37.443  1.00  0.00    -0.200 F 
ATOM     93  F   UNL A   1      37.746  34.170  39.355  1.00  0.00    -0.200 F 
ENDBRANCH  60  83
ENDBRANCH  34  35
ENDBRANCH  27  29
ENDBRANCH  26  27
ENDBRANCH  25  26
ENDBRANCH  24  25
ENDBRANCH  23  24
ENDBRANCH   1  23
TORSDOF 18
ENDMDL
MODEL 2
REMARK VINA RESULT:     -11.1      3.937      6.741
REMARK SMILES Cc1c(N)cccc1SCc1cc(C(=O)OCCOCCOC(=O)c2ccc(-c3c4nc(c(-c5c(F)c(F)c(F)c(F)c5F)c5ccc([nH]5)c(-c5c(F)c(F)c(F)c(F)c5F)c5nc(c(-c6c(F)c(F)c(F)c(F)c6F)c6ccc3[nH]6)C=C5)C=C4)cc2)no1
REMARK SMILES IDX 18 1 17 2 16 3 14 4 15 5 13 6 11 7 12 8 89 9 88 10 10 11
REMARK SMILES IDX 9 12 8 13 1 14 2 15 3 16 5 17 7 18 6 19 4 20 19 23 20 24
REMARK SMILES IDX 21 25 22 26 23 27 24 28 25 29 26 30 87 31 27 32 86 33 28 34
REMARK SMILES IDX 29 35 30 36 80 37 31 38 85 39 79 40 81 41 32 42 84 43 78 44
REMARK SMILES IDX 77 45 33 47 65 48 45 49 64 50 46 51 49 52 63 53 82 54 47 55
REMARK SMILES IDX 48 56 62 58 83 59 50 60 34 61 35 62 43 63 36 64 37 65 41 66
REMARK SMILES IDX 44 67 38 68 39 69 42 70 40 71 66 72 67 73 75 74 68 75 69 76
REMARK SMILES IDX 73 77 76 78 70 79 71 80 74 81 72 82 51 83 52 84 60 85 53 86
REMARK SMILES IDX 54 87 58 88 61 89 55 90 56 91 59 92 57 93
REMARK H PARENT 4 21 4 22 81 46 49 57
REMARK Flexibility Score: inf
ROOT
ATOM      1  C   UNL A   1      42.805  18.610  25.789  1.00  0.00     0.202 C 
ENDROOT
BRANCH   1   2
ATOM      2  C   UNL A   1      44.174  18.786  25.129  1.00  0.00     0.261 C 
BRANCH   2   3
ATOM      3  O   UNL A   1      44.223  20.059  24.460  1.00  0.00    -0.458 OA
BRANCH   3   4
ATOM      4  C   UNL A   1      45.274  20.872  24.785  1.00  0.00     0.360 C 
ATOM      5  O   UNL A   1      46.419  20.478  24.978  1.00  0.00    -0.244 OA
BRANCH   4   6
ATOM      6  C   UNL A   1      44.878  22.278  24.757  1.00  0.00     0.191 A 
ATOM      7  C   UNL A   1      44.650  24.437  25.225  1.00  0.00     0.147 A 
ATOM      8  C   UNL A   1      45.526  23.387  25.368  1.00  0.00     0.085 A 
ATOM      9  O   UNL A   1      43.582  24.004  24.496  1.00  0.00    -0.360 OA
ATOM     10  N   UNL A   1      43.723  22.668  24.196  1.00  0.00    -0.072 NA
BRANCH   7  11
ATOM     11  C   UNL A   1      44.519  25.830  25.713  1.00  0.00     0.153 C 
BRANCH  11  12
ATOM     12  S   UNL A   1      45.920  26.966  25.506  1.00  0.00    -0.118 SA
BRANCH  12  13
ATOM     13  C   UNL A   1      47.309  26.234  26.376  1.00  0.00     0.013 A 
ATOM     14  C   UNL A   1      49.014  26.304  24.472  1.00  0.00     0.048 C 
ATOM     15  C   UNL A   1      48.623  26.029  25.900  1.00  0.00    -0.015 A 
ATOM     16  C   UNL A   1      49.611  25.555  26.801  1.00  0.00     0.035 A 
ATOM     17  C   UNL A   1      49.240  25.127  28.081  1.00  0.00     0.026 A 
ATOM     18  C   UNL A   1      46.977  25.809  27.677  1.00  0.00     0.015 A 
ATOM     19  C   UNL A   1      47.927  25.243  28.518  1.00  0.00     0.003 A 
BRANCH  16  20
ATOM     20  N   UNL A   1      50.938  25.397  26.422  1.00  0.00    -0.398 N 
ATOM     21  H   UNL A   1      51.653  25.828  26.944  1.00  0.00     0.156 HD
ATOM     22  H   UNL A   1      51.164  24.855  25.632  1.00  0.00     0.156 HD
ENDBRANCH  16  20
ENDBRANCH  12  13
ENDBRANCH  11  12
ENDBRANCH   7  11
ENDBRANCH   4   6
ENDBRANCH   3   4
ENDBRANCH   2   3
ENDBRANCH   1   2
BRANCH   1  23
ATOM     23  O   UNL A   1      42.008  19.788  25.667  1.00  0.00    -0.374 OA
BRANCH  23  24
ATOM     24  C   UNL A   1      41.062  20.002  26.718  1.00  0.00     0.202 C 
BRANCH  24  25
ATOM     25  C   UNL A   1      41.171  21.404  27.320  1.00  0.00     0.261 C 
BRANCH  25  26
ATOM     26  O   UNL A   1      40.977  22.397  26.294  1.00  0.00    -0.460 OA
BRANCH  26  27
ATOM     27  C   UNL A   1      39.759  22.990  26.281  1.00  0.00     0.338 C 
ATOM     28  O   UNL A   1      38.696  22.500  25.942  1.00  0.00    -0.246 OA
BRANCH  27  29
ATOM     29  C   UNL A   1      39.868  24.326  26.900  1.00  0.00     0.060 A 
ATOM     30  C   UNL A   1      40.446  25.355  26.145  1.00  0.00     0.016 A 
ATOM     31  C   UNL A   1      39.433  24.569  28.206  1.00  0.00     0.016 A 
ATOM     32  C   UNL A   1      40.613  26.623  26.702  1.00  0.00     0.010 A 
ATOM     33  C   UNL A   1      39.596  25.839  28.761  1.00  0.00     0.010 A 
ATOM     34  C   UNL A   1      40.211  26.864  28.022  1.00  0.00    -0.014 A 
BRANCH  34  35
ATOM     35  C   UNL A   1      40.585  28.124  28.703  1.00  0.00     0.031 A 
ATOM     36  C   UNL A   1      42.003  28.284  29.175  1.00  0.00     0.074 A 
ATOM     37  C   UNL A   1      39.686  29.101  28.913  1.00  0.00     0.049 A 
ATOM     38  N   UNL A   1      42.537  29.231  29.901  1.00  0.00    -0.248 NA
ATOM     39  C   UNL A   1      42.944  27.223  28.777  1.00  0.00     0.031 C 
ATOM     40  C   UNL A   1      38.295  29.086  28.462  1.00  0.00     0.029 A 
ATOM     41  N   UNL A   1      39.813  30.296  29.575  1.00  0.00    -0.354 N 
ATOM     42  C   UNL A   1      43.867  28.870  30.066  1.00  0.00     0.074 A 
ATOM     43  C   UNL A   1      44.058  27.612  29.378  1.00  0.00     0.031 C 
ATOM     44  C   UNL A   1      37.693  30.215  28.876  1.00  0.00     0.029 A 
ATOM     45  C   UNL A   1      38.644  31.013  29.647  1.00  0.00     0.049 A 
ATOM     46  H   UNL A   1      40.662  30.610  29.962  1.00  0.00     0.167 HD
ATOM     47  C   UNL A   1      44.843  29.529  30.729  1.00  0.00     0.037 A 
ATOM     48  C   UNL A   1      38.375  32.170  30.283  1.00  0.00     0.037 A 
ATOM     49  C   UNL A   1      44.661  30.787  31.398  1.00  0.00     0.049 A 
ATOM     50  C   UNL A   1      39.468  32.865  31.053  1.00  0.00     0.074 A 
ATOM     51  C   UNL A   1      45.588  31.538  32.097  1.00  0.00     0.029 A 
ATOM     52  N   UNL A   1      43.462  31.482  31.445  1.00  0.00    -0.354 N 
ATOM     53  N   UNL A   1      40.722  32.516  31.207  1.00  0.00    -0.248 NA
ATOM     54  C   UNL A   1      39.107  34.113  31.743  1.00  0.00     0.031 C 
ATOM     55  C   UNL A   1      44.944  32.678  32.590  1.00  0.00     0.029 A 
ATOM     56  C   UNL A   1      43.623  32.649  32.169  1.00  0.00     0.049 A 
ATOM     57  H   UNL A   1      42.620  31.188  31.027  1.00  0.00     0.167 HD
ATOM     58  C   UNL A   1      41.304  33.511  31.982  1.00  0.00     0.074 A 
ATOM     59  C   UNL A   1      40.268  34.479  32.269  1.00  0.00     0.031 C 
ATOM     60  C   UNL A   1      42.584  33.613  32.416  1.00  0.00     0.037 A 
BRANCH  47  61
ATOM     61  C   UNL A   1      46.194  28.886  30.780  1.00  0.00     0.064 A 
ATOM     62  C   UNL A   1      46.540  27.988  31.800  1.00  0.00     0.173 A 
ATOM     63  C   UNL A   1      47.147  29.161  29.790  1.00  0.00     0.173 A 
ATOM     64  F   UNL A   1      45.668  27.712  32.781  1.00  0.00    -0.203 F 
ATOM     65  C   UNL A   1      47.802  27.401  31.835  1.00  0.00     0.198 A 
ATOM     66  C   UNL A   1      48.400  28.557  29.816  1.00  0.00     0.198 A 
ATOM     67  F   UNL A   1      46.862  30.016  28.796  1.00  0.00    -0.203 F 
ATOM     68  F   UNL A   1      48.128  26.577  32.840  1.00  0.00    -0.200 F 
ATOM     69  C   UNL A   1      48.728  27.682  30.841  1.00  0.00     0.200 A 
ATOM     70  F   UNL A   1      49.292  28.825  28.854  1.00  0.00    -0.200 F 
ATOM     71  F   UNL A   1      49.942  27.115  30.877  1.00  0.00    -0.200 F 
ENDBRANCH  47  61
BRANCH  48  72
ATOM     72  C   UNL A   1      37.006  32.744  30.232  1.00  0.00     0.064 A 
ATOM     73  C   UNL A   1      36.592  33.523  29.144  1.00  0.00     0.173 A 
ATOM     74  C   UNL A   1      36.094  32.540  31.276  1.00  0.00     0.173 A 
ATOM     75  F   UNL A   1      37.440  33.765  28.133  1.00  0.00    -0.203 F 
ATOM     76  C   UNL A   1      35.318  34.088  29.107  1.00  0.00     0.198 A 
ATOM     77  C   UNL A   1      34.813  33.086  31.229  1.00  0.00     0.198 A 
ATOM     78  F   UNL A   1      36.443  31.803  32.340  1.00  0.00    -0.203 F 
ATOM     79  F   UNL A   1      34.959  34.858  28.072  1.00  0.00    -0.200 F 
ATOM     80  C   UNL A   1      34.429  33.865  30.147  1.00  0.00     0.200 A 
ATOM     81  F   UNL A   1      33.953  32.861  32.231  1.00  0.00    -0.200 F 
ATOM     82  F   UNL A   1      33.204  34.407  30.111  1.00  0.00    -0.200 F 
ENDBRANCH  48  72
BRANCH  60  83
ATOM     83  C   UNL A   1      42.956  34.834  33.201  1.00  0.00     0.064 A 
ATOM     84  C   UNL A   1      43.338  36.024  32.566  1.00  0.00     0.173 A 
ATOM     85  C   UNL A   1      42.849  34.834  34.599  1.00  0.00     0.173 A 
ATOM     86  F   UNL A   1      43.464  36.067  31.232  1.00  0.00    -0.203 F 
ATOM     87  C   UNL A   1      43.605  37.172  33.307  1.00  0.00     0.198 A 
ATOM     88  C   UNL A   1      43.098  35.988  35.335  1.00  0.00     0.198 A 
ATOM     89  F   UNL A   1      42.481  33.719  35.247  1.00  0.00    -0.203 F 
ATOM     90  F   UNL A   1      43.986  38.295  32.685  1.00  0.00    -0.200 F 
ATOM     91  C   UNL A   1      43.476  37.155  34.689  1.00  0.00     0.200 A 
ATOM     92  F   UNL A   1      42.965  35.972  36.668  1.00  0.00    -0.200 F 
ATOM     93  F   UNL A   1      43.719  38.266  35.399  1.00  0.00    -0.200 F 
ENDBRANCH  60  83
ENDBRANCH  34  35
ENDBRANCH  27  29
ENDBRANCH  26  27
ENDBRANCH  25  26
ENDBRANCH  24  25
ENDBRANCH  23  24
ENDBRANCH   1  23
TORSDOF 18
ENDMDL
MODEL 3
REMARK VINA RESULT:     -11.0      3.574      5.467
REMARK SMILES Cc1c(N)cccc1SCc1cc(C(=O)OCCOCCOC(=O)c2ccc(-c3c4nc(c(-c5c(F)c(F)c(F)c(F)c5F)c5ccc([nH]5)c(-c5c(F)c(F)c(F)c(F)c5F)c5nc(c(-c6c(F)c(F)c(F)c(F)c6F)c6ccc3[nH]6)C=C5)C=C4)cc2)no1
REMARK SMILES IDX 18 1 17 2 16 3 14 4 15 5 13 6 11 7 12 8 89 9 88 10 10 11
REMARK SMILES IDX 9 12 8 13 1 14 2 15 3 16 5 17 7 18 6 19 4 20 19 23 20 24
REMARK SMILES IDX 21 25 22 26 23 27 24 28 25 29 26 30 87 31 27 32 86 33 28 34
REMARK SMILES IDX 29 35 30 36 80 37 31 38 85 39 79 40 81 41 32 42 84 43 78 44
REMARK SMILES IDX 77 45 33 47 65 48 45 49 64 50 46 51 49 52 63 53 82 54 47 55
REMARK SMILES IDX 48 56 62 58 83 59 50 60 34 61 35 62 43 63 36 64 37 65 41 66
REMARK SMILES IDX 44 67 38 68 39 69 42 70 40 71 66 72 67 73 75 74 68 75 69 76
REMARK SMILES IDX 73 77 76 78 70 79 71 80 74 81 72 82 51 83 52 84 60 85 53 86
REMARK SMILES IDX 54 87 58 88 61 89 55 90 56 91 59 92 57 93
REMARK H PARENT 4 21 4 22 81 46 49 57
REMARK Flexibility Score: inf
ROOT
ATOM      1  C   UNL A   1      42.129  18.793  26.063  1.00  0.00     0.202 C 
ENDROOT
BRANCH   1   2
ATOM      2  C   UNL A   1      43.547  18.413  25.631  1.00  0.00     0.261 C 
BRANCH   2   3
ATOM      3  O   UNL A   1      43.836  19.011  24.355  1.00  0.00    -0.458 OA
BRANCH   3   4
ATOM      4  C   UNL A   1      45.081  19.559  24.213  1.00  0.00     0.360 C 
ATOM      5  O   UNL A   1      45.956  19.108  23.482  1.00  0.00    -0.244 OA
BRANCH   4   6
ATOM      6  C   UNL A   1      45.190  20.812  24.956  1.00  0.00     0.191 A 
ATOM      7  C   UNL A   1      44.820  22.843  25.776  1.00  0.00     0.147 A 
ATOM      8  C   UNL A   1      44.166  21.754  25.249  1.00  0.00     0.085 A 
ATOM      9  O   UNL A   1      46.145  22.536  25.873  1.00  0.00    -0.360 OA
ATOM     10  N   UNL A   1      46.378  21.275  25.375  1.00  0.00    -0.072 NA
BRANCH   7  11
ATOM     11  C   UNL A   1      44.496  24.237  26.161  1.00  0.00     0.153 C 
BRANCH  11  12
ATOM     12  S   UNL A   1      44.948  25.584  25.032  1.00  0.00    -0.118 SA
BRANCH  12  13
ATOM     13  C   UNL A   1      44.222  27.083  25.701  1.00  0.00     0.013 A 
ATOM     14  C   UNL A   1      45.971  27.568  27.501  1.00  0.00     0.048 C 
ATOM     15  C   UNL A   1      44.734  27.919  26.718  1.00  0.00    -0.015 A 
ATOM     16  C   UNL A   1      44.065  29.136  27.004  1.00  0.00     0.035 A 
ATOM     17  C   UNL A   1      42.823  29.404  26.418  1.00  0.00     0.026 A 
ATOM     18  C   UNL A   1      42.979  27.396  25.118  1.00  0.00     0.015 A 
ATOM     19  C   UNL A   1      42.274  28.536  25.484  1.00  0.00     0.003 A 
BRANCH  16  20
ATOM     20  N   UNL A   1      44.550  30.040  27.942  1.00  0.00    -0.398 N 
ATOM     21  H   UNL A   1      44.737  30.970  27.677  1.00  0.00     0.156 HD
ATOM     22  H   UNL A   1      44.706  29.752  28.869  1.00  0.00     0.156 HD
ENDBRANCH  16  20
ENDBRANCH  12  13
ENDBRANCH  11  12
ENDBRANCH   7  11
ENDBRANCH   4   6
ENDBRANCH   3   4
ENDBRANCH   2   3
ENDBRANCH   1   2
BRANCH   1  23
ATOM     23  O   UNL A   1      42.115  19.369  27.369  1.00  0.00    -0.374 OA
BRANCH  23  24
ATOM     24  C   UNL A   1      41.157  20.411  27.571  1.00  0.00     0.202 C 
BRANCH  24  25
ATOM     25  C   UNL A   1      40.631  20.978  26.250  1.00  0.00     0.261 C 
BRANCH  25  26
ATOM     26  O   UNL A   1      40.611  22.418  26.306  1.00  0.00    -0.460 OA
BRANCH  26  27
ATOM     27  C   UNL A   1      39.383  22.979  26.416  1.00  0.00     0.338 C 
ATOM     28  O   UNL A   1      38.308  22.485  26.122  1.00  0.00    -0.246 OA
BRANCH  27  29
ATOM     29  C   UNL A   1      39.508  24.278  27.108  1.00  0.00     0.060 A 
ATOM     30  C   UNL A   1      40.174  25.315  26.443  1.00  0.00     0.016 A 
ATOM     31  C   UNL A   1      39.003  24.474  28.397  1.00  0.00     0.016 A 
ATOM     32  C   UNL A   1      40.358  26.546  27.074  1.00  0.00     0.010 A 
ATOM     33  C   UNL A   1      39.184  25.708  29.025  1.00  0.00     0.010 A 
ATOM     34  C   UNL A   1      39.885  26.740  28.378  1.00  0.00    -0.014 A 
BRANCH  34  35
ATOM     35  C   UNL A   1      40.268  27.947  29.144  1.00  0.00     0.031 A 
ATOM     36  C   UNL A   1      41.630  27.985  29.778  1.00  0.00     0.074 A 
ATOM     37  C   UNL A   1      39.423  28.983  29.288  1.00  0.00     0.049 A 
ATOM     38  N   UNL A   1      42.143  28.867  30.596  1.00  0.00    -0.248 NA
ATOM     39  C   UNL A   1      42.532  26.868  29.449  1.00  0.00     0.031 C 
ATOM     40  C   UNL A   1      38.096  29.085  28.684  1.00  0.00     0.029 A 
ATOM     41  N   UNL A   1      39.558  30.144  30.006  1.00  0.00    -0.354 N 
ATOM     42  C   UNL A   1      43.416  28.401  30.895  1.00  0.00     0.074 A 
ATOM     43  C   UNL A   1      43.594  27.154  30.186  1.00  0.00     0.031 C 
ATOM     44  C   UNL A   1      37.532  30.244  29.070  1.00  0.00     0.029 A 
ATOM     45  C   UNL A   1      38.443  30.946  29.973  1.00  0.00     0.049 A 
ATOM     46  H   UNL A   1      40.378  30.381  30.498  1.00  0.00     0.167 HD
ATOM     47  C   UNL A   1      44.354  28.965  31.690  1.00  0.00     0.037 A 
ATOM     48  C   UNL A   1      38.186  32.100  30.619  1.00  0.00     0.037 A 
ATOM     49  C   UNL A   1      44.186  30.213  32.381  1.00  0.00     0.049 A 
ATOM     50  C   UNL A   1      39.231  32.687  31.533  1.00  0.00     0.074 A 
ATOM     51  C   UNL A   1      45.079  30.871  33.208  1.00  0.00     0.029 A 
ATOM     52  N   UNL A   1      43.043  30.995  32.319  1.00  0.00    -0.354 N 
ATOM     53  N   UNL A   1      40.430  32.240  31.814  1.00  0.00    -0.248 NA
ATOM     54  C   UNL A   1      38.882  33.937  32.225  1.00  0.00     0.031 C 
ATOM     55  C   UNL A   1      44.465  32.041  33.668  1.00  0.00     0.029 A 
ATOM     56  C   UNL A   1      43.203  32.125  33.101  1.00  0.00     0.049 A 
ATOM     57  H   UNL A   1      42.236  30.778  31.797  1.00  0.00     0.167 HD
ATOM     58  C   UNL A   1      40.989  33.164  32.687  1.00  0.00     0.074 A 
ATOM     59  C   UNL A   1      39.999  34.199  32.892  1.00  0.00     0.031 C 
ATOM     60  C   UNL A   1      42.214  33.157  33.265  1.00  0.00     0.037 A 
BRANCH  47  61
ATOM     61  C   UNL A   1      45.640  28.220  31.868  1.00  0.00     0.064 A 
ATOM     62  C   UNL A   1      45.771  27.203  32.823  1.00  0.00     0.173 A 
ATOM     63  C   UNL A   1      46.749  28.520  31.064  1.00  0.00     0.173 A 
ATOM     64  F   UNL A   1      44.743  26.897  33.629  1.00  0.00    -0.203 F 
ATOM     65  C   UNL A   1      46.975  26.522  32.979  1.00  0.00     0.198 A 
ATOM     66  C   UNL A   1      47.945  27.824  31.208  1.00  0.00     0.198 A 
ATOM     67  F   UNL A   1      46.671  29.488  30.139  1.00  0.00    -0.203 F 
ATOM     68  F   UNL A   1      47.093  25.581  33.925  1.00  0.00    -0.200 F 
ATOM     69  C   UNL A   1      48.059  26.830  32.168  1.00  0.00     0.200 A 
ATOM     70  F   UNL A   1      48.989  28.118  30.422  1.00  0.00    -0.200 F 
ATOM     71  F   UNL A   1      49.217  26.172  32.320  1.00  0.00    -0.200 F 
ENDBRANCH  47  61
BRANCH  48  72
ATOM     72  C   UNL A   1      36.877  32.776  30.435  1.00  0.00     0.064 A 
ATOM     73  C   UNL A   1      35.851  32.627  31.378  1.00  0.00     0.173 A 
ATOM     74  C   UNL A   1      36.621  33.570  29.309  1.00  0.00     0.173 A 
ATOM     75  F   UNL A   1      36.042  31.857  32.459  1.00  0.00    -0.203 F 
ATOM     76  C   UNL A   1      34.611  33.237  31.193  1.00  0.00     0.198 A 
ATOM     77  C   UNL A   1      35.389  34.197  29.136  1.00  0.00     0.198 A 
ATOM     78  F   UNL A   1      37.571  33.743  28.379  1.00  0.00    -0.203 F 
ATOM     79  F   UNL A   1      33.634  33.049  32.090  1.00  0.00    -0.200 F 
ATOM     80  C   UNL A   1      34.383  34.025  30.075  1.00  0.00     0.200 A 
ATOM     81  F   UNL A   1      35.176  34.966  28.059  1.00  0.00    -0.200 F 
ATOM     82  F   UNL A   1      33.192  34.612  29.899  1.00  0.00    -0.200 F 
ENDBRANCH  48  72
BRANCH  60  83
ATOM     83  C   UNL A   1      42.580  34.322  34.133  1.00  0.00     0.064 A 
ATOM     84  C   UNL A   1      42.448  34.266  35.527  1.00  0.00     0.173 A 
ATOM     85  C   UNL A   1      43.144  35.474  33.566  1.00  0.00     0.173 A 
ATOM     86  F   UNL A   1      41.903  33.189  36.111  1.00  0.00    -0.203 F 
ATOM     87  C   UNL A   1      42.865  35.329  36.324  1.00  0.00     0.198 A 
ATOM     88  C   UNL A   1      43.578  36.526  34.367  1.00  0.00     0.198 A 
ATOM     89  F   UNL A   1      43.295  35.568  32.237  1.00  0.00    -0.203 F 
ATOM     90  F   UNL A   1      42.715  35.265  37.654  1.00  0.00    -0.200 F 
ATOM     91  C   UNL A   1      43.437  36.453  35.745  1.00  0.00     0.200 A 
ATOM     92  F   UNL A   1      44.138  37.606  33.807  1.00  0.00    -0.200 F 
ATOM     93  F   UNL A   1      43.852  37.468  36.516  1.00  0.00    -0.200 F 
ENDBRANCH  60  83
ENDBRANCH  34  35
ENDBRANCH  27  29
ENDBRANCH  26  27
ENDBRANCH  25  26
ENDBRANCH  24  25
ENDBRANCH  23  24
ENDBRANCH   1  23
TORSDOF 18
ENDMDL
