MODEL 1
REMARK VINA RESULT:     -11.2      0.000      0.000
REMARK SMILES C[NH2+][C@@]1(C(=O)OCCOCCOC(=O)c2ccc(-c3c4nc(c(-c5c(F)c(F)c(F)c(F)c5F)c5ccc([nH]5)c(-c5c(F)c(F)c(F)c(F)c5F)c5nc(c(-c6c(F)c(F)c(F)c(F)c6F)c6ccc3[nH]6)C=C5)C=C4)cc2)CC[C@H](Sc2ccc(C)c(C)c2)C1
REMARK SMILES IDX 9 1 8 2 7 3 6 4 4 5 5 6 3 7 78 8 90 9 79 10 80 11 2 12 1 13
REMARK SMILES IDX 81 16 82 17 83 18 89 19 84 20 87 21 85 22 88 23 86 24 10 25
REMARK SMILES IDX 11 26 12 27 13 28 14 29 15 30 16 31 77 32 17 33 76 34 18 35
REMARK SMILES IDX 19 36 20 37 70 38 21 39 75 40 69 41 71 42 22 43 74 44 68 45
REMARK SMILES IDX 67 46 23 48 55 49 35 50 54 51 36 52 39 53 53 54 72 55 37 56
REMARK SMILES IDX 38 57 52 59 73 60 40 61 24 62 25 63 33 64 26 65 27 66 31 67
REMARK SMILES IDX 34 68 28 69 29 70 32 71 30 72 56 73 57 74 65 75 58 76 59 77
REMARK SMILES IDX 63 78 66 79 60 80 61 81 64 82 62 83 41 84 42 85 50 86 43 87
REMARK SMILES IDX 44 88 48 89 51 90 45 91 46 92 49 93 47 94
REMARK H PARENT 2 14 2 15 71 47 39 58
REMARK Flexibility Score: inf
ROOT
ATOM      1  O   UNL A   1      31.511  29.024  24.071  1.00  0.00    -0.374 OA
ENDROOT
BRANCH   1   2
ATOM      2  C   UNL A   1      30.257  28.559  23.567  1.00  0.00     0.202 C 
BRANCH   2   3
ATOM      3  C   UNL A   1      30.184  27.068  23.245  1.00  0.00     0.261 C 
BRANCH   3   4
ATOM      4  O   UNL A   1      30.029  26.307  24.453  1.00  0.00    -0.459 OA
BRANCH   4   5
ATOM      5  C   UNL A   1      30.751  25.159  24.522  1.00  0.00     0.368 C 
ATOM      6  O   UNL A   1      30.834  24.355  23.599  1.00  0.00    -0.245 OA
BRANCH   5   7
ATOM      7  C   UNL A   1      31.410  24.942  25.927  1.00  0.00     0.195 C 
ATOM      8  C   UNL A   1      32.094  26.259  26.304  1.00  0.00     0.082 C 
ATOM      9  C   UNL A   1      32.608  23.958  25.966  1.00  0.00     0.096 C 
ATOM     10  C   UNL A   1      33.387  26.218  25.489  1.00  0.00     0.022 C 
ATOM     11  C   UNL A   1      33.876  24.771  25.613  1.00  0.00     0.059 C 
BRANCH   7  12
ATOM     12  N   UNL A   1      30.380  24.442  26.874  1.00  0.00    -0.335 N 
ATOM     13  C   UNL A   1      30.157  23.000  26.844  1.00  0.00     0.331 C 
ATOM     14  H   UNL A   1      30.668  24.697  27.818  1.00  0.00     0.347 HD
ATOM     15  H   UNL A   1      29.499  24.870  26.587  1.00  0.00     0.347 HD
ENDBRANCH   7  12
BRANCH  11  16
ATOM     16  S   UNL A   1      34.642  24.030  24.125  1.00  0.00    -0.122 SA
BRANCH  16  17
ATOM     17  C   UNL A   1      36.158  23.253  24.647  1.00  0.00     0.008 A 
ATOM     18  C   UNL A   1      36.609  21.992  24.283  1.00  0.00     0.015 A 
ATOM     19  C   UNL A   1      36.938  23.993  25.547  1.00  0.00     0.018 A 
ATOM     20  C   UNL A   1      37.746  21.445  24.889  1.00  0.00     0.005 A 
ATOM     21  C   UNL A   1      38.109  23.483  26.131  1.00  0.00    -0.047 A 
ATOM     22  C   UNL A   1      38.490  22.168  25.835  1.00  0.00    -0.048 A 
ATOM     23  C   UNL A   1      38.911  24.358  27.054  1.00  0.00     0.044 C 
ATOM     24  C   UNL A   1      39.653  21.485  26.499  1.00  0.00     0.044 C 
ENDBRANCH  16  17
ENDBRANCH  11  16
ENDBRANCH   5   7
ENDBRANCH   4   5
ENDBRANCH   3   4
ENDBRANCH   2   3
ENDBRANCH   1   2
BRANCH   1  25
ATOM     25  C   UNL A   1      31.477  29.834  25.247  1.00  0.00     0.202 C 
BRANCH  25  26
ATOM     26  C   UNL A   1      32.834  30.121  25.907  1.00  0.00     0.261 C 
BRANCH  26  27
ATOM     27  O   UNL A   1      32.708  30.631  27.248  1.00  0.00    -0.460 OA
BRANCH  27  28
ATOM     28  C   UNL A   1      33.523  31.670  27.544  1.00  0.00     0.338 C 
ATOM     29  O   UNL A   1      33.230  32.858  27.582  1.00  0.00    -0.246 OA
BRANCH  28  30
ATOM     30  C   UNL A   1      34.840  31.180  27.988  1.00  0.00     0.060 A 
ATOM     31  C   UNL A   1      34.957  29.824  28.326  1.00  0.00     0.016 A 
ATOM     32  C   UNL A   1      35.919  32.045  28.162  1.00  0.00     0.016 A 
ATOM     33  C   UNL A   1      36.146  29.332  28.865  1.00  0.00     0.010 A 
ATOM     34  C   UNL A   1      37.103  31.550  28.723  1.00  0.00     0.010 A 
ATOM     35  C   UNL A   1      37.222  30.198  29.096  1.00  0.00    -0.014 A 
BRANCH  35  36
ATOM     36  C   UNL A   1      38.412  29.731  29.857  1.00  0.00     0.031 A 
ATOM     37  C   UNL A   1      38.648  30.275  31.241  1.00  0.00     0.074 A 
ATOM     38  C   UNL A   1      39.281  28.844  29.337  1.00  0.00     0.049 A 
ATOM     39  N   UNL A   1      39.655  30.077  32.056  1.00  0.00    -0.248 NA
ATOM     40  C   UNL A   1      37.614  31.177  31.772  1.00  0.00     0.031 C 
ATOM     41  C   UNL A   1      39.181  28.235  28.012  1.00  0.00     0.029 A 
ATOM     42  N   UNL A   1      40.447  28.329  29.855  1.00  0.00    -0.354 N 
ATOM     43  C   UNL A   1      39.376  30.832  33.188  1.00  0.00     0.074 A 
ATOM     44  C   UNL A   1      38.137  31.534  32.936  1.00  0.00     0.031 C 
ATOM     45  C   UNL A   1      40.254  27.448  27.811  1.00  0.00     0.029 A 
ATOM     46  C   UNL A   1      41.126  27.514  28.983  1.00  0.00     0.049 A 
ATOM     47  H   UNL A   1      40.764  28.527  30.767  1.00  0.00     0.167 HD
ATOM     48  C   UNL A   1      40.073  30.914  34.346  1.00  0.00     0.037 A 
ATOM     49  C   UNL A   1      42.326  26.913  29.106  1.00  0.00     0.037 A 
ATOM     50  C   UNL A   1      41.291  30.202  34.618  1.00  0.00     0.049 A 
ATOM     51  C   UNL A   1      43.113  27.063  30.383  1.00  0.00     0.074 A 
ATOM     52  C   UNL A   1      42.039  30.183  35.783  1.00  0.00     0.029 A 
ATOM     53  N   UNL A   1      41.943  29.382  33.711  1.00  0.00    -0.354 N 
ATOM     54  N   UNL A   1      42.818  27.741  31.464  1.00  0.00    -0.248 NA
ATOM     55  C   UNL A   1      44.400  26.352  30.458  1.00  0.00     0.031 C 
ATOM     56  C   UNL A   1      43.166  29.383  35.567  1.00  0.00     0.029 A 
ATOM     57  C   UNL A   1      43.097  28.869  34.283  1.00  0.00     0.049 A 
ATOM     58  H   UNL A   1      41.634  29.193  32.796  1.00  0.00     0.167 HD
ATOM     59  C   UNL A   1      43.856  27.509  32.358  1.00  0.00     0.074 A 
ATOM     60  C   UNL A   1      44.792  26.629  31.693  1.00  0.00     0.031 C 
ATOM     61  C   UNL A   1      44.014  27.979  33.620  1.00  0.00     0.037 A 
BRANCH  48  62
ATOM     62  C   UNL A   1      39.523  31.811  35.415  1.00  0.00     0.064 A 
ATOM     63  C   UNL A   1      38.602  31.343  36.364  1.00  0.00     0.173 A 
ATOM     64  C   UNL A   1      39.940  33.148  35.507  1.00  0.00     0.173 A 
ATOM     65  F   UNL A   1      38.163  30.076  36.309  1.00  0.00    -0.203 F 
ATOM     66  C   UNL A   1      38.095  32.187  37.348  1.00  0.00     0.198 A 
ATOM     67  C   UNL A   1      39.453  33.982  36.509  1.00  0.00     0.198 A 
ATOM     68  F   UNL A   1      40.823  33.644  34.627  1.00  0.00    -0.203 F 
ATOM     69  F   UNL A   1      37.180  31.731  38.213  1.00  0.00    -0.200 F 
ATOM     70  C   UNL A   1      38.526  33.504  37.423  1.00  0.00     0.200 A 
ATOM     71  F   UNL A   1      39.878  35.250  36.589  1.00  0.00    -0.200 F 
ATOM     72  F   UNL A   1      38.040  34.315  38.374  1.00  0.00    -0.200 F 
ENDBRANCH  48  62
BRANCH  49  73
ATOM     73  C   UNL A   1      42.873  26.112  27.981  1.00  0.00     0.064 A 
ATOM     74  C   UNL A   1      43.679  26.702  26.998  1.00  0.00     0.173 A 
ATOM     75  C   UNL A   1      42.570  24.750  27.846  1.00  0.00     0.173 A 
ATOM     76  F   UNL A   1      43.969  28.010  27.067  1.00  0.00    -0.203 F 
ATOM     77  C   UNL A   1      44.145  25.965  25.911  1.00  0.00     0.198 A 
ATOM     78  C   UNL A   1      43.056  24.007  26.773  1.00  0.00     0.198 A 
ATOM     79  F   UNL A   1      41.793  24.142  28.755  1.00  0.00    -0.203 F 
ATOM     80  F   UNL A   1      44.872  26.566  24.959  1.00  0.00    -0.200 F 
ATOM     81  C   UNL A   1      43.838  24.617  25.802  1.00  0.00     0.200 A 
ATOM     82  F   UNL A   1      42.757  22.705  26.671  1.00  0.00    -0.200 F 
ATOM     83  F   UNL A   1      44.281  23.909  24.754  1.00  0.00    -0.200 F 
ENDBRANCH  49  73
BRANCH  61  84
ATOM     84  C   UNL A   1      45.215  27.514  34.390  1.00  0.00     0.064 A 
ATOM     85  C   UNL A   1      45.197  26.331  35.143  1.00  0.00     0.173 A 
ATOM     86  C   UNL A   1      46.418  28.236  34.329  1.00  0.00     0.173 A 
ATOM     87  F   UNL A   1      44.068  25.613  35.245  1.00  0.00    -0.203 F 
ATOM     88  C   UNL A   1      46.332  25.900  35.825  1.00  0.00     0.198 A 
ATOM     89  C   UNL A   1      47.558  27.788  34.990  1.00  0.00     0.198 A 
ATOM     90  F   UNL A   1      46.490  29.370  33.616  1.00  0.00    -0.203 F 
ATOM     91  F   UNL A   1      46.281  24.788  36.571  1.00  0.00    -0.200 F 
ATOM     92  C   UNL A   1      47.513  26.623  35.741  1.00  0.00     0.200 A 
ATOM     93  F   UNL A   1      48.701  28.481  34.897  1.00  0.00    -0.200 F 
ATOM     94  F   UNL A   1      48.607  26.201  36.389  1.00  0.00    -0.200 F 
ENDBRANCH  61  84
ENDBRANCH  35  36
ENDBRANCH  28  30
ENDBRANCH  27  28
ENDBRANCH  26  27
ENDBRANCH  25  26
ENDBRANCH   1  25
TORSDOF 17
ENDMDL
MODEL 2
REMARK VINA RESULT:     -11.0      0.591      7.179
REMARK SMILES C[NH2+][C@@]1(C(=O)OCCOCCOC(=O)c2ccc(-c3c4nc(c(-c5c(F)c(F)c(F)c(F)c5F)c5ccc([nH]5)c(-c5c(F)c(F)c(F)c(F)c5F)c5nc(c(-c6c(F)c(F)c(F)c(F)c6F)c6ccc3[nH]6)C=C5)C=C4)cc2)CC[C@H](Sc2ccc(C)c(C)c2)C1
REMARK SMILES IDX 9 1 8 2 7 3 6 4 4 5 5 6 3 7 78 8 90 9 79 10 80 11 2 12 1 13
REMARK SMILES IDX 81 16 82 17 83 18 89 19 84 20 87 21 85 22 88 23 86 24 10 25
REMARK SMILES IDX 11 26 12 27 13 28 14 29 15 30 16 31 77 32 17 33 76 34 18 35
REMARK SMILES IDX 19 36 20 37 70 38 21 39 75 40 69 41 71 42 22 43 74 44 68 45
REMARK SMILES IDX 67 46 23 48 55 49 35 50 54 51 36 52 39 53 53 54 72 55 37 56
REMARK SMILES IDX 38 57 52 59 73 60 40 61 24 62 25 63 33 64 26 65 27 66 31 67
REMARK SMILES IDX 34 68 28 69 29 70 32 71 30 72 56 73 57 74 65 75 58 76 59 77
REMARK SMILES IDX 63 78 66 79 60 80 61 81 64 82 62 83 41 84 42 85 50 86 43 87
REMARK SMILES IDX 44 88 48 89 51 90 45 91 46 92 49 93 47 94
REMARK H PARENT 2 14 2 15 71 47 39 58
REMARK Flexibility Score: inf
ROOT
ATOM      1  O   UNL A   1      31.117  29.299  24.697  1.00  0.00    -0.374 OA
ENDROOT
BRANCH   1   2
ATOM      2  C   UNL A   1      30.316  28.940  23.570  1.00  0.00     0.202 C 
BRANCH   2   3
ATOM      3  C   UNL A   1      30.231  27.446  23.266  1.00  0.00     0.261 C 
BRANCH   3   4
ATOM      4  O   UNL A   1      30.027  26.705  24.479  1.00  0.00    -0.459 OA
BRANCH   4   5
ATOM      5  C   UNL A   1      30.456  25.416  24.461  1.00  0.00     0.368 C 
ATOM      6  O   UNL A   1      30.350  24.681  23.483  1.00  0.00    -0.245 OA
BRANCH   5   7
ATOM      7  C   UNL A   1      31.038  24.952  25.839  1.00  0.00     0.195 C 
ATOM      8  C   UNL A   1      31.723  26.170  26.464  1.00  0.00     0.082 C 
ATOM      9  C   UNL A   1      32.215  23.946  25.771  1.00  0.00     0.096 C 
ATOM     10  C   UNL A   1      33.055  26.233  25.717  1.00  0.00     0.022 C 
ATOM     11  C   UNL A   1      33.513  24.774  25.621  1.00  0.00     0.059 C 
BRANCH   7  12
ATOM     12  N   UNL A   1      29.951  24.327  26.638  1.00  0.00    -0.335 N 
ATOM     13  C   UNL A   1      30.164  22.927  26.988  1.00  0.00     0.331 C 
ATOM     14  H   UNL A   1      29.851  24.857  27.504  1.00  0.00     0.347 HD
ATOM     15  H   UNL A   1      29.118  24.348  26.050  1.00  0.00     0.347 HD
ENDBRANCH   7  12
BRANCH  11  16
ATOM     16  S   UNL A   1      34.342  24.272  24.069  1.00  0.00    -0.122 SA
BRANCH  16  17
ATOM     17  C   UNL A   1      35.841  23.423  24.526  1.00  0.00     0.008 A 
ATOM     18  C   UNL A   1      36.240  22.163  24.103  1.00  0.00     0.015 A 
ATOM     19  C   UNL A   1      36.666  24.100  25.436  1.00  0.00     0.018 A 
ATOM     20  C   UNL A   1      37.370  21.554  24.661  1.00  0.00     0.005 A 
ATOM     21  C   UNL A   1      37.831  23.528  25.972  1.00  0.00    -0.047 A 
ATOM     22  C   UNL A   1      38.159  22.213  25.617  1.00  0.00    -0.048 A 
ATOM     23  C   UNL A   1      38.683  24.337  26.910  1.00  0.00     0.044 C 
ATOM     24  C   UNL A   1      39.311  21.465  26.227  1.00  0.00     0.044 C 
ENDBRANCH  16  17
ENDBRANCH  11  16
ENDBRANCH   5   7
ENDBRANCH   4   5
ENDBRANCH   3   4
ENDBRANCH   2   3
ENDBRANCH   1   2
BRANCH   1  25
ATOM     25  C   UNL A   1      30.972  30.629  25.199  1.00  0.00     0.202 C 
BRANCH  25  26
ATOM     26  C   UNL A   1      31.563  30.893  26.591  1.00  0.00     0.261 C 
BRANCH  26  27
ATOM     27  O   UNL A   1      33.002  30.969  26.583  1.00  0.00    -0.460 OA
BRANCH  27  28
ATOM     28  C   UNL A   1      33.525  31.973  27.324  1.00  0.00     0.338 C 
ATOM     29  O   UNL A   1      32.984  33.025  27.640  1.00  0.00    -0.246 OA
BRANCH  28  30
ATOM     30  C   UNL A   1      34.837  31.581  27.868  1.00  0.00     0.060 A 
ATOM     31  C   UNL A   1      35.003  30.255  28.291  1.00  0.00     0.016 A 
ATOM     32  C   UNL A   1      35.860  32.511  28.050  1.00  0.00     0.016 A 
ATOM     33  C   UNL A   1      36.182  29.858  28.923  1.00  0.00     0.010 A 
ATOM     34  C   UNL A   1      37.033  32.113  28.703  1.00  0.00     0.010 A 
ATOM     35  C   UNL A   1      37.198  30.792  29.161  1.00  0.00    -0.014 A 
BRANCH  35  36
ATOM     36  C   UNL A   1      38.364  30.433  30.013  1.00  0.00     0.031 A 
ATOM     37  C   UNL A   1      39.393  29.477  29.470  1.00  0.00     0.074 A 
ATOM     38  C   UNL A   1      38.513  30.934  31.253  1.00  0.00     0.049 A 
ATOM     39  N   UNL A   1      40.442  28.958  30.058  1.00  0.00    -0.248 NA
ATOM     40  C   UNL A   1      39.203  29.035  28.080  1.00  0.00     0.031 C 
ATOM     41  C   UNL A   1      37.598  31.866  31.909  1.00  0.00     0.029 A 
ATOM     42  N   UNL A   1      39.482  30.694  32.201  1.00  0.00    -0.354 N 
ATOM     43  C   UNL A   1      41.031  28.130  29.112  1.00  0.00     0.074 A 
ATOM     44  C   UNL A   1      40.195  28.170  27.933  1.00  0.00     0.031 C 
ATOM     45  C   UNL A   1      38.035  32.101  33.159  1.00  0.00     0.029 A 
ATOM     46  C   UNL A   1      39.248  31.320  33.401  1.00  0.00     0.049 A 
ATOM     47  H   UNL A   1      40.270  30.127  32.033  1.00  0.00     0.167 HD
ATOM     48  C   UNL A   1      42.180  27.418  29.204  1.00  0.00     0.037 A 
ATOM     49  C   UNL A   1      39.919  31.249  34.567  1.00  0.00     0.037 A 
ATOM     50  C   UNL A   1      43.033  27.390  30.362  1.00  0.00     0.049 A 
ATOM     51  C   UNL A   1      41.165  30.406  34.665  1.00  0.00     0.074 A 
ATOM     52  C   UNL A   1      44.244  26.740  30.527  1.00  0.00     0.029 A 
ATOM     53  N   UNL A   1      42.763  28.042  31.554  1.00  0.00    -0.354 N 
ATOM     54  N   UNL A   1      41.738  29.663  33.752  1.00  0.00    -0.248 NA
ATOM     55  C   UNL A   1      41.863  30.401  35.962  1.00  0.00     0.031 C 
ATOM     56  C   UNL A   1      44.687  26.965  31.834  1.00  0.00     0.029 A 
ATOM     57  C   UNL A   1      43.774  27.791  32.468  1.00  0.00     0.049 A 
ATOM     58  H   UNL A   1      41.970  28.599  31.727  1.00  0.00     0.167 HD
ATOM     59  C   UNL A   1      42.879  29.136  34.344  1.00  0.00     0.074 A 
ATOM     60  C   UNL A   1      42.918  29.642  35.700  1.00  0.00     0.031 C 
ATOM     61  C   UNL A   1      43.814  28.313  33.809  1.00  0.00     0.037 A 
BRANCH  48  62
ATOM     62  C   UNL A   1      42.584  26.609  28.008  1.00  0.00     0.064 A 
ATOM     63  C   UNL A   1      42.141  25.289  27.831  1.00  0.00     0.173 A 
ATOM     64  C   UNL A   1      43.403  27.167  27.015  1.00  0.00     0.173 A 
ATOM     65  F   UNL A   1      41.367  24.708  28.760  1.00  0.00    -0.203 F 
ATOM     66  C   UNL A   1      42.528  24.547  26.718  1.00  0.00     0.198 A 
ATOM     67  C   UNL A   1      43.764  26.431  25.889  1.00  0.00     0.198 A 
ATOM     68  F   UNL A   1      43.849  28.426  27.134  1.00  0.00    -0.203 F 
ATOM     69  F   UNL A   1      42.133  23.273  26.596  1.00  0.00    -0.200 F 
ATOM     70  C   UNL A   1      43.334  25.121  25.746  1.00  0.00     0.200 A 
ATOM     71  F   UNL A   1      44.533  26.990  24.945  1.00  0.00    -0.200 F 
ATOM     72  F   UNL A   1      43.701  24.406  24.673  1.00  0.00    -0.200 F 
ENDBRANCH  48  62
BRANCH  49  73
ATOM     73  C   UNL A   1      39.425  31.993  35.754  1.00  0.00     0.064 A 
ATOM     74  C   UNL A   1      39.931  33.261  36.075  1.00  0.00     0.173 A 
ATOM     75  C   UNL A   1      38.465  31.437  36.611  1.00  0.00     0.173 A 
ATOM     76  F   UNL A   1      40.876  33.819  35.303  1.00  0.00    -0.203 F 
ATOM     77  C   UNL A   1      39.510  33.935  37.219  1.00  0.00     0.198 A 
ATOM     78  C   UNL A   1      38.026  32.122  37.741  1.00  0.00     0.198 A 
ATOM     79  F   UNL A   1      37.958  30.222  36.352  1.00  0.00    -0.203 F 
ATOM     80  F   UNL A   1      40.047  35.122  37.530  1.00  0.00    -0.200 F 
ATOM     81  C   UNL A   1      38.554  33.367  38.049  1.00  0.00     0.200 A 
ATOM     82  F   UNL A   1      37.102  31.571  38.539  1.00  0.00    -0.200 F 
ATOM     83  F   UNL A   1      38.153  34.013  39.152  1.00  0.00    -0.200 F 
ENDBRANCH  49  73
BRANCH  61  84
ATOM     84  C   UNL A   1      44.989  27.945  34.667  1.00  0.00     0.064 A 
ATOM     85  C   UNL A   1      44.994  26.786  35.456  1.00  0.00     0.173 A 
ATOM     86  C   UNL A   1      46.147  28.739  34.658  1.00  0.00     0.173 A 
ATOM     87  F   UNL A   1      43.906  26.002  35.510  1.00  0.00    -0.203 F 
ATOM     88  C   UNL A   1      46.108  26.445  36.220  1.00  0.00     0.198 A 
ATOM     89  C   UNL A   1      47.268  28.381  35.402  1.00  0.00     0.198 A 
ATOM     90  F   UNL A   1      46.196  29.854  33.915  1.00  0.00    -0.203 F 
ATOM     91  F   UNL A   1      46.076  25.354  36.996  1.00  0.00    -0.200 F 
ATOM     92  C   UNL A   1      47.246  27.237  36.186  1.00  0.00     0.200 A 
ATOM     93  F   UNL A   1      48.371  29.142  35.359  1.00  0.00    -0.200 F 
ATOM     94  F   UNL A   1      48.319  26.903  36.914  1.00  0.00    -0.200 F 
ENDBRANCH  61  84
ENDBRANCH  35  36
ENDBRANCH  28  30
ENDBRANCH  27  28
ENDBRANCH  26  27
ENDBRANCH  25  26
ENDBRANCH   1  25
TORSDOF 17
ENDMDL
MODEL 3
REMARK VINA RESULT:     -10.9      1.649      2.835
REMARK SMILES C[NH2+][C@@]1(C(=O)OCCOCCOC(=O)c2ccc(-c3c4nc(c(-c5c(F)c(F)c(F)c(F)c5F)c5ccc([nH]5)c(-c5c(F)c(F)c(F)c(F)c5F)c5nc(c(-c6c(F)c(F)c(F)c(F)c6F)c6ccc3[nH]6)C=C5)C=C4)cc2)CC[C@H](Sc2ccc(C)c(C)c2)C1
REMARK SMILES IDX 9 1 8 2 7 3 6 4 4 5 5 6 3 7 78 8 90 9 79 10 80 11 2 12 1 13
REMARK SMILES IDX 81 16 82 17 83 18 89 19 84 20 87 21 85 22 88 23 86 24 10 25
REMARK SMILES IDX 11 26 12 27 13 28 14 29 15 30 16 31 77 32 17 33 76 34 18 35
REMARK SMILES IDX 19 36 20 37 70 38 21 39 75 40 69 41 71 42 22 43 74 44 68 45
REMARK SMILES IDX 67 46 23 48 55 49 35 50 54 51 36 52 39 53 53 54 72 55 37 56
REMARK SMILES IDX 38 57 52 59 73 60 40 61 24 62 25 63 33 64 26 65 27 66 31 67
REMARK SMILES IDX 34 68 28 69 29 70 32 71 30 72 56 73 57 74 65 75 58 76 59 77
REMARK SMILES IDX 63 78 66 79 60 80 61 81 64 82 62 83 41 84 42 85 50 86 43 87
REMARK SMILES IDX 44 88 48 89 51 90 45 91 46 92 49 93 47 94
REMARK H PARENT 2 14 2 15 71 47 39 58
REMARK Flexibility Score: inf
ROOT
ATOM      1  O   UNL A   1      32.407  30.852  26.431  1.00  0.00    -0.374 OA
ENDROOT
BRANCH   1   2
ATOM      2  C   UNL A   1      32.306  29.792  27.383  1.00  0.00     0.202 C 
BRANCH   2   3
ATOM      3  C   UNL A   1      32.663  28.400  26.866  1.00  0.00     0.261 C 
BRANCH   3   4
ATOM      4  O   UNL A   1      31.631  27.916  25.993  1.00  0.00    -0.459 OA
BRANCH   4   5
ATOM      5  C   UNL A   1      31.933  27.915  24.669  1.00  0.00     0.368 C 
ATOM      6  O   UNL A   1      33.051  28.167  24.229  1.00  0.00    -0.245 OA
BRANCH   5   7
ATOM      7  C   UNL A   1      30.688  27.621  23.764  1.00  0.00     0.195 C 
ATOM      8  C   UNL A   1      30.008  26.375  24.338  1.00  0.00     0.082 C 
ATOM      9  C   UNL A   1      30.998  27.157  22.318  1.00  0.00     0.096 C 
ATOM     10  C   UNL A   1      30.884  25.236  23.815  1.00  0.00     0.022 C 
ATOM     11  C   UNL A   1      31.194  25.623  22.365  1.00  0.00     0.059 C 
BRANCH   7  12
ATOM     12  N   UNL A   1      29.851  28.846  23.679  1.00  0.00    -0.335 N 
ATOM     13  C   UNL A   1      30.023  29.632  22.462  1.00  0.00     0.331 C 
ATOM     14  H   UNL A   1      28.872  28.564  23.737  1.00  0.00     0.347 HD
ATOM     15  H   UNL A   1      30.148  29.446  24.449  1.00  0.00     0.347 HD
ENDBRANCH   7  12
BRANCH  11  16
ATOM     16  S   UNL A   1      32.875  25.237  21.752  1.00  0.00    -0.122 SA
BRANCH  16  17
ATOM     17  C   UNL A   1      33.515  23.920  22.768  1.00  0.00     0.008 A 
ATOM     18  C   UNL A   1      33.020  22.626  22.855  1.00  0.00     0.015 A 
ATOM     19  C   UNL A   1      34.604  24.261  23.584  1.00  0.00     0.018 A 
ATOM     20  C   UNL A   1      33.528  21.737  23.809  1.00  0.00     0.005 A 
ATOM     21  C   UNL A   1      35.161  23.369  24.515  1.00  0.00    -0.047 A 
ATOM     22  C   UNL A   1      34.579  22.103  24.664  1.00  0.00    -0.048 A 
ATOM     23  C   UNL A   1      36.356  23.798  25.320  1.00  0.00     0.044 C 
ATOM     24  C   UNL A   1      35.017  21.122  25.715  1.00  0.00     0.044 C 
ENDBRANCH  16  17
ENDBRANCH  11  16
ENDBRANCH   5   7
ENDBRANCH   4   5
ENDBRANCH   3   4
ENDBRANCH   2   3
ENDBRANCH   1   2
BRANCH   1  25
ATOM     25  C   UNL A   1      31.414  31.878  26.493  1.00  0.00     0.202 C 
BRANCH  25  26
ATOM     26  C   UNL A   1      31.923  33.289  26.819  1.00  0.00     0.261 C 
BRANCH  26  27
ATOM     27  O   UNL A   1      32.670  33.345  28.049  1.00  0.00    -0.460 OA
BRANCH  27  28
ATOM     28  C   UNL A   1      33.816  34.062  27.990  1.00  0.00     0.338 C 
ATOM     29  O   UNL A   1      33.933  35.262  27.778  1.00  0.00    -0.246 OA
BRANCH  28  30
ATOM     30  C   UNL A   1      34.966  33.227  28.380  1.00  0.00     0.060 A 
ATOM     31  C   UNL A   1      34.706  31.945  28.884  1.00  0.00     0.016 A 
ATOM     32  C   UNL A   1      36.270  33.717  28.343  1.00  0.00     0.016 A 
ATOM     33  C   UNL A   1      35.746  31.157  29.380  1.00  0.00     0.010 A 
ATOM     34  C   UNL A   1      37.308  32.932  28.860  1.00  0.00     0.010 A 
ATOM     35  C   UNL A   1      37.055  31.656  29.399  1.00  0.00    -0.014 A 
BRANCH  35  36
ATOM     36  C   UNL A   1      38.130  30.914  30.110  1.00  0.00     0.031 A 
ATOM     37  C   UNL A   1      38.395  31.230  31.558  1.00  0.00     0.074 A 
ATOM     38  C   UNL A   1      38.873  29.979  29.489  1.00  0.00     0.049 A 
ATOM     39  N   UNL A   1      39.329  30.774  32.355  1.00  0.00    -0.248 NA
ATOM     40  C   UNL A   1      37.491  32.205  32.188  1.00  0.00     0.031 C 
ATOM     41  C   UNL A   1      38.732  29.570  28.093  1.00  0.00     0.029 A 
ATOM     42  N   UNL A   1      39.928  29.226  29.953  1.00  0.00    -0.354 N 
ATOM     43  C   UNL A   1      39.126  31.408  33.574  1.00  0.00     0.074 A 
ATOM     44  C   UNL A   1      38.018  32.321  33.398  1.00  0.00     0.031 C 
ATOM     45  C   UNL A   1      39.679  28.659  27.806  1.00  0.00     0.029 A 
ATOM     46  C   UNL A   1      40.507  28.435  28.991  1.00  0.00     0.049 A 
ATOM     47  H   UNL A   1      40.237  29.252  30.888  1.00  0.00     0.167 HD
ATOM     48  C   UNL A   1      39.785  31.230  34.744  1.00  0.00     0.037 A 
ATOM     49  C   UNL A   1      41.596  27.644  29.051  1.00  0.00     0.037 A 
ATOM     50  C   UNL A   1      40.870  30.307  34.937  1.00  0.00     0.049 A 
ATOM     51  C   UNL A   1      42.349  27.502  30.350  1.00  0.00     0.074 A 
ATOM     52  C   UNL A   1      41.562  30.021  36.102  1.00  0.00     0.029 A 
ATOM     53  N   UNL A   1      41.423  29.522  33.939  1.00  0.00    -0.354 N 
ATOM     54  N   UNL A   1      42.121  28.071  31.507  1.00  0.00    -0.248 NA
ATOM     55  C   UNL A   1      43.510  26.597  30.349  1.00  0.00     0.031 C 
ATOM     56  C   UNL A   1      42.562  29.090  35.799  1.00  0.00     0.029 A 
ATOM     57  C   UNL A   1      42.463  28.765  34.457  1.00  0.00     0.049 A 
ATOM     58  H   UNL A   1      41.123  29.504  33.002  1.00  0.00     0.167 HD
ATOM     59  C   UNL A   1      43.078  27.567  32.379  1.00  0.00     0.074 A 
ATOM     60  C   UNL A   1      43.893  26.645  31.617  1.00  0.00     0.031 C 
ATOM     61  C   UNL A   1      43.258  27.838  33.695  1.00  0.00     0.037 A 
BRANCH  48  62
ATOM     62  C   UNL A   1      39.338  32.054  35.915  1.00  0.00     0.064 A 
ATOM     63  C   UNL A   1      38.374  31.584  36.819  1.00  0.00     0.173 A 
ATOM     64  C   UNL A   1      39.898  33.319  36.149  1.00  0.00     0.173 A 
ATOM     65  F   UNL A   1      37.800  30.385  36.629  1.00  0.00    -0.203 F 
ATOM     66  C   UNL A   1      37.964  32.361  37.898  1.00  0.00     0.198 A 
ATOM     67  C   UNL A   1      39.507  34.082  37.246  1.00  0.00     0.198 A 
ATOM     68  F   UNL A   1      40.828  33.813  35.317  1.00  0.00    -0.203 F 
ATOM     69  F   UNL A   1      37.007  31.911  38.720  1.00  0.00    -0.200 F 
ATOM     70  C   UNL A   1      38.536  33.607  38.114  1.00  0.00     0.200 A 
ATOM     71  F   UNL A   1      40.067  35.280  37.461  1.00  0.00    -0.200 F 
ATOM     72  F   UNL A   1      38.143  34.352  39.157  1.00  0.00    -0.200 F 
ENDBRANCH  48  62
BRANCH  49  73
ATOM     73  C   UNL A   1      42.056  26.921  27.838  1.00  0.00     0.064 A 
ATOM     74  C   UNL A   1      41.618  25.618  27.562  1.00  0.00     0.173 A 
ATOM     75  C   UNL A   1      42.972  27.504  26.950  1.00  0.00     0.173 A 
ATOM     76  F   UNL A   1      40.768  25.007  28.401  1.00  0.00    -0.203 F 
ATOM     77  C   UNL A   1      42.094  24.918  26.455  1.00  0.00     0.198 A 
ATOM     78  C   UNL A   1      43.428  26.814  25.830  1.00  0.00     0.198 A 
ATOM     79  F   UNL A   1      43.428  28.745  27.177  1.00  0.00    -0.203 F 
ATOM     80  F   UNL A   1      41.697  23.656  26.243  1.00  0.00    -0.200 F 
ATOM     81  C   UNL A   1      42.994  25.518  25.587  1.00  0.00     0.200 A 
ATOM     82  F   UNL A   1      44.297  27.397  24.994  1.00  0.00    -0.200 F 
ATOM     83  F   UNL A   1      43.456  24.843  24.526  1.00  0.00    -0.200 F 
ENDBRANCH  49  73
BRANCH  61  84
ATOM     84  C   UNL A   1      44.346  27.095  34.415  1.00  0.00     0.064 A 
ATOM     85  C   UNL A   1      45.649  27.602  34.511  1.00  0.00     0.173 A 
ATOM     86  C   UNL A   1      44.063  25.882  35.064  1.00  0.00     0.173 A 
ATOM     87  F   UNL A   1      45.973  28.750  33.896  1.00  0.00    -0.203 F 
ATOM     88  C   UNL A   1      46.635  26.912  35.212  1.00  0.00     0.198 A 
ATOM     89  C   UNL A   1      45.044  25.208  35.785  1.00  0.00     0.198 A 
ATOM     90  F   UNL A   1      42.829  25.357  35.008  1.00  0.00    -0.203 F 
ATOM     91  F   UNL A   1      47.884  27.396  35.257  1.00  0.00    -0.200 F 
ATOM     92  C   UNL A   1      46.331  25.722  35.855  1.00  0.00     0.200 A 
ATOM     93  F   UNL A   1      44.744  24.065  36.416  1.00  0.00    -0.200 F 
ATOM     94  F   UNL A   1      47.278  25.064  36.536  1.00  0.00    -0.200 F 
ENDBRANCH  61  84
ENDBRANCH  35  36
ENDBRANCH  28  30
ENDBRANCH  27  28
ENDBRANCH  26  27
ENDBRANCH  25  26
ENDBRANCH   1  25
TORSDOF 17
ENDMDL
