MODEL 1
REMARK VINA RESULT:     -10.5      0.000      0.000
REMARK SMILES Cc1cc(O[C@@H](C)C(=O)OCCOCCOC(=O)c2ccc(-c3c4nc(c(-c5c(F)c(F)c(F)c(F)c5F)c5ccc([nH]5)c(-c5c(F)c(F)c(F)c(F)c5F)c5nc(c(-c6c(F)c(F)c(F)c(F)c6F)c6ccc3[nH]6)C=C5)C=C4)cc2)n(C)n1
REMARK SMILES IDX 13 1 12 2 11 3 10 4 8 5 9 6 6 7 7 8 5 9 4 10 1 11 2 12 3 13
REMARK SMILES IDX 84 14 82 15 83 16 14 17 15 18 16 19 17 20 18 21 19 22 20 23
REMARK SMILES IDX 81 24 21 25 80 26 22 27 23 28 24 29 74 30 25 31 79 32 73 33
REMARK SMILES IDX 75 34 26 35 78 36 72 37 71 38 27 40 59 41 39 42 58 43 40 44
REMARK SMILES IDX 43 45 57 46 76 47 41 48 42 49 56 51 77 52 44 53 28 54 29 55
REMARK SMILES IDX 37 56 30 57 31 58 35 59 38 60 32 61 33 62 36 63 34 64 60 65
REMARK SMILES IDX 61 66 69 67 62 68 63 69 67 70 70 71 64 72 65 73 68 74 66 75
REMARK SMILES IDX 45 76 46 77 54 78 47 79 48 80 52 81 55 82 49 83 50 84 53 85
REMARK SMILES IDX 51 86
REMARK H PARENT 75 39 43 50
REMARK Flexibility Score: inf
ROOT
ATOM      1  O   UNL A   1      45.464  20.695  25.371  1.00  0.00    -0.374 OA
ENDROOT
BRANCH   1   2
ATOM      2  C   UNL A   1      45.086  19.462  24.752  1.00  0.00     0.202 C 
BRANCH   2   3
ATOM      3  C   UNL A   1      43.708  18.943  25.163  1.00  0.00     0.261 C 
BRANCH   3   4
ATOM      4  O   UNL A   1      43.124  19.880  26.082  1.00  0.00    -0.461 OA
BRANCH   4   5
ATOM      5  C   UNL A   1      41.773  19.985  26.074  1.00  0.00     0.347 C 
ATOM      6  O   UNL A   1      41.006  19.080  25.758  1.00  0.00    -0.248 OA
BRANCH   5   7
ATOM      7  C   UNL A   1      41.292  21.366  26.559  1.00  0.00     0.281 C 
ATOM      8  C   UNL A   1      40.785  21.287  27.996  1.00  0.00     0.066 C 
BRANCH   7   9
ATOM      9  O   UNL A   1      40.496  22.219  25.744  1.00  0.00    -0.463 OA
BRANCH   9  10
ATOM     10  C   UNL A   1      39.165  22.102  25.730  1.00  0.00     0.212 A 
ATOM     11  C   UNL A   1      35.672  21.006  25.373  1.00  0.00     0.069 C 
ATOM     12  C   UNL A   1      36.984  21.659  25.589  1.00  0.00     0.063 A 
ATOM     13  C   UNL A   1      38.271  21.114  25.371  1.00  0.00     0.093 A 
ATOM     14  N   UNL A   1      37.052  22.910  26.053  1.00  0.00    -0.175 NA
ATOM     15  N   UNL A   1      38.375  23.152  26.139  1.00  0.00    -0.237 N 
ATOM     16  C   UNL A   1      38.809  24.426  26.664  1.00  0.00     0.178 C 
ENDBRANCH   9  10
ENDBRANCH   7   9
ENDBRANCH   5   7
ENDBRANCH   4   5
ENDBRANCH   3   4
ENDBRANCH   2   3
ENDBRANCH   1   2
BRANCH   1  17
ATOM     17  C   UNL A   1      45.765  21.791  24.506  1.00  0.00     0.202 C 
BRANCH  17  18
ATOM     18  C   UNL A   1      44.552  22.542  23.946  1.00  0.00     0.261 C 
BRANCH  18  19
ATOM     19  O   UNL A   1      43.908  23.355  24.943  1.00  0.00    -0.460 OA
BRANCH  19  20
ATOM     20  C   UNL A   1      44.475  24.567  25.141  1.00  0.00     0.338 C 
ATOM     21  O   UNL A   1      45.447  25.034  24.564  1.00  0.00    -0.246 OA
BRANCH  20  22
ATOM     22  C   UNL A   1      43.662  25.370  26.072  1.00  0.00     0.060 A 
ATOM     23  C   UNL A   1      43.948  26.739  26.167  1.00  0.00     0.016 A 
ATOM     24  C   UNL A   1      42.701  24.793  26.902  1.00  0.00     0.016 A 
ATOM     25  C   UNL A   1      43.306  27.526  27.121  1.00  0.00     0.010 A 
ATOM     26  C   UNL A   1      42.069  25.581  27.871  1.00  0.00     0.010 A 
ATOM     27  C   UNL A   1      42.386  26.944  28.004  1.00  0.00    -0.014 A 
BRANCH  27  28
ATOM     28  C   UNL A   1      41.865  27.733  29.147  1.00  0.00     0.031 A 
ATOM     29  C   UNL A   1      42.560  27.637  30.478  1.00  0.00     0.074 A 
ATOM     30  C   UNL A   1      40.798  28.538  29.002  1.00  0.00     0.049 A 
ATOM     31  N   UNL A   1      42.262  28.213  31.616  1.00  0.00    -0.248 NA
ATOM     32  C   UNL A   1      43.750  26.774  30.536  1.00  0.00     0.031 C 
ATOM     33  C   UNL A   1      40.050  28.735  27.762  1.00  0.00     0.029 A 
ATOM     34  N   UNL A   1      40.152  29.337  29.915  1.00  0.00    -0.354 N 
ATOM     35  C   UNL A   1      43.215  27.772  32.523  1.00  0.00     0.074 A 
ATOM     36  C   UNL A   1      44.092  26.866  31.813  1.00  0.00     0.031 C 
ATOM     37  C   UNL A   1      39.034  29.585  27.995  1.00  0.00     0.029 A 
ATOM     38  C   UNL A   1      39.047  29.974  29.404  1.00  0.00     0.049 A 
ATOM     39  H   UNL A   1      40.452  29.441  30.846  1.00  0.00     0.167 HD
ATOM     40  C   UNL A   1      43.352  28.099  33.829  1.00  0.00     0.037 A 
ATOM     41  C   UNL A   1      38.138  30.761  30.014  1.00  0.00     0.037 A 
ATOM     42  C   UNL A   1      42.497  29.018  34.532  1.00  0.00     0.049 A 
ATOM     43  C   UNL A   1      38.298  31.084  31.478  1.00  0.00     0.074 A 
ATOM     44  C   UNL A   1      42.591  29.451  35.843  1.00  0.00     0.029 A 
ATOM     45  N   UNL A   1      41.388  29.641  33.983  1.00  0.00    -0.354 N 
ATOM     46  N   UNL A   1      39.235  30.705  32.313  1.00  0.00    -0.248 NA
ATOM     47  C   UNL A   1      37.276  31.952  32.083  1.00  0.00     0.031 C 
ATOM     48  C   UNL A   1      41.511  30.300  36.102  1.00  0.00     0.029 A 
ATOM     49  C   UNL A   1      40.772  30.433  34.937  1.00  0.00     0.049 A 
ATOM     50  H   UNL A   1      41.083  29.536  33.052  1.00  0.00     0.167 HD
ATOM     51  C   UNL A   1      38.932  31.307  33.528  1.00  0.00     0.074 A 
ATOM     52  C   UNL A   1      37.733  32.089  33.320  1.00  0.00     0.031 C 
ATOM     53  C   UNL A   1      39.588  31.220  34.711  1.00  0.00     0.037 A 
BRANCH  40  54
ATOM     54  C   UNL A   1      44.462  27.450  34.600  1.00  0.00     0.064 A 
ATOM     55  C   UNL A   1      45.690  28.092  34.805  1.00  0.00     0.173 A 
ATOM     56  C   UNL A   1      44.265  26.197  35.200  1.00  0.00     0.173 A 
ATOM     57  F   UNL A   1      45.929  29.287  34.243  1.00  0.00    -0.203 F 
ATOM     58  C   UNL A   1      46.687  27.498  35.574  1.00  0.00     0.198 A 
ATOM     59  C   UNL A   1      45.254  25.617  35.987  1.00  0.00     0.198 A 
ATOM     60  F   UNL A   1      43.104  25.544  35.037  1.00  0.00    -0.203 F 
ATOM     61  F   UNL A   1      47.865  28.118  35.736  1.00  0.00    -0.200 F 
ATOM     62  C   UNL A   1      46.466  26.267  36.172  1.00  0.00     0.200 A 
ATOM     63  F   UNL A   1      45.034  24.432  36.573  1.00  0.00    -0.200 F 
ATOM     64  F   UNL A   1      47.420  25.704  36.924  1.00  0.00    -0.200 F 
ENDBRANCH  40  54
BRANCH  41  65
ATOM     65  C   UNL A   1      36.976  31.290  29.252  1.00  0.00     0.064 A 
ATOM     66  C   UNL A   1      36.910  32.635  28.866  1.00  0.00     0.173 A 
ATOM     67  C   UNL A   1      35.886  30.466  28.936  1.00  0.00     0.173 A 
ATOM     68  F   UNL A   1      37.916  33.469  29.169  1.00  0.00    -0.203 F 
ATOM     69  C   UNL A   1      35.785  33.144  28.220  1.00  0.00     0.198 A 
ATOM     70  C   UNL A   1      34.774  30.969  28.263  1.00  0.00     0.198 A 
ATOM     71  F   UNL A   1      35.899  29.171  29.284  1.00  0.00    -0.203 F 
ATOM     72  F   UNL A   1      35.722  34.447  27.914  1.00  0.00    -0.200 F 
ATOM     73  C   UNL A   1      34.719  32.310  27.916  1.00  0.00     0.200 A 
ATOM     74  F   UNL A   1      33.752  30.156  27.963  1.00  0.00    -0.200 F 
ATOM     75  F   UNL A   1      33.636  32.801  27.299  1.00  0.00    -0.200 F 
ENDBRANCH  41  65
BRANCH  53  76
ATOM     76  C   UNL A   1      39.051  32.018  35.863  1.00  0.00     0.064 A 
ATOM     77  C   UNL A   1      38.201  31.447  36.820  1.00  0.00     0.173 A 
ATOM     78  C   UNL A   1      39.435  33.357  36.038  1.00  0.00     0.173 A 
ATOM     79  F   UNL A   1      37.794  30.175  36.689  1.00  0.00    -0.203 F 
ATOM     80  C   UNL A   1      37.736  32.193  37.900  1.00  0.00     0.198 A 
ATOM     81  C   UNL A   1      38.990  34.091  37.134  1.00  0.00     0.198 A 
ATOM     82  F   UNL A   1      40.253  33.947  35.156  1.00  0.00    -0.203 F 
ATOM     83  F   UNL A   1      36.890  31.639  38.779  1.00  0.00    -0.200 F 
ATOM     84  C   UNL A   1      38.136  33.511  38.060  1.00  0.00     0.200 A 
ATOM     85  F   UNL A   1      39.390  35.360  37.295  1.00  0.00    -0.200 F 
ATOM     86  F   UNL A   1      37.695  34.224  39.105  1.00  0.00    -0.200 F 
ENDBRANCH  53  76
ENDBRANCH  27  28
ENDBRANCH  20  22
ENDBRANCH  19  20
ENDBRANCH  18  19
ENDBRANCH  17  18
ENDBRANCH   1  17
TORSDOF 16
ENDMDL
MODEL 2
REMARK VINA RESULT:     -10.0      4.713      9.813
REMARK SMILES Cc1cc(O[C@@H](C)C(=O)OCCOCCOC(=O)c2ccc(-c3c4nc(c(-c5c(F)c(F)c(F)c(F)c5F)c5ccc([nH]5)c(-c5c(F)c(F)c(F)c(F)c5F)c5nc(c(-c6c(F)c(F)c(F)c(F)c6F)c6ccc3[nH]6)C=C5)C=C4)cc2)n(C)n1
REMARK SMILES IDX 13 1 12 2 11 3 10 4 8 5 9 6 6 7 7 8 5 9 4 10 1 11 2 12 3 13
REMARK SMILES IDX 84 14 82 15 83 16 14 17 15 18 16 19 17 20 18 21 19 22 20 23
REMARK SMILES IDX 81 24 21 25 80 26 22 27 23 28 24 29 74 30 25 31 79 32 73 33
REMARK SMILES IDX 75 34 26 35 78 36 72 37 71 38 27 40 59 41 39 42 58 43 40 44
REMARK SMILES IDX 43 45 57 46 76 47 41 48 42 49 56 51 77 52 44 53 28 54 29 55
REMARK SMILES IDX 37 56 30 57 31 58 35 59 38 60 32 61 33 62 36 63 34 64 60 65
REMARK SMILES IDX 61 66 69 67 62 68 63 69 67 70 70 71 64 72 65 73 68 74 66 75
REMARK SMILES IDX 45 76 46 77 54 78 47 79 48 80 52 81 55 82 49 83 50 84 53 85
REMARK SMILES IDX 51 86
REMARK H PARENT 75 39 43 50
REMARK Flexibility Score: inf
ROOT
ATOM      1  O   UNL A   1      31.980  29.997  25.557  1.00  0.00    -0.374 OA
ENDROOT
BRANCH   1   2
ATOM      2  C   UNL A   1      31.631  28.745  26.154  1.00  0.00     0.202 C 
BRANCH   2   3
ATOM      3  C   UNL A   1      32.822  27.848  26.490  1.00  0.00     0.261 C 
BRANCH   3   4
ATOM      4  O   UNL A   1      32.786  26.700  25.627  1.00  0.00    -0.461 OA
BRANCH   4   5
ATOM      5  C   UNL A   1      31.767  25.826  25.812  1.00  0.00     0.347 C 
ATOM      6  O   UNL A   1      31.517  25.263  26.873  1.00  0.00    -0.248 OA
BRANCH   5   7
ATOM      7  C   UNL A   1      30.912  25.650  24.542  1.00  0.00     0.281 C 
ATOM      8  C   UNL A   1      30.657  24.172  24.263  1.00  0.00     0.066 C 
BRANCH   7   9
ATOM      9  O   UNL A   1      31.159  26.396  23.354  1.00  0.00    -0.463 OA
BRANCH   9  10
ATOM     10  C   UNL A   1      30.452  27.496  23.079  1.00  0.00     0.212 A 
ATOM     11  C   UNL A   1      27.846  30.039  22.558  1.00  0.00     0.069 C 
ATOM     12  C   UNL A   1      29.048  29.182  22.680  1.00  0.00     0.063 A 
ATOM     13  C   UNL A   1      29.119  27.846  23.140  1.00  0.00     0.093 A 
ATOM     14  N   UNL A   1      30.254  29.652  22.347  1.00  0.00    -0.175 NA
ATOM     15  N   UNL A   1      31.086  28.623  22.605  1.00  0.00    -0.237 N 
ATOM     16  C   UNL A   1      32.502  28.813  22.398  1.00  0.00     0.178 C 
ENDBRANCH   9  10
ENDBRANCH   7   9
ENDBRANCH   5   7
ENDBRANCH   4   5
ENDBRANCH   3   4
ENDBRANCH   2   3
ENDBRANCH   1   2
BRANCH   1  17
ATOM     17  C   UNL A   1      31.035  31.061  25.677  1.00  0.00     0.202 C 
BRANCH  17  18
ATOM     18  C   UNL A   1      31.500  32.268  26.500  1.00  0.00     0.261 C 
BRANCH  18  19
ATOM     19  O   UNL A   1      32.529  31.918  27.443  1.00  0.00    -0.460 OA
BRANCH  19  20
ATOM     20  C   UNL A   1      33.473  32.868  27.631  1.00  0.00     0.338 C 
ATOM     21  O   UNL A   1      33.320  34.082  27.601  1.00  0.00    -0.246 OA
BRANCH  20  22
ATOM     22  C   UNL A   1      34.747  32.253  28.048  1.00  0.00     0.060 A 
ATOM     23  C   UNL A   1      34.741  30.880  28.330  1.00  0.00     0.016 A 
ATOM     24  C   UNL A   1      35.902  33.009  28.248  1.00  0.00     0.016 A 
ATOM     25  C   UNL A   1      35.878  30.266  28.852  1.00  0.00     0.010 A 
ATOM     26  C   UNL A   1      37.037  32.394  28.789  1.00  0.00     0.010 A 
ATOM     27  C   UNL A   1      37.024  31.028  29.119  1.00  0.00    -0.014 A 
BRANCH  27  28
ATOM     28  C   UNL A   1      38.152  30.420  29.866  1.00  0.00     0.031 A 
ATOM     29  C   UNL A   1      38.367  30.805  31.305  1.00  0.00     0.074 A 
ATOM     30  C   UNL A   1      38.967  29.524  29.281  1.00  0.00     0.049 A 
ATOM     31  N   UNL A   1      39.302  30.421  32.138  1.00  0.00    -0.248 NA
ATOM     32  C   UNL A   1      37.399  31.750  31.883  1.00  0.00     0.031 C 
ATOM     33  C   UNL A   1      38.853  29.053  27.902  1.00  0.00     0.029 A 
ATOM     34  N   UNL A   1      40.061  28.856  29.775  1.00  0.00    -0.354 N 
ATOM     35  C   UNL A   1      39.043  31.087  33.328  1.00  0.00     0.074 A 
ATOM     36  C   UNL A   1      37.876  31.914  33.108  1.00  0.00     0.031 C 
ATOM     37  C   UNL A   1      39.850  28.185  27.653  1.00  0.00     0.029 A 
ATOM     38  C   UNL A   1      40.684  28.058  28.847  1.00  0.00     0.049 A 
ATOM     39  H   UNL A   1      40.370  28.943  30.705  1.00  0.00     0.167 HD
ATOM     40  C   UNL A   1      39.714  31.011  34.501  1.00  0.00     0.037 A 
ATOM     41  C   UNL A   1      41.812  27.327  28.947  1.00  0.00     0.037 A 
ATOM     42  C   UNL A   1      40.860  30.171  34.731  1.00  0.00     0.049 A 
ATOM     43  C   UNL A   1      42.557  27.284  30.257  1.00  0.00     0.074 A 
ATOM     44  C   UNL A   1      41.573  29.989  35.902  1.00  0.00     0.029 A 
ATOM     45  N   UNL A   1      41.463  29.379  33.767  1.00  0.00    -0.354 N 
ATOM     46  N   UNL A   1      42.272  27.876  31.392  1.00  0.00    -0.248 NA
ATOM     47  C   UNL A   1      43.778  26.466  30.302  1.00  0.00     0.031 C 
ATOM     48  C   UNL A   1      42.637  29.122  35.636  1.00  0.00     0.029 A 
ATOM     49  C   UNL A   1      42.556  28.727  34.310  1.00  0.00     0.049 A 
ATOM     50  H   UNL A   1      41.158  29.293  32.834  1.00  0.00     0.167 HD
ATOM     51  C   UNL A   1      43.257  27.480  32.288  1.00  0.00     0.074 A 
ATOM     52  C   UNL A   1      44.141  26.587  31.571  1.00  0.00     0.031 C 
ATOM     53  C   UNL A   1      43.417  27.826  33.589  1.00  0.00     0.037 A 
BRANCH  40  54
ATOM     54  C   UNL A   1      39.239  31.868  35.635  1.00  0.00     0.064 A 
ATOM     55  C   UNL A   1      38.326  31.393  36.586  1.00  0.00     0.173 A 
ATOM     56  C   UNL A   1      39.761  33.159  35.810  1.00  0.00     0.173 A 
ATOM     57  F   UNL A   1      37.791  30.169  36.456  1.00  0.00    -0.203 F 
ATOM     58  C   UNL A   1      37.942  32.184  37.665  1.00  0.00     0.198 A 
ATOM     59  C   UNL A   1      39.394  33.938  36.902  1.00  0.00     0.198 A 
ATOM     60  F   UNL A   1      40.642  33.657  34.929  1.00  0.00    -0.203 F 
ATOM     61  F   UNL A   1      37.047  31.720  38.550  1.00  0.00    -0.200 F 
ATOM     62  C   UNL A   1      38.483  33.451  37.829  1.00  0.00     0.200 A 
ATOM     63  F   UNL A   1      39.926  35.157  37.065  1.00  0.00    -0.200 F 
ATOM     64  F   UNL A   1      38.125  34.204  38.877  1.00  0.00    -0.200 F 
ENDBRANCH  40  54
BRANCH  41  65
ATOM     65  C   UNL A   1      42.329  26.585  27.766  1.00  0.00     0.064 A 
ATOM     66  C   UNL A   1      41.972  25.251  27.531  1.00  0.00     0.173 A 
ATOM     67  C   UNL A   1      43.230  27.185  26.875  1.00  0.00     0.173 A 
ATOM     68  F   UNL A   1      41.133  24.625  28.371  1.00  0.00    -0.203 F 
ATOM     69  C   UNL A   1      42.518  24.536  26.467  1.00  0.00     0.198 A 
ATOM     70  C   UNL A   1      43.753  26.479  25.794  1.00  0.00     0.198 A 
ATOM     71  F   UNL A   1      43.606  28.460  27.055  1.00  0.00    -0.203 F 
ATOM     72  F   UNL A   1      42.204  23.244  26.299  1.00  0.00    -0.200 F 
ATOM     73  C   UNL A   1      43.406  25.151  25.597  1.00  0.00     0.200 A 
ATOM     74  F   UNL A   1      44.602  27.081  24.951  1.00  0.00    -0.200 F 
ATOM     75  F   UNL A   1      43.935  24.462  24.577  1.00  0.00    -0.200 F 
ENDBRANCH  41  65
BRANCH  53  76
ATOM     76  C   UNL A   1      44.564  27.210  34.336  1.00  0.00     0.064 A 
ATOM     77  C   UNL A   1      44.442  25.970  34.977  1.00  0.00     0.173 A 
ATOM     78  C   UNL A   1      45.814  27.848  34.367  1.00  0.00     0.173 A 
ATOM     79  F   UNL A   1      43.264  25.327  34.988  1.00  0.00    -0.203 F 
ATOM     80  C   UNL A   1      45.526  25.399  35.641  1.00  0.00     0.198 A 
ATOM     81  C   UNL A   1      46.901  27.261  35.007  1.00  0.00     0.198 A 
ATOM     82  F   UNL A   1      45.983  29.033  33.761  1.00  0.00    -0.203 F 
ATOM     83  F   UNL A   1      45.376  24.233  36.283  1.00  0.00    -0.200 F 
ATOM     84  C   UNL A   1      46.755  26.041  35.649  1.00  0.00     0.200 A 
ATOM     85  F   UNL A   1      48.092  27.876  35.001  1.00  0.00    -0.200 F 
ATOM     86  F   UNL A   1      47.798  25.486  36.280  1.00  0.00    -0.200 F 
ENDBRANCH  53  76
ENDBRANCH  27  28
ENDBRANCH  20  22
ENDBRANCH  19  20
ENDBRANCH  18  19
ENDBRANCH  17  18
ENDBRANCH   1  17
TORSDOF 16
ENDMDL
MODEL 3
REMARK VINA RESULT:     -10.0      5.226      9.702
REMARK SMILES Cc1cc(O[C@@H](C)C(=O)OCCOCCOC(=O)c2ccc(-c3c4nc(c(-c5c(F)c(F)c(F)c(F)c5F)c5ccc([nH]5)c(-c5c(F)c(F)c(F)c(F)c5F)c5nc(c(-c6c(F)c(F)c(F)c(F)c6F)c6ccc3[nH]6)C=C5)C=C4)cc2)n(C)n1
REMARK SMILES IDX 13 1 12 2 11 3 10 4 8 5 9 6 6 7 7 8 5 9 4 10 1 11 2 12 3 13
REMARK SMILES IDX 84 14 82 15 83 16 14 17 15 18 16 19 17 20 18 21 19 22 20 23
REMARK SMILES IDX 81 24 21 25 80 26 22 27 23 28 24 29 74 30 25 31 79 32 73 33
REMARK SMILES IDX 75 34 26 35 78 36 72 37 71 38 27 40 59 41 39 42 58 43 40 44
REMARK SMILES IDX 43 45 57 46 76 47 41 48 42 49 56 51 77 52 44 53 28 54 29 55
REMARK SMILES IDX 37 56 30 57 31 58 35 59 38 60 32 61 33 62 36 63 34 64 60 65
REMARK SMILES IDX 61 66 69 67 62 68 63 69 67 70 70 71 64 72 65 73 68 74 66 75
REMARK SMILES IDX 45 76 46 77 54 78 47 79 48 80 52 81 55 82 49 83 50 84 53 85
REMARK SMILES IDX 51 86
REMARK H PARENT 75 39 43 50
REMARK Flexibility Score: inf
ROOT
ATOM      1  O   UNL A   1      35.067  21.499  26.758  1.00  0.00    -0.374 OA
ENDROOT
BRANCH   1   2
ATOM      2  C   UNL A   1      34.109  22.509  27.084  1.00  0.00     0.202 C 
BRANCH   2   3
ATOM      3  C   UNL A   1      33.392  23.116  25.878  1.00  0.00     0.261 C 
BRANCH   3   4
ATOM      4  O   UNL A   1      32.031  22.655  25.878  1.00  0.00    -0.461 OA
BRANCH   4   5
ATOM      5  C   UNL A   1      31.088  23.529  26.305  1.00  0.00     0.347 C 
ATOM      6  O   UNL A   1      30.345  23.339  27.263  1.00  0.00    -0.248 OA
BRANCH   5   7
ATOM      7  C   UNL A   1      31.080  24.828  25.475  1.00  0.00     0.281 C 
ATOM      8  C   UNL A   1      30.025  25.797  26.001  1.00  0.00     0.066 C 
BRANCH   7   9
ATOM      9  O   UNL A   1      31.155  24.819  24.054  1.00  0.00    -0.463 OA
BRANCH   9  10
ATOM     10  C   UNL A   1      32.029  25.600  23.411  1.00  0.00     0.212 A 
ATOM     11  C   UNL A   1      34.031  28.374  22.061  1.00  0.00     0.069 C 
ATOM     12  C   UNL A   1      33.355  27.116  22.457  1.00  0.00     0.063 A 
ATOM     13  C   UNL A   1      32.295  26.953  23.378  1.00  0.00     0.093 A 
ATOM     14  N   UNL A   1      33.739  25.947  21.936  1.00  0.00    -0.175 NA
ATOM     15  N   UNL A   1      32.932  25.046  22.532  1.00  0.00    -0.237 N 
ATOM     16  C   UNL A   1      33.116  23.647  22.226  1.00  0.00     0.178 C 
ENDBRANCH   9  10
ENDBRANCH   7   9
ENDBRANCH   5   7
ENDBRANCH   4   5
ENDBRANCH   3   4
ENDBRANCH   2   3
ENDBRANCH   1   2
BRANCH   1  17
ATOM     17  C   UNL A   1      35.306  21.252  25.371  1.00  0.00     0.202 C 
BRANCH  17  18
ATOM     18  C   UNL A   1      36.673  20.647  25.034  1.00  0.00     0.261 C 
BRANCH  18  19
ATOM     19  O   UNL A   1      37.728  21.624  25.087  1.00  0.00    -0.460 OA
BRANCH  19  20
ATOM     20  C   UNL A   1      38.786  21.277  25.854  1.00  0.00     0.338 C 
ATOM     21  O   UNL A   1      39.297  20.170  25.956  1.00  0.00    -0.246 OA
BRANCH  20  22
ATOM     22  C   UNL A   1      39.385  22.472  26.476  1.00  0.00     0.060 A 
ATOM     23  C   UNL A   1      38.865  23.721  26.112  1.00  0.00     0.016 A 
ATOM     24  C   UNL A   1      40.488  22.389  27.327  1.00  0.00     0.016 A 
ATOM     25  C   UNL A   1      39.471  24.893  26.563  1.00  0.00     0.010 A 
ATOM     26  C   UNL A   1      41.105  23.567  27.764  1.00  0.00     0.010 A 
ATOM     27  C   UNL A   1      40.618  24.823  27.364  1.00  0.00    -0.014 A 
BRANCH  27  28
ATOM     28  C   UNL A   1      41.379  26.060  27.667  1.00  0.00     0.031 A 
ATOM     29  C   UNL A   1      40.703  27.163  28.435  1.00  0.00     0.074 A 
ATOM     30  C   UNL A   1      42.660  26.196  27.280  1.00  0.00     0.049 A 
ATOM     31  N   UNL A   1      41.166  28.337  28.785  1.00  0.00    -0.248 NA
ATOM     32  C   UNL A   1      39.320  26.910  28.866  1.00  0.00     0.031 C 
ATOM     33  C   UNL A   1      43.433  25.194  26.549  1.00  0.00     0.029 A 
ATOM     34  N   UNL A   1      43.535  27.244  27.442  1.00  0.00    -0.354 N 
ATOM     35  C   UNL A   1      40.129  28.965  29.461  1.00  0.00     0.074 A 
ATOM     36  C   UNL A   1      39.005  28.054  29.458  1.00  0.00     0.031 C 
ATOM     37  C   UNL A   1      44.663  25.682  26.308  1.00  0.00     0.029 A 
ATOM     38  C   UNL A   1      44.756  27.038  26.848  1.00  0.00     0.049 A 
ATOM     39  H   UNL A   1      43.307  28.063  27.935  1.00  0.00     0.167 HD
ATOM     40  C   UNL A   1      40.117  30.189  30.039  1.00  0.00     0.037 A 
ATOM     41  C   UNL A   1      45.817  27.861  26.735  1.00  0.00     0.037 A 
ATOM     42  C   UNL A   1      41.240  31.088  30.065  1.00  0.00     0.049 A 
ATOM     43  C   UNL A   1      45.765  29.232  27.362  1.00  0.00     0.074 A 
ATOM     44  C   UNL A   1      41.337  32.328  30.672  1.00  0.00     0.029 A 
ATOM     45  N   UNL A   1      42.458  30.846  29.451  1.00  0.00    -0.354 N 
ATOM     46  N   UNL A   1      44.798  29.794  28.045  1.00  0.00    -0.248 NA
ATOM     47  C   UNL A   1      46.956  30.080  27.206  1.00  0.00     0.031 C 
ATOM     48  C   UNL A   1      42.599  32.857  30.387  1.00  0.00     0.029 A 
ATOM     49  C   UNL A   1      43.304  31.925  29.642  1.00  0.00     0.049 A 
ATOM     50  H   UNL A   1      42.688  30.028  28.953  1.00  0.00     0.167 HD
ATOM     51  C   UNL A   1      45.273  31.043  28.424  1.00  0.00     0.074 A 
ATOM     52  C   UNL A   1      46.619  31.154  27.906  1.00  0.00     0.031 C 
ATOM     53  C   UNL A   1      44.649  32.014  29.136  1.00  0.00     0.037 A 
BRANCH  40  54
ATOM     54  C   UNL A   1      38.844  30.645  30.685  1.00  0.00     0.064 A 
ATOM     55  C   UNL A   1      38.644  30.549  32.068  1.00  0.00     0.173 A 
ATOM     56  C   UNL A   1      37.839  31.250  29.914  1.00  0.00     0.173 A 
ATOM     57  F   UNL A   1      39.571  29.968  32.845  1.00  0.00    -0.203 F 
ATOM     58  C   UNL A   1      37.478  31.032  32.657  1.00  0.00     0.198 A 
ATOM     59  C   UNL A   1      36.686  31.753  30.508  1.00  0.00     0.198 A 
ATOM     60  F   UNL A   1      37.986  31.370  28.585  1.00  0.00    -0.203 F 
ATOM     61  F   UNL A   1      37.295  30.906  33.979  1.00  0.00    -0.200 F 
ATOM     62  C   UNL A   1      36.505  31.642  31.879  1.00  0.00     0.200 A 
ATOM     63  F   UNL A   1      35.753  32.353  29.756  1.00  0.00    -0.200 F 
ATOM     64  F   UNL A   1      35.392  32.121  32.449  1.00  0.00    -0.200 F 
ENDBRANCH  40  54
BRANCH  41  65
ATOM     65  C   UNL A   1      47.022  27.428  25.979  1.00  0.00     0.064 A 
ATOM     66  C   UNL A   1      48.100  26.806  26.622  1.00  0.00     0.173 A 
ATOM     67  C   UNL A   1      47.136  27.672  24.602  1.00  0.00     0.173 A 
ATOM     68  F   UNL A   1      48.049  26.576  27.943  1.00  0.00    -0.203 F 
ATOM     69  C   UNL A   1      49.259  26.471  25.924  1.00  0.00     0.198 A 
ATOM     70  C   UNL A   1      48.284  27.310  23.899  1.00  0.00     0.198 A 
ATOM     71  F   UNL A   1      46.133  28.266  23.939  1.00  0.00    -0.203 F 
ATOM     72  F   UNL A   1      50.298  25.930  26.575  1.00  0.00    -0.200 F 
ATOM     73  C   UNL A   1      49.349  26.720  24.562  1.00  0.00     0.200 A 
ATOM     74  F   UNL A   1      48.361  27.543  22.582  1.00  0.00    -0.200 F 
ATOM     75  F   UNL A   1      50.465  26.403  23.893  1.00  0.00    -0.200 F 
ENDBRANCH  41  65
BRANCH  53  76
ATOM     76  C   UNL A   1      45.424  33.264  29.433  1.00  0.00     0.064 A 
ATOM     77  C   UNL A   1      46.244  33.370  30.566  1.00  0.00     0.173 A 
ATOM     78  C   UNL A   1      45.384  34.351  28.546  1.00  0.00     0.173 A 
ATOM     79  F   UNL A   1      46.305  32.363  31.451  1.00  0.00    -0.203 F 
ATOM     80  C   UNL A   1      46.979  34.526  30.811  1.00  0.00     0.198 A 
ATOM     81  C   UNL A   1      46.142  35.494  28.780  1.00  0.00     0.198 A 
ATOM     82  F   UNL A   1      44.622  34.297  27.444  1.00  0.00    -0.203 F 
ATOM     83  F   UNL A   1      47.724  34.621  31.921  1.00  0.00    -0.200 F 
ATOM     84  C   UNL A   1      46.934  35.584  29.915  1.00  0.00     0.200 A 
ATOM     85  F   UNL A   1      46.108  36.510  27.906  1.00  0.00    -0.200 F 
ATOM     86  F   UNL A   1      47.650  36.692  30.148  1.00  0.00    -0.200 F 
ENDBRANCH  53  76
ENDBRANCH  27  28
ENDBRANCH  20  22
ENDBRANCH  19  20
ENDBRANCH  18  19
ENDBRANCH  17  18
ENDBRANCH   1  17
TORSDOF 16
ENDMDL
