MODEL 1
REMARK VINA RESULT:     -11.7      0.000      0.000
REMARK SMILES CCCc1cc2c(cc1Cl)C=C(C(=O)OCCOCCOC(=O)c1ccc(-c3c4nc(c(-c5c(F)c(F)c(F)c(F)c5F)c5ccc([nH]5)c(-c5c(F)c(F)c(F)c(F)c5F)c5nc(c(-c6c(F)c(F)c(F)c(F)c6F)c6ccc3[nH]6)C=C5)C=C4)cc1)[C@@H](C(F)(F)F)O2
REMARK SMILES IDX 18 1 17 2 16 3 15 4 13 5 14 6 12 7 4 8 5 9 9 10 6 11 8 12
REMARK SMILES IDX 10 13 7 14 92 15 11 16 87 17 3 18 2 19 1 20 88 21 89 22
REMARK SMILES IDX 90 23 91 24 19 25 20 26 21 27 22 28 23 29 24 30 25 31 86 32
REMARK SMILES IDX 26 33 85 34 27 35 28 36 29 37 79 38 30 39 84 40 78 41 80 42
REMARK SMILES IDX 31 43 83 44 77 45 76 46 32 48 64 49 44 50 63 51 45 52 48 53
REMARK SMILES IDX 62 54 81 55 46 56 47 57 61 59 82 60 49 61 33 62 34 63 42 64
REMARK SMILES IDX 35 65 36 66 40 67 43 68 37 69 38 70 41 71 39 72 65 73 66 74
REMARK SMILES IDX 74 75 67 76 68 77 72 78 75 79 69 80 70 81 73 82 71 83 50 84
REMARK SMILES IDX 51 85 59 86 52 87 53 88 57 89 60 90 54 91 55 92 58 93 56 94
REMARK H PARENT 80 47 48 58
REMARK Flexibility Score: inf
ROOT
ATOM      1  O   UNL A   1      30.944  29.662  24.503  1.00  0.00    -0.374 OA
ENDROOT
BRANCH   1   2
ATOM      2  C   UNL A   1      31.859  28.604  24.769  1.00  0.00     0.202 C 
BRANCH   2   3
ATOM      3  C   UNL A   1      32.963  28.332  23.742  1.00  0.00     0.261 C 
BRANCH   3   4
ATOM      4  O   UNL A   1      33.741  27.172  24.073  1.00  0.00    -0.460 OA
BRANCH   4   5
ATOM      5  C   UNL A   1      33.721  26.203  23.128  1.00  0.00     0.338 C 
ATOM      6  O   UNL A   1      34.029  26.316  21.953  1.00  0.00    -0.246 OA
BRANCH   5   7
ATOM      7  C   UNL A   1      33.396  24.907  23.751  1.00  0.00     0.087 C 
ATOM      8  C   UNL A   1      33.577  20.035  24.919  1.00  0.00    -0.026 A 
ATOM      9  C   UNL A   1      32.553  21.002  24.883  1.00  0.00     0.052 A 
ATOM     10  C   UNL A   1      34.905  20.464  24.773  1.00  0.00     0.045 A 
ATOM     11  C   UNL A   1      32.841  22.343  24.617  1.00  0.00     0.128 A 
ATOM     12  C   UNL A   1      35.189  21.799  24.481  1.00  0.00     0.032 A 
ATOM     13  Cl  UNL A   1      36.249  19.386  24.907  1.00  0.00    -0.084 Cl
ATOM     14  C   UNL A   1      34.154  22.728  24.363  1.00  0.00     0.019 A 
ATOM     15  O   UNL A   1      31.780  23.201  24.593  1.00  0.00    -0.475 OA
ATOM     16  C   UNL A   1      34.430  24.067  23.882  1.00  0.00     0.027 C 
ATOM     17  C   UNL A   1      31.990  24.580  24.168  1.00  0.00     0.316 C 
BRANCH   8  18
ATOM     18  C   UNL A   1      33.192  18.576  25.030  1.00  0.00     0.037 C 
BRANCH  18  19
ATOM     19  C   UNL A   1      32.931  17.912  23.668  1.00  0.00     0.001 C 
ATOM     20  C   UNL A   1      34.023  16.952  23.212  1.00  0.00     0.004 C 
ENDBRANCH  18  19
ENDBRANCH   8  18
BRANCH  17  21
ATOM     21  C   UNL A   1      30.950  24.893  23.081  1.00  0.00     0.430 C 
ATOM     22  F   UNL A   1      29.922  24.010  23.122  1.00  0.00    -0.167 F 
ATOM     23  F   UNL A   1      30.406  26.121  23.236  1.00  0.00    -0.167 F 
ATOM     24  F   UNL A   1      31.483  24.838  21.840  1.00  0.00    -0.167 F 
ENDBRANCH  17  21
ENDBRANCH   5   7
ENDBRANCH   4   5
ENDBRANCH   3   4
ENDBRANCH   2   3
ENDBRANCH   1   2
BRANCH   1  25
ATOM     25  C   UNL A   1      30.972  30.817  25.339  1.00  0.00     0.202 C 
BRANCH  25  26
ATOM     26  C   UNL A   1      31.755  30.752  26.657  1.00  0.00     0.261 C 
BRANCH  26  27
ATOM     27  O   UNL A   1      33.160  31.003  26.493  1.00  0.00    -0.460 OA
BRANCH  27  28
ATOM     28  C   UNL A   1      33.664  31.977  27.291  1.00  0.00     0.338 C 
ATOM     29  O   UNL A   1      33.118  33.014  27.633  1.00  0.00    -0.246 OA
BRANCH  28  30
ATOM     30  C   UNL A   1      34.935  31.514  27.875  1.00  0.00     0.060 A 
ATOM     31  C   UNL A   1      36.004  32.390  28.057  1.00  0.00     0.016 A 
ATOM     32  C   UNL A   1      35.028  30.177  28.286  1.00  0.00     0.016 A 
ATOM     33  C   UNL A   1      37.169  31.925  28.673  1.00  0.00     0.010 A 
ATOM     34  C   UNL A   1      36.192  29.716  28.901  1.00  0.00     0.010 A 
ATOM     35  C   UNL A   1      37.265  30.592  29.116  1.00  0.00    -0.014 A 
BRANCH  35  36
ATOM     36  C   UNL A   1      38.441  30.157  29.908  1.00  0.00     0.031 A 
ATOM     37  C   UNL A   1      38.668  30.647  31.306  1.00  0.00     0.074 A 
ATOM     38  C   UNL A   1      39.316  29.306  29.339  1.00  0.00     0.049 A 
ATOM     39  N   UNL A   1      39.601  30.298  32.157  1.00  0.00    -0.248 NA
ATOM     40  C   UNL A   1      37.737  31.663  31.815  1.00  0.00     0.031 C 
ATOM     41  C   UNL A   1      39.218  28.798  27.971  1.00  0.00     0.029 A 
ATOM     42  N   UNL A   1      40.446  28.711  29.838  1.00  0.00    -0.354 N 
ATOM     43  C   UNL A   1      39.356  31.030  33.309  1.00  0.00     0.074 A 
ATOM     44  C   UNL A   1      38.221  31.887  33.030  1.00  0.00     0.031 C 
ATOM     45  C   UNL A   1      40.223  27.936  27.752  1.00  0.00     0.029 A 
ATOM     46  C   UNL A   1      41.053  27.855  28.952  1.00  0.00     0.049 A 
ATOM     47  H   UNL A   1      40.791  28.881  30.745  1.00  0.00     0.167 HD
ATOM     48  C   UNL A   1      40.006  30.971  34.497  1.00  0.00     0.037 A 
ATOM     49  C   UNL A   1      42.150  27.087  29.089  1.00  0.00     0.037 A 
ATOM     50  C   UNL A   1      41.145  30.127  34.761  1.00  0.00     0.049 A 
ATOM     51  C   UNL A   1      42.883  27.081  30.402  1.00  0.00     0.074 A 
ATOM     52  C   UNL A   1      41.846  29.974  35.944  1.00  0.00     0.029 A 
ATOM     53  N   UNL A   1      41.758  29.305  33.826  1.00  0.00    -0.354 N 
ATOM     54  N   UNL A   1      42.592  27.713  31.513  1.00  0.00    -0.248 NA
ATOM     55  C   UNL A   1      44.093  26.251  30.484  1.00  0.00     0.031 C 
ATOM     56  C   UNL A   1      42.918  29.107  35.709  1.00  0.00     0.029 A 
ATOM     57  C   UNL A   1      42.850  28.670  34.398  1.00  0.00     0.049 A 
ATOM     58  H   UNL A   1      41.462  29.191  32.893  1.00  0.00     0.167 HD
ATOM     59  C   UNL A   1      43.568  27.344  32.429  1.00  0.00     0.074 A 
ATOM     60  C   UNL A   1      44.448  26.414  31.751  1.00  0.00     0.031 C 
ATOM     61  C   UNL A   1      43.721  27.745  33.715  1.00  0.00     0.037 A 
BRANCH  48  62
ATOM     62  C   UNL A   1      39.499  31.831  35.620  1.00  0.00     0.064 A 
ATOM     63  C   UNL A   1      38.487  31.381  36.481  1.00  0.00     0.173 A 
ATOM     64  C   UNL A   1      40.088  33.075  35.894  1.00  0.00     0.173 A 
ATOM     65  F   UNL A   1      37.887  30.201  36.261  1.00  0.00    -0.203 F 
ATOM     66  C   UNL A   1      38.073  32.151  37.566  1.00  0.00     0.198 A 
ATOM     67  C   UNL A   1      39.693  33.828  36.996  1.00  0.00     0.198 A 
ATOM     68  F   UNL A   1      41.068  33.547  35.109  1.00  0.00    -0.203 F 
ATOM     69  F   UNL A   1      37.083  31.713  38.356  1.00  0.00    -0.200 F 
ATOM     70  C   UNL A   1      38.683  33.368  37.829  1.00  0.00     0.200 A 
ATOM     71  F   UNL A   1      40.296  34.994  37.261  1.00  0.00    -0.200 F 
ATOM     72  F   UNL A   1      38.299  34.097  38.886  1.00  0.00    -0.200 F 
ENDBRANCH  48  62
BRANCH  49  73
ATOM     73  C   UNL A   1      42.591  26.229  27.959  1.00  0.00     0.064 A 
ATOM     74  C   UNL A   1      42.077  24.936  27.794  1.00  0.00     0.173 A 
ATOM     75  C   UNL A   1      43.513  26.691  27.007  1.00  0.00     0.173 A 
ATOM     76  F   UNL A   1      41.208  24.442  28.689  1.00  0.00    -0.203 F 
ATOM     77  C   UNL A   1      42.474  24.134  26.727  1.00  0.00     0.198 A 
ATOM     78  C   UNL A   1      43.885  25.900  25.923  1.00  0.00     0.198 A 
ATOM     79  F   UNL A   1      44.030  27.923  27.117  1.00  0.00    -0.203 F 
ATOM     80  F   UNL A   1      41.994  22.889  26.613  1.00  0.00    -0.200 F 
ATOM     81  C   UNL A   1      43.371  24.621  25.786  1.00  0.00     0.200 A 
ATOM     82  F   UNL A   1      44.737  26.381  25.007  1.00  0.00    -0.200 F 
ATOM     83  F   UNL A   1      43.740  23.854  24.752  1.00  0.00    -0.200 F 
ENDBRANCH  49  73
BRANCH  61  84
ATOM     84  C   UNL A   1      44.877  27.178  34.490  1.00  0.00     0.064 A 
ATOM     85  C   UNL A   1      44.789  25.934  35.134  1.00  0.00     0.173 A 
ATOM     86  C   UNL A   1      46.110  27.848  34.526  1.00  0.00     0.173 A 
ATOM     87  F   UNL A   1      43.630  25.259  35.143  1.00  0.00    -0.203 F 
ATOM     88  C   UNL A   1      45.888  25.390  35.793  1.00  0.00     0.198 A 
ATOM     89  C   UNL A   1      47.216  27.285  35.158  1.00  0.00     0.198 A 
ATOM     90  F   UNL A   1      46.251  29.037  33.921  1.00  0.00    -0.203 F 
ATOM     91  F   UNL A   1      45.769  24.217  36.431  1.00  0.00    -0.200 F 
ATOM     92  C   UNL A   1      47.102  26.059  35.794  1.00  0.00     0.200 A 
ATOM     93  F   UNL A   1      48.392  27.925  35.142  1.00  0.00    -0.200 F 
ATOM     94  F   UNL A   1      48.164  25.522  36.412  1.00  0.00    -0.200 F 
ENDBRANCH  61  84
ENDBRANCH  35  36
ENDBRANCH  28  30
ENDBRANCH  27  28
ENDBRANCH  26  27
ENDBRANCH  25  26
ENDBRANCH   1  25
TORSDOF 17
ENDMDL
MODEL 2
REMARK VINA RESULT:     -11.5      1.277      2.212
REMARK SMILES CCCc1cc2c(cc1Cl)C=C(C(=O)OCCOCCOC(=O)c1ccc(-c3c4nc(c(-c5c(F)c(F)c(F)c(F)c5F)c5ccc([nH]5)c(-c5c(F)c(F)c(F)c(F)c5F)c5nc(c(-c6c(F)c(F)c(F)c(F)c6F)c6ccc3[nH]6)C=C5)C=C4)cc1)[C@@H](C(F)(F)F)O2
REMARK SMILES IDX 18 1 17 2 16 3 15 4 13 5 14 6 12 7 4 8 5 9 9 10 6 11 8 12
REMARK SMILES IDX 10 13 7 14 92 15 11 16 87 17 3 18 2 19 1 20 88 21 89 22
REMARK SMILES IDX 90 23 91 24 19 25 20 26 21 27 22 28 23 29 24 30 25 31 86 32
REMARK SMILES IDX 26 33 85 34 27 35 28 36 29 37 79 38 30 39 84 40 78 41 80 42
REMARK SMILES IDX 31 43 83 44 77 45 76 46 32 48 64 49 44 50 63 51 45 52 48 53
REMARK SMILES IDX 62 54 81 55 46 56 47 57 61 59 82 60 49 61 33 62 34 63 42 64
REMARK SMILES IDX 35 65 36 66 40 67 43 68 37 69 38 70 41 71 39 72 65 73 66 74
REMARK SMILES IDX 74 75 67 76 68 77 72 78 75 79 69 80 70 81 73 82 71 83 50 84
REMARK SMILES IDX 51 85 59 86 52 87 53 88 57 89 60 90 54 91 55 92 58 93 56 94
REMARK H PARENT 80 47 48 58
REMARK Flexibility Score: inf
ROOT
ATOM      1  O   UNL A   1      31.458  28.584  24.474  1.00  0.00    -0.374 OA
ENDROOT
BRANCH   1   2
ATOM      2  C   UNL A   1      31.354  28.494  23.056  1.00  0.00     0.202 C 
BRANCH   2   3
ATOM      3  C   UNL A   1      31.478  27.110  22.412  1.00  0.00     0.261 C 
BRANCH   3   4
ATOM      4  O   UNL A   1      31.967  26.123  23.333  1.00  0.00    -0.460 OA
BRANCH   4   5
ATOM      5  C   UNL A   1      31.065  25.166  23.650  1.00  0.00     0.338 C 
ATOM      6  O   UNL A   1      29.852  25.230  23.530  1.00  0.00    -0.246 OA
BRANCH   5   7
ATOM      7  C   UNL A   1      31.766  23.932  24.049  1.00  0.00     0.087 C 
ATOM      8  C   UNL A   1      32.957  19.079  24.453  1.00  0.00    -0.026 A 
ATOM      9  C   UNL A   1      33.123  20.207  25.281  1.00  0.00     0.052 A 
ATOM     10  C   UNL A   1      32.521  19.278  23.133  1.00  0.00     0.045 A 
ATOM     11  C   UNL A   1      32.778  21.484  24.833  1.00  0.00     0.128 A 
ATOM     12  C   UNL A   1      32.151  20.551  22.696  1.00  0.00     0.032 A 
ATOM     13  Cl  UNL A   1      32.384  17.985  21.995  1.00  0.00    -0.084 Cl
ATOM     14  C   UNL A   1      32.241  21.645  23.559  1.00  0.00     0.019 A 
ATOM     15  O   UNL A   1      32.966  22.510  25.713  1.00  0.00    -0.475 OA
ATOM     16  C   UNL A   1      31.687  22.926  23.169  1.00  0.00     0.027 C 
ATOM     17  C   UNL A   1      32.481  23.841  25.367  1.00  0.00     0.316 C 
BRANCH   8  18
ATOM     18  C   UNL A   1      33.174  17.705  25.047  1.00  0.00     0.037 C 
BRANCH  18  19
ATOM     19  C   UNL A   1      34.313  16.925  24.372  1.00  0.00     0.001 C 
ATOM     20  C   UNL A   1      34.970  15.871  25.254  1.00  0.00     0.004 C 
ENDBRANCH  18  19
ENDBRANCH   8  18
BRANCH  17  21
ATOM     21  C   UNL A   1      31.637  24.346  26.548  1.00  0.00     0.430 C 
ATOM     22  F   UNL A   1      30.318  24.107  26.341  1.00  0.00    -0.167 F 
ATOM     23  F   UNL A   1      31.961  23.727  27.706  1.00  0.00    -0.167 F 
ATOM     24  F   UNL A   1      31.784  25.676  26.743  1.00  0.00    -0.167 F 
ENDBRANCH  17  21
ENDBRANCH   5   7
ENDBRANCH   4   5
ENDBRANCH   3   4
ENDBRANCH   2   3
ENDBRANCH   1   2
BRANCH   1  25
ATOM     25  C   UNL A   1      32.347  29.547  25.035  1.00  0.00     0.202 C 
BRANCH  25  26
ATOM     26  C   UNL A   1      31.777  30.608  25.986  1.00  0.00     0.261 C 
BRANCH  26  27
ATOM     27  O   UNL A   1      32.487  30.689  27.233  1.00  0.00    -0.460 OA
BRANCH  27  28
ATOM     28  C   UNL A   1      33.278  31.782  27.370  1.00  0.00     0.338 C 
ATOM     29  O   UNL A   1      32.955  32.953  27.251  1.00  0.00    -0.246 OA
BRANCH  28  30
ATOM     30  C   UNL A   1      34.592  31.366  27.892  1.00  0.00     0.060 A 
ATOM     31  C   UNL A   1      35.624  32.288  28.058  1.00  0.00     0.016 A 
ATOM     32  C   UNL A   1      34.765  30.025  28.259  1.00  0.00     0.016 A 
ATOM     33  C   UNL A   1      36.833  31.864  28.615  1.00  0.00     0.010 A 
ATOM     34  C   UNL A   1      35.972  29.604  28.816  1.00  0.00     0.010 A 
ATOM     35  C   UNL A   1      37.010  30.525  29.015  1.00  0.00    -0.014 A 
BRANCH  35  36
ATOM     36  C   UNL A   1      38.235  30.126  29.749  1.00  0.00     0.031 A 
ATOM     37  C   UNL A   1      38.538  30.661  31.116  1.00  0.00     0.074 A 
ATOM     38  C   UNL A   1      39.086  29.268  29.155  1.00  0.00     0.049 A 
ATOM     39  N   UNL A   1      39.524  30.348  31.920  1.00  0.00    -0.248 NA
ATOM     40  C   UNL A   1      37.626  31.682  31.649  1.00  0.00     0.031 C 
ATOM     41  C   UNL A   1      38.914  28.717  27.811  1.00  0.00     0.029 A 
ATOM     42  N   UNL A   1      40.250  28.699  29.605  1.00  0.00    -0.354 N 
ATOM     43  C   UNL A   1      39.338  31.111  33.063  1.00  0.00     0.074 A 
ATOM     44  C   UNL A   1      38.178  31.948  32.826  1.00  0.00     0.031 C 
ATOM     45  C   UNL A   1      39.914  27.859  27.559  1.00  0.00     0.029 A 
ATOM     46  C   UNL A   1      40.814  27.823  28.710  1.00  0.00     0.049 A 
ATOM     47  H   UNL A   1      40.645  28.900  30.484  1.00  0.00     0.167 HD
ATOM     48  C   UNL A   1      40.057  31.095  34.212  1.00  0.00     0.037 A 
ATOM     49  C   UNL A   1      41.926  27.070  28.804  1.00  0.00     0.037 A 
ATOM     50  C   UNL A   1      41.219  30.271  34.433  1.00  0.00     0.049 A 
ATOM     51  C   UNL A   1      42.735  27.112  30.071  1.00  0.00     0.074 A 
ATOM     52  C   UNL A   1      41.991  30.161  35.576  1.00  0.00     0.029 A 
ATOM     53  N   UNL A   1      41.786  29.428  33.488  1.00  0.00    -0.354 N 
ATOM     54  N   UNL A   1      42.503  27.775  31.179  1.00  0.00    -0.248 NA
ATOM     55  C   UNL A   1      43.958  26.297  30.106  1.00  0.00     0.031 C 
ATOM     56  C   UNL A   1      43.057  29.298  35.305  1.00  0.00     0.029 A 
ATOM     57  C   UNL A   1      42.918  28.821  34.013  1.00  0.00     0.049 A 
ATOM     58  H   UNL A   1      41.437  29.282  32.578  1.00  0.00     0.167 HD
ATOM     59  C   UNL A   1      43.535  27.443  32.045  1.00  0.00     0.074 A 
ATOM     60  C   UNL A   1      44.384  26.503  31.345  1.00  0.00     0.031 C 
ATOM     61  C   UNL A   1      43.758  27.884  33.308  1.00  0.00     0.037 A 
BRANCH  48  62
ATOM     62  C   UNL A   1      39.606  31.983  35.336  1.00  0.00     0.064 A 
ATOM     63  C   UNL A   1      40.051  33.310  35.439  1.00  0.00     0.173 A 
ATOM     64  C   UNL A   1      38.655  31.537  36.267  1.00  0.00     0.173 A 
ATOM     65  F   UNL A   1      40.962  33.786  34.578  1.00  0.00    -0.203 F 
ATOM     66  C   UNL A   1      39.571  34.152  36.440  1.00  0.00     0.198 A 
ATOM     67  C   UNL A   1      38.156  32.389  37.247  1.00  0.00     0.198 A 
ATOM     68  F   UNL A   1      38.188  30.281  36.207  1.00  0.00    -0.203 F 
ATOM     69  F   UNL A   1      40.033  35.406  36.536  1.00  0.00    -0.200 F 
ATOM     70  C   UNL A   1      38.616  33.695  37.336  1.00  0.00     0.200 A 
ATOM     71  F   UNL A   1      37.220  31.953  38.100  1.00  0.00    -0.200 F 
ATOM     72  F   UNL A   1      38.140  34.513  38.285  1.00  0.00    -0.200 F 
ENDBRANCH  48  62
BRANCH  49  73
ATOM     73  C   UNL A   1      42.311  26.183  27.676  1.00  0.00     0.064 A 
ATOM     74  C   UNL A   1      43.260  26.592  26.730  1.00  0.00     0.173 A 
ATOM     75  C   UNL A   1      41.760  24.900  27.536  1.00  0.00     0.173 A 
ATOM     76  F   UNL A   1      43.800  27.817  26.811  1.00  0.00    -0.203 F 
ATOM     77  C   UNL A   1      43.636  25.757  25.681  1.00  0.00     0.198 A 
ATOM     78  C   UNL A   1      42.160  24.054  26.505  1.00  0.00     0.198 A 
ATOM     79  F   UNL A   1      40.851  24.459  28.418  1.00  0.00    -0.203 F 
ATOM     80  F   UNL A   1      44.520  26.187  24.770  1.00  0.00    -0.200 F 
ATOM     81  C   UNL A   1      43.093  24.485  25.575  1.00  0.00     0.200 A 
ATOM     82  F   UNL A   1      41.647  22.820  26.416  1.00  0.00    -0.200 F 
ATOM     83  F   UNL A   1      43.468  23.677  24.574  1.00  0.00    -0.200 F 
ENDBRANCH  49  73
BRANCH  61  84
ATOM     84  C   UNL A   1      44.964  27.353  34.031  1.00  0.00     0.064 A 
ATOM     85  C   UNL A   1      44.942  26.109  34.678  1.00  0.00     0.173 A 
ATOM     86  C   UNL A   1      46.178  28.059  34.008  1.00  0.00     0.173 A 
ATOM     87  F   UNL A   1      43.804  25.400  34.741  1.00  0.00    -0.203 F 
ATOM     88  C   UNL A   1      46.085  25.598  35.287  1.00  0.00     0.198 A 
ATOM     89  C   UNL A   1      47.327  27.530  34.590  1.00  0.00     0.198 A 
ATOM     90  F   UNL A   1      46.256  29.250  33.397  1.00  0.00    -0.203 F 
ATOM     91  F   UNL A   1      46.030  24.424  35.932  1.00  0.00    -0.200 F 
ATOM     92  C   UNL A   1      47.279  26.302  35.232  1.00  0.00     0.200 A 
ATOM     93  F   UNL A   1      48.483  28.204  34.519  1.00  0.00    -0.200 F 
ATOM     94  F   UNL A   1      48.382  25.798  35.801  1.00  0.00    -0.200 F 
ENDBRANCH  61  84
ENDBRANCH  35  36
ENDBRANCH  28  30
ENDBRANCH  27  28
ENDBRANCH  26  27
ENDBRANCH  25  26
ENDBRANCH   1  25
TORSDOF 17
ENDMDL
MODEL 3
REMARK VINA RESULT:     -11.5      5.038     10.436
REMARK SMILES CCCc1cc2c(cc1Cl)C=C(C(=O)OCCOCCOC(=O)c1ccc(-c3c4nc(c(-c5c(F)c(F)c(F)c(F)c5F)c5ccc([nH]5)c(-c5c(F)c(F)c(F)c(F)c5F)c5nc(c(-c6c(F)c(F)c(F)c(F)c6F)c6ccc3[nH]6)C=C5)C=C4)cc1)[C@@H](C(F)(F)F)O2
REMARK SMILES IDX 18 1 17 2 16 3 15 4 13 5 14 6 12 7 4 8 5 9 9 10 6 11 8 12
REMARK SMILES IDX 10 13 7 14 92 15 11 16 87 17 3 18 2 19 1 20 88 21 89 22
REMARK SMILES IDX 90 23 91 24 19 25 20 26 21 27 22 28 23 29 24 30 25 31 86 32
REMARK SMILES IDX 26 33 85 34 27 35 28 36 29 37 79 38 30 39 84 40 78 41 80 42
REMARK SMILES IDX 31 43 83 44 77 45 76 46 32 48 64 49 44 50 63 51 45 52 48 53
REMARK SMILES IDX 62 54 81 55 46 56 47 57 61 59 82 60 49 61 33 62 34 63 42 64
REMARK SMILES IDX 35 65 36 66 40 67 43 68 37 69 38 70 41 71 39 72 65 73 66 74
REMARK SMILES IDX 74 75 67 76 68 77 72 78 75 79 69 80 70 81 73 82 71 83 50 84
REMARK SMILES IDX 51 85 59 86 52 87 53 88 57 89 60 90 54 91 55 92 58 93 56 94
REMARK H PARENT 80 47 48 58
REMARK Flexibility Score: inf
ROOT
ATOM      1  O   UNL A   1      39.269  22.234  26.410  1.00  0.00    -0.374 OA
ENDROOT
BRANCH   1   2
ATOM      2  C   UNL A   1      38.329  23.287  26.227  1.00  0.00     0.202 C 
BRANCH   2   3
ATOM      3  C   UNL A   1      36.923  22.920  25.740  1.00  0.00     0.261 C 
BRANCH   3   4
ATOM      4  O   UNL A   1      36.226  24.047  25.191  1.00  0.00    -0.460 OA
BRANCH   4   5
ATOM      5  C   UNL A   1      34.914  24.102  25.522  1.00  0.00     0.338 C 
ATOM      6  O   UNL A   1      34.367  23.533  26.452  1.00  0.00    -0.246 OA
BRANCH   5   7
ATOM      7  C   UNL A   1      34.224  25.083  24.665  1.00  0.00     0.087 C 
ATOM      8  C   UNL A   1      31.139  28.754  23.203  1.00  0.00    -0.026 A 
ATOM      9  C   UNL A   1      31.717  27.640  22.564  1.00  0.00     0.052 A 
ATOM     10  C   UNL A   1      31.592  29.096  24.487  1.00  0.00     0.045 A 
ATOM     11  C   UNL A   1      32.652  26.839  23.223  1.00  0.00     0.128 A 
ATOM     12  C   UNL A   1      32.506  28.279  25.155  1.00  0.00     0.032 A 
ATOM     13  Cl  UNL A   1      31.036  30.501  25.325  1.00  0.00    -0.084 Cl
ATOM     14  C   UNL A   1      33.003  27.130  24.538  1.00  0.00     0.019 A 
ATOM     15  O   UNL A   1      33.146  25.776  22.523  1.00  0.00    -0.475 OA
ATOM     16  C   UNL A   1      33.804  26.187  25.293  1.00  0.00     0.027 C 
ATOM     17  C   UNL A   1      34.003  24.812  23.203  1.00  0.00     0.316 C 
BRANCH   8  18
ATOM     18  C   UNL A   1      30.004  29.478  22.513  1.00  0.00     0.037 C 
BRANCH  18  19
ATOM     19  C   UNL A   1      28.631  28.838  22.770  1.00  0.00     0.001 C 
ATOM     20  C   UNL A   1      27.491  29.833  22.952  1.00  0.00     0.004 C 
ENDBRANCH  18  19
ENDBRANCH   8  18
BRANCH  17  21
ATOM     21  C   UNL A   1      33.432  23.412  22.928  1.00  0.00     0.430 C 
ATOM     22  F   UNL A   1      34.376  22.456  23.115  1.00  0.00    -0.167 F 
ATOM     23  F   UNL A   1      32.410  23.108  23.761  1.00  0.00    -0.167 F 
ATOM     24  F   UNL A   1      32.975  23.291  21.662  1.00  0.00    -0.167 F 
ENDBRANCH  17  21
ENDBRANCH   5   7
ENDBRANCH   4   5
ENDBRANCH   3   4
ENDBRANCH   2   3
ENDBRANCH   1   2
BRANCH   1  25
ATOM     25  C   UNL A   1      39.141  21.056  25.616  1.00  0.00     0.202 C 
BRANCH  25  26
ATOM     26  C   UNL A   1      39.765  19.752  26.130  1.00  0.00     0.261 C 
BRANCH  26  27
ATOM     27  O   UNL A   1      40.925  19.348  25.384  1.00  0.00    -0.460 OA
BRANCH  27  28
ATOM     28  C   UNL A   1      42.059  19.219  26.116  1.00  0.00     0.338 C 
ATOM     29  O   UNL A   1      42.657  18.189  26.385  1.00  0.00    -0.246 OA
BRANCH  28  30
ATOM     30  C   UNL A   1      42.609  20.557  26.396  1.00  0.00     0.060 A 
ATOM     31  C   UNL A   1      43.052  21.382  25.364  1.00  0.00     0.016 A 
ATOM     32  C   UNL A   1      42.635  20.998  27.726  1.00  0.00     0.016 A 
ATOM     33  C   UNL A   1      43.507  22.668  25.667  1.00  0.00     0.010 A 
ATOM     34  C   UNL A   1      43.089  22.282  28.026  1.00  0.00     0.010 A 
ATOM     35  C   UNL A   1      43.511  23.134  26.996  1.00  0.00    -0.014 A 
BRANCH  35  36
ATOM     36  C   UNL A   1      43.844  24.551  27.285  1.00  0.00     0.031 A 
ATOM     37  C   UNL A   1      45.232  25.082  27.095  1.00  0.00     0.074 A 
ATOM     38  C   UNL A   1      42.865  25.359  27.732  1.00  0.00     0.049 A 
ATOM     39  N   UNL A   1      45.665  26.312  27.225  1.00  0.00    -0.248 NA
ATOM     40  C   UNL A   1      46.271  24.115  26.719  1.00  0.00     0.031 C 
ATOM     41  C   UNL A   1      41.489  24.939  27.994  1.00  0.00     0.029 A 
ATOM     42  N   UNL A   1      42.870  26.698  28.032  1.00  0.00    -0.354 N 
ATOM     43  C   UNL A   1      47.018  26.272  26.923  1.00  0.00     0.074 A 
ATOM     44  C   UNL A   1      47.349  24.886  26.659  1.00  0.00     0.031 C 
ATOM     45  C   UNL A   1      40.771  26.007  28.376  1.00  0.00     0.029 A 
ATOM     46  C   UNL A   1      41.643  27.178  28.418  1.00  0.00     0.049 A 
ATOM     47  H   UNL A   1      43.677  27.261  27.976  1.00  0.00     0.167 HD
ATOM     48  C   UNL A   1      47.894  27.303  26.849  1.00  0.00     0.037 A 
ATOM     49  C   UNL A   1      41.259  28.422  28.762  1.00  0.00     0.037 A 
ATOM     50  C   UNL A   1      47.559  28.678  27.128  1.00  0.00     0.049 A 
ATOM     51  C   UNL A   1      42.266  29.538  28.722  1.00  0.00     0.074 A 
ATOM     52  C   UNL A   1      48.371  29.795  27.045  1.00  0.00     0.029 A 
ATOM     53  N   UNL A   1      46.317  29.121  27.558  1.00  0.00    -0.354 N 
ATOM     54  N   UNL A   1      43.523  29.504  28.352  1.00  0.00    -0.248 NA
ATOM     55  C   UNL A   1      41.800  30.868  29.141  1.00  0.00     0.031 C 
ATOM     56  C   UNL A   1      47.639  30.904  27.482  1.00  0.00     0.029 A 
ATOM     57  C   UNL A   1      46.351  30.490  27.778  1.00  0.00     0.049 A 
ATOM     58  H   UNL A   1      45.526  28.547  27.690  1.00  0.00     0.167 HD
ATOM     59  C   UNL A   1      43.992  30.805  28.475  1.00  0.00     0.074 A 
ATOM     60  C   UNL A   1      42.879  31.610  28.931  1.00  0.00     0.031 C 
ATOM     61  C   UNL A   1      45.237  31.285  28.233  1.00  0.00     0.037 A 
BRANCH  48  62
ATOM     62  C   UNL A   1      49.305  26.999  26.434  1.00  0.00     0.064 A 
ATOM     63  C   UNL A   1      50.270  26.600  27.371  1.00  0.00     0.173 A 
ATOM     64  C   UNL A   1      49.676  27.018  25.080  1.00  0.00     0.173 A 
ATOM     65  F   UNL A   1      49.969  26.568  28.679  1.00  0.00    -0.203 F 
ATOM     66  C   UNL A   1      51.556  26.245  26.971  1.00  0.00     0.198 A 
ATOM     67  C   UNL A   1      50.953  26.635  24.681  1.00  0.00     0.198 A 
ATOM     68  F   UNL A   1      48.789  27.381  24.141  1.00  0.00    -0.203 F 
ATOM     69  F   UNL A   1      52.469  25.897  27.888  1.00  0.00    -0.200 F 
ATOM     70  C   UNL A   1      51.894  26.252  25.626  1.00  0.00     0.200 A 
ATOM     71  F   UNL A   1      51.272  26.623  23.380  1.00  0.00    -0.200 F 
ATOM     72  F   UNL A   1      53.125  25.890  25.241  1.00  0.00    -0.200 F 
ENDBRANCH  48  62
BRANCH  49  73
ATOM     73  C   UNL A   1      39.843  28.677  29.132  1.00  0.00     0.064 A 
ATOM     74  C   UNL A   1      39.396  28.481  30.446  1.00  0.00     0.173 A 
ATOM     75  C   UNL A   1      38.915  29.148  28.191  1.00  0.00     0.173 A 
ATOM     76  F   UNL A   1      40.241  28.013  31.377  1.00  0.00    -0.203 F 
ATOM     77  C   UNL A   1      38.074  28.735  30.802  1.00  0.00     0.198 A 
ATOM     78  C   UNL A   1      37.602  29.432  28.555  1.00  0.00     0.198 A 
ATOM     79  F   UNL A   1      39.294  29.357  26.922  1.00  0.00    -0.203 F 
ATOM     80  F   UNL A   1      37.665  28.505  32.057  1.00  0.00    -0.200 F 
ATOM     81  C   UNL A   1      37.180  29.220  29.859  1.00  0.00     0.200 A 
ATOM     82  F   UNL A   1      36.746  29.918  27.645  1.00  0.00    -0.200 F 
ATOM     83  F   UNL A   1      35.913  29.480  30.206  1.00  0.00    -0.200 F 
ENDBRANCH  49  73
BRANCH  61  84
ATOM     84  C   UNL A   1      45.473  32.754  28.445  1.00  0.00     0.064 A 
ATOM     85  C   UNL A   1      45.208  33.692  27.436  1.00  0.00     0.173 A 
ATOM     86  C   UNL A   1      45.893  33.236  29.695  1.00  0.00     0.173 A 
ATOM     87  F   UNL A   1      44.818  33.284  26.219  1.00  0.00    -0.203 F 
ATOM     88  C   UNL A   1      45.368  35.056  27.668  1.00  0.00     0.198 A 
ATOM     89  C   UNL A   1      46.020  34.602  29.932  1.00  0.00     0.198 A 
ATOM     90  F   UNL A   1      46.153  32.382  30.697  1.00  0.00    -0.203 F 
ATOM     91  F   UNL A   1      45.144  35.931  26.678  1.00  0.00    -0.200 F 
ATOM     92  C   UNL A   1      45.761  35.510  28.918  1.00  0.00     0.200 A 
ATOM     93  F   UNL A   1      46.382  35.039  31.146  1.00  0.00    -0.200 F 
ATOM     94  F   UNL A   1      45.893  36.825  29.144  1.00  0.00    -0.200 F 
ENDBRANCH  61  84
ENDBRANCH  35  36
ENDBRANCH  28  30
ENDBRANCH  27  28
ENDBRANCH  26  27
ENDBRANCH  25  26
ENDBRANCH   1  25
TORSDOF 17
ENDMDL
