MODEL 1
REMARK VINA RESULT:     -10.7      0.000      0.000
REMARK SMILES O=C(OCCOCCOC(=O)c1ccc(NC2CC2)c(F)c1F)c1ccc(-c2c3nc(c(-c4c(F)c(F)c(F)c(F)c4F)c4ccc([nH]4)c(-c4c(F)c(F)c(F)c(F)c4F)c4nc(c(-c5c(F)c(F)c(F)c(F)c5F)c5ccc2[nH]5)C=C4)C=C3)cc1
REMARK SMILES IDX 6 1 5 2 4 3 3 4 2 5 1 6 24 7 25 8 86 9 26 10 85 11 27 12
REMARK SMILES IDX 28 13 29 14 79 15 30 16 84 17 78 18 80 19 31 20 83 21 77 22
REMARK SMILES IDX 76 23 32 25 64 26 44 27 63 28 45 29 48 30 62 31 81 32 46 33
REMARK SMILES IDX 47 34 61 36 82 37 49 38 33 39 34 40 42 41 35 42 36 43 40 44
REMARK SMILES IDX 43 45 37 46 38 47 41 48 39 49 65 50 66 51 74 52 67 53 68 54
REMARK SMILES IDX 72 55 75 56 69 57 70 58 73 59 71 60 50 61 51 62 59 63 52 64
REMARK SMILES IDX 53 65 57 66 60 67 54 68 55 69 58 70 56 71 7 72 8 73 9 74
REMARK SMILES IDX 10 75 11 76 12 77 13 78 22 79 14 80 20 81 23 82 15 83 21 84
REMARK SMILES IDX 16 85 17 87 18 88 19 89
REMARK H PARENT 80 24 48 35 16 86
REMARK Flexibility Score: inf
ROOT
ATOM      1  O   UNL A   1      32.288  29.938  26.920  1.00  0.00    -0.374 OA
ENDROOT
BRANCH   1   2
ATOM      2  C   UNL A   1      31.708  30.983  26.141  1.00  0.00     0.202 C 
BRANCH   2   3
ATOM      3  C   UNL A   1      31.428  32.269  26.921  1.00  0.00     0.261 C 
BRANCH   3   4
ATOM      4  O   UNL A   1      32.579  33.130  26.898  1.00  0.00    -0.460 OA
BRANCH   4   5
ATOM      5  C   UNL A   1      33.245  33.665  27.948  1.00  0.00     0.338 C 
ATOM      6  O   UNL A   1      32.875  34.751  28.389  1.00  0.00    -0.246 OA
BRANCH   5   7
ATOM      7  C   UNL A   1      34.415  33.011  28.610  1.00  0.00     0.060 A 
ATOM      8  C   UNL A   1      34.436  31.694  29.070  1.00  0.00     0.016 A 
ATOM      9  C   UNL A   1      35.608  33.750  28.676  1.00  0.00     0.016 A 
ATOM     10  C   UNL A   1      35.574  31.136  29.628  1.00  0.00     0.010 A 
ATOM     11  C   UNL A   1      36.776  33.184  29.198  1.00  0.00     0.010 A 
ATOM     12  C   UNL A   1      36.752  31.873  29.683  1.00  0.00    -0.014 A 
BRANCH  12  13
ATOM     13  C   UNL A   1      37.914  31.247  30.332  1.00  0.00     0.031 A 
ATOM     14  C   UNL A   1      38.137  31.498  31.787  1.00  0.00     0.074 A 
ATOM     15  C   UNL A   1      38.643  30.350  29.644  1.00  0.00     0.049 A 
ATOM     16  N   UNL A   1      39.091  31.064  32.564  1.00  0.00    -0.248 NA
ATOM     17  C   UNL A   1      37.139  32.341  32.467  1.00  0.00     0.031 C 
ATOM     18  C   UNL A   1      38.390  29.954  28.257  1.00  0.00     0.029 A 
ATOM     19  N   UNL A   1      39.709  29.579  30.023  1.00  0.00    -0.354 N 
ATOM     20  C   UNL A   1      38.824  31.600  33.815  1.00  0.00     0.074 A 
ATOM     21  C   UNL A   1      37.620  32.390  33.700  1.00  0.00     0.031 C 
ATOM     22  C   UNL A   1      39.256  28.987  27.913  1.00  0.00     0.029 A 
ATOM     23  C   UNL A   1      40.167  28.753  29.027  1.00  0.00     0.049 A 
ATOM     24  H   UNL A   1      40.107  29.616  30.922  1.00  0.00     0.167 HD
ATOM     25  C   UNL A   1      39.540  31.443  34.950  1.00  0.00     0.037 A 
ATOM     26  C   UNL A   1      41.227  27.923  29.018  1.00  0.00     0.037 A 
ATOM     27  C   UNL A   1      40.729  30.640  35.024  1.00  0.00     0.049 A 
ATOM     28  C   UNL A   1      42.060  27.839  30.267  1.00  0.00     0.074 A 
ATOM     29  C   UNL A   1      41.580  30.450  36.094  1.00  0.00     0.029 A 
ATOM     30  N   UNL A   1      41.229  29.886  33.969  1.00  0.00    -0.354 N 
ATOM     31  N   UNL A   1      41.860  28.415  31.429  1.00  0.00    -0.248 NA
ATOM     32  C   UNL A   1      43.274  27.018  30.204  1.00  0.00     0.031 C 
ATOM     33  C   UNL A   1      42.623  29.619  35.672  1.00  0.00     0.029 A 
ATOM     34  C   UNL A   1      42.393  29.247  34.354  1.00  0.00     0.049 A 
ATOM     35  H   UNL A   1      40.815  29.817  33.078  1.00  0.00     0.167 HD
ATOM     36  C   UNL A   1      42.917  28.028  32.238  1.00  0.00     0.074 A 
ATOM     37  C   UNL A   1      43.746  27.146  31.438  1.00  0.00     0.031 C 
ATOM     38  C   UNL A   1      43.186  28.375  33.521  1.00  0.00     0.037 A 
BRANCH  25  39
ATOM     39  C   UNL A   1      39.093  32.212  36.156  1.00  0.00     0.064 A 
ATOM     40  C   UNL A   1      39.556  33.521  36.364  1.00  0.00     0.173 A 
ATOM     41  C   UNL A   1      38.200  31.676  37.096  1.00  0.00     0.173 A 
ATOM     42  F   UNL A   1      40.403  34.084  35.491  1.00  0.00    -0.203 F 
ATOM     43  C   UNL A   1      39.143  34.262  37.468  1.00  0.00     0.198 A 
ATOM     44  C   UNL A   1      37.769  32.429  38.185  1.00  0.00     0.198 A 
ATOM     45  F   UNL A   1      37.704  30.440  36.928  1.00  0.00    -0.203 F 
ATOM     46  F   UNL A   1      39.606  35.507  37.648  1.00  0.00    -0.200 F 
ATOM     47  C   UNL A   1      38.245  33.719  38.373  1.00  0.00     0.200 A 
ATOM     48  F   UNL A   1      36.874  31.916  39.042  1.00  0.00    -0.200 F 
ATOM     49  F   UNL A   1      37.827  34.444  39.420  1.00  0.00    -0.200 F 
ENDBRANCH  25  39
BRANCH  26  50
ATOM     50  C   UNL A   1      41.563  27.165  27.784  1.00  0.00     0.064 A 
ATOM     51  C   UNL A   1      41.142  25.836  27.613  1.00  0.00     0.173 A 
ATOM     52  C   UNL A   1      42.346  27.730  26.770  1.00  0.00     0.173 A 
ATOM     53  F   UNL A   1      40.385  25.245  28.549  1.00  0.00    -0.203 F 
ATOM     54  C   UNL A   1      41.520  25.093  26.496  1.00  0.00     0.198 A 
ATOM     55  C   UNL A   1      42.700  26.995  25.638  1.00  0.00     0.198 A 
ATOM     56  F   UNL A   1      42.756  29.003  26.870  1.00  0.00    -0.203 F 
ATOM     57  F   UNL A   1      41.140  23.813  26.385  1.00  0.00    -0.200 F 
ATOM     58  C   UNL A   1      42.297  25.674  25.508  1.00  0.00     0.200 A 
ATOM     59  F   UNL A   1      43.431  27.567  24.671  1.00  0.00    -0.200 F 
ATOM     60  F   UNL A   1      42.655  24.963  24.430  1.00  0.00    -0.200 F 
ENDBRANCH  26  50
BRANCH  38  61
ATOM     61  C   UNL A   1      44.424  27.802  34.140  1.00  0.00     0.064 A 
ATOM     62  C   UNL A   1      44.373  26.578  34.822  1.00  0.00     0.173 A 
ATOM     63  C   UNL A   1      45.628  28.519  34.150  1.00  0.00     0.173 A 
ATOM     64  F   UNL A   1      43.237  25.865  34.846  1.00  0.00    -0.203 F 
ATOM     65  C   UNL A   1      45.479  26.103  35.516  1.00  0.00     0.198 A 
ATOM     66  C   UNL A   1      46.742  28.027  34.823  1.00  0.00     0.198 A 
ATOM     67  F   UNL A   1      45.725  29.689  33.501  1.00  0.00    -0.203 F 
ATOM     68  F   UNL A   1      45.397  24.953  36.199  1.00  0.00    -0.200 F 
ATOM     69  C   UNL A   1      46.663  26.826  35.515  1.00  0.00     0.200 A 
ATOM     70  F   UNL A   1      47.891  28.715  34.805  1.00  0.00    -0.200 F 
ATOM     71  F   UNL A   1      47.729  26.367  36.185  1.00  0.00    -0.200 F 
ENDBRANCH  38  61
ENDBRANCH  12  13
ENDBRANCH   5   7
ENDBRANCH   4   5
ENDBRANCH   3   4
ENDBRANCH   2   3
ENDBRANCH   1   2
BRANCH   1  72
ATOM     72  C   UNL A   1      33.440  29.298  26.364  1.00  0.00     0.202 C 
BRANCH  72  73
ATOM     73  C   UNL A   1      33.326  27.791  26.607  1.00  0.00     0.261 C 
BRANCH  73  74
ATOM     74  O   UNL A   1      32.035  27.365  26.147  1.00  0.00    -0.460 OA
BRANCH  74  75
ATOM     75  C   UNL A   1      32.030  26.640  24.997  1.00  0.00     0.341 C 
ATOM     76  O   UNL A   1      32.503  25.533  24.814  1.00  0.00    -0.246 OA
BRANCH  75  77
ATOM     77  C   UNL A   1      31.181  27.379  24.050  1.00  0.00     0.099 A 
ATOM     78  C   UNL A   1      31.734  28.375  23.241  1.00  0.00     0.021 A 
ATOM     79  C   UNL A   1      29.807  27.181  24.050  1.00  0.00     0.175 A 
ATOM     80  C   UNL A   1      30.907  29.185  22.460  1.00  0.00     0.030 A 
ATOM     81  C   UNL A   1      28.992  28.010  23.282  1.00  0.00     0.182 A 
ATOM     82  F   UNL A   1      29.236  26.251  24.830  1.00  0.00    -0.203 F 
ATOM     83  C   UNL A   1      29.520  29.034  22.472  1.00  0.00     0.074 A 
ATOM     84  F   UNL A   1      27.659  27.846  23.337  1.00  0.00    -0.201 F 
BRANCH  83  85
ATOM     85  N   UNL A   1      28.622  29.830  21.732  1.00  0.00    -0.380 N 
ATOM     86  H   UNL A   1      28.557  29.601  20.777  1.00  0.00     0.160 HD
BRANCH  85  87
ATOM     87  C   UNL A   1      27.776  30.940  22.155  1.00  0.00     0.079 C 
ATOM     88  C   UNL A   1      27.583  31.412  23.563  1.00  0.00     0.027 C 
ATOM     89  C   UNL A   1      28.298  32.285  22.563  1.00  0.00     0.027 C 
ENDBRANCH  85  87
ENDBRANCH  83  85
ENDBRANCH  75  77
ENDBRANCH  74  75
ENDBRANCH  73  74
ENDBRANCH  72  73
ENDBRANCH   1  72
TORSDOF 16
ENDMDL
MODEL 2
REMARK VINA RESULT:     -10.6      1.160      7.473
REMARK SMILES O=C(OCCOCCOC(=O)c1ccc(NC2CC2)c(F)c1F)c1ccc(-c2c3nc(c(-c4c(F)c(F)c(F)c(F)c4F)c4ccc([nH]4)c(-c4c(F)c(F)c(F)c(F)c4F)c4nc(c(-c5c(F)c(F)c(F)c(F)c5F)c5ccc2[nH]5)C=C4)C=C3)cc1
REMARK SMILES IDX 6 1 5 2 4 3 3 4 2 5 1 6 24 7 25 8 86 9 26 10 85 11 27 12
REMARK SMILES IDX 28 13 29 14 79 15 30 16 84 17 78 18 80 19 31 20 83 21 77 22
REMARK SMILES IDX 76 23 32 25 64 26 44 27 63 28 45 29 48 30 62 31 81 32 46 33
REMARK SMILES IDX 47 34 61 36 82 37 49 38 33 39 34 40 42 41 35 42 36 43 40 44
REMARK SMILES IDX 43 45 37 46 38 47 41 48 39 49 65 50 66 51 74 52 67 53 68 54
REMARK SMILES IDX 72 55 75 56 69 57 70 58 73 59 71 60 50 61 51 62 59 63 52 64
REMARK SMILES IDX 53 65 57 66 60 67 54 68 55 69 58 70 56 71 7 72 8 73 9 74
REMARK SMILES IDX 10 75 11 76 12 77 13 78 22 79 14 80 20 81 23 82 15 83 21 84
REMARK SMILES IDX 16 85 17 87 18 88 19 89
REMARK H PARENT 80 24 48 35 16 86
REMARK Flexibility Score: inf
ROOT
ATOM      1  O   UNL A   1      31.699  30.769  26.203  1.00  0.00    -0.374 OA
ENDROOT
BRANCH   1   2
ATOM      2  C   UNL A   1      31.411  32.041  26.780  1.00  0.00     0.202 C 
BRANCH   2   3
ATOM      3  C   UNL A   1      32.636  32.941  26.962  1.00  0.00     0.261 C 
BRANCH   3   4
ATOM      4  O   UNL A   1      32.298  34.094  27.751  1.00  0.00    -0.460 OA
BRANCH   4   5
ATOM      5  C   UNL A   1      33.032  34.688  28.721  1.00  0.00     0.338 C 
ATOM      6  O   UNL A   1      32.757  35.843  29.044  1.00  0.00    -0.246 OA
BRANCH   5   7
ATOM      7  C   UNL A   1      34.166  34.022  29.430  1.00  0.00     0.060 A 
ATOM      8  C   UNL A   1      34.028  33.006  30.376  1.00  0.00     0.016 A 
ATOM      9  C   UNL A   1      35.467  34.379  29.035  1.00  0.00     0.016 A 
ATOM     10  C   UNL A   1      35.128  32.396  30.955  1.00  0.00     0.010 A 
ATOM     11  C   UNL A   1      36.585  33.742  29.581  1.00  0.00     0.010 A 
ATOM     12  C   UNL A   1      36.410  32.752  30.553  1.00  0.00    -0.014 A 
BRANCH  12  13
ATOM     13  C   UNL A   1      37.541  32.108  31.240  1.00  0.00     0.031 A 
ATOM     14  C   UNL A   1      38.340  31.092  30.494  1.00  0.00     0.074 A 
ATOM     15  C   UNL A   1      37.915  32.562  32.449  1.00  0.00     0.049 A 
ATOM     16  N   UNL A   1      39.367  30.393  30.893  1.00  0.00    -0.248 NA
ATOM     17  C   UNL A   1      37.941  30.840  29.098  1.00  0.00     0.031 C 
ATOM     18  C   UNL A   1      37.259  33.653  33.174  1.00  0.00     0.029 A 
ATOM     19  N   UNL A   1      38.956  32.200  33.260  1.00  0.00    -0.354 N 
ATOM     20  C   UNL A   1      39.719  29.600  29.811  1.00  0.00     0.074 A 
ATOM     21  C   UNL A   1      38.803  29.902  28.736  1.00  0.00     0.031 C 
ATOM     22  C   UNL A   1      37.935  33.894  34.308  1.00  0.00     0.029 A 
ATOM     23  C   UNL A   1      39.023  32.929  34.423  1.00  0.00     0.049 A 
ATOM     24  H   UNL A   1      39.595  31.487  33.032  1.00  0.00     0.167 HD
ATOM     25  C   UNL A   1      40.721  28.696  29.742  1.00  0.00     0.037 A 
ATOM     26  C   UNL A   1      39.856  32.800  35.471  1.00  0.00     0.037 A 
ATOM     27  C   UNL A   1      41.617  28.431  30.834  1.00  0.00     0.049 A 
ATOM     28  C   UNL A   1      40.903  31.723  35.406  1.00  0.00     0.074 A 
ATOM     29  C   UNL A   1      42.630  27.496  30.915  1.00  0.00     0.029 A 
ATOM     30  N   UNL A   1      41.601  29.119  32.041  1.00  0.00    -0.354 N 
ATOM     31  N   UNL A   1      41.185  30.909  34.414  1.00  0.00    -0.248 NA
ATOM     32  C   UNL A   1      41.730  31.522  36.600  1.00  0.00     0.031 C 
ATOM     33  C   UNL A   1      43.195  27.585  32.191  1.00  0.00     0.029 A 
ATOM     34  C   UNL A   1      42.571  28.612  32.887  1.00  0.00     0.049 A 
ATOM     35  H   UNL A   1      40.988  29.857  32.263  1.00  0.00     0.167 HD
ATOM     36  C   UNL A   1      42.219  30.102  34.861  1.00  0.00     0.074 A 
ATOM     37  C   UNL A   1      42.532  30.541  36.207  1.00  0.00     0.031 C 
ATOM     38  C   UNL A   1      42.848  29.084  34.222  1.00  0.00     0.037 A 
BRANCH  25  39
ATOM     39  C   UNL A   1      40.835  27.891  28.483  1.00  0.00     0.064 A 
ATOM     40  C   UNL A   1      41.645  28.346  27.430  1.00  0.00     0.173 A 
ATOM     41  C   UNL A   1      40.168  26.669  28.314  1.00  0.00     0.173 A 
ATOM     42  F   UNL A   1      42.312  29.504  27.544  1.00  0.00    -0.203 F 
ATOM     43  C   UNL A   1      41.780  27.610  26.257  1.00  0.00     0.198 A 
ATOM     44  C   UNL A   1      40.326  25.921  27.150  1.00  0.00     0.198 A 
ATOM     45  F   UNL A   1      39.405  26.174  29.302  1.00  0.00    -0.203 F 
ATOM     46  F   UNL A   1      42.553  28.071  25.264  1.00  0.00    -0.200 F 
ATOM     47  C   UNL A   1      41.128  26.394  26.121  1.00  0.00     0.200 A 
ATOM     48  F   UNL A   1      39.722  24.730  27.031  1.00  0.00    -0.200 F 
ATOM     49  F   UNL A   1      41.280  25.673  25.001  1.00  0.00    -0.200 F 
ENDBRANCH  25  39
BRANCH  26  50
ATOM     50  C   UNL A   1      39.693  33.680  36.659  1.00  0.00     0.064 A 
ATOM     51  C   UNL A   1      38.846  33.317  37.719  1.00  0.00     0.173 A 
ATOM     52  C   UNL A   1      40.340  34.919  36.744  1.00  0.00     0.173 A 
ATOM     53  F   UNL A   1      38.206  32.138  37.694  1.00  0.00    -0.203 F 
ATOM     54  C   UNL A   1      38.626  34.171  38.797  1.00  0.00     0.198 A 
ATOM     55  C   UNL A   1      40.141  35.763  37.838  1.00  0.00     0.198 A 
ATOM     56  F   UNL A   1      41.177  35.306  35.771  1.00  0.00    -0.203 F 
ATOM     57  F   UNL A   1      37.777  33.815  39.771  1.00  0.00    -0.200 F 
ATOM     58  C   UNL A   1      39.276  35.393  38.857  1.00  0.00     0.200 A 
ATOM     59  F   UNL A   1      40.791  36.933  37.906  1.00  0.00    -0.200 F 
ATOM     60  F   UNL A   1      39.071  36.213  39.898  1.00  0.00    -0.200 F 
ENDBRANCH  26  50
BRANCH  38  61
ATOM     61  C   UNL A   1      43.936  28.376  34.969  1.00  0.00     0.064 A 
ATOM     62  C   UNL A   1      43.635  27.277  35.787  1.00  0.00     0.173 A 
ATOM     63  C   UNL A   1      45.253  28.857  34.960  1.00  0.00     0.173 A 
ATOM     64  F   UNL A   1      42.385  26.792  35.834  1.00  0.00    -0.203 F 
ATOM     65  C   UNL A   1      44.611  26.699  36.589  1.00  0.00     0.198 A 
ATOM     66  C   UNL A   1      46.234  28.257  35.744  1.00  0.00     0.198 A 
ATOM     67  F   UNL A   1      45.587  29.898  34.184  1.00  0.00    -0.203 F 
ATOM     68  F   UNL A   1      44.293  25.678  37.398  1.00  0.00    -0.200 F 
ATOM     69  C   UNL A   1      45.909  27.188  36.566  1.00  0.00     0.200 A 
ATOM     70  F   UNL A   1      47.491  28.716  35.707  1.00  0.00    -0.200 F 
ATOM     71  F   UNL A   1      46.849  26.629  37.342  1.00  0.00    -0.200 F 
ENDBRANCH  38  61
ENDBRANCH  12  13
ENDBRANCH   5   7
ENDBRANCH   4   5
ENDBRANCH   3   4
ENDBRANCH   2   3
ENDBRANCH   1   2
BRANCH   1  72
ATOM     72  C   UNL A   1      32.030  29.720  27.118  1.00  0.00     0.202 C 
BRANCH  72  73
ATOM     73  C   UNL A   1      33.031  28.780  26.440  1.00  0.00     0.261 C 
BRANCH  73  74
ATOM     74  O   UNL A   1      32.322  27.601  26.030  1.00  0.00    -0.460 OA
BRANCH  74  75
ATOM     75  C   UNL A   1      32.595  27.159  24.773  1.00  0.00     0.341 C 
ATOM     76  O   UNL A   1      33.429  26.339  24.439  1.00  0.00    -0.246 OA
BRANCH  75  77
ATOM     77  C   UNL A   1      31.558  27.735  23.902  1.00  0.00     0.099 A 
ATOM     78  C   UNL A   1      31.869  28.794  23.046  1.00  0.00     0.021 A 
ATOM     79  C   UNL A   1      30.240  27.316  24.023  1.00  0.00     0.175 A 
ATOM     80  C   UNL A   1      30.857  29.446  22.339  1.00  0.00     0.030 A 
ATOM     81  C   UNL A   1      29.238  27.989  23.328  1.00  0.00     0.182 A 
ATOM     82  F   UNL A   1      29.897  26.319  24.853  1.00  0.00    -0.203 F 
ATOM     83  C   UNL A   1      29.519  29.071  22.473  1.00  0.00     0.074 A 
ATOM     84  F   UNL A   1      27.959  27.612  23.500  1.00  0.00    -0.201 F 
BRANCH  83  85
ATOM     85  N   UNL A   1      28.444  29.699  21.812  1.00  0.00    -0.380 N 
ATOM     86  H   UNL A   1      28.178  29.279  20.963  1.00  0.00     0.160 HD
BRANCH  85  87
ATOM     87  C   UNL A   1      27.662  30.873  22.185  1.00  0.00     0.079 C 
ATOM     88  C   UNL A   1      27.706  31.574  23.508  1.00  0.00     0.027 C 
ATOM     89  C   UNL A   1      28.222  32.261  22.269  1.00  0.00     0.027 C 
ENDBRANCH  85  87
ENDBRANCH  83  85
ENDBRANCH  75  77
ENDBRANCH  74  75
ENDBRANCH  73  74
ENDBRANCH  72  73
ENDBRANCH   1  72
TORSDOF 16
ENDMDL
MODEL 3
REMARK VINA RESULT:     -10.4      4.468      7.580
REMARK SMILES O=C(OCCOCCOC(=O)c1ccc(NC2CC2)c(F)c1F)c1ccc(-c2c3nc(c(-c4c(F)c(F)c(F)c(F)c4F)c4ccc([nH]4)c(-c4c(F)c(F)c(F)c(F)c4F)c4nc(c(-c5c(F)c(F)c(F)c(F)c5F)c5ccc2[nH]5)C=C4)C=C3)cc1
REMARK SMILES IDX 6 1 5 2 4 3 3 4 2 5 1 6 24 7 25 8 86 9 26 10 85 11 27 12
REMARK SMILES IDX 28 13 29 14 79 15 30 16 84 17 78 18 80 19 31 20 83 21 77 22
REMARK SMILES IDX 76 23 32 25 64 26 44 27 63 28 45 29 48 30 62 31 81 32 46 33
REMARK SMILES IDX 47 34 61 36 82 37 49 38 33 39 34 40 42 41 35 42 36 43 40 44
REMARK SMILES IDX 43 45 37 46 38 47 41 48 39 49 65 50 66 51 74 52 67 53 68 54
REMARK SMILES IDX 72 55 75 56 69 57 70 58 73 59 71 60 50 61 51 62 59 63 52 64
REMARK SMILES IDX 53 65 57 66 60 67 54 68 55 69 58 70 56 71 7 72 8 73 9 74
REMARK SMILES IDX 10 75 11 76 12 77 13 78 22 79 14 80 20 81 23 82 15 83 21 84
REMARK SMILES IDX 16 85 17 87 18 88 19 89
REMARK H PARENT 80 24 48 35 16 86
REMARK Flexibility Score: inf
ROOT
ATOM      1  O   UNL A   1      32.890  34.939  32.549  1.00  0.00    -0.374 OA
ENDROOT
BRANCH   1   2
ATOM      2  C   UNL A   1      33.348  36.188  32.035  1.00  0.00     0.202 C 
BRANCH   2   3
ATOM      3  C   UNL A   1      33.041  36.408  30.552  1.00  0.00     0.261 C 
BRANCH   3   4
ATOM      4  O   UNL A   1      32.612  35.180  29.941  1.00  0.00    -0.460 OA
BRANCH   4   5
ATOM      5  C   UNL A   1      33.279  34.412  29.048  1.00  0.00     0.338 C 
ATOM      6  O   UNL A   1      32.739  34.153  27.974  1.00  0.00    -0.246 OA
BRANCH   5   7
ATOM      7  C   UNL A   1      34.643  33.852  29.290  1.00  0.00     0.060 A 
ATOM      8  C   UNL A   1      35.810  34.300  28.669  1.00  0.00     0.016 A 
ATOM      9  C   UNL A   1      34.767  32.874  30.292  1.00  0.00     0.016 A 
ATOM     10  C   UNL A   1      37.050  33.769  28.980  1.00  0.00     0.010 A 
ATOM     11  C   UNL A   1      36.018  32.361  30.646  1.00  0.00     0.010 A 
ATOM     12  C   UNL A   1      37.162  32.806  29.977  1.00  0.00    -0.014 A 
BRANCH  12  13
ATOM     13  C   UNL A   1      38.498  32.242  30.229  1.00  0.00     0.031 A 
ATOM     14  C   UNL A   1      39.391  32.938  31.203  1.00  0.00     0.074 A 
ATOM     15  C   UNL A   1      38.811  31.045  29.704  1.00  0.00     0.049 A 
ATOM     16  N   UNL A   1      40.603  32.633  31.575  1.00  0.00    -0.248 NA
ATOM     17  C   UNL A   1      38.837  34.132  31.863  1.00  0.00     0.031 C 
ATOM     18  C   UNL A   1      37.925  30.245  28.855  1.00  0.00     0.029 A 
ATOM     19  N   UNL A   1      39.933  30.272  29.837  1.00  0.00    -0.354 N 
ATOM     20  C   UNL A   1      40.967  33.609  32.490  1.00  0.00     0.074 A 
ATOM     21  C   UNL A   1      39.851  34.517  32.622  1.00  0.00     0.031 C 
ATOM     22  C   UNL A   1      38.525  29.078  28.572  1.00  0.00     0.029 A 
ATOM     23  C   UNL A   1      39.861  29.082  29.156  1.00  0.00     0.049 A 
ATOM     24  H   UNL A   1      40.714  30.545  30.370  1.00  0.00     0.167 HD
ATOM     25  C   UNL A   1      42.142  33.727  33.148  1.00  0.00     0.037 A 
ATOM     26  C   UNL A   1      40.791  28.121  29.004  1.00  0.00     0.037 A 
ATOM     27  C   UNL A   1      43.225  32.796  32.993  1.00  0.00     0.049 A 
ATOM     28  C   UNL A   1      42.123  28.324  29.672  1.00  0.00     0.074 A 
ATOM     29  C   UNL A   1      44.488  32.838  33.552  1.00  0.00     0.029 A 
ATOM     30  N   UNL A   1      43.161  31.645  32.218  1.00  0.00    -0.354 N 
ATOM     31  N   UNL A   1      42.503  29.294  30.471  1.00  0.00    -0.248 NA
ATOM     32  C   UNL A   1      43.163  27.325  29.405  1.00  0.00     0.031 C 
ATOM     33  C   UNL A   1      45.204  31.735  33.074  1.00  0.00     0.029 A 
ATOM     34  C   UNL A   1      44.371  30.977  32.262  1.00  0.00     0.049 A 
ATOM     35  H   UNL A   1      42.371  31.348  31.712  1.00  0.00     0.167 HD
ATOM     36  C   UNL A   1      43.821  29.025  30.804  1.00  0.00     0.074 A 
ATOM     37  C   UNL A   1      44.169  27.784  30.138  1.00  0.00     0.031 C 
ATOM     38  C   UNL A   1      44.671  29.741  31.581  1.00  0.00     0.037 A 
BRANCH  25  39
ATOM     39  C   UNL A   1      42.325  34.936  34.015  1.00  0.00     0.064 A 
ATOM     40  C   UNL A   1      42.028  34.866  35.385  1.00  0.00     0.173 A 
ATOM     41  C   UNL A   1      42.808  36.151  33.510  1.00  0.00     0.173 A 
ATOM     42  F   UNL A   1      41.572  33.724  35.921  1.00  0.00    -0.203 F 
ATOM     43  C   UNL A   1      42.205  35.970  36.216  1.00  0.00     0.198 A 
ATOM     44  C   UNL A   1      43.009  37.246  34.348  1.00  0.00     0.198 A 
ATOM     45  F   UNL A   1      43.136  36.262  32.213  1.00  0.00    -0.203 F 
ATOM     46  F   UNL A   1      41.906  35.880  37.519  1.00  0.00    -0.200 F 
ATOM     47  C   UNL A   1      42.703  37.155  35.699  1.00  0.00     0.200 A 
ATOM     48  F   UNL A   1      43.522  38.382  33.855  1.00  0.00    -0.200 F 
ATOM     49  F   UNL A   1      42.899  38.208  36.504  1.00  0.00    -0.200 F 
ENDBRANCH  25  39
BRANCH  26  50
ATOM     50  C   UNL A   1      40.497  26.933  28.159  1.00  0.00     0.064 A 
ATOM     51  C   UNL A   1      41.098  26.772  26.900  1.00  0.00     0.173 A 
ATOM     52  C   UNL A   1      39.579  25.957  28.567  1.00  0.00     0.173 A 
ATOM     53  F   UNL A   1      41.990  27.674  26.460  1.00  0.00    -0.203 F 
ATOM     54  C   UNL A   1      40.767  25.704  26.069  1.00  0.00     0.198 A 
ATOM     55  C   UNL A   1      39.269  24.872  27.746  1.00  0.00     0.198 A 
ATOM     56  F   UNL A   1      38.993  26.049  29.769  1.00  0.00    -0.203 F 
ATOM     57  F   UNL A   1      41.324  25.604  24.854  1.00  0.00    -0.200 F 
ATOM     58  C   UNL A   1      39.854  24.753  26.494  1.00  0.00     0.200 A 
ATOM     59  F   UNL A   1      38.405  23.939  28.170  1.00  0.00    -0.200 F 
ATOM     60  F   UNL A   1      39.540  23.720  25.699  1.00  0.00    -0.200 F 
ENDBRANCH  26  50
BRANCH  38  61
ATOM     61  C   UNL A   1      46.058  29.201  31.754  1.00  0.00     0.064 A 
ATOM     62  C   UNL A   1      46.368  28.384  32.851  1.00  0.00     0.173 A 
ATOM     63  C   UNL A   1      47.098  29.585  30.896  1.00  0.00     0.173 A 
ATOM     64  F   UNL A   1      45.404  28.003  33.703  1.00  0.00    -0.203 F 
ATOM     65  C   UNL A   1      47.677  27.990  33.098  1.00  0.00     0.198 A 
ATOM     66  C   UNL A   1      48.404  29.165  31.131  1.00  0.00     0.198 A 
ATOM     67  F   UNL A   1      46.844  30.356  29.828  1.00  0.00    -0.203 F 
ATOM     68  F   UNL A   1      47.960  27.247  34.177  1.00  0.00    -0.200 F 
ATOM     69  C   UNL A   1      48.694  28.380  32.237  1.00  0.00     0.200 A 
ATOM     70  F   UNL A   1      49.382  29.524  30.289  1.00  0.00    -0.200 F 
ATOM     71  F   UNL A   1      49.957  28.000  32.477  1.00  0.00    -0.200 F 
ENDBRANCH  38  61
ENDBRANCH  12  13
ENDBRANCH   5   7
ENDBRANCH   4   5
ENDBRANCH   3   4
ENDBRANCH   2   3
ENDBRANCH   1   2
BRANCH   1  72
ATOM     72  C   UNL A   1      33.852  34.158  33.264  1.00  0.00     0.202 C 
BRANCH  72  73
ATOM     73  C   UNL A   1      34.937  35.094  33.802  1.00  0.00     0.261 C 
BRANCH  73  74
ATOM     74  O   UNL A   1      36.166  34.354  33.869  1.00  0.00    -0.460 OA
BRANCH  74  75
ATOM     75  C   UNL A   1      36.404  33.715  35.047  1.00  0.00     0.341 C 
ATOM     76  O   UNL A   1      35.852  33.899  36.116  1.00  0.00    -0.246 OA
BRANCH  75  77
ATOM     77  C   UNL A   1      37.341  32.624  34.738  1.00  0.00     0.099 A 
ATOM     78  C   UNL A   1      37.033  31.694  33.743  1.00  0.00     0.021 A 
ATOM     79  C   UNL A   1      38.473  32.440  35.521  1.00  0.00     0.175 A 
ATOM     80  C   UNL A   1      37.840  30.570  33.557  1.00  0.00     0.030 A 
ATOM     81  C   UNL A   1      39.258  31.304  35.339  1.00  0.00     0.182 A 
ATOM     82  F   UNL A   1      38.790  33.298  36.502  1.00  0.00    -0.203 F 
ATOM     83  C   UNL A   1      38.961  30.340  34.357  1.00  0.00     0.074 A 
ATOM     84  F   UNL A   1      40.317  31.108  36.143  1.00  0.00    -0.201 F 
BRANCH  83  85
ATOM     85  N   UNL A   1      39.806  29.217  34.245  1.00  0.00    -0.380 N 
ATOM     86  H   UNL A   1      39.408  28.369  34.549  1.00  0.00     0.160 HD
BRANCH  85  87
ATOM     87  C   UNL A   1      41.174  29.110  33.753  1.00  0.00     0.079 C 
ATOM     88  C   UNL A   1      42.409  29.041  34.598  1.00  0.00     0.027 C 
ATOM     89  C   UNL A   1      41.980  27.846  33.785  1.00  0.00     0.027 C 
ENDBRANCH  85  87
ENDBRANCH  83  85
ENDBRANCH  75  77
ENDBRANCH  74  75
ENDBRANCH  73  74
ENDBRANCH  72  73
ENDBRANCH   1  72
TORSDOF 16
ENDMDL
