MODEL 1
REMARK VINA RESULT:     -12.4      0.000      0.000
REMARK SMILES CC(C)(C)c1ccc(C(=O)N/C(=C/c2ccc(O)cc2)C(=O)OCCOCCOC(=O)c2ccc(-c3c4nc(c(-c5c(F)c(F)c(F)c(F)c5F)c5ccc([nH]5)c(-c5c(F)c(F)c(F)c(F)c5F)c5nc(c(-c6c(F)c(F)c(F)c(F)c6F)c6ccc3[nH]6)C=C5)C=C4)cc2)cc1
REMARK SMILES IDX 25 1 24 2 23 3 21 4 22 5 12 6 13 7 11 8 9 9 10 10 8 12 5 13
REMARK SMILES IDX 6 14 96 15 7 16 95 17 2 18 1 19 3 20 4 21 14 22 15 23 20 24
REMARK SMILES IDX 16 25 19 26 17 27 18 28 26 30 27 31 28 32 29 33 30 34 31 35
REMARK SMILES IDX 32 36 33 37 94 38 34 39 93 40 35 41 36 42 37 43 87 44 38 45
REMARK SMILES IDX 92 46 86 47 88 48 39 49 91 50 85 51 84 52 40 54 72 55 52 56
REMARK SMILES IDX 71 57 53 58 56 59 70 60 89 61 54 62 55 63 69 65 90 66 57 67
REMARK SMILES IDX 41 68 42 69 50 70 43 71 44 72 48 73 51 74 45 75 46 76 49 77
REMARK SMILES IDX 47 78 73 79 74 80 82 81 75 82 76 83 80 84 83 85 77 86 78 87
REMARK SMILES IDX 81 88 79 89 58 90 59 91 67 92 60 93 61 94 65 95 68 96 62 97
REMARK SMILES IDX 63 98 66 99 64 100
REMARK H PARENT 11 11 18 29 88 53 56 64
REMARK Flexibility Score: inf
ROOT
ATOM      1  C   UNL A   1      33.748  27.925  24.912  1.00  0.00     0.202 C 
ENDROOT
BRANCH   1   2
ATOM      2  C   UNL A   1      33.493  26.976  26.067  1.00  0.00     0.261 C 
BRANCH   2   3
ATOM      3  O   UNL A   1      32.351  26.227  25.685  1.00  0.00    -0.459 OA
BRANCH   3   4
ATOM      4  C   UNL A   1      31.182  26.554  26.249  1.00  0.00     0.354 C 
ATOM      5  O   UNL A   1      30.971  27.431  27.069  1.00  0.00    -0.244 OA
BRANCH   4   6
ATOM      6  C   UNL A   1      30.183  25.583  25.745  1.00  0.00     0.128 C 
ATOM      7  C   UNL A   1      29.615  25.878  24.549  1.00  0.00     0.042 C 
BRANCH   6   8
ATOM      8  N   UNL A   1      29.790  24.471  26.476  1.00  0.00    -0.316 N 
ATOM      9  C   UNL A   1      30.327  23.223  26.784  1.00  0.00     0.255 C 
ATOM     10  O   UNL A   1      29.669  22.511  27.548  1.00  0.00    -0.269 OA
ATOM     11  H   UNL A   1      28.901  24.596  26.882  1.00  0.00     0.170 HD
BRANCH   9  12
ATOM     12  C   UNL A   1      31.684  22.737  26.410  1.00  0.00     0.040 A 
ATOM     13  C   UNL A   1      34.367  22.120  25.622  1.00  0.00    -0.043 A 
ATOM     14  C   UNL A   1      34.096  22.778  26.832  1.00  0.00     0.005 A 
ATOM     15  C   UNL A   1      33.249  21.637  24.921  1.00  0.00     0.005 A 
ATOM     16  C   UNL A   1      32.776  23.083  27.220  1.00  0.00     0.014 A 
ATOM     17  C   UNL A   1      31.931  21.896  25.340  1.00  0.00     0.014 A 
BRANCH  13  18
ATOM     18  C   UNL A   1      35.794  21.967  25.046  1.00  0.00    -0.013 C 
ATOM     19  C   UNL A   1      35.954  22.532  23.618  1.00  0.00     0.016 C 
ATOM     20  C   UNL A   1      36.170  20.471  24.974  1.00  0.00     0.016 C 
ATOM     21  C   UNL A   1      36.845  22.663  25.938  1.00  0.00     0.016 C 
ENDBRANCH  13  18
ENDBRANCH   9  12
ENDBRANCH   6   8
BRANCH   7  22
ATOM     22  C   UNL A   1      29.791  27.153  23.796  1.00  0.00    -0.023 A 
ATOM     23  C   UNL A   1      30.863  27.263  22.897  1.00  0.00     0.012 A 
ATOM     24  C   UNL A   1      28.872  28.214  23.859  1.00  0.00     0.012 A 
ATOM     25  C   UNL A   1      30.948  28.350  22.017  1.00  0.00     0.047 A 
ATOM     26  C   UNL A   1      28.930  29.278  22.950  1.00  0.00     0.047 A 
ATOM     27  C   UNL A   1      29.960  29.325  22.021  1.00  0.00     0.115 A 
BRANCH  27  28
ATOM     28  O   UNL A   1      30.036  30.310  21.083  1.00  0.00    -0.508 OA
ATOM     29  H   UNL A   1      29.608  30.205  20.257  1.00  0.00     0.293 HD
ENDBRANCH  27  28
ENDBRANCH   7  22
ENDBRANCH   4   6
ENDBRANCH   3   4
ENDBRANCH   2   3
ENDBRANCH   1   2
BRANCH   1  30
ATOM     30  O   UNL A   1      33.541  29.317  25.161  1.00  0.00    -0.374 OA
BRANCH  30  31
ATOM     31  C   UNL A   1      32.209  29.830  25.114  1.00  0.00     0.202 C 
BRANCH  31  32
ATOM     32  C   UNL A   1      31.808  30.847  26.189  1.00  0.00     0.261 C 
BRANCH  32  33
ATOM     33  O   UNL A   1      32.654  30.820  27.341  1.00  0.00    -0.460 OA
BRANCH  33  34
ATOM     34  C   UNL A   1      33.387  31.952  27.512  1.00  0.00     0.338 C 
ATOM     35  O   UNL A   1      33.011  33.102  27.428  1.00  0.00    -0.246 OA
BRANCH  34  36
ATOM     36  C   UNL A   1      34.710  31.571  28.050  1.00  0.00     0.060 A 
ATOM     37  C   UNL A   1      34.907  30.225  28.396  1.00  0.00     0.016 A 
ATOM     38  C   UNL A   1      35.742  32.499  28.177  1.00  0.00     0.016 A 
ATOM     39  C   UNL A   1      36.134  29.808  28.903  1.00  0.00     0.010 A 
ATOM     40  C   UNL A   1      36.961  32.087  28.711  1.00  0.00     0.010 A 
ATOM     41  C   UNL A   1      37.148  30.750  29.106  1.00  0.00    -0.014 A 
BRANCH  41  42
ATOM     42  C   UNL A   1      38.329  30.394  29.921  1.00  0.00     0.031 A 
ATOM     43  C   UNL A   1      39.301  29.400  29.352  1.00  0.00     0.074 A 
ATOM     44  C   UNL A   1      38.527  30.934  31.134  1.00  0.00     0.049 A 
ATOM     45  N   UNL A   1      40.344  28.842  29.908  1.00  0.00    -0.248 NA
ATOM     46  C   UNL A   1      39.058  28.977  27.962  1.00  0.00     0.031 C 
ATOM     47  C   UNL A   1      37.686  31.957  31.753  1.00  0.00     0.029 A 
ATOM     48  N   UNL A   1      39.496  30.678  32.069  1.00  0.00    -0.354 N 
ATOM     49  C   UNL A   1      40.873  27.996  28.942  1.00  0.00     0.074 A 
ATOM     50  C   UNL A   1      40.024  28.091  27.776  1.00  0.00     0.031 C 
ATOM     51  C   UNL A   1      38.159  32.218  32.985  1.00  0.00     0.029 A 
ATOM     52  C   UNL A   1      39.308  31.353  33.250  1.00  0.00     0.049 A 
ATOM     53  H   UNL A   1      40.253  30.069  31.911  1.00  0.00     0.167 HD
ATOM     54  C   UNL A   1      41.975  27.215  29.023  1.00  0.00     0.037 A 
ATOM     55  C   UNL A   1      39.973  31.250  34.417  1.00  0.00     0.037 A 
ATOM     56  C   UNL A   1      42.807  27.122  30.193  1.00  0.00     0.049 A 
ATOM     57  C   UNL A   1      41.138  30.296  34.515  1.00  0.00     0.074 A 
ATOM     58  C   UNL A   1      43.956  26.375  30.379  1.00  0.00     0.029 A 
ATOM     59  N   UNL A   1      42.567  27.793  31.384  1.00  0.00    -0.354 N 
ATOM     60  N   UNL A   1      41.653  29.515  33.596  1.00  0.00    -0.248 NA
ATOM     61  C   UNL A   1      41.817  30.212  35.817  1.00  0.00     0.031 C 
ATOM     62  C   UNL A   1      44.375  26.544  31.702  1.00  0.00     0.029 A 
ATOM     63  C   UNL A   1      43.527  27.450  32.321  1.00  0.00     0.049 A 
ATOM     64  H   UNL A   1      41.824  28.419  31.539  1.00  0.00     0.167 HD
ATOM     65  C   UNL A   1      42.731  28.874  34.193  1.00  0.00     0.074 A 
ATOM     66  C   UNL A   1      42.806  29.370  35.552  1.00  0.00     0.031 C 
ATOM     67  C   UNL A   1      43.586  27.960  33.668  1.00  0.00     0.037 A 
BRANCH  54  68
ATOM     68  C   UNL A   1      42.319  26.374  27.828  1.00  0.00     0.064 A 
ATOM     69  C   UNL A   1      43.279  26.779  26.888  1.00  0.00     0.173 A 
ATOM     70  C   UNL A   1      41.695  25.132  27.634  1.00  0.00     0.173 A 
ATOM     71  F   UNL A   1      43.892  27.965  27.016  1.00  0.00    -0.203 F 
ATOM     72  C   UNL A   1      43.581  25.985  25.784  1.00  0.00     0.198 A 
ATOM     73  C   UNL A   1      42.024  24.325  26.548  1.00  0.00     0.198 A 
ATOM     74  F   UNL A   1      40.770  24.696  28.503  1.00  0.00    -0.203 F 
ATOM     75  F   UNL A   1      44.463  26.416  24.871  1.00  0.00    -0.200 F 
ATOM     76  C   UNL A   1      42.960  24.755  25.620  1.00  0.00     0.200 A 
ATOM     77  F   UNL A   1      41.432  23.133  26.397  1.00  0.00    -0.200 F 
ATOM     78  F   UNL A   1      43.258  23.988  24.563  1.00  0.00    -0.200 F 
ENDBRANCH  54  68
BRANCH  55  79
ATOM     79  C   UNL A   1      39.542  32.050  35.594  1.00  0.00     0.064 A 
ATOM     80  C   UNL A   1      38.581  31.561  36.490  1.00  0.00     0.173 A 
ATOM     81  C   UNL A   1      40.065  33.329  35.837  1.00  0.00     0.173 A 
ATOM     82  F   UNL A   1      38.035  30.351  36.290  1.00  0.00    -0.203 F 
ATOM     83  C   UNL A   1      38.142  32.328  37.567  1.00  0.00     0.198 A 
ATOM     84  C   UNL A   1      39.648  34.083  36.932  1.00  0.00     0.198 A 
ATOM     85  F   UNL A   1      40.993  33.843  35.016  1.00  0.00    -0.203 F 
ATOM     86  F   UNL A   1      37.187  31.855  38.378  1.00  0.00    -0.200 F 
ATOM     87  C   UNL A   1      38.680  33.586  37.790  1.00  0.00     0.200 A 
ATOM     88  F   UNL A   1      40.185  35.291  37.153  1.00  0.00    -0.200 F 
ATOM     89  F   UNL A   1      38.261  34.322  38.829  1.00  0.00    -0.200 F 
ENDBRANCH  55  79
BRANCH  67  90
ATOM     90  C   UNL A   1      44.697  27.466  34.550  1.00  0.00     0.064 A 
ATOM     91  C   UNL A   1      44.567  26.303  35.324  1.00  0.00     0.173 A 
ATOM     92  C   UNL A   1      45.927  28.144  34.588  1.00  0.00     0.173 A 
ATOM     93  F   UNL A   1      43.409  25.626  35.335  1.00  0.00    -0.203 F 
ATOM     94  C   UNL A   1      45.614  25.856  36.126  1.00  0.00     0.198 A 
ATOM     95  C   UNL A   1      46.983  27.673  35.363  1.00  0.00     0.198 A 
ATOM     96  F   UNL A   1      46.109  29.256  33.861  1.00  0.00    -0.203 F 
ATOM     97  F   UNL A   1      45.448  24.774  36.899  1.00  0.00    -0.200 F 
ATOM     98  C   UNL A   1      46.823  26.535  36.138  1.00  0.00     0.200 A 
ATOM     99  F   UNL A   1      48.156  28.321  35.358  1.00  0.00    -0.200 F 
ATOM    100  F   UNL A   1      47.832  26.097  36.903  1.00  0.00    -0.200 F 
ENDBRANCH  67  90
ENDBRANCH  41  42
ENDBRANCH  34  36
ENDBRANCH  33  34
ENDBRANCH  32  33
ENDBRANCH  31  32
ENDBRANCH  30  31
ENDBRANCH   1  30
TORSDOF 19
ENDMDL
MODEL 2
REMARK VINA RESULT:     -11.9      0.614      7.171
REMARK SMILES CC(C)(C)c1ccc(C(=O)N/C(=C/c2ccc(O)cc2)C(=O)OCCOCCOC(=O)c2ccc(-c3c4nc(c(-c5c(F)c(F)c(F)c(F)c5F)c5ccc([nH]5)c(-c5c(F)c(F)c(F)c(F)c5F)c5nc(c(-c6c(F)c(F)c(F)c(F)c6F)c6ccc3[nH]6)C=C5)C=C4)cc2)cc1
REMARK SMILES IDX 25 1 24 2 23 3 21 4 22 5 12 6 13 7 11 8 9 9 10 10 8 12 5 13
REMARK SMILES IDX 6 14 96 15 7 16 95 17 2 18 1 19 3 20 4 21 14 22 15 23 20 24
REMARK SMILES IDX 16 25 19 26 17 27 18 28 26 30 27 31 28 32 29 33 30 34 31 35
REMARK SMILES IDX 32 36 33 37 94 38 34 39 93 40 35 41 36 42 37 43 87 44 38 45
REMARK SMILES IDX 92 46 86 47 88 48 39 49 91 50 85 51 84 52 40 54 72 55 52 56
REMARK SMILES IDX 71 57 53 58 56 59 70 60 89 61 54 62 55 63 69 65 90 66 57 67
REMARK SMILES IDX 41 68 42 69 50 70 43 71 44 72 48 73 51 74 45 75 46 76 49 77
REMARK SMILES IDX 47 78 73 79 74 80 82 81 75 82 76 83 80 84 83 85 77 86 78 87
REMARK SMILES IDX 81 88 79 89 58 90 59 91 67 92 60 93 61 94 65 95 68 96 62 97
REMARK SMILES IDX 63 98 66 99 64 100
REMARK H PARENT 11 11 18 29 88 53 56 64
REMARK Flexibility Score: inf
ROOT
ATOM      1  C   UNL A   1      33.746  28.497  25.106  1.00  0.00     0.202 C 
ENDROOT
BRANCH   1   2
ATOM      2  C   UNL A   1      33.290  27.698  26.311  1.00  0.00     0.261 C 
BRANCH   2   3
ATOM      3  O   UNL A   1      32.421  26.707  25.790  1.00  0.00    -0.459 OA
BRANCH   3   4
ATOM      4  C   UNL A   1      31.170  26.671  26.264  1.00  0.00     0.354 C 
ATOM      5  O   UNL A   1      30.652  27.442  27.054  1.00  0.00    -0.244 OA
BRANCH   4   6
ATOM      6  C   UNL A   1      30.540  25.451  25.706  1.00  0.00     0.128 C 
ATOM      7  C   UNL A   1      30.149  25.524  24.409  1.00  0.00     0.042 C 
BRANCH   6   8
ATOM      8  N   UNL A   1      30.295  24.321  26.473  1.00  0.00    -0.316 N 
ATOM      9  C   UNL A   1      30.957  23.129  26.755  1.00  0.00     0.255 C 
ATOM     10  O   UNL A   1      30.415  22.375  27.570  1.00  0.00    -0.269 OA
ATOM     11  H   UNL A   1      29.428  24.376  26.937  1.00  0.00     0.170 HD
BRANCH   9  12
ATOM     12  C   UNL A   1      32.323  22.755  26.294  1.00  0.00     0.040 A 
ATOM     13  C   UNL A   1      35.020  22.361  25.416  1.00  0.00    -0.043 A 
ATOM     14  C   UNL A   1      34.730  22.713  26.744  1.00  0.00     0.005 A 
ATOM     15  C   UNL A   1      33.914  22.050  24.607  1.00  0.00     0.005 A 
ATOM     16  C   UNL A   1      33.402  22.908  27.177  1.00  0.00     0.014 A 
ATOM     17  C   UNL A   1      32.589  22.192  25.059  1.00  0.00     0.014 A 
BRANCH  13  18
ATOM     18  C   UNL A   1      36.454  22.359  24.840  1.00  0.00    -0.013 C 
ATOM     19  C   UNL A   1      36.529  22.779  23.355  1.00  0.00     0.016 C 
ATOM     20  C   UNL A   1      37.049  20.937  24.927  1.00  0.00     0.016 C 
ATOM     21  C   UNL A   1      37.388  23.299  25.632  1.00  0.00     0.016 C 
ENDBRANCH  13  18
ENDBRANCH   9  12
ENDBRANCH   6   8
BRANCH   7  22
ATOM     22  C   UNL A   1      30.153  26.754  23.568  1.00  0.00    -0.023 A 
ATOM     23  C   UNL A   1      29.045  27.613  23.624  1.00  0.00     0.012 A 
ATOM     24  C   UNL A   1      31.259  27.156  22.801  1.00  0.00     0.012 A 
ATOM     25  C   UNL A   1      29.089  28.877  23.022  1.00  0.00     0.047 A 
ATOM     26  C   UNL A   1      31.324  28.436  22.237  1.00  0.00     0.047 A 
ATOM     27  C   UNL A   1      30.242  29.295  22.370  1.00  0.00     0.115 A 
BRANCH  27  28
ATOM     28  O   UNL A   1      30.271  30.567  21.883  1.00  0.00    -0.508 OA
ATOM     29  H   UNL A   1      30.232  31.295  22.471  1.00  0.00     0.293 HD
ENDBRANCH  27  28
ENDBRANCH   7  22
ENDBRANCH   4   6
ENDBRANCH   3   4
ENDBRANCH   2   3
ENDBRANCH   1   2
BRANCH   1  30
ATOM     30  O   UNL A   1      33.064  29.727  24.850  1.00  0.00    -0.374 OA
BRANCH  30  31
ATOM     31  C   UNL A   1      31.909  30.045  25.628  1.00  0.00     0.202 C 
BRANCH  31  32
ATOM     32  C   UNL A   1      31.962  31.319  26.480  1.00  0.00     0.261 C 
BRANCH  32  33
ATOM     33  O   UNL A   1      32.862  31.225  27.587  1.00  0.00    -0.460 OA
BRANCH  33  34
ATOM     34  C   UNL A   1      33.810  32.199  27.610  1.00  0.00     0.338 C 
ATOM     35  O   UNL A   1      33.657  33.390  27.438  1.00  0.00    -0.246 OA
BRANCH  34  36
ATOM     36  C   UNL A   1      35.070  31.607  28.106  1.00  0.00     0.060 A 
ATOM     37  C   UNL A   1      35.083  30.227  28.364  1.00  0.00     0.016 A 
ATOM     38  C   UNL A   1      36.220  32.377  28.279  1.00  0.00     0.016 A 
ATOM     39  C   UNL A   1      36.243  29.615  28.829  1.00  0.00     0.010 A 
ATOM     40  C   UNL A   1      37.373  31.769  28.772  1.00  0.00     0.010 A 
ATOM     41  C   UNL A   1      37.377  30.396  29.079  1.00  0.00    -0.014 A 
BRANCH  41  42
ATOM     42  C   UNL A   1      38.501  29.831  29.857  1.00  0.00     0.031 A 
ATOM     43  C   UNL A   1      38.716  30.343  31.252  1.00  0.00     0.074 A 
ATOM     44  C   UNL A   1      39.310  28.897  29.333  1.00  0.00     0.049 A 
ATOM     45  N   UNL A   1      39.688  30.095  32.090  1.00  0.00    -0.248 NA
ATOM     46  C   UNL A   1      37.690  31.263  31.772  1.00  0.00     0.031 C 
ATOM     47  C   UNL A   1      39.153  28.281  28.017  1.00  0.00     0.029 A 
ATOM     48  N   UNL A   1      40.441  28.316  29.847  1.00  0.00    -0.354 N 
ATOM     49  C   UNL A   1      39.397  30.836  33.228  1.00  0.00     0.074 A 
ATOM     50  C   UNL A   1      38.176  31.564  32.966  1.00  0.00     0.031 C 
ATOM     51  C   UNL A   1      40.174  27.430  27.812  1.00  0.00     0.029 A 
ATOM     52  C   UNL A   1      41.072  27.474  28.966  1.00  0.00     0.049 A 
ATOM     53  H   UNL A   1      40.769  28.487  30.759  1.00  0.00     0.167 HD
ATOM     54  C   UNL A   1      40.088  30.896  34.390  1.00  0.00     0.037 A 
ATOM     55  C   UNL A   1      42.257  26.843  29.075  1.00  0.00     0.037 A 
ATOM     56  C   UNL A   1      41.307  30.174  34.635  1.00  0.00     0.049 A 
ATOM     57  C   UNL A   1      43.060  27.006  30.342  1.00  0.00     0.074 A 
ATOM     58  C   UNL A   1      42.081  30.149  35.781  1.00  0.00     0.029 A 
ATOM     59  N   UNL A   1      41.938  29.357  33.707  1.00  0.00    -0.354 N 
ATOM     60  N   UNL A   1      42.774  27.687  31.426  1.00  0.00    -0.248 NA
ATOM     61  C   UNL A   1      44.353  26.308  30.400  1.00  0.00     0.031 C 
ATOM     62  C   UNL A   1      43.213  29.368  35.525  1.00  0.00     0.029 A 
ATOM     63  C   UNL A   1      43.110  28.850  34.243  1.00  0.00     0.049 A 
ATOM     64  H   UNL A   1      41.601  29.166  32.802  1.00  0.00     0.167 HD
ATOM     65  C   UNL A   1      43.829  27.474  32.305  1.00  0.00     0.074 A 
ATOM     66  C   UNL A   1      44.756  26.588  31.632  1.00  0.00     0.031 C 
ATOM     67  C   UNL A   1      44.017  27.964  33.556  1.00  0.00     0.037 A 
BRANCH  54  68
ATOM     68  C   UNL A   1      39.560  31.801  35.465  1.00  0.00     0.064 A 
ATOM     69  C   UNL A   1      38.634  31.355  36.421  1.00  0.00     0.173 A 
ATOM     70  C   UNL A   1      40.005  33.129  35.555  1.00  0.00     0.173 A 
ATOM     71  F   UNL A   1      38.162  30.100  36.370  1.00  0.00    -0.203 F 
ATOM     72  C   UNL A   1      38.154  32.211  37.409  1.00  0.00     0.198 A 
ATOM     73  C   UNL A   1      39.549  33.973  36.564  1.00  0.00     0.198 A 
ATOM     74  F   UNL A   1      40.890  33.607  34.667  1.00  0.00    -0.203 F 
ATOM     75  F   UNL A   1      37.231  31.778  38.279  1.00  0.00    -0.200 F 
ATOM     76  C   UNL A   1      38.619  33.517  37.485  1.00  0.00     0.200 A 
ATOM     77  F   UNL A   1      40.008  35.229  36.643  1.00  0.00    -0.200 F 
ATOM     78  F   UNL A   1      38.163  34.337  38.441  1.00  0.00    -0.200 F 
ENDBRANCH  54  68
BRANCH  55  79
ATOM     79  C   UNL A   1      42.770  26.020  27.948  1.00  0.00     0.064 A 
ATOM     80  C   UNL A   1      43.619  26.571  26.977  1.00  0.00     0.173 A 
ATOM     81  C   UNL A   1      42.407  24.672  27.805  1.00  0.00     0.173 A 
ATOM     82  F   UNL A   1      43.978  27.861  27.057  1.00  0.00    -0.203 F 
ATOM     83  C   UNL A   1      44.063  25.814  25.894  1.00  0.00     0.198 A 
ATOM     84  C   UNL A   1      42.877  23.908  26.739  1.00  0.00     0.198 A 
ATOM     85  F   UNL A   1      41.604  24.093  28.709  1.00  0.00    -0.203 F 
ATOM     86  F   UNL A   1      44.832  26.380  24.956  1.00  0.00    -0.200 F 
ATOM     87  C   UNL A   1      43.696  24.482  25.779  1.00  0.00     0.200 A 
ATOM     88  F   UNL A   1      42.535  22.616  26.643  1.00  0.00    -0.200 F 
ATOM     89  F   UNL A   1      44.128  23.752  24.741  1.00  0.00    -0.200 F 
ENDBRANCH  55  79
BRANCH  67  90
ATOM     90  C   UNL A   1      45.249  27.523  34.294  1.00  0.00     0.064 A 
ATOM     91  C   UNL A   1      45.265  26.358  35.076  1.00  0.00     0.173 A 
ATOM     92  C   UNL A   1      46.443  28.252  34.181  1.00  0.00     0.173 A 
ATOM     93  F   UNL A   1      44.148  25.631  35.229  1.00  0.00    -0.203 F 
ATOM     94  C   UNL A   1      46.421  25.959  35.742  1.00  0.00     0.198 A 
ATOM     95  C   UNL A   1      47.606  27.830  34.819  1.00  0.00     0.198 A 
ATOM     96  F   UNL A   1      46.486  29.368  33.438  1.00  0.00    -0.203 F 
ATOM     97  F   UNL A   1      46.398  24.874  36.529  1.00  0.00    -0.200 F 
ATOM     98  C   UNL A   1      47.592  26.690  35.606  1.00  0.00     0.200 A 
ATOM     99  F   UNL A   1      48.741  28.529  34.670  1.00  0.00    -0.200 F 
ATOM    100  F   UNL A   1      48.706  26.299  36.240  1.00  0.00    -0.200 F 
ENDBRANCH  67  90
ENDBRANCH  41  42
ENDBRANCH  34  36
ENDBRANCH  33  34
ENDBRANCH  32  33
ENDBRANCH  31  32
ENDBRANCH  30  31
ENDBRANCH   1  30
TORSDOF 19
ENDMDL
MODEL 3
REMARK VINA RESULT:     -11.8      4.516      7.970
REMARK SMILES CC(C)(C)c1ccc(C(=O)N/C(=C/c2ccc(O)cc2)C(=O)OCCOCCOC(=O)c2ccc(-c3c4nc(c(-c5c(F)c(F)c(F)c(F)c5F)c5ccc([nH]5)c(-c5c(F)c(F)c(F)c(F)c5F)c5nc(c(-c6c(F)c(F)c(F)c(F)c6F)c6ccc3[nH]6)C=C5)C=C4)cc2)cc1
REMARK SMILES IDX 25 1 24 2 23 3 21 4 22 5 12 6 13 7 11 8 9 9 10 10 8 12 5 13
REMARK SMILES IDX 6 14 96 15 7 16 95 17 2 18 1 19 3 20 4 21 14 22 15 23 20 24
REMARK SMILES IDX 16 25 19 26 17 27 18 28 26 30 27 31 28 32 29 33 30 34 31 35
REMARK SMILES IDX 32 36 33 37 94 38 34 39 93 40 35 41 36 42 37 43 87 44 38 45
REMARK SMILES IDX 92 46 86 47 88 48 39 49 91 50 85 51 84 52 40 54 72 55 52 56
REMARK SMILES IDX 71 57 53 58 56 59 70 60 89 61 54 62 55 63 69 65 90 66 57 67
REMARK SMILES IDX 41 68 42 69 50 70 43 71 44 72 48 73 51 74 45 75 46 76 49 77
REMARK SMILES IDX 47 78 73 79 74 80 82 81 75 82 76 83 80 84 83 85 77 86 78 87
REMARK SMILES IDX 81 88 79 89 58 90 59 91 67 92 60 93 61 94 65 95 68 96 62 97
REMARK SMILES IDX 63 98 66 99 64 100
REMARK H PARENT 11 11 18 29 88 53 56 64
REMARK Flexibility Score: inf
ROOT
ATOM      1  C   UNL A   1      36.983  22.382  24.694  1.00  0.00     0.202 C 
ENDROOT
BRANCH   1   2
ATOM      2  C   UNL A   1      35.676  21.618  24.600  1.00  0.00     0.261 C 
BRANCH   2   3
ATOM      3  O   UNL A   1      34.975  22.216  23.523  1.00  0.00    -0.459 OA
BRANCH   3   4
ATOM      4  C   UNL A   1      33.896  22.950  23.820  1.00  0.00     0.354 C 
ATOM      5  O   UNL A   1      33.668  23.553  24.855  1.00  0.00    -0.244 OA
BRANCH   4   6
ATOM      6  C   UNL A   1      32.972  22.830  22.668  1.00  0.00     0.128 C 
ATOM      7  C   UNL A   1      32.174  21.733  22.656  1.00  0.00     0.042 C 
BRANCH   6   8
ATOM      8  N   UNL A   1      32.963  23.741  21.621  1.00  0.00    -0.316 N 
ATOM      9  C   UNL A   1      32.791  25.116  21.480  1.00  0.00     0.255 C 
ATOM     10  O   UNL A   1      32.923  25.575  20.341  1.00  0.00    -0.269 OA
ATOM     11  H   UNL A   1      33.119  23.301  20.754  1.00  0.00     0.170 HD
BRANCH   9  12
ATOM     12  C   UNL A   1      32.623  26.096  22.588  1.00  0.00     0.040 A 
ATOM     13  C   UNL A   1      32.549  27.823  24.872  1.00  0.00    -0.043 A 
ATOM     14  C   UNL A   1      33.593  27.897  23.935  1.00  0.00     0.005 A 
ATOM     15  C   UNL A   1      31.475  26.984  24.530  1.00  0.00     0.005 A 
ATOM     16  C   UNL A   1      33.630  27.046  22.811  1.00  0.00     0.014 A 
ATOM     17  C   UNL A   1      31.490  26.177  23.377  1.00  0.00     0.014 A 
BRANCH  13  18
ATOM     18  C   UNL A   1      32.579  28.565  26.226  1.00  0.00    -0.013 C 
ATOM     19  C   UNL A   1      31.609  27.983  27.279  1.00  0.00     0.016 C 
ATOM     20  C   UNL A   1      32.174  30.041  26.022  1.00  0.00     0.016 C 
ATOM     21  C   UNL A   1      33.992  28.559  26.849  1.00  0.00     0.016 C 
ENDBRANCH  13  18
ENDBRANCH   9  12
ENDBRANCH   6   8
BRANCH   7  22
ATOM     22  C   UNL A   1      32.265  20.584  23.601  1.00  0.00    -0.023 A 
ATOM     23  C   UNL A   1      32.546  19.309  23.088  1.00  0.00     0.012 A 
ATOM     24  C   UNL A   1      32.189  20.730  24.997  1.00  0.00     0.012 A 
ATOM     25  C   UNL A   1      32.849  18.243  23.946  1.00  0.00     0.047 A 
ATOM     26  C   UNL A   1      32.535  19.679  25.856  1.00  0.00     0.047 A 
ATOM     27  C   UNL A   1      32.883  18.447  25.319  1.00  0.00     0.115 A 
BRANCH  27  28
ATOM     28  O   UNL A   1      33.275  17.407  26.107  1.00  0.00    -0.508 OA
ATOM     29  H   UNL A   1      32.905  16.556  25.977  1.00  0.00     0.293 HD
ENDBRANCH  27  28
ENDBRANCH   7  22
ENDBRANCH   4   6
ENDBRANCH   3   4
ENDBRANCH   2   3
ENDBRANCH   1   2
BRANCH   1  30
ATOM     30  O   UNL A   1      38.113  21.669  25.203  1.00  0.00    -0.374 OA
BRANCH  30  31
ATOM     31  C   UNL A   1      38.119  20.244  25.119  1.00  0.00     0.202 C 
BRANCH  31  32
ATOM     32  C   UNL A   1      39.345  19.510  25.675  1.00  0.00     0.261 C 
BRANCH  32  33
ATOM     33  O   UNL A   1      40.458  20.372  25.924  1.00  0.00    -0.460 OA
BRANCH  33  34
ATOM     34  C   UNL A   1      40.802  20.462  27.237  1.00  0.00     0.338 C 
ATOM     35  O   UNL A   1      41.054  19.557  28.003  1.00  0.00    -0.246 OA
BRANCH  34  36
ATOM     36  C   UNL A   1      41.047  21.884  27.554  1.00  0.00     0.060 A 
ATOM     37  C   UNL A   1      40.237  22.841  26.923  1.00  0.00     0.016 A 
ATOM     38  C   UNL A   1      42.020  22.270  28.476  1.00  0.00     0.016 A 
ATOM     39  C   UNL A   1      40.420  24.194  27.187  1.00  0.00     0.010 A 
ATOM     40  C   UNL A   1      42.222  23.627  28.719  1.00  0.00     0.010 A 
ATOM     41  C   UNL A   1      41.446  24.592  28.051  1.00  0.00    -0.014 A 
BRANCH  41  42
ATOM     42  C   UNL A   1      41.855  26.012  28.103  1.00  0.00     0.031 A 
ATOM     43  C   UNL A   1      43.195  26.377  27.533  1.00  0.00     0.074 A 
ATOM     44  C   UNL A   1      41.060  26.946  28.648  1.00  0.00     0.049 A 
ATOM     45  N   UNL A   1      43.828  27.520  27.557  1.00  0.00    -0.248 NA
ATOM     46  C   UNL A   1      43.922  25.299  26.840  1.00  0.00     0.031 C 
ATOM     47  C   UNL A   1      39.714  26.715  29.169  1.00  0.00     0.029 A 
ATOM     48  N   UNL A   1      41.285  28.281  28.868  1.00  0.00    -0.354 N 
ATOM     49  C   UNL A   1      45.028  27.297  26.895  1.00  0.00     0.074 A 
ATOM     50  C   UNL A   1      45.050  25.905  26.505  1.00  0.00     0.031 C 
ATOM     51  C   UNL A   1      39.245  27.867  29.681  1.00  0.00     0.029 A 
ATOM     52  C   UNL A   1      40.272  28.899  29.557  1.00  0.00     0.049 A 
ATOM     53  H   UNL A   1      42.095  28.749  28.563  1.00  0.00     0.167 HD
ATOM     54  C   UNL A   1      46.019  28.179  26.633  1.00  0.00     0.037 A 
ATOM     55  C   UNL A   1      40.207  30.149  30.057  1.00  0.00     0.037 A 
ATOM     56  C   UNL A   1      45.989  29.560  27.035  1.00  0.00     0.049 A 
ATOM     57  C   UNL A   1      41.369  31.087  29.840  1.00  0.00     0.074 A 
ATOM     58  C   UNL A   1      46.932  30.547  26.808  1.00  0.00     0.029 A 
ATOM     59  N   UNL A   1      44.963  30.146  27.763  1.00  0.00    -0.354 N 
ATOM     60  N   UNL A   1      42.493  30.882  29.194  1.00  0.00    -0.248 NA
ATOM     61  C   UNL A   1      41.251  32.432  30.420  1.00  0.00     0.031 C 
ATOM     62  C   UNL A   1      46.505  31.712  27.453  1.00  0.00     0.029 A 
ATOM     63  C   UNL A   1      45.265  31.472  28.024  1.00  0.00     0.049 A 
ATOM     64  H   UNL A   1      44.142  29.686  28.051  1.00  0.00     0.167 HD
ATOM     65  C   UNL A   1      43.198  32.078  29.260  1.00  0.00     0.074 A 
ATOM     66  C   UNL A   1      42.369  33.008  29.998  1.00  0.00     0.031 C 
ATOM     67  C   UNL A   1      44.421  32.382  28.757  1.00  0.00     0.037 A 
BRANCH  54  68
ATOM     68  C   UNL A   1      47.231  27.668  25.910  1.00  0.00     0.064 A 
ATOM     69  C   UNL A   1      48.337  27.143  26.596  1.00  0.00     0.173 A 
ATOM     70  C   UNL A   1      47.277  27.681  24.507  1.00  0.00     0.173 A 
ATOM     71  F   UNL A   1      48.353  27.123  27.937  1.00  0.00    -0.203 F 
ATOM     72  C   UNL A   1      49.454  26.676  25.906  1.00  0.00     0.198 A 
ATOM     73  C   UNL A   1      48.380  27.183  23.820  1.00  0.00     0.198 A 
ATOM     74  F   UNL A   1      46.246  28.171  23.801  1.00  0.00    -0.203 F 
ATOM     75  F   UNL A   1      50.520  26.228  26.583  1.00  0.00    -0.200 F 
ATOM     76  C   UNL A   1      49.471  26.689  24.518  1.00  0.00     0.200 A 
ATOM     77  F   UNL A   1      48.389  27.185  22.479  1.00  0.00    -0.200 F 
ATOM     78  F   UNL A   1      50.541  26.231  23.856  1.00  0.00    -0.200 F 
ENDBRANCH  54  68
BRANCH  55  79
ATOM     79  C   UNL A   1      39.014  30.581  30.832  1.00  0.00     0.064 A 
ATOM     80  C   UNL A   1      38.969  30.445  32.227  1.00  0.00     0.173 A 
ATOM     81  C   UNL A   1      37.886  31.118  30.195  1.00  0.00     0.173 A 
ATOM     82  F   UNL A   1      40.014  29.917  32.882  1.00  0.00    -0.203 F 
ATOM     83  C   UNL A   1      37.834  30.806  32.951  1.00  0.00     0.198 A 
ATOM     84  C   UNL A   1      36.763  31.508  30.922  1.00  0.00     0.198 A 
ATOM     85  F   UNL A   1      37.878  31.278  28.863  1.00  0.00    -0.203 F 
ATOM     86  F   UNL A   1      37.800  30.619  34.276  1.00  0.00    -0.200 F 
ATOM     87  C   UNL A   1      36.734  31.342  32.298  1.00  0.00     0.200 A 
ATOM     88  F   UNL A   1      35.711  32.043  30.289  1.00  0.00    -0.200 F 
ATOM     89  F   UNL A   1      35.645  31.694  32.994  1.00  0.00    -0.200 F 
ENDBRANCH  55  79
BRANCH  67  90
ATOM     90  C   UNL A   1      44.918  33.787  28.951  1.00  0.00     0.064 A 
ATOM     91  C   UNL A   1      45.719  34.143  30.047  1.00  0.00     0.173 A 
ATOM     92  C   UNL A   1      44.626  34.780  28.003  1.00  0.00     0.173 A 
ATOM     93  F   UNL A   1      46.016  33.236  30.989  1.00  0.00    -0.203 F 
ATOM     94  C   UNL A   1      46.179  35.448  30.202  1.00  0.00     0.198 A 
ATOM     95  C   UNL A   1      45.119  36.074  28.143  1.00  0.00     0.198 A 
ATOM     96  F   UNL A   1      43.873  34.491  26.931  1.00  0.00    -0.203 F 
ATOM     97  F   UNL A   1      46.895  35.779  31.286  1.00  0.00    -0.200 F 
ATOM     98  C   UNL A   1      45.887  36.410  29.246  1.00  0.00     0.200 A 
ATOM     99  F   UNL A   1      44.850  36.996  27.207  1.00  0.00    -0.200 F 
ATOM    100  F   UNL A   1      46.340  37.662  29.393  1.00  0.00    -0.200 F 
ENDBRANCH  67  90
ENDBRANCH  41  42
ENDBRANCH  34  36
ENDBRANCH  33  34
ENDBRANCH  32  33
ENDBRANCH  31  32
ENDBRANCH  30  31
ENDBRANCH   1  30
TORSDOF 19
ENDMDL
