MODEL 1
REMARK VINA RESULT:     -12.0      0.000      0.000
REMARK SMILES CS(=O)(=O)c1ccc(C(=O)N2C[C@@H](C(=O)OCCOCCOC(=O)c3ccc(-c4c5nc(c(-c6c(F)c(F)c(F)c(F)c6F)c6ccc([nH]6)c(-c6c(F)c(F)c(F)c(F)c6F)c6nc(c(-c7c(F)c(F)c(F)c(F)c7F)c7ccc4[nH]7)C=C6)C=C5)cc3)[C@H](c3ccncc3)C2)cc1
REMARK SMILES IDX 18 1 17 2 16 3 14 4 15 5 13 6 11 7 12 8 95 9 88 10 9 11
REMARK SMILES IDX 10 12 8 13 5 14 6 15 97 16 7 17 96 18 2 19 1 20 3 21 4 22
REMARK SMILES IDX 89 23 90 24 94 25 91 26 93 27 92 28 19 29 20 30 21 31 22 32
REMARK SMILES IDX 23 33 24 34 25 35 26 36 87 37 27 38 86 39 28 40 29 41 30 42
REMARK SMILES IDX 80 43 31 44 85 45 79 46 81 47 32 48 84 49 78 50 77 51 33 53
REMARK SMILES IDX 65 54 45 55 64 56 46 57 49 58 63 59 82 60 47 61 48 62 62 64
REMARK SMILES IDX 83 65 50 66 34 67 35 68 43 69 36 70 37 71 41 72 44 73 38 74
REMARK SMILES IDX 39 75 42 76 40 77 66 78 67 79 75 80 68 81 69 82 73 83 76 84
REMARK SMILES IDX 70 85 71 86 74 87 72 88 51 89 52 90 60 91 53 92 54 93 58 94
REMARK SMILES IDX 61 95 55 96 56 97 59 98 57 99
REMARK H PARENT 81 52 49 63
REMARK Flexibility Score: inf
ROOT
ATOM      1  C   UNL A   1      38.984  20.592  25.744  1.00  0.00     0.202 C 
ENDROOT
BRANCH   1   2
ATOM      2  C   UNL A   1      37.718  20.210  24.975  1.00  0.00     0.261 C 
BRANCH   2   3
ATOM      3  O   UNL A   1      36.570  20.976  25.382  1.00  0.00    -0.463 OA
BRANCH   3   4
ATOM      4  C   UNL A   1      36.025  21.751  24.404  1.00  0.00     0.311 C 
ATOM      5  O   UNL A   1      36.655  22.290  23.506  1.00  0.00    -0.252 OA
BRANCH   4   6
ATOM      6  C   UNL A   1      34.536  21.866  24.585  1.00  0.00     0.128 C 
ATOM      7  N   UNL A   1      32.902  22.694  26.002  1.00  0.00    -0.337 N 
ATOM      8  C   UNL A   1      34.175  23.074  25.429  1.00  0.00     0.135 C 
ATOM      9  C   UNL A   1      32.899  21.272  26.288  1.00  0.00     0.129 C 
ATOM     10  C   UNL A   1      33.976  20.647  25.375  1.00  0.00     0.055 C 
BRANCH   7  11
ATOM     11  C   UNL A   1      31.973  23.514  26.612  1.00  0.00     0.253 C 
ATOM     12  O   UNL A   1      31.355  23.146  27.609  1.00  0.00    -0.269 OA
BRANCH  11  13
ATOM     13  C   UNL A   1      31.555  24.785  25.940  1.00  0.00     0.040 A 
ATOM     14  C   UNL A   1      31.104  27.042  24.330  1.00  0.00     0.067 A 
ATOM     15  C   UNL A   1      30.564  25.806  23.963  1.00  0.00     0.021 A 
ATOM     16  C   UNL A   1      31.835  27.169  25.511  1.00  0.00     0.021 A 
ATOM     17  C   UNL A   1      30.784  24.685  24.769  1.00  0.00     0.015 A 
ATOM     18  C   UNL A   1      32.075  26.037  26.300  1.00  0.00     0.015 A 
BRANCH  14  19
ATOM     19  S   UNL A   1      30.897  28.393  23.191  1.00  0.00     0.175 S 
ATOM     20  C   UNL A   1      32.512  28.954  22.734  1.00  0.00     0.163 C 
ATOM     21  O   UNL A   1      30.262  29.461  23.938  1.00  0.00    -0.224 OA
ATOM     22  O   UNL A   1      30.283  27.831  22.005  1.00  0.00    -0.224 OA
ENDBRANCH  14  19
ENDBRANCH  11  13
ENDBRANCH   7  11
BRANCH  10  23
ATOM     23  C   UNL A   1      33.584  19.508  24.443  1.00  0.00    -0.039 A 
ATOM     24  C   UNL A   1      34.270  18.282  24.517  1.00  0.00     0.024 A 
ATOM     25  C   UNL A   1      32.527  19.582  23.532  1.00  0.00     0.024 A 
ATOM     26  C   UNL A   1      33.923  17.243  23.665  1.00  0.00     0.111 A 
ATOM     27  C   UNL A   1      32.247  18.483  22.727  1.00  0.00     0.111 A 
ATOM     28  N   UNL A   1      32.931  17.323  22.761  1.00  0.00    -0.265 NA
ENDBRANCH  10  23
ENDBRANCH   4   6
ENDBRANCH   3   4
ENDBRANCH   2   3
ENDBRANCH   1   2
BRANCH   1  29
ATOM     29  O   UNL A   1      40.014  19.609  25.798  1.00  0.00    -0.374 OA
BRANCH  29  30
ATOM     30  C   UNL A   1      41.146  19.892  26.617  1.00  0.00     0.202 C 
BRANCH  30  31
ATOM     31  C   UNL A   1      42.451  19.191  26.230  1.00  0.00     0.261 C 
BRANCH  31  32
ATOM     32  O   UNL A   1      42.832  19.519  24.882  1.00  0.00    -0.460 OA
BRANCH  32  33
ATOM     33  C   UNL A   1      44.167  19.553  24.671  1.00  0.00     0.338 C 
ATOM     34  O   UNL A   1      44.869  18.657  24.218  1.00  0.00    -0.246 OA
BRANCH  33  35
ATOM     35  C   UNL A   1      44.684  20.916  24.886  1.00  0.00     0.060 A 
ATOM     36  C   UNL A   1      45.280  21.183  26.126  1.00  0.00     0.016 A 
ATOM     37  C   UNL A   1      44.528  21.930  23.938  1.00  0.00     0.016 A 
ATOM     38  C   UNL A   1      45.652  22.481  26.456  1.00  0.00     0.010 A 
ATOM     39  C   UNL A   1      44.895  23.239  24.275  1.00  0.00     0.010 A 
ATOM     40  C   UNL A   1      45.412  23.523  25.553  1.00  0.00    -0.014 A 
BRANCH  40  41
ATOM     41  C   UNL A   1      45.519  24.923  26.029  1.00  0.00     0.031 A 
ATOM     42  C   UNL A   1      46.854  25.610  25.945  1.00  0.00     0.074 A 
ATOM     43  C   UNL A   1      44.439  25.587  26.474  1.00  0.00     0.049 A 
ATOM     44  N   UNL A   1      47.190  26.823  26.304  1.00  0.00    -0.248 NA
ATOM     45  C   UNL A   1      47.961  24.823  25.378  1.00  0.00     0.031 C 
ATOM     46  C   UNL A   1      43.087  25.040  26.554  1.00  0.00     0.029 A 
ATOM     47  N   UNL A   1      44.315  26.870  26.940  1.00  0.00    -0.354 N 
ATOM     48  C   UNL A   1      48.543  26.941  26.011  1.00  0.00     0.074 A 
ATOM     49  C   UNL A   1      48.975  25.670  25.475  1.00  0.00     0.031 C 
ATOM     50  C   UNL A   1      42.266  25.983  27.051  1.00  0.00     0.029 A 
ATOM     51  C   UNL A   1      43.042  27.186  27.347  1.00  0.00     0.049 A 
ATOM     52  H   UNL A   1      45.066  27.506  26.980  1.00  0.00     0.167 HD
ATOM     53  C   UNL A   1      49.348  28.019  26.164  1.00  0.00     0.037 A 
ATOM     54  C   UNL A   1      42.567  28.314  27.909  1.00  0.00     0.037 A 
ATOM     55  C   UNL A   1      48.914  29.284  26.691  1.00  0.00     0.049 A 
ATOM     56  C   UNL A   1      43.499  29.476  28.132  1.00  0.00     0.074 A 
ATOM     57  C   UNL A   1      49.648  30.442  26.872  1.00  0.00     0.029 A 
ATOM     58  N   UNL A   1      47.625  29.554  27.126  1.00  0.00    -0.354 N 
ATOM     59  N   UNL A   1      44.772  29.586  27.836  1.00  0.00    -0.248 NA
ATOM     60  C   UNL A   1      42.927  30.673  28.766  1.00  0.00     0.031 C 
ATOM     61  C   UNL A   1      48.815  31.400  27.463  1.00  0.00     0.029 A 
ATOM     62  C   UNL A   1      47.548  30.853  27.601  1.00  0.00     0.049 A 
ATOM     63  H   UNL A   1      46.875  28.916  27.102  1.00  0.00     0.167 HD
ATOM     64  C   UNL A   1      45.145  30.869  28.218  1.00  0.00     0.074 A 
ATOM     65  C   UNL A   1      43.961  31.504  28.759  1.00  0.00     0.031 C 
ATOM     66  C   UNL A   1      46.358  31.469  28.128  1.00  0.00     0.037 A 
BRANCH  53  67
ATOM     67  C   UNL A   1      50.791  27.864  25.780  1.00  0.00     0.064 A 
ATOM     68  C   UNL A   1      51.226  28.037  24.457  1.00  0.00     0.173 A 
ATOM     69  C   UNL A   1      51.755  27.564  26.754  1.00  0.00     0.173 A 
ATOM     70  F   UNL A   1      50.340  28.308  23.486  1.00  0.00    -0.203 F 
ATOM     71  C   UNL A   1      52.569  27.891  24.121  1.00  0.00     0.198 A 
ATOM     72  C   UNL A   1      53.100  27.446  26.418  1.00  0.00     0.198 A 
ATOM     73  F   UNL A   1      51.392  27.388  28.033  1.00  0.00    -0.203 F 
ATOM     74  F   UNL A   1      52.955  28.016  22.843  1.00  0.00    -0.200 F 
ATOM     75  C   UNL A   1      53.505  27.604  25.102  1.00  0.00     0.200 A 
ATOM     76  F   UNL A   1      54.006  27.178  27.369  1.00  0.00    -0.200 F 
ATOM     77  F   UNL A   1      54.799  27.469  24.777  1.00  0.00    -0.200 F 
ENDBRANCH  53  67
BRANCH  54  78
ATOM     78  C   UNL A   1      41.139  28.397  28.311  1.00  0.00     0.064 A 
ATOM     79  C   UNL A   1      40.167  28.900  27.437  1.00  0.00     0.173 A 
ATOM     80  C   UNL A   1      40.721  27.986  29.586  1.00  0.00     0.173 A 
ATOM     81  F   UNL A   1      40.522  29.328  26.217  1.00  0.00    -0.203 F 
ATOM     82  C   UNL A   1      38.833  29.004  27.828  1.00  0.00     0.198 A 
ATOM     83  C   UNL A   1      39.383  28.066  29.966  1.00  0.00     0.198 A 
ATOM     84  F   UNL A   1      41.613  27.497  30.461  1.00  0.00    -0.203 F 
ATOM     85  F   UNL A   1      37.931  29.530  26.987  1.00  0.00    -0.200 F 
ATOM     86  C   UNL A   1      38.441  28.582  29.089  1.00  0.00     0.200 A 
ATOM     87  F   UNL A   1      39.007  27.643  31.180  1.00  0.00    -0.200 F 
ATOM     88  F   UNL A   1      37.158  28.678  29.461  1.00  0.00    -0.200 F 
ENDBRANCH  54  78
BRANCH  66  89
ATOM     89  C   UNL A   1      46.459  32.892  28.594  1.00  0.00     0.064 A 
ATOM     90  C   UNL A   1      46.815  33.211  29.913  1.00  0.00     0.173 A 
ATOM     91  C   UNL A   1      46.241  33.949  27.697  1.00  0.00     0.173 A 
ATOM     92  F   UNL A   1      47.019  32.237  30.811  1.00  0.00    -0.203 F 
ATOM     93  C   UNL A   1      46.924  34.538  30.322  1.00  0.00     0.198 A 
ATOM     94  C   UNL A   1      46.380  35.273  28.103  1.00  0.00     0.198 A 
ATOM     95  F   UNL A   1      45.908  33.695  26.423  1.00  0.00    -0.203 F 
ATOM     96  F   UNL A   1      47.220  34.820  31.598  1.00  0.00    -0.200 F 
ATOM     97  C   UNL A   1      46.714  35.566  29.416  1.00  0.00     0.200 A 
ATOM     98  F   UNL A   1      46.191  36.265  27.222  1.00  0.00    -0.200 F 
ATOM     99  F   UNL A   1      46.827  36.843  29.810  1.00  0.00    -0.200 F 
ENDBRANCH  66  89
ENDBRANCH  40  41
ENDBRANCH  33  35
ENDBRANCH  32  33
ENDBRANCH  31  32
ENDBRANCH  30  31
ENDBRANCH  29  30
ENDBRANCH   1  29
TORSDOF 18
ENDMDL
MODEL 2
REMARK VINA RESULT:     -11.8      5.031      7.172
REMARK SMILES CS(=O)(=O)c1ccc(C(=O)N2C[C@@H](C(=O)OCCOCCOC(=O)c3ccc(-c4c5nc(c(-c6c(F)c(F)c(F)c(F)c6F)c6ccc([nH]6)c(-c6c(F)c(F)c(F)c(F)c6F)c6nc(c(-c7c(F)c(F)c(F)c(F)c7F)c7ccc4[nH]7)C=C6)C=C5)cc3)[C@H](c3ccncc3)C2)cc1
REMARK SMILES IDX 18 1 17 2 16 3 14 4 15 5 13 6 11 7 12 8 95 9 88 10 9 11
REMARK SMILES IDX 10 12 8 13 5 14 6 15 97 16 7 17 96 18 2 19 1 20 3 21 4 22
REMARK SMILES IDX 89 23 90 24 94 25 91 26 93 27 92 28 19 29 20 30 21 31 22 32
REMARK SMILES IDX 23 33 24 34 25 35 26 36 87 37 27 38 86 39 28 40 29 41 30 42
REMARK SMILES IDX 80 43 31 44 85 45 79 46 81 47 32 48 84 49 78 50 77 51 33 53
REMARK SMILES IDX 65 54 45 55 64 56 46 57 49 58 63 59 82 60 47 61 48 62 62 64
REMARK SMILES IDX 83 65 50 66 34 67 35 68 43 69 36 70 37 71 41 72 44 73 38 74
REMARK SMILES IDX 39 75 42 76 40 77 66 78 67 79 75 80 68 81 69 82 73 83 76 84
REMARK SMILES IDX 70 85 71 86 74 87 72 88 51 89 52 90 60 91 53 92 54 93 58 94
REMARK SMILES IDX 61 95 55 96 56 97 59 98 57 99
REMARK H PARENT 81 52 49 63
REMARK Flexibility Score: inf
ROOT
ATOM      1  C   UNL A   1      39.189  20.674  25.826  1.00  0.00     0.202 C 
ENDROOT
BRANCH   1   2
ATOM      2  C   UNL A   1      38.048  20.092  24.990  1.00  0.00     0.261 C 
BRANCH   2   3
ATOM      3  O   UNL A   1      36.766  20.642  25.340  1.00  0.00    -0.463 OA
BRANCH   3   4
ATOM      4  C   UNL A   1      36.279  21.559  24.459  1.00  0.00     0.311 C 
ATOM      5  O   UNL A   1      36.956  22.195  23.665  1.00  0.00    -0.252 OA
BRANCH   4   6
ATOM      6  C   UNL A   1      34.787  21.695  24.604  1.00  0.00     0.128 C 
ATOM      7  N   UNL A   1      33.132  22.565  25.970  1.00  0.00    -0.337 N 
ATOM      8  C   UNL A   1      34.422  22.921  25.421  1.00  0.00     0.135 C 
ATOM      9  C   UNL A   1      33.105  21.148  26.279  1.00  0.00     0.129 C 
ATOM     10  C   UNL A   1      34.195  20.495  25.400  1.00  0.00     0.055 C 
BRANCH   7  11
ATOM     11  C   UNL A   1      32.199  23.405  26.547  1.00  0.00     0.253 C 
ATOM     12  O   UNL A   1      31.582  23.076  27.558  1.00  0.00    -0.269 OA
BRANCH  11  13
ATOM     13  C   UNL A   1      31.777  24.646  25.823  1.00  0.00     0.040 A 
ATOM     14  C   UNL A   1      31.388  26.894  24.184  1.00  0.00     0.067 A 
ATOM     15  C   UNL A   1      31.065  25.620  23.707  1.00  0.00     0.021 A 
ATOM     16  C   UNL A   1      31.867  27.059  25.484  1.00  0.00     0.021 A 
ATOM     17  C   UNL A   1      31.254  24.503  24.527  1.00  0.00     0.015 A 
ATOM     18  C   UNL A   1      32.079  25.933  26.290  1.00  0.00     0.015 A 
BRANCH  14  19
ATOM     19  S   UNL A   1      31.249  28.252  23.044  1.00  0.00     0.175 S 
ATOM     20  C   UNL A   1      30.455  29.583  23.897  1.00  0.00     0.163 C 
ATOM     21  O   UNL A   1      30.351  27.812  21.995  1.00  0.00    -0.224 OA
ATOM     22  O   UNL A   1      32.605  28.673  22.751  1.00  0.00    -0.224 OA
ENDBRANCH  14  19
ENDBRANCH  11  13
ENDBRANCH   7  11
BRANCH  10  23
ATOM     23  C   UNL A   1      33.810  19.347  24.477  1.00  0.00    -0.039 A 
ATOM     24  C   UNL A   1      32.677  19.468  23.651  1.00  0.00     0.024 A 
ATOM     25  C   UNL A   1      34.553  18.170  24.353  1.00  0.00     0.024 A 
ATOM     26  C   UNL A   1      32.316  18.423  22.815  1.00  0.00     0.111 A 
ATOM     27  C   UNL A   1      34.117  17.181  23.479  1.00  0.00     0.111 A 
ATOM     28  N   UNL A   1      33.007  17.274  22.720  1.00  0.00    -0.265 NA
ENDBRANCH  10  23
ENDBRANCH   4   6
ENDBRANCH   3   4
ENDBRANCH   2   3
ENDBRANCH   1   2
BRANCH   1  29
ATOM     29  O   UNL A   1      40.363  19.876  25.941  1.00  0.00    -0.374 OA
BRANCH  29  30
ATOM     30  C   UNL A   1      41.590  20.552  26.205  1.00  0.00     0.202 C 
BRANCH  30  31
ATOM     31  C   UNL A   1      41.665  22.015  25.761  1.00  0.00     0.261 C 
BRANCH  31  32
ATOM     32  O   UNL A   1      42.894  22.623  26.196  1.00  0.00    -0.460 OA
BRANCH  32  33
ATOM     33  C   UNL A   1      43.145  23.832  25.644  1.00  0.00     0.338 C 
ATOM     34  O   UNL A   1      43.713  24.059  24.582  1.00  0.00    -0.246 OA
BRANCH  33  35
ATOM     35  C   UNL A   1      42.469  24.894  26.409  1.00  0.00     0.060 A 
ATOM     36  C   UNL A   1      43.067  26.161  26.407  1.00  0.00     0.016 A 
ATOM     37  C   UNL A   1      41.324  24.649  27.172  1.00  0.00     0.016 A 
ATOM     38  C   UNL A   1      42.570  27.168  27.226  1.00  0.00     0.010 A 
ATOM     39  C   UNL A   1      40.830  25.661  28.004  1.00  0.00     0.010 A 
ATOM     40  C   UNL A   1      41.483  26.906  28.068  1.00  0.00    -0.014 A 
BRANCH  40  41
ATOM     41  C   UNL A   1      41.165  27.870  29.149  1.00  0.00     0.031 A 
ATOM     42  C   UNL A   1      42.053  27.908  30.362  1.00  0.00     0.074 A 
ATOM     43  C   UNL A   1      40.142  28.732  29.027  1.00  0.00     0.049 A 
ATOM     44  N   UNL A   1      41.970  28.659  31.430  1.00  0.00    -0.248 NA
ATOM     45  C   UNL A   1      43.190  26.974  30.371  1.00  0.00     0.031 C 
ATOM     46  C   UNL A   1      39.245  28.820  27.878  1.00  0.00     0.029 A 
ATOM     47  N   UNL A   1      39.688  29.700  29.886  1.00  0.00    -0.354 N 
ATOM     48  C   UNL A   1      43.038  28.285  32.237  1.00  0.00     0.074 A 
ATOM     49  C   UNL A   1      43.736  27.220  31.552  1.00  0.00     0.031 C 
ATOM     50  C   UNL A   1      38.339  29.787  28.107  1.00  0.00     0.029 A 
ATOM     51  C   UNL A   1      38.579  30.365  29.428  1.00  0.00     0.049 A 
ATOM     52  H   UNL A   1      40.118  29.900  30.750  1.00  0.00     0.167 HD
ATOM     53  C   UNL A   1      43.408  28.793  33.436  1.00  0.00     0.037 A 
ATOM     54  C   UNL A   1      37.834  31.319  30.019  1.00  0.00     0.037 A 
ATOM     55  C   UNL A   1      42.715  29.857  34.111  1.00  0.00     0.049 A 
ATOM     56  C   UNL A   1      38.228  31.820  31.385  1.00  0.00     0.074 A 
ATOM     57  C   UNL A   1      43.019  30.454  35.321  1.00  0.00     0.029 A 
ATOM     58  N   UNL A   1      41.573  30.481  33.632  1.00  0.00    -0.354 N 
ATOM     59  N   UNL A   1      39.248  31.475  32.132  1.00  0.00    -0.248 NA
ATOM     60  C   UNL A   1      37.367  32.849  31.987  1.00  0.00     0.031 C 
ATOM     61  C   UNL A   1      42.033  31.407  35.599  1.00  0.00     0.029 A 
ATOM     62  C   UNL A   1      41.143  31.439  34.535  1.00  0.00     0.049 A 
ATOM     63  H   UNL A   1      41.132  30.273  32.776  1.00  0.00     0.167 HD
ATOM     64  C   UNL A   1      39.169  32.260  33.275  1.00  0.00     0.074 A 
ATOM     65  C   UNL A   1      38.007  33.109  33.119  1.00  0.00     0.031 C 
ATOM     66  C   UNL A   1      39.987  32.279  34.357  1.00  0.00     0.037 A 
BRANCH  53  67
ATOM     67  C   UNL A   1      44.605  28.184  34.106  1.00  0.00     0.064 A 
ATOM     68  C   UNL A   1      44.490  27.070  34.952  1.00  0.00     0.173 A 
ATOM     69  C   UNL A   1      45.886  28.706  33.878  1.00  0.00     0.173 A 
ATOM     70  F   UNL A   1      43.284  26.544  35.215  1.00  0.00    -0.203 F 
ATOM     71  C   UNL A   1      45.612  26.517  35.562  1.00  0.00     0.198 A 
ATOM     72  C   UNL A   1      47.009  28.134  34.469  1.00  0.00     0.198 A 
ATOM     73  F   UNL A   1      46.050  29.771  33.078  1.00  0.00    -0.203 F 
ATOM     74  F   UNL A   1      45.474  25.482  36.402  1.00  0.00    -0.200 F 
ATOM     75  C   UNL A   1      46.871  27.044  35.315  1.00  0.00     0.200 A 
ATOM     76  F   UNL A   1      48.225  28.639  34.221  1.00  0.00    -0.200 F 
ATOM     77  F   UNL A   1      47.951  26.508  35.900  1.00  0.00    -0.200 F 
ENDBRANCH  53  67
BRANCH  54  78
ATOM     78  C   UNL A   1      36.632  31.856  29.329  1.00  0.00     0.064 A 
ATOM     79  C   UNL A   1      35.527  31.040  29.058  1.00  0.00     0.173 A 
ATOM     80  C   UNL A   1      36.573  33.196  28.916  1.00  0.00     0.173 A 
ATOM     81  F   UNL A   1      35.547  29.746  29.411  1.00  0.00    -0.203 F 
ATOM     82  C   UNL A   1      34.413  31.539  28.385  1.00  0.00     0.198 A 
ATOM     83  C   UNL A   1      35.448  33.700  28.268  1.00  0.00     0.198 A 
ATOM     84  F   UNL A   1      37.606  34.018  29.152  1.00  0.00    -0.203 F 
ATOM     85  F   UNL A   1      33.386  30.725  28.099  1.00  0.00    -0.200 F 
ATOM     86  C   UNL A   1      34.372  32.869  27.995  1.00  0.00     0.200 A 
ATOM     87  F   UNL A   1      35.408  34.989  27.906  1.00  0.00    -0.200 F 
ATOM     88  F   UNL A   1      33.299  33.349  27.353  1.00  0.00    -0.200 F 
ENDBRANCH  54  78
BRANCH  66  89
ATOM     89  C   UNL A   1      39.673  33.269  35.441  1.00  0.00     0.064 A 
ATOM     90  C   UNL A   1      38.873  32.927  36.541  1.00  0.00     0.173 A 
ATOM     91  C   UNL A   1      40.218  34.562  35.400  1.00  0.00     0.173 A 
ATOM     92  F   UNL A   1      38.317  31.708  36.618  1.00  0.00    -0.203 F 
ATOM     93  C   UNL A   1      38.609  33.852  37.548  1.00  0.00     0.198 A 
ATOM     94  C   UNL A   1      39.975  35.474  36.423  1.00  0.00     0.198 A 
ATOM     95  F   UNL A   1      40.997  34.934  34.374  1.00  0.00    -0.203 F 
ATOM     96  F   UNL A   1      37.804  33.519  38.566  1.00  0.00    -0.200 F 
ATOM     97  C   UNL A   1      39.166  35.121  37.492  1.00  0.00     0.200 A 
ATOM     98  F   UNL A   1      40.526  36.694  36.374  1.00  0.00    -0.200 F 
ATOM     99  F   UNL A   1      38.917  36.007  38.466  1.00  0.00    -0.200 F 
ENDBRANCH  66  89
ENDBRANCH  40  41
ENDBRANCH  33  35
ENDBRANCH  32  33
ENDBRANCH  31  32
ENDBRANCH  30  31
ENDBRANCH  29  30
ENDBRANCH   1  29
TORSDOF 18
ENDMDL
MODEL 3
REMARK VINA RESULT:     -11.7      1.541      2.272
REMARK SMILES CS(=O)(=O)c1ccc(C(=O)N2C[C@@H](C(=O)OCCOCCOC(=O)c3ccc(-c4c5nc(c(-c6c(F)c(F)c(F)c(F)c6F)c6ccc([nH]6)c(-c6c(F)c(F)c(F)c(F)c6F)c6nc(c(-c7c(F)c(F)c(F)c(F)c7F)c7ccc4[nH]7)C=C6)C=C5)cc3)[C@H](c3ccncc3)C2)cc1
REMARK SMILES IDX 18 1 17 2 16 3 14 4 15 5 13 6 11 7 12 8 95 9 88 10 9 11
REMARK SMILES IDX 10 12 8 13 5 14 6 15 97 16 7 17 96 18 2 19 1 20 3 21 4 22
REMARK SMILES IDX 89 23 90 24 94 25 91 26 93 27 92 28 19 29 20 30 21 31 22 32
REMARK SMILES IDX 23 33 24 34 25 35 26 36 87 37 27 38 86 39 28 40 29 41 30 42
REMARK SMILES IDX 80 43 31 44 85 45 79 46 81 47 32 48 84 49 78 50 77 51 33 53
REMARK SMILES IDX 65 54 45 55 64 56 46 57 49 58 63 59 82 60 47 61 48 62 62 64
REMARK SMILES IDX 83 65 50 66 34 67 35 68 43 69 36 70 37 71 41 72 44 73 38 74
REMARK SMILES IDX 39 75 42 76 40 77 66 78 67 79 75 80 68 81 69 82 73 83 76 84
REMARK SMILES IDX 70 85 71 86 74 87 72 88 51 89 52 90 60 91 53 92 54 93 58 94
REMARK SMILES IDX 61 95 55 96 56 97 59 98 57 99
REMARK H PARENT 81 52 49 63
REMARK Flexibility Score: inf
ROOT
ATOM      1  C   UNL A   1      37.886  23.230  25.645  1.00  0.00     0.202 C 
ENDROOT
BRANCH   1   2
ATOM      2  C   UNL A   1      36.427  23.670  25.517  1.00  0.00     0.261 C 
BRANCH   2   3
ATOM      3  O   UNL A   1      35.599  22.671  24.894  1.00  0.00    -0.463 OA
BRANCH   3   4
ATOM      4  C   UNL A   1      34.902  23.105  23.808  1.00  0.00     0.311 C 
ATOM      5  O   UNL A   1      35.402  23.460  22.751  1.00  0.00    -0.252 OA
BRANCH   4   6
ATOM      6  C   UNL A   1      33.424  23.101  24.090  1.00  0.00     0.128 C 
ATOM      7  N   UNL A   1      31.774  24.146  25.335  1.00  0.00    -0.337 N 
ATOM      8  C   UNL A   1      32.947  24.466  24.551  1.00  0.00     0.135 C 
ATOM      9  C   UNL A   1      31.985  22.899  26.045  1.00  0.00     0.129 C 
ATOM     10  C   UNL A   1      33.085  22.142  25.268  1.00  0.00     0.055 C 
BRANCH   7  11
ATOM     11  C   UNL A   1      30.776  25.006  25.750  1.00  0.00     0.253 C 
ATOM     12  O   UNL A   1      30.101  24.765  26.750  1.00  0.00    -0.269 OA
BRANCH  11  13
ATOM     13  C   UNL A   1      30.364  26.141  24.866  1.00  0.00     0.040 A 
ATOM     14  C   UNL A   1      29.429  28.482  23.627  1.00  0.00     0.067 A 
ATOM     15  C   UNL A   1      30.635  28.502  24.334  1.00  0.00     0.021 A 
ATOM     16  C   UNL A   1      28.705  27.296  23.501  1.00  0.00     0.021 A 
ATOM     17  C   UNL A   1      31.101  27.335  24.945  1.00  0.00     0.015 A 
ATOM     18  C   UNL A   1      29.165  26.136  24.138  1.00  0.00     0.015 A 
BRANCH  14  19
ATOM     19  S   UNL A   1      28.829  30.031  22.991  1.00  0.00     0.175 S 
ATOM     20  C   UNL A   1      29.578  30.280  21.406  1.00  0.00     0.163 C 
ATOM     21  O   UNL A   1      29.338  31.059  23.877  1.00  0.00    -0.224 OA
ATOM     22  O   UNL A   1      27.407  29.856  22.774  1.00  0.00    -0.224 OA
ENDBRANCH  14  19
ENDBRANCH  11  13
ENDBRANCH   7  11
BRANCH  10  23
ATOM     23  C   UNL A   1      32.802  20.728  24.777  1.00  0.00    -0.039 A 
ATOM     24  C   UNL A   1      32.903  19.648  25.672  1.00  0.00     0.024 A 
ATOM     25  C   UNL A   1      32.388  20.429  23.477  1.00  0.00     0.024 A 
ATOM     26  C   UNL A   1      32.656  18.357  25.230  1.00  0.00     0.111 A 
ATOM     27  C   UNL A   1      32.153  19.104  23.128  1.00  0.00     0.111 A 
ATOM     28  N   UNL A   1      32.293  18.060  23.970  1.00  0.00    -0.265 NA
ENDBRANCH  10  23
ENDBRANCH   4   6
ENDBRANCH   3   4
ENDBRANCH   2   3
ENDBRANCH   1   2
BRANCH   1  29
ATOM     29  O   UNL A   1      38.124  21.826  25.697  1.00  0.00    -0.374 OA
BRANCH  29  30
ATOM     30  C   UNL A   1      39.426  21.397  26.089  1.00  0.00     0.202 C 
BRANCH  30  31
ATOM     31  C   UNL A   1      39.655  19.885  26.128  1.00  0.00     0.261 C 
BRANCH  31  32
ATOM     32  O   UNL A   1      40.823  19.521  25.369  1.00  0.00    -0.460 OA
BRANCH  32  33
ATOM     33  C   UNL A   1      41.928  19.302  26.116  1.00  0.00     0.338 C 
ATOM     34  O   UNL A   1      42.410  18.219  26.428  1.00  0.00    -0.246 OA
BRANCH  33  35
ATOM     35  C   UNL A   1      42.630  20.572  26.376  1.00  0.00     0.060 A 
ATOM     36  C   UNL A   1      42.653  21.028  27.700  1.00  0.00     0.016 A 
ATOM     37  C   UNL A   1      43.186  21.339  25.349  1.00  0.00     0.016 A 
ATOM     38  C   UNL A   1      43.161  22.287  27.996  1.00  0.00     0.010 A 
ATOM     39  C   UNL A   1      43.690  22.611  25.646  1.00  0.00     0.010 A 
ATOM     40  C   UNL A   1      43.633  23.106  26.963  1.00  0.00    -0.014 A 
BRANCH  40  41
ATOM     41  C   UNL A   1      43.876  24.541  27.241  1.00  0.00     0.031 A 
ATOM     42  C   UNL A   1      45.263  25.087  27.041  1.00  0.00     0.074 A 
ATOM     43  C   UNL A   1      42.871  25.355  27.608  1.00  0.00     0.049 A 
ATOM     44  N   UNL A   1      45.714  26.301  27.225  1.00  0.00    -0.248 NA
ATOM     45  C   UNL A   1      46.280  24.134  26.570  1.00  0.00     0.031 C 
ATOM     46  C   UNL A   1      41.479  24.949  27.785  1.00  0.00     0.029 A 
ATOM     47  N   UNL A   1      42.873  26.695  27.896  1.00  0.00    -0.354 N 
ATOM     48  C   UNL A   1      47.063  26.256  26.897  1.00  0.00     0.074 A 
ATOM     49  C   UNL A   1      47.367  24.890  26.534  1.00  0.00     0.031 C 
ATOM     50  C   UNL A   1      40.759  26.020  28.161  1.00  0.00     0.029 A 
ATOM     51  C   UNL A   1      41.646  27.177  28.276  1.00  0.00     0.049 A 
ATOM     52  H   UNL A   1      43.678  27.259  27.836  1.00  0.00     0.167 HD
ATOM     53  C   UNL A   1      47.964  27.267  26.888  1.00  0.00     0.037 A 
ATOM     54  C   UNL A   1      41.287  28.409  28.685  1.00  0.00     0.037 A 
ATOM     55  C   UNL A   1      47.657  28.626  27.243  1.00  0.00     0.049 A 
ATOM     56  C   UNL A   1      42.324  29.502  28.732  1.00  0.00     0.074 A 
ATOM     57  C   UNL A   1      48.495  29.726  27.252  1.00  0.00     0.029 A 
ATOM     58  N   UNL A   1      46.410  29.068  27.658  1.00  0.00    -0.354 N 
ATOM     59  N   UNL A   1      43.592  29.455  28.402  1.00  0.00    -0.248 NA
ATOM     60  C   UNL A   1      41.877  30.820  29.204  1.00  0.00     0.031 C 
ATOM     61  C   UNL A   1      47.766  30.826  27.718  1.00  0.00     0.029 A 
ATOM     62  C   UNL A   1      46.461  30.421  27.951  1.00  0.00     0.049 A 
ATOM     63  H   UNL A   1      45.606  28.504  27.733  1.00  0.00     0.167 HD
ATOM     64  C   UNL A   1      44.087  30.738  28.599  1.00  0.00     0.074 A 
ATOM     65  C   UNL A   1      42.979  31.545  29.067  1.00  0.00     0.031 C 
ATOM     66  C   UNL A   1      45.345  31.208  28.408  1.00  0.00     0.037 A 
BRANCH  53  67
ATOM     67  C   UNL A   1      49.376  26.931  26.505  1.00  0.00     0.064 A 
ATOM     68  C   UNL A   1      49.815  26.995  25.174  1.00  0.00     0.173 A 
ATOM     69  C   UNL A   1      50.308  26.566  27.487  1.00  0.00     0.173 A 
ATOM     70  F   UNL A   1      48.957  27.321  24.195  1.00  0.00    -0.203 F 
ATOM     71  C   UNL A   1      51.130  26.682  24.839  1.00  0.00     0.198 A 
ATOM     72  C   UNL A   1      51.628  26.280  27.152  1.00  0.00     0.198 A 
ATOM     73  F   UNL A   1      49.939  26.490  28.775  1.00  0.00    -0.203 F 
ATOM     74  F   UNL A   1      51.516  26.705  23.555  1.00  0.00    -0.200 F 
ATOM     75  C   UNL A   1      52.037  26.333  25.828  1.00  0.00     0.200 A 
ATOM     76  F   UNL A   1      52.506  25.953  28.110  1.00  0.00    -0.200 F 
ATOM     77  F   UNL A   1      53.303  26.037  25.504  1.00  0.00    -0.200 F 
ENDBRANCH  53  67
BRANCH  54  78
ATOM     78  C   UNL A   1      39.883  28.675  29.096  1.00  0.00     0.064 A 
ATOM     79  C   UNL A   1      38.931  29.124  28.173  1.00  0.00     0.173 A 
ATOM     80  C   UNL A   1      39.472  28.497  30.426  1.00  0.00     0.173 A 
ATOM     81  F   UNL A   1      39.282  29.333  26.895  1.00  0.00    -0.203 F 
ATOM     82  C   UNL A   1      37.623  29.401  28.566  1.00  0.00     0.198 A 
ATOM     83  C   UNL A   1      38.158  28.749  30.812  1.00  0.00     0.198 A 
ATOM     84  F   UNL A   1      40.347  28.069  31.348  1.00  0.00    -0.203 F 
ATOM     85  F   UNL A   1      36.742  29.871  27.672  1.00  0.00    -0.200 F 
ATOM     86  C   UNL A   1      37.236  29.208  29.884  1.00  0.00     0.200 A 
ATOM     87  F   UNL A   1      37.786  28.547  32.083  1.00  0.00    -0.200 F 
ATOM     88  F   UNL A   1      35.977  29.469  30.260  1.00  0.00    -0.200 F 
ENDBRANCH  54  78
BRANCH  66  89
ATOM     89  C   UNL A   1      45.583  32.665  28.673  1.00  0.00     0.064 A 
ATOM     90  C   UNL A   1      45.370  33.637  27.684  1.00  0.00     0.173 A 
ATOM     91  C   UNL A   1      45.988  33.099  29.945  1.00  0.00     0.173 A 
ATOM     92  F   UNL A   1      44.996  33.272  26.449  1.00  0.00    -0.203 F 
ATOM     93  C   UNL A   1      45.576  34.988  27.953  1.00  0.00     0.198 A 
ATOM     94  C   UNL A   1      46.165  34.452  30.218  1.00  0.00     0.198 A 
ATOM     95  F   UNL A   1      46.197  32.209  30.926  1.00  0.00    -0.203 F 
ATOM     96  F   UNL A   1      45.410  35.895  26.981  1.00  0.00    -0.200 F 
ATOM     97  C   UNL A   1      45.967  35.394  29.221  1.00  0.00     0.200 A 
ATOM     98  F   UNL A   1      46.529  34.844  31.447  1.00  0.00    -0.200 F 
ATOM     99  F   UNL A   1      46.158  36.696  29.480  1.00  0.00    -0.200 F 
ENDBRANCH  66  89
ENDBRANCH  40  41
ENDBRANCH  33  35
ENDBRANCH  32  33
ENDBRANCH  31  32
ENDBRANCH  30  31
ENDBRANCH  29  30
ENDBRANCH   1  29
TORSDOF 18
ENDMDL
