MODEL 1
REMARK VINA RESULT:     -10.5      0.000      0.000
REMARK SMILES CC[N@@H+](C)CCn1c(SCC(=O)OCCOCCOC(=O)c2ccc(-c3c4nc(c(-c5c(F)c(F)c(F)c(F)c5F)c5ccc([nH]5)c(-c5c(F)c(F)c(F)c(F)c5F)c5nc(c(-c6c(F)c(F)c(F)c(F)c6F)c6ccc3[nH]6)C=C5)C=C4)cc2)nc2cnccc21
REMARK SMILES IDX 14 1 13 2 11 3 12 4 10 5 9 6 8 7 7 8 91 9 85 10 86 11 90 12
REMARK SMILES IDX 87 13 89 14 88 15 6 16 5 17 3 18 4 19 2 21 1 22 15 23 16 24
REMARK SMILES IDX 17 25 18 26 19 27 20 28 21 29 22 30 23 31 84 32 24 33 83 34
REMARK SMILES IDX 25 35 26 36 27 37 77 38 28 39 82 40 76 41 78 42 29 43 81 44
REMARK SMILES IDX 75 45 74 46 30 48 62 49 42 50 61 51 43 52 46 53 60 54 79 55
REMARK SMILES IDX 44 56 45 57 59 59 80 60 47 61 31 62 32 63 40 64 33 65 34 66
REMARK SMILES IDX 38 67 41 68 35 69 36 70 39 71 37 72 63 73 64 74 72 75 65 76
REMARK SMILES IDX 66 77 70 78 73 79 67 80 68 81 71 82 69 83 48 84 49 85 57 86
REMARK SMILES IDX 50 87 51 88 55 89 58 90 52 91 53 92 56 93 54 94
REMARK H PARENT 3 20 78 47 46 58
REMARK Flexibility Score: inf
ROOT
ATOM      1  C   UNL A   1      35.625  24.182  25.208  1.00  0.00     0.261 C 
ENDROOT
BRANCH   1   2
ATOM      2  O   UNL A   1      34.533  25.053  24.859  1.00  0.00    -0.463 OA
BRANCH   2   3
ATOM      3  C   UNL A   1      33.803  24.695  23.772  1.00  0.00     0.316 C 
ATOM      4  O   UNL A   1      34.273  24.521  22.652  1.00  0.00    -0.251 OA
BRANCH   3   5
ATOM      5  C   UNL A   1      32.322  24.554  24.047  1.00  0.00     0.200 C 
BRANCH   5   6
ATOM      6  S   UNL A   1      31.262  25.362  22.855  1.00  0.00    -0.076 SA
BRANCH   6   7
ATOM      7  C   UNL A   1      30.500  26.790  23.509  1.00  0.00     0.169 A 
ATOM      8  N   UNL A   1      30.946  28.101  23.477  1.00  0.00    -0.313 N 
ATOM      9  C   UNL A   1      29.835  28.879  23.167  1.00  0.00     0.072 A 
ATOM     10  N   UNL A   1      29.189  26.764  23.659  1.00  0.00    -0.221 NA
ATOM     11  C   UNL A   1      28.753  28.026  23.350  1.00  0.00     0.108 A 
ATOM     12  C   UNL A   1      29.670  30.192  22.718  1.00  0.00     0.049 A 
ATOM     13  C   UNL A   1      27.460  28.514  23.131  1.00  0.00     0.141 A 
ATOM     14  C   UNL A   1      28.353  30.579  22.506  1.00  0.00     0.113 A 
ATOM     15  N   UNL A   1      27.272  29.794  22.711  1.00  0.00    -0.262 NA
BRANCH   8  16
ATOM     16  C   UNL A   1      32.292  28.617  23.472  1.00  0.00     0.186 C 
BRANCH  16  17
ATOM     17  C   UNL A   1      32.917  29.227  24.730  1.00  0.00     0.284 C 
BRANCH  17  18
ATOM     18  N   UNL A   1      32.105  29.381  25.935  1.00  0.00    -0.336 N 
ATOM     19  C   UNL A   1      31.774  30.785  26.182  1.00  0.00     0.332 C 
ATOM     20  H   UNL A   1      31.246  28.866  25.739  1.00  0.00     0.347 HD
BRANCH  18  21
ATOM     21  C   UNL A   1      32.672  28.757  27.137  1.00  0.00     0.258 C 
ATOM     22  C   UNL A   1      34.199  28.765  27.199  1.00  0.00     0.071 C 
ENDBRANCH  18  21
ENDBRANCH  17  18
ENDBRANCH  16  17
ENDBRANCH   8  16
ENDBRANCH   6   7
ENDBRANCH   5   6
ENDBRANCH   3   5
ENDBRANCH   2   3
ENDBRANCH   1   2
BRANCH   1  23
ATOM     23  C   UNL A   1      35.144  22.898  25.874  1.00  0.00     0.202 C 
BRANCH  23  24
ATOM     24  O   UNL A   1      35.349  21.615  25.317  1.00  0.00    -0.374 OA
BRANCH  24  25
ATOM     25  C   UNL A   1      36.573  21.459  24.634  1.00  0.00     0.202 C 
BRANCH  25  26
ATOM     26  C   UNL A   1      37.898  21.175  25.376  1.00  0.00     0.261 C 
BRANCH  26  27
ATOM     27  O   UNL A   1      38.582  22.334  25.831  1.00  0.00    -0.460 OA
BRANCH  27  28
ATOM     28  C   UNL A   1      39.707  22.084  26.549  1.00  0.00     0.338 C 
ATOM     29  O   UNL A   1      40.335  21.036  26.621  1.00  0.00    -0.246 OA
BRANCH  28  30
ATOM     30  C   UNL A   1      40.267  23.424  26.769  1.00  0.00     0.060 A 
ATOM     31  C   UNL A   1      41.348  23.587  27.645  1.00  0.00     0.016 A 
ATOM     32  C   UNL A   1      39.368  24.470  26.503  1.00  0.00     0.016 A 
ATOM     33  C   UNL A   1      41.415  24.764  28.383  1.00  0.00     0.010 A 
ATOM     34  C   UNL A   1      39.434  25.637  27.251  1.00  0.00     0.010 A 
ATOM     35  C   UNL A   1      40.415  25.759  28.238  1.00  0.00    -0.014 A 
BRANCH  35  36
ATOM     36  C   UNL A   1      40.634  27.046  28.906  1.00  0.00     0.031 A 
ATOM     37  C   UNL A   1      41.901  27.602  28.361  1.00  0.00     0.074 A 
ATOM     38  C   UNL A   1      39.845  27.734  29.767  1.00  0.00     0.049 A 
ATOM     39  N   UNL A   1      43.027  27.724  28.982  1.00  0.00    -0.248 NA
ATOM     40  C   UNL A   1      42.000  27.747  26.893  1.00  0.00     0.031 C 
ATOM     41  C   UNL A   1      38.483  27.458  30.228  1.00  0.00     0.029 A 
ATOM     42  N   UNL A   1      40.109  28.928  30.393  1.00  0.00    -0.354 N 
ATOM     43  C   UNL A   1      43.927  28.151  28.012  1.00  0.00     0.074 A 
ATOM     44  C   UNL A   1      43.312  27.916  26.737  1.00  0.00     0.031 C 
ATOM     45  C   UNL A   1      37.973  28.536  30.865  1.00  0.00     0.029 A 
ATOM     46  C   UNL A   1      38.996  29.551  30.961  1.00  0.00     0.049 A 
ATOM     47  H   UNL A   1      41.013  29.314  30.437  1.00  0.00     0.167 HD
ATOM     48  C   UNL A   1      44.965  28.955  28.349  1.00  0.00     0.037 A 
ATOM     49  C   UNL A   1      38.909  30.821  31.440  1.00  0.00     0.037 A 
ATOM     50  C   UNL A   1      45.260  28.847  29.755  1.00  0.00     0.049 A 
ATOM     51  C   UNL A   1      40.292  31.271  31.705  1.00  0.00     0.074 A 
ATOM     52  C   UNL A   1      45.704  27.842  30.588  1.00  0.00     0.029 A 
ATOM     53  N   UNL A   1      44.708  29.802  30.565  1.00  0.00    -0.354 N 
ATOM     54  N   UNL A   1      41.039  30.787  32.655  1.00  0.00    -0.248 NA
ATOM     55  C   UNL A   1      40.990  31.947  30.627  1.00  0.00     0.031 C 
ATOM     56  C   UNL A   1      45.035  28.057  31.830  1.00  0.00     0.029 A 
ATOM     57  C   UNL A   1      44.267  29.215  31.720  1.00  0.00     0.049 A 
ATOM     58  H   UNL A   1      44.639  30.761  30.351  1.00  0.00     0.167 HD
ATOM     59  C   UNL A   1      42.297  30.695  32.084  1.00  0.00     0.074 A 
ATOM     60  C   UNL A   1      42.226  31.510  30.872  1.00  0.00     0.031 C 
ATOM     61  C   UNL A   1      43.169  29.734  32.501  1.00  0.00     0.037 A 
BRANCH  48  62
ATOM     62  C   UNL A   1      45.360  30.153  27.515  1.00  0.00     0.064 A 
ATOM     63  C   UNL A   1      46.725  30.397  27.283  1.00  0.00     0.173 A 
ATOM     64  C   UNL A   1      44.491  31.222  27.188  1.00  0.00     0.173 A 
ATOM     65  F   UNL A   1      47.645  29.473  27.599  1.00  0.00    -0.203 F 
ATOM     66  C   UNL A   1      47.184  31.631  26.813  1.00  0.00     0.198 A 
ATOM     67  C   UNL A   1      44.946  32.428  26.664  1.00  0.00     0.198 A 
ATOM     68  F   UNL A   1      43.182  31.206  27.467  1.00  0.00    -0.203 F 
ATOM     69  F   UNL A   1      48.501  31.858  26.728  1.00  0.00    -0.200 F 
ATOM     70  C   UNL A   1      46.295  32.644  26.503  1.00  0.00     0.200 A 
ATOM     71  F   UNL A   1      44.065  33.405  26.403  1.00  0.00    -0.200 F 
ATOM     72  F   UNL A   1      46.736  33.843  26.104  1.00  0.00    -0.200 F 
ENDBRANCH  48  62
BRANCH  49  73
ATOM     73  C   UNL A   1      37.789  31.801  31.353  1.00  0.00     0.064 A 
ATOM     74  C   UNL A   1      37.383  32.319  30.106  1.00  0.00     0.173 A 
ATOM     75  C   UNL A   1      36.893  31.992  32.421  1.00  0.00     0.173 A 
ATOM     76  F   UNL A   1      38.158  32.158  29.023  1.00  0.00    -0.203 F 
ATOM     77  C   UNL A   1      36.137  32.931  29.928  1.00  0.00     0.198 A 
ATOM     78  C   UNL A   1      35.651  32.608  32.243  1.00  0.00     0.198 A 
ATOM     79  F   UNL A   1      37.156  31.494  33.636  1.00  0.00    -0.203 F 
ATOM     80  F   UNL A   1      35.754  33.333  28.708  1.00  0.00    -0.200 F 
ATOM     81  C   UNL A   1      35.264  33.058  30.994  1.00  0.00     0.200 A 
ATOM     82  F   UNL A   1      34.800  32.696  33.276  1.00  0.00    -0.200 F 
ATOM     83  F   UNL A   1      34.038  33.570  30.811  1.00  0.00    -0.200 F 
ENDBRANCH  49  73
BRANCH  61  84
ATOM     84  C   UNL A   1      42.863  29.024  33.790  1.00  0.00     0.064 A 
ATOM     85  C   UNL A   1      42.027  27.899  33.906  1.00  0.00     0.173 A 
ATOM     86  C   UNL A   1      43.573  29.421  34.932  1.00  0.00     0.173 A 
ATOM     87  F   UNL A   1      41.377  27.408  32.842  1.00  0.00    -0.203 F 
ATOM     88  C   UNL A   1      41.899  27.220  35.120  1.00  0.00     0.198 A 
ATOM     89  C   UNL A   1      43.473  28.720  36.129  1.00  0.00     0.198 A 
ATOM     90  F   UNL A   1      44.415  30.465  34.866  1.00  0.00    -0.203 F 
ATOM     91  F   UNL A   1      41.099  26.148  35.209  1.00  0.00    -0.200 F 
ATOM     92  C   UNL A   1      42.632  27.624  36.225  1.00  0.00     0.200 A 
ATOM     93  F   UNL A   1      44.221  29.086  37.178  1.00  0.00    -0.200 F 
ATOM     94  F   UNL A   1      42.552  26.938  37.373  1.00  0.00    -0.200 F 
ENDBRANCH  61  84
ENDBRANCH  35  36
ENDBRANCH  28  30
ENDBRANCH  27  28
ENDBRANCH  26  27
ENDBRANCH  25  26
ENDBRANCH  24  25
ENDBRANCH  23  24
ENDBRANCH   1  23
TORSDOF 20
ENDMDL
MODEL 2
REMARK VINA RESULT:     -10.5      2.739      4.630
REMARK SMILES CC[N@@H+](C)CCn1c(SCC(=O)OCCOCCOC(=O)c2ccc(-c3c4nc(c(-c5c(F)c(F)c(F)c(F)c5F)c5ccc([nH]5)c(-c5c(F)c(F)c(F)c(F)c5F)c5nc(c(-c6c(F)c(F)c(F)c(F)c6F)c6ccc3[nH]6)C=C5)C=C4)cc2)nc2cnccc21
REMARK SMILES IDX 14 1 13 2 11 3 12 4 10 5 9 6 8 7 7 8 91 9 85 10 86 11 90 12
REMARK SMILES IDX 87 13 89 14 88 15 6 16 5 17 3 18 4 19 2 21 1 22 15 23 16 24
REMARK SMILES IDX 17 25 18 26 19 27 20 28 21 29 22 30 23 31 84 32 24 33 83 34
REMARK SMILES IDX 25 35 26 36 27 37 77 38 28 39 82 40 76 41 78 42 29 43 81 44
REMARK SMILES IDX 75 45 74 46 30 48 62 49 42 50 61 51 43 52 46 53 60 54 79 55
REMARK SMILES IDX 44 56 45 57 59 59 80 60 47 61 31 62 32 63 40 64 33 65 34 66
REMARK SMILES IDX 38 67 41 68 35 69 36 70 39 71 37 72 63 73 64 74 72 75 65 76
REMARK SMILES IDX 66 77 70 78 73 79 67 80 68 81 71 82 69 83 48 84 49 85 57 86
REMARK SMILES IDX 50 87 51 88 55 89 58 90 52 91 53 92 56 93 54 94
REMARK H PARENT 3 20 78 47 46 58
REMARK Flexibility Score: inf
ROOT
ATOM      1  C   UNL A   1      39.277  21.750  26.053  1.00  0.00     0.261 C 
ENDROOT
BRANCH   1   2
ATOM      2  O   UNL A   1      38.711  20.565  25.462  1.00  0.00    -0.463 OA
BRANCH   2   3
ATOM      3  C   UNL A   1      37.368  20.576  25.263  1.00  0.00     0.316 C 
ATOM      4  O   UNL A   1      36.703  19.583  24.985  1.00  0.00    -0.251 OA
BRANCH   3   5
ATOM      5  C   UNL A   1      36.742  21.948  25.381  1.00  0.00     0.200 C 
BRANCH   5   6
ATOM      6  S   UNL A   1      36.078  22.600  23.854  1.00  0.00    -0.076 SA
BRANCH   6   7
ATOM      7  C   UNL A   1      34.400  23.056  24.004  1.00  0.00     0.169 A 
ATOM      8  N   UNL A   1      33.296  22.243  24.203  1.00  0.00    -0.313 N 
ATOM      9  C   UNL A   1      32.510  22.885  25.155  1.00  0.00     0.072 A 
ATOM     10  N   UNL A   1      34.138  24.280  24.423  1.00  0.00    -0.221 NA
ATOM     11  C   UNL A   1      33.029  24.173  25.221  1.00  0.00     0.108 A 
ATOM     12  C   UNL A   1      31.454  22.473  25.973  1.00  0.00     0.049 A 
ATOM     13  C   UNL A   1      32.442  25.097  26.092  1.00  0.00     0.141 A 
ATOM     14  C   UNL A   1      30.952  23.453  26.820  1.00  0.00     0.113 A 
ATOM     15  N   UNL A   1      31.401  24.726  26.885  1.00  0.00    -0.262 NA
BRANCH   8  16
ATOM     16  C   UNL A   1      33.063  20.885  23.779  1.00  0.00     0.186 C 
BRANCH  16  17
ATOM     17  C   UNL A   1      33.389  19.698  24.692  1.00  0.00     0.284 C 
BRANCH  17  18
ATOM     18  N   UNL A   1      32.689  18.430  24.502  1.00  0.00    -0.336 N 
ATOM     19  C   UNL A   1      32.844  17.553  25.663  1.00  0.00     0.332 C 
ATOM     20  H   UNL A   1      31.706  18.686  24.407  1.00  0.00     0.347 HD
BRANCH  18  21
ATOM     21  C   UNL A   1      33.033  17.722  23.262  1.00  0.00     0.258 C 
ATOM     22  C   UNL A   1      34.027  16.576  23.439  1.00  0.00     0.071 C 
ENDBRANCH  18  21
ENDBRANCH  17  18
ENDBRANCH  16  17
ENDBRANCH   8  16
ENDBRANCH   6   7
ENDBRANCH   5   6
ENDBRANCH   3   5
ENDBRANCH   2   3
ENDBRANCH   1   2
BRANCH   1  23
ATOM     23  C   UNL A   1      40.236  21.420  27.191  1.00  0.00     0.202 C 
BRANCH  23  24
ATOM     24  O   UNL A   1      41.133  20.327  27.154  1.00  0.00    -0.374 OA
BRANCH  24  25
ATOM     25  C   UNL A   1      41.893  20.230  25.970  1.00  0.00     0.202 C 
BRANCH  25  26
ATOM     26  C   UNL A   1      43.346  20.748  25.881  1.00  0.00     0.261 C 
BRANCH  26  27
ATOM     27  O   UNL A   1      43.542  22.053  26.406  1.00  0.00    -0.460 OA
BRANCH  27  28
ATOM     28  C   UNL A   1      43.208  23.061  25.561  1.00  0.00     0.338 C 
ATOM     29  O   UNL A   1      43.174  23.036  24.338  1.00  0.00    -0.246 OA
BRANCH  28  30
ATOM     30  C   UNL A   1      42.420  23.963  26.413  1.00  0.00     0.060 A 
ATOM     31  C   UNL A   1      41.589  24.923  25.821  1.00  0.00     0.016 A 
ATOM     32  C   UNL A   1      42.949  24.139  27.702  1.00  0.00     0.016 A 
ATOM     33  C   UNL A   1      41.433  26.140  26.475  1.00  0.00     0.010 A 
ATOM     34  C   UNL A   1      42.799  25.360  28.343  1.00  0.00     0.010 A 
ATOM     35  C   UNL A   1      42.100  26.385  27.702  1.00  0.00    -0.014 A 
BRANCH  35  36
ATOM     36  C   UNL A   1      41.758  27.612  28.429  1.00  0.00     0.031 A 
ATOM     37  C   UNL A   1      42.852  28.585  28.169  1.00  0.00     0.074 A 
ATOM     38  C   UNL A   1      40.641  27.938  29.124  1.00  0.00     0.049 A 
ATOM     39  N   UNL A   1      43.739  29.000  29.010  1.00  0.00    -0.248 NA
ATOM     40  C   UNL A   1      43.172  28.881  26.756  1.00  0.00     0.031 C 
ATOM     41  C   UNL A   1      39.383  27.207  29.289  1.00  0.00     0.029 A 
ATOM     42  N   UNL A   1      40.378  29.095  29.817  1.00  0.00    -0.354 N 
ATOM     43  C   UNL A   1      44.615  29.772  28.257  1.00  0.00     0.074 A 
ATOM     44  C   UNL A   1      44.361  29.468  26.877  1.00  0.00     0.031 C 
ATOM     45  C   UNL A   1      38.439  28.010  29.831  1.00  0.00     0.029 A 
ATOM     46  C   UNL A   1      39.037  29.283  30.157  1.00  0.00     0.049 A 
ATOM     47  H   UNL A   1      41.081  29.741  30.054  1.00  0.00     0.167 HD
ATOM     48  C   UNL A   1      45.251  30.830  28.817  1.00  0.00     0.037 A 
ATOM     49  C   UNL A   1      38.452  30.414  30.635  1.00  0.00     0.037 A 
ATOM     50  C   UNL A   1      45.296  30.698  30.251  1.00  0.00     0.049 A 
ATOM     51  C   UNL A   1      39.536  31.251  31.189  1.00  0.00     0.074 A 
ATOM     52  C   UNL A   1      45.879  29.815  31.136  1.00  0.00     0.029 A 
ATOM     53  N   UNL A   1      44.321  31.356  30.951  1.00  0.00    -0.354 N 
ATOM     54  N   UNL A   1      40.208  30.947  32.262  1.00  0.00    -0.248 NA
ATOM     55  C   UNL A   1      40.165  32.205  30.293  1.00  0.00     0.031 C 
ATOM     56  C   UNL A   1      44.956  29.699  32.218  1.00  0.00     0.029 A 
ATOM     57  C   UNL A   1      43.887  30.561  31.977  1.00  0.00     0.049 A 
ATOM     58  H   UNL A   1      43.984  32.259  30.749  1.00  0.00     0.167 HD
ATOM     59  C   UNL A   1      41.510  31.307  31.960  1.00  0.00     0.074 A 
ATOM     60  C   UNL A   1      41.407  32.160  30.778  1.00  0.00     0.031 C 
ATOM     61  C   UNL A   1      42.554  30.637  32.526  1.00  0.00     0.037 A 
BRANCH  48  62
ATOM     62  C   UNL A   1      45.382  32.160  28.109  1.00  0.00     0.064 A 
ATOM     63  C   UNL A   1      44.215  32.879  27.797  1.00  0.00     0.173 A 
ATOM     64  C   UNL A   1      46.561  32.612  27.469  1.00  0.00     0.173 A 
ATOM     65  F   UNL A   1      43.030  32.511  28.308  1.00  0.00    -0.203 F 
ATOM     66  C   UNL A   1      44.221  33.931  26.876  1.00  0.00     0.198 A 
ATOM     67  C   UNL A   1      46.575  33.698  26.598  1.00  0.00     0.198 A 
ATOM     68  F   UNL A   1      47.728  31.964  27.553  1.00  0.00    -0.203 F 
ATOM     69  F   UNL A   1      43.065  34.503  26.516  1.00  0.00    -0.200 F 
ATOM     70  C   UNL A   1      45.401  34.340  26.279  1.00  0.00     0.200 A 
ATOM     71  F   UNL A   1      47.725  34.053  26.009  1.00  0.00    -0.200 F 
ATOM     72  F   UNL A   1      45.400  35.312  25.359  1.00  0.00    -0.200 F 
ENDBRANCH  48  62
BRANCH  49  73
ATOM     73  C   UNL A   1      37.111  30.995  30.341  1.00  0.00     0.064 A 
ATOM     74  C   UNL A   1      36.253  31.386  31.389  1.00  0.00     0.173 A 
ATOM     75  C   UNL A   1      36.783  31.479  29.062  1.00  0.00     0.173 A 
ATOM     76  F   UNL A   1      36.503  30.999  32.648  1.00  0.00    -0.203 F 
ATOM     77  C   UNL A   1      35.175  32.256  31.178  1.00  0.00     0.198 A 
ATOM     78  C   UNL A   1      35.703  32.343  28.852  1.00  0.00     0.198 A 
ATOM     79  F   UNL A   1      37.560  31.211  28.004  1.00  0.00    -0.203 F 
ATOM     80  F   UNL A   1      34.436  32.672  32.216  1.00  0.00    -0.200 F 
ATOM     81  C   UNL A   1      34.913  32.748  29.912  1.00  0.00     0.200 A 
ATOM     82  F   UNL A   1      35.479  32.839  27.626  1.00  0.00    -0.200 F 
ATOM     83  F   UNL A   1      33.933  33.643  29.720  1.00  0.00    -0.200 F 
ENDBRANCH  49  73
BRANCH  61  84
ATOM     84  C   UNL A   1      42.261  29.757  33.710  1.00  0.00     0.064 A 
ATOM     85  C   UNL A   1      41.818  28.425  33.626  1.00  0.00     0.173 A 
ATOM     86  C   UNL A   1      42.587  30.250  34.980  1.00  0.00     0.173 A 
ATOM     87  F   UNL A   1      41.562  27.853  32.440  1.00  0.00    -0.203 F 
ATOM     88  C   UNL A   1      41.694  27.635  34.771  1.00  0.00     0.198 A 
ATOM     89  C   UNL A   1      42.500  29.450  36.114  1.00  0.00     0.198 A 
ATOM     90  F   UNL A   1      43.053  31.503  35.112  1.00  0.00    -0.203 F 
ATOM     91  F   UNL A   1      41.273  26.366  34.670  1.00  0.00    -0.200 F 
ATOM     92  C   UNL A   1      42.048  28.145  36.011  1.00  0.00     0.200 A 
ATOM     93  F   UNL A   1      42.890  29.933  37.301  1.00  0.00    -0.200 F 
ATOM     94  F   UNL A   1      41.983  27.369  37.102  1.00  0.00    -0.200 F 
ENDBRANCH  61  84
ENDBRANCH  35  36
ENDBRANCH  28  30
ENDBRANCH  27  28
ENDBRANCH  26  27
ENDBRANCH  25  26
ENDBRANCH  24  25
ENDBRANCH  23  24
ENDBRANCH   1  23
TORSDOF 20
ENDMDL
MODEL 3
REMARK VINA RESULT:     -10.4      3.697      9.181
REMARK SMILES CC[N@@H+](C)CCn1c(SCC(=O)OCCOCCOC(=O)c2ccc(-c3c4nc(c(-c5c(F)c(F)c(F)c(F)c5F)c5ccc([nH]5)c(-c5c(F)c(F)c(F)c(F)c5F)c5nc(c(-c6c(F)c(F)c(F)c(F)c6F)c6ccc3[nH]6)C=C5)C=C4)cc2)nc2cnccc21
REMARK SMILES IDX 14 1 13 2 11 3 12 4 10 5 9 6 8 7 7 8 91 9 85 10 86 11 90 12
REMARK SMILES IDX 87 13 89 14 88 15 6 16 5 17 3 18 4 19 2 21 1 22 15 23 16 24
REMARK SMILES IDX 17 25 18 26 19 27 20 28 21 29 22 30 23 31 84 32 24 33 83 34
REMARK SMILES IDX 25 35 26 36 27 37 77 38 28 39 82 40 76 41 78 42 29 43 81 44
REMARK SMILES IDX 75 45 74 46 30 48 62 49 42 50 61 51 43 52 46 53 60 54 79 55
REMARK SMILES IDX 44 56 45 57 59 59 80 60 47 61 31 62 32 63 40 64 33 65 34 66
REMARK SMILES IDX 38 67 41 68 35 69 36 70 39 71 37 72 63 73 64 74 72 75 65 76
REMARK SMILES IDX 66 77 70 78 73 79 67 80 68 81 71 82 69 83 48 84 49 85 57 86
REMARK SMILES IDX 50 87 51 88 55 89 58 90 52 91 53 92 56 93 54 94
REMARK H PARENT 3 20 78 47 46 58
REMARK Flexibility Score: inf
ROOT
ATOM      1  C   UNL A   1      31.170  26.831  26.817  1.00  0.00     0.261 C 
ENDROOT
BRANCH   1   2
ATOM      2  O   UNL A   1      32.149  25.866  26.388  1.00  0.00    -0.463 OA
BRANCH   2   3
ATOM      3  C   UNL A   1      31.767  24.564  26.432  1.00  0.00     0.316 C 
ATOM      4  O   UNL A   1      30.970  24.105  27.243  1.00  0.00    -0.251 OA
BRANCH   3   5
ATOM      5  C   UNL A   1      32.443  23.692  25.396  1.00  0.00     0.200 C 
BRANCH   5   6
ATOM      6  S   UNL A   1      31.764  22.044  25.251  1.00  0.00    -0.076 SA
BRANCH   6   7
ATOM      7  C   UNL A   1      32.814  20.974  24.357  1.00  0.00     0.169 A 
ATOM      8  N   UNL A   1      33.935  20.291  24.800  1.00  0.00    -0.313 N 
ATOM      9  C   UNL A   1      33.845  19.011  24.264  1.00  0.00     0.072 A 
ATOM     10  N   UNL A   1      32.305  20.366  23.302  1.00  0.00    -0.221 NA
ATOM     11  C   UNL A   1      32.857  19.112  23.290  1.00  0.00     0.108 A 
ATOM     12  C   UNL A   1      34.476  17.797  24.549  1.00  0.00     0.049 A 
ATOM     13  C   UNL A   1      32.527  17.978  22.539  1.00  0.00     0.141 A 
ATOM     14  C   UNL A   1      34.067  16.724  23.768  1.00  0.00     0.113 A 
ATOM     15  N   UNL A   1      33.141  16.790  22.785  1.00  0.00    -0.262 NA
BRANCH   8  16
ATOM     16  C   UNL A   1      34.890  20.651  25.818  1.00  0.00     0.186 C 
BRANCH  16  17
ATOM     17  C   UNL A   1      35.836  21.843  25.638  1.00  0.00     0.284 C 
BRANCH  17  18
ATOM     18  N   UNL A   1      37.160  21.630  25.060  1.00  0.00    -0.336 N 
ATOM     19  C   UNL A   1      37.497  20.208  25.001  1.00  0.00     0.332 C 
ATOM     20  H   UNL A   1      37.093  21.996  24.110  1.00  0.00     0.347 HD
BRANCH  18  21
ATOM     21  C   UNL A   1      38.237  22.397  25.701  1.00  0.00     0.258 C 
ATOM     22  C   UNL A   1      37.867  23.835  26.059  1.00  0.00     0.071 C 
ENDBRANCH  18  21
ENDBRANCH  17  18
ENDBRANCH  16  17
ENDBRANCH   8  16
ENDBRANCH   6   7
ENDBRANCH   5   6
ENDBRANCH   3   5
ENDBRANCH   2   3
ENDBRANCH   1   2
BRANCH   1  23
ATOM     23  C   UNL A   1      31.816  28.121  27.310  1.00  0.00     0.202 C 
BRANCH  23  24
ATOM     24  O   UNL A   1      32.069  29.230  26.470  1.00  0.00    -0.374 OA
BRANCH  24  25
ATOM     25  C   UNL A   1      32.177  30.465  27.142  1.00  0.00     0.202 C 
BRANCH  25  26
ATOM     26  C   UNL A   1      33.467  31.315  27.096  1.00  0.00     0.261 C 
BRANCH  26  27
ATOM     27  O   UNL A   1      34.429  30.985  28.087  1.00  0.00    -0.460 OA
BRANCH  27  28
ATOM     28  C   UNL A   1      35.496  31.822  28.142  1.00  0.00     0.338 C 
ATOM     29  O   UNL A   1      35.493  33.045  28.140  1.00  0.00    -0.246 OA
BRANCH  28  30
ATOM     30  C   UNL A   1      36.552  30.979  28.721  1.00  0.00     0.060 A 
ATOM     31  C   UNL A   1      37.680  31.579  29.296  1.00  0.00     0.016 A 
ATOM     32  C   UNL A   1      36.594  29.676  28.197  1.00  0.00     0.016 A 
ATOM     33  C   UNL A   1      38.897  30.917  29.183  1.00  0.00     0.010 A 
ATOM     34  C   UNL A   1      37.814  29.027  28.077  1.00  0.00     0.010 A 
ATOM     35  C   UNL A   1      38.976  29.672  28.507  1.00  0.00    -0.014 A 
BRANCH  35  36
ATOM     36  C   UNL A   1      40.245  28.941  28.575  1.00  0.00     0.031 A 
ATOM     37  C   UNL A   1      40.531  28.709  30.016  1.00  0.00     0.074 A 
ATOM     38  C   UNL A   1      41.016  28.427  27.586  1.00  0.00     0.049 A 
ATOM     39  N   UNL A   1      41.457  29.265  30.723  1.00  0.00    -0.248 NA
ATOM     40  C   UNL A   1      39.487  28.028  30.812  1.00  0.00     0.031 C 
ATOM     41  C   UNL A   1      40.780  28.356  26.143  1.00  0.00     0.029 A 
ATOM     42  N   UNL A   1      42.219  27.773  27.699  1.00  0.00    -0.354 N 
ATOM     43  C   UNL A   1      41.220  28.838  32.024  1.00  0.00     0.074 A 
ATOM     44  C   UNL A   1      39.891  28.295  32.052  1.00  0.00     0.031 C 
ATOM     45  C   UNL A   1      41.672  27.524  25.559  1.00  0.00     0.029 A 
ATOM     46  C   UNL A   1      42.619  27.079  26.555  1.00  0.00     0.049 A 
ATOM     47  H   UNL A   1      42.757  27.793  28.522  1.00  0.00     0.167 HD
ATOM     48  C   UNL A   1      42.251  28.673  32.889  1.00  0.00     0.037 A 
ATOM     49  C   UNL A   1      43.629  26.175  26.442  1.00  0.00     0.037 A 
ATOM     50  C   UNL A   1      43.396  29.440  32.471  1.00  0.00     0.049 A 
ATOM     51  C   UNL A   1      44.533  26.403  27.588  1.00  0.00     0.074 A 
ATOM     52  C   UNL A   1      43.674  30.782  32.319  1.00  0.00     0.029 A 
ATOM     53  N   UNL A   1      44.347  28.767  31.752  1.00  0.00    -0.354 N 
ATOM     54  N   UNL A   1      45.276  27.464  27.722  1.00  0.00    -0.248 NA
ATOM     55  C   UNL A   1      44.274  25.650  28.801  1.00  0.00     0.031 C 
ATOM     56  C   UNL A   1      44.537  30.864  31.186  1.00  0.00     0.029 A 
ATOM     57  C   UNL A   1      44.799  29.569  30.740  1.00  0.00     0.049 A 
ATOM     58  H   UNL A   1      44.656  27.850  31.933  1.00  0.00     0.167 HD
ATOM     59  C   UNL A   1      45.200  27.763  29.071  1.00  0.00     0.074 A 
ATOM     60  C   UNL A   1      44.650  26.562  29.699  1.00  0.00     0.031 C 
ATOM     61  C   UNL A   1      45.316  29.054  29.495  1.00  0.00     0.037 A 
BRANCH  48  62
ATOM     62  C   UNL A   1      42.354  27.470  33.801  1.00  0.00     0.064 A 
ATOM     63  C   UNL A   1      41.887  27.580  35.122  1.00  0.00     0.173 A 
ATOM     64  C   UNL A   1      43.146  26.328  33.532  1.00  0.00     0.173 A 
ATOM     65  F   UNL A   1      41.166  28.645  35.504  1.00  0.00    -0.203 F 
ATOM     66  C   UNL A   1      42.233  26.650  36.106  1.00  0.00     0.198 A 
ATOM     67  C   UNL A   1      43.440  25.372  34.500  1.00  0.00     0.198 A 
ATOM     68  F   UNL A   1      43.775  26.138  32.367  1.00  0.00    -0.203 F 
ATOM     69  F   UNL A   1      41.870  26.863  37.377  1.00  0.00    -0.200 F 
ATOM     70  C   UNL A   1      43.007  25.546  35.794  1.00  0.00     0.200 A 
ATOM     71  F   UNL A   1      44.219  24.329  34.178  1.00  0.00    -0.200 F 
ATOM     72  F   UNL A   1      43.383  24.683  36.746  1.00  0.00    -0.200 F 
ENDBRANCH  48  62
BRANCH  49  73
ATOM     73  C   UNL A   1      43.698  24.913  25.652  1.00  0.00     0.064 A 
ATOM     74  C   UNL A   1      44.877  24.561  24.963  1.00  0.00     0.173 A 
ATOM     75  C   UNL A   1      42.754  23.884  25.823  1.00  0.00     0.173 A 
ATOM     76  F   UNL A   1      45.848  25.467  24.780  1.00  0.00    -0.203 F 
ATOM     77  C   UNL A   1      45.119  23.251  24.531  1.00  0.00     0.198 A 
ATOM     78  C   UNL A   1      42.994  22.578  25.385  1.00  0.00     0.198 A 
ATOM     79  F   UNL A   1      41.622  24.096  26.508  1.00  0.00    -0.203 F 
ATOM     80  F   UNL A   1      46.290  22.940  23.956  1.00  0.00    -0.200 F 
ATOM     81  C   UNL A   1      44.184  22.257  24.759  1.00  0.00     0.200 A 
ATOM     82  F   UNL A   1      42.096  21.617  25.642  1.00  0.00    -0.200 F 
ATOM     83  F   UNL A   1      44.447  20.987  24.419  1.00  0.00    -0.200 F 
ENDBRANCH  49  73
BRANCH  61  84
ATOM     84  C   UNL A   1      45.856  30.063  28.519  1.00  0.00     0.064 A 
ATOM     85  C   UNL A   1      45.078  30.761  27.578  1.00  0.00     0.173 A 
ATOM     86  C   UNL A   1      47.199  30.439  28.653  1.00  0.00     0.173 A 
ATOM     87  F   UNL A   1      43.767  30.517  27.445  1.00  0.00    -0.203 F 
ATOM     88  C   UNL A   1      45.635  31.777  26.797  1.00  0.00     0.198 A 
ATOM     89  C   UNL A   1      47.741  31.477  27.902  1.00  0.00     0.198 A 
ATOM     90  F   UNL A   1      47.976  29.832  29.564  1.00  0.00    -0.203 F 
ATOM     91  F   UNL A   1      44.876  32.433  25.907  1.00  0.00    -0.200 F 
ATOM     92  C   UNL A   1      46.961  32.142  26.970  1.00  0.00     0.200 A 
ATOM     93  F   UNL A   1      49.008  31.856  28.109  1.00  0.00    -0.200 F 
ATOM     94  F   UNL A   1      47.479  33.154  26.261  1.00  0.00    -0.200 F 
ENDBRANCH  61  84
ENDBRANCH  35  36
ENDBRANCH  28  30
ENDBRANCH  27  28
ENDBRANCH  26  27
ENDBRANCH  25  26
ENDBRANCH  24  25
ENDBRANCH  23  24
ENDBRANCH   1  23
TORSDOF 20
ENDMDL
