MODEL 1
REMARK VINA RESULT:     -11.5      0.000      0.000
REMARK SMILES O=C(COc1ccc(N2C[C@@H](C(=O)OCCOCCOC(=O)c3ccc(-c4c5nc(c(-c6c(F)c(F)c(F)c(F)c6F)c6ccc([nH]6)c(-c6c(F)c(F)c(F)c(F)c6F)c6nc(c(-c7c(F)c(F)c(F)c(F)c7F)c7ccc4[nH]7)C=C6)C=C5)cc3)CC2=O)cc1)Nc1ccc(Cl)cc1Cl
REMARK SMILES IDX 15 1 14 2 12 3 13 4 11 5 9 6 10 7 87 8 86 9 88 10 8 11 5 12
REMARK SMILES IDX 6 13 90 14 7 15 89 16 4 17 3 18 2 19 1 20 91 21 92 23 93 24
REMARK SMILES IDX 98 25 94 26 97 27 99 28 95 29 96 30 16 31 17 32 18 33 19 34
REMARK SMILES IDX 20 35 21 36 22 37 23 38 24 39 85 40 25 41 84 42 26 43 27 44
REMARK SMILES IDX 28 45 78 46 29 47 83 48 77 49 79 50 30 51 82 52 76 53 75 54
REMARK SMILES IDX 31 56 63 57 43 58 62 59 44 60 47 61 61 62 80 63 45 64 46 65
REMARK SMILES IDX 60 67 81 68 48 69 32 70 33 71 41 72 34 73 35 74 39 75 42 76
REMARK SMILES IDX 36 77 37 78 40 79 38 80 64 81 65 82 73 83 66 84 67 85 71 86
REMARK SMILES IDX 74 87 68 88 69 89 72 90 70 91 49 92 50 93 58 94 51 95 52 96
REMARK SMILES IDX 56 97 59 98 53 99 54 100 57 101 55 102
REMARK H PARENT 91 22 79 55 47 66
REMARK Flexibility Score: inf
ROOT
ATOM      1  C   UNL A   1      34.469  32.398  28.995  1.00  0.00     0.261 C 
ENDROOT
BRANCH   1   2
ATOM      2  O   UNL A   1      34.048  31.807  27.757  1.00  0.00    -0.463 OA
BRANCH   2   3
ATOM      3  C   UNL A   1      34.382  30.507  27.569  1.00  0.00     0.311 C 
ATOM      4  O   UNL A   1      35.513  30.048  27.666  1.00  0.00    -0.252 OA
BRANCH   3   5
ATOM      5  C   UNL A   1      33.195  29.645  27.226  1.00  0.00     0.128 C 
ATOM      6  N   UNL A   1      32.779  27.785  25.866  1.00  0.00    -0.312 N 
ATOM      7  C   UNL A   1      33.712  28.276  26.844  1.00  0.00     0.141 C 
ATOM      8  C   UNL A   1      31.946  28.794  25.381  1.00  0.00     0.227 C 
ATOM      9  C   UNL A   1      32.326  30.081  26.053  1.00  0.00     0.117 C 
ATOM     10  O   UNL A   1      31.056  28.717  24.547  1.00  0.00    -0.274 OA
BRANCH   6  11
ATOM     11  C   UNL A   1      32.898  26.493  25.317  1.00  0.00     0.044 A 
ATOM     12  C   UNL A   1      33.024  23.943  24.147  1.00  0.00     0.120 A 
ATOM     13  C   UNL A   1      33.963  24.910  23.801  1.00  0.00     0.048 A 
ATOM     14  C   UNL A   1      32.050  24.238  25.095  1.00  0.00     0.048 A 
ATOM     15  C   UNL A   1      33.883  26.190  24.365  1.00  0.00     0.030 A 
ATOM     16  C   UNL A   1      31.994  25.498  25.682  1.00  0.00     0.030 A 
BRANCH  12  17
ATOM     17  O   UNL A   1      33.151  22.686  23.618  1.00  0.00    -0.484 OA
BRANCH  17  18
ATOM     18  C   UNL A   1      33.234  21.674  24.627  1.00  0.00     0.329 C 
BRANCH  18  19
ATOM     19  C   UNL A   1      34.497  21.754  25.493  1.00  0.00     0.262 C 
ATOM     20  O   UNL A   1      34.422  21.892  26.709  1.00  0.00    -0.271 OA
ATOM     21  N   UNL A   1      35.658  21.765  24.727  1.00  0.00    -0.322 N 
ATOM     22  H   UNL A   1      35.584  21.516  23.777  1.00  0.00     0.170 HD
BRANCH  21  23
ATOM     23  C   UNL A   1      36.937  22.109  25.221  1.00  0.00     0.060 A 
ATOM     24  C   UNL A   1      37.107  23.462  25.562  1.00  0.00     0.029 A 
ATOM     25  C   UNL A   1      38.002  21.217  25.438  1.00  0.00     0.066 A 
ATOM     26  C   UNL A   1      38.272  23.897  26.197  1.00  0.00     0.023 A 
ATOM     27  C   UNL A   1      39.169  21.659  26.073  1.00  0.00     0.043 A 
ATOM     28  Cl  UNL A   1      38.036  19.614  24.788  1.00  0.00    -0.082 Cl
ATOM     29  C   UNL A   1      39.291  22.989  26.465  1.00  0.00     0.042 A 
ATOM     30  Cl  UNL A   1      40.719  23.521  27.261  1.00  0.00    -0.084 Cl
ENDBRANCH  21  23
ENDBRANCH  18  19
ENDBRANCH  17  18
ENDBRANCH  12  17
ENDBRANCH   6  11
ENDBRANCH   3   5
ENDBRANCH   2   3
ENDBRANCH   1   2
BRANCH   1  31
ATOM     31  C   UNL A   1      35.532  33.470  28.742  1.00  0.00     0.202 C 
BRANCH  31  32
ATOM     32  O   UNL A   1      35.100  34.824  28.869  1.00  0.00    -0.374 OA
BRANCH  32  33
ATOM     33  C   UNL A   1      33.774  35.146  28.449  1.00  0.00     0.202 C 
BRANCH  33  34
ATOM     34  C   UNL A   1      32.886  35.891  29.453  1.00  0.00     0.261 C 
BRANCH  34  35
ATOM     35  O   UNL A   1      32.514  35.066  30.572  1.00  0.00    -0.460 OA
BRANCH  35  36
ATOM     36  C   UNL A   1      32.746  35.623  31.784  1.00  0.00     0.338 C 
ATOM     37  O   UNL A   1      32.060  36.454  32.363  1.00  0.00    -0.246 OA
BRANCH  36  38
ATOM     38  C   UNL A   1      33.884  34.961  32.445  1.00  0.00     0.060 A 
ATOM     39  C   UNL A   1      35.133  35.591  32.360  1.00  0.00     0.016 A 
ATOM     40  C   UNL A   1      33.760  33.707  33.045  1.00  0.00     0.016 A 
ATOM     41  C   UNL A   1      36.273  34.946  32.833  1.00  0.00     0.010 A 
ATOM     42  C   UNL A   1      34.908  33.056  33.511  1.00  0.00     0.010 A 
ATOM     43  C   UNL A   1      36.173  33.658  33.375  1.00  0.00    -0.014 A 
BRANCH  43  44
ATOM     44  C   UNL A   1      37.410  32.895  33.671  1.00  0.00     0.031 A 
ATOM     45  C   UNL A   1      38.163  33.183  34.940  1.00  0.00     0.074 A 
ATOM     46  C   UNL A   1      37.843  31.938  32.831  1.00  0.00     0.049 A 
ATOM     47  N   UNL A   1      39.276  32.657  35.385  1.00  0.00    -0.248 NA
ATOM     48  C   UNL A   1      37.583  34.202  35.829  1.00  0.00     0.031 C 
ATOM     49  C   UNL A   1      37.183  31.546  31.588  1.00  0.00     0.029 A 
ATOM     50  N   UNL A   1      38.950  31.130  32.896  1.00  0.00    -0.354 N 
ATOM     51  C   UNL A   1      39.535  33.286  36.595  1.00  0.00     0.074 A 
ATOM     52  C   UNL A   1      38.475  34.247  36.809  1.00  0.00     0.031 C 
ATOM     53  C   UNL A   1      37.910  30.583  30.994  1.00  0.00     0.029 A 
ATOM     54  C   UNL A   1      39.097  30.313  31.803  1.00  0.00     0.049 A 
ATOM     55  H   UNL A   1      39.578  31.135  33.654  1.00  0.00     0.167 HD
ATOM     56  C   UNL A   1      40.562  33.075  37.451  1.00  0.00     0.037 A 
ATOM     57  C   UNL A   1      40.093  29.463  31.481  1.00  0.00     0.037 A 
ATOM     58  C   UNL A   1      41.608  32.110  37.245  1.00  0.00     0.049 A 
ATOM     59  C   UNL A   1      41.253  29.289  32.427  1.00  0.00     0.074 A 
ATOM     60  C   UNL A   1      42.663  31.787  38.080  1.00  0.00     0.029 A 
ATOM     61  N   UNL A   1      41.737  31.317  36.114  1.00  0.00    -0.354 N 
ATOM     62  N   UNL A   1      41.463  29.851  33.592  1.00  0.00    -0.248 NA
ATOM     63  C   UNL A   1      42.314  28.361  32.011  1.00  0.00     0.031 C 
ATOM     64  C   UNL A   1      43.459  30.837  37.434  1.00  0.00     0.029 A 
ATOM     65  C   UNL A   1      42.874  30.532  36.215  1.00  0.00     0.049 A 
ATOM     66  H   UNL A   1      41.115  31.315  35.351  1.00  0.00     0.167 HD
ATOM     67  C   UNL A   1      42.663  29.329  34.058  1.00  0.00     0.074 A 
ATOM     68  C   UNL A   1      43.129  28.393  33.057  1.00  0.00     0.031 C 
ATOM     69  C   UNL A   1      43.321  29.601  35.212  1.00  0.00     0.037 A 
BRANCH  56  70
ATOM     70  C   UNL A   1      40.622  33.922  38.688  1.00  0.00     0.064 A 
ATOM     71  C   UNL A   1      41.348  35.121  38.727  1.00  0.00     0.173 A 
ATOM     72  C   UNL A   1      39.897  33.554  39.832  1.00  0.00     0.173 A 
ATOM     73  F   UNL A   1      42.067  35.509  37.663  1.00  0.00    -0.203 F 
ATOM     74  C   UNL A   1      41.362  35.911  39.874  1.00  0.00     0.198 A 
ATOM     75  C   UNL A   1      39.893  34.359  40.968  1.00  0.00     0.198 A 
ATOM     76  F   UNL A   1      39.182  32.418  39.843  1.00  0.00    -0.203 F 
ATOM     77  F   UNL A   1      42.090  37.035  39.902  1.00  0.00    -0.200 F 
ATOM     78  C   UNL A   1      40.628  35.534  40.989  1.00  0.00     0.200 A 
ATOM     79  F   UNL A   1      39.175  33.998  42.040  1.00  0.00    -0.200 F 
ATOM     80  F   UNL A   1      40.635  36.301  42.088  1.00  0.00    -0.200 F 
ENDBRANCH  56  70
BRANCH  57  81
ATOM     81  C   UNL A   1      40.052  28.726  30.192  1.00  0.00     0.064 A 
ATOM     82  C   UNL A   1      39.423  27.479  30.088  1.00  0.00     0.173 A 
ATOM     83  C   UNL A   1      40.667  29.245  29.042  1.00  0.00     0.173 A 
ATOM     84  F   UNL A   1      38.844  26.929  31.166  1.00  0.00    -0.203 F 
ATOM     85  C   UNL A   1      39.427  26.769  28.889  1.00  0.00     0.198 A 
ATOM     86  C   UNL A   1      40.647  28.547  27.837  1.00  0.00     0.198 A 
ATOM     87  F   UNL A   1      41.285  30.434  29.090  1.00  0.00    -0.203 F 
ATOM     88  F   UNL A   1      38.859  25.555  28.829  1.00  0.00    -0.200 F 
ATOM     89  C   UNL A   1      40.034  27.306  27.763  1.00  0.00     0.200 A 
ATOM     90  F   UNL A   1      41.226  29.074  26.750  1.00  0.00    -0.200 F 
ATOM     91  F   UNL A   1      40.037  26.622  26.611  1.00  0.00    -0.200 F 
ENDBRANCH  57  81
BRANCH  69  92
ATOM     92  C   UNL A   1      44.600  28.859  35.468  1.00  0.00     0.064 A 
ATOM     93  C   UNL A   1      45.843  29.387  35.089  1.00  0.00     0.173 A 
ATOM     94  C   UNL A   1      44.586  27.629  36.143  1.00  0.00     0.173 A 
ATOM     95  F   UNL A   1      45.908  30.552  34.429  1.00  0.00    -0.203 F 
ATOM     96  C   UNL A   1      47.024  28.699  35.357  1.00  0.00     0.198 A 
ATOM     97  C   UNL A   1      45.770  26.957  36.433  1.00  0.00     0.198 A 
ATOM     98  F   UNL A   1      43.423  27.085  36.532  1.00  0.00    -0.203 F 
ATOM     99  F   UNL A   1      48.197  29.200  34.949  1.00  0.00    -0.200 F 
ATOM    100  C   UNL A   1      46.987  27.489  36.035  1.00  0.00     0.200 A 
ATOM    101  F   UNL A   1      45.733  25.795  37.100  1.00  0.00    -0.200 F 
ATOM    102  F   UNL A   1      48.124  26.832  36.300  1.00  0.00    -0.200 F 
ENDBRANCH  69  92
ENDBRANCH  43  44
ENDBRANCH  36  38
ENDBRANCH  35  36
ENDBRANCH  34  35
ENDBRANCH  33  34
ENDBRANCH  32  33
ENDBRANCH  31  32
ENDBRANCH   1  31
TORSDOF 19
ENDMDL
MODEL 2
REMARK VINA RESULT:     -11.2      3.775      9.638
REMARK SMILES O=C(COc1ccc(N2C[C@@H](C(=O)OCCOCCOC(=O)c3ccc(-c4c5nc(c(-c6c(F)c(F)c(F)c(F)c6F)c6ccc([nH]6)c(-c6c(F)c(F)c(F)c(F)c6F)c6nc(c(-c7c(F)c(F)c(F)c(F)c7F)c7ccc4[nH]7)C=C6)C=C5)cc3)CC2=O)cc1)Nc1ccc(Cl)cc1Cl
REMARK SMILES IDX 15 1 14 2 12 3 13 4 11 5 9 6 10 7 87 8 86 9 88 10 8 11 5 12
REMARK SMILES IDX 6 13 90 14 7 15 89 16 4 17 3 18 2 19 1 20 91 21 92 23 93 24
REMARK SMILES IDX 98 25 94 26 97 27 99 28 95 29 96 30 16 31 17 32 18 33 19 34
REMARK SMILES IDX 20 35 21 36 22 37 23 38 24 39 85 40 25 41 84 42 26 43 27 44
REMARK SMILES IDX 28 45 78 46 29 47 83 48 77 49 79 50 30 51 82 52 76 53 75 54
REMARK SMILES IDX 31 56 63 57 43 58 62 59 44 60 47 61 61 62 80 63 45 64 46 65
REMARK SMILES IDX 60 67 81 68 48 69 32 70 33 71 41 72 34 73 35 74 39 75 42 76
REMARK SMILES IDX 36 77 37 78 40 79 38 80 64 81 65 82 73 83 66 84 67 85 71 86
REMARK SMILES IDX 74 87 68 88 69 89 72 90 70 91 49 92 50 93 58 94 51 95 52 96
REMARK SMILES IDX 56 97 59 98 53 99 54 100 57 101 55 102
REMARK H PARENT 91 22 79 55 47 66
REMARK Flexibility Score: inf
ROOT
ATOM      1  C   UNL A   1      41.196  20.238  26.647  1.00  0.00     0.261 C 
ENDROOT
BRANCH   1   2
ATOM      2  O   UNL A   1      40.610  21.093  25.655  1.00  0.00    -0.463 OA
BRANCH   2   3
ATOM      3  C   UNL A   1      39.391  21.605  25.950  1.00  0.00     0.311 C 
ATOM      4  O   UNL A   1      39.154  22.387  26.862  1.00  0.00    -0.252 OA
BRANCH   3   5
ATOM      5  C   UNL A   1      38.313  21.115  25.018  1.00  0.00     0.128 C 
ATOM      6  N   UNL A   1      35.988  20.854  25.092  1.00  0.00    -0.312 N 
ATOM      7  C   UNL A   1      37.023  21.805  25.399  1.00  0.00     0.141 C 
ATOM      8  C   UNL A   1      36.498  19.575  24.868  1.00  0.00     0.227 C 
ATOM      9  C   UNL A   1      37.987  19.627  25.040  1.00  0.00     0.117 C 
ATOM     10  O   UNL A   1      35.896  18.548  24.592  1.00  0.00    -0.274 OA
BRANCH   6  11
ATOM     11  C   UNL A   1      34.624  21.170  25.257  1.00  0.00     0.044 A 
ATOM     12  C   UNL A   1      31.943  21.935  25.593  1.00  0.00     0.120 A 
ATOM     13  C   UNL A   1      32.384  21.485  24.352  1.00  0.00     0.048 A 
ATOM     14  C   UNL A   1      32.828  21.970  26.666  1.00  0.00     0.048 A 
ATOM     15  C   UNL A   1      33.728  21.130  24.179  1.00  0.00     0.030 A 
ATOM     16  C   UNL A   1      34.153  21.581  26.501  1.00  0.00     0.030 A 
BRANCH  12  17
ATOM     17  O   UNL A   1      30.615  22.231  25.750  1.00  0.00    -0.484 OA
BRANCH  17  18
ATOM     18  C   UNL A   1      30.380  23.129  26.841  1.00  0.00     0.329 C 
BRANCH  18  19
ATOM     19  C   UNL A   1      30.174  24.588  26.418  1.00  0.00     0.262 C 
ATOM     20  O   UNL A   1      29.190  25.219  26.787  1.00  0.00    -0.271 OA
ATOM     21  N   UNL A   1      31.146  25.017  25.520  1.00  0.00    -0.322 N 
ATOM     22  H   UNL A   1      31.949  24.458  25.410  1.00  0.00     0.170 HD
BRANCH  21  23
ATOM     23  C   UNL A   1      31.057  26.201  24.754  1.00  0.00     0.060 A 
ATOM     24  C   UNL A   1      30.929  26.013  23.366  1.00  0.00     0.029 A 
ATOM     25  C   UNL A   1      31.036  27.511  25.264  1.00  0.00     0.066 A 
ATOM     26  C   UNL A   1      30.685  27.095  22.519  1.00  0.00     0.023 A 
ATOM     27  C   UNL A   1      30.794  28.594  24.410  1.00  0.00     0.043 A 
ATOM     28  Cl  UNL A   1      31.486  27.896  26.889  1.00  0.00    -0.082 Cl
ATOM     29  C   UNL A   1      30.602  28.379  23.048  1.00  0.00     0.042 A 
ATOM     30  Cl  UNL A   1      30.286  29.711  22.007  1.00  0.00    -0.084 Cl
ENDBRANCH  21  23
ENDBRANCH  18  19
ENDBRANCH  17  18
ENDBRANCH  12  17
ENDBRANCH   6  11
ENDBRANCH   3   5
ENDBRANCH   2   3
ENDBRANCH   1   2
BRANCH   1  31
ATOM     31  C   UNL A   1      42.103  19.197  25.988  1.00  0.00     0.202 C 
BRANCH  31  32
ATOM     32  O   UNL A   1      43.507  19.389  26.158  1.00  0.00    -0.374 OA
BRANCH  32  33
ATOM     33  C   UNL A   1      44.232  20.003  25.092  1.00  0.00     0.202 C 
BRANCH  33  34
ATOM     34  C   UNL A   1      44.921  21.339  25.396  1.00  0.00     0.261 C 
BRANCH  34  35
ATOM     35  O   UNL A   1      44.037  22.278  26.036  1.00  0.00    -0.460 OA
BRANCH  35  36
ATOM     36  C   UNL A   1      43.937  23.475  25.410  1.00  0.00     0.338 C 
ATOM     37  O   UNL A   1      44.242  23.735  24.254  1.00  0.00    -0.246 OA
BRANCH  36  38
ATOM     38  C   UNL A   1      43.227  24.443  26.261  1.00  0.00     0.060 A 
ATOM     39  C   UNL A   1      43.755  25.739  26.344  1.00  0.00     0.016 A 
ATOM     40  C   UNL A   1      42.131  24.072  27.042  1.00  0.00     0.016 A 
ATOM     41  C   UNL A   1      43.219  26.656  27.245  1.00  0.00     0.010 A 
ATOM     42  C   UNL A   1      41.599  24.992  27.954  1.00  0.00     0.010 A 
ATOM     43  C   UNL A   1      42.163  26.275  28.083  1.00  0.00    -0.014 A 
BRANCH  43  44
ATOM     44  C   UNL A   1      41.746  27.177  29.184  1.00  0.00     0.031 A 
ATOM     45  C   UNL A   1      42.496  27.139  30.487  1.00  0.00     0.074 A 
ATOM     46  C   UNL A   1      40.727  28.038  29.017  1.00  0.00     0.049 A 
ATOM     47  N   UNL A   1      42.287  27.818  31.587  1.00  0.00    -0.248 NA
ATOM     48  C   UNL A   1      43.635  26.212  30.561  1.00  0.00     0.031 C 
ATOM     49  C   UNL A   1      39.944  28.189  27.792  1.00  0.00     0.029 A 
ATOM     50  N   UNL A   1      40.169  28.940  29.887  1.00  0.00    -0.354 N 
ATOM     51  C   UNL A   1      43.259  27.394  32.483  1.00  0.00     0.074 A 
ATOM     52  C   UNL A   1      44.047  26.384  31.809  1.00  0.00     0.031 C 
ATOM     53  C   UNL A   1      38.993  29.117  27.995  1.00  0.00     0.029 A 
ATOM     54  C   UNL A   1      39.083  29.602  29.371  1.00  0.00     0.049 A 
ATOM     55  H   UNL A   1      40.515  29.097  30.796  1.00  0.00     0.167 HD
ATOM     56  C   UNL A   1      43.475  27.813  33.752  1.00  0.00     0.037 A 
ATOM     57  C   UNL A   1      38.243  30.480  29.955  1.00  0.00     0.037 A 
ATOM     58  C   UNL A   1      42.700  28.825  34.417  1.00  0.00     0.049 A 
ATOM     59  C   UNL A   1      38.474  30.887  31.387  1.00  0.00     0.074 A 
ATOM     60  C   UNL A   1      42.876  29.354  35.684  1.00  0.00     0.029 A 
ATOM     61  N   UNL A   1      41.592  29.456  33.871  1.00  0.00    -0.354 N 
ATOM     62  N   UNL A   1      39.425  30.518  32.210  1.00  0.00    -0.248 NA
ATOM     63  C   UNL A   1      37.513  31.835  31.970  1.00  0.00     0.031 C 
ATOM     64  C   UNL A   1      41.844  30.268  35.924  1.00  0.00     0.029 A 
ATOM     65  C   UNL A   1      41.054  30.343  34.789  1.00  0.00     0.049 A 
ATOM     66  H   UNL A   1      41.240  29.295  32.966  1.00  0.00     0.167 HD
ATOM     67  C   UNL A   1      39.192  31.203  33.396  1.00  0.00     0.074 A 
ATOM     68  C   UNL A   1      38.019  32.022  33.181  1.00  0.00     0.031 C 
ATOM     69  C   UNL A   1      39.888  31.157  34.558  1.00  0.00     0.037 A 
BRANCH  56  70
ATOM     70  C   UNL A   1      44.585  27.160  34.521  1.00  0.00     0.064 A 
ATOM     71  C   UNL A   1      45.898  27.651  34.484  1.00  0.00     0.173 A 
ATOM     72  C   UNL A   1      44.318  26.059  35.349  1.00  0.00     0.173 A 
ATOM     73  F   UNL A   1      46.206  28.694  33.699  1.00  0.00    -0.203 F 
ATOM     74  C   UNL A   1      46.907  27.052  35.234  1.00  0.00     0.198 A 
ATOM     75  C   UNL A   1      45.324  25.477  36.116  1.00  0.00     0.198 A 
ATOM     76  F   UNL A   1      43.076  25.553  35.423  1.00  0.00    -0.203 F 
ATOM     77  F   UNL A   1      48.161  27.516  35.158  1.00  0.00    -0.200 F 
ATOM     78  C   UNL A   1      46.617  25.972  36.055  1.00  0.00     0.200 A 
ATOM     79  F   UNL A   1      45.040  24.441  36.917  1.00  0.00    -0.200 F 
ATOM     80  F   UNL A   1      47.588  25.404  36.784  1.00  0.00    -0.200 F 
ENDBRANCH  56  70
BRANCH  57  81
ATOM     81  C   UNL A   1      37.087  31.018  29.193  1.00  0.00     0.064 A 
ATOM     82  C   UNL A   1      37.076  32.340  28.729  1.00  0.00     0.173 A 
ATOM     83  C   UNL A   1      35.957  30.227  28.937  1.00  0.00     0.173 A 
ATOM     84  F   UNL A   1      38.121  33.144  28.972  1.00  0.00    -0.203 F 
ATOM     85  C   UNL A   1      35.970  32.857  28.056  1.00  0.00     0.198 A 
ATOM     86  C   UNL A   1      34.864  30.736  28.240  1.00  0.00     0.198 A 
ATOM     87  F   UNL A   1      35.918  28.955  29.363  1.00  0.00    -0.203 F 
ATOM     88  F   UNL A   1      35.965  34.140  27.665  1.00  0.00    -0.200 F 
ATOM     89  C   UNL A   1      34.867  32.053  27.807  1.00  0.00     0.200 A 
ATOM     90  F   UNL A   1      33.805  29.952  27.994  1.00  0.00    -0.200 F 
ATOM     91  F   UNL A   1      33.805  32.550  27.160  1.00  0.00    -0.200 F 
ENDBRANCH  57  81
BRANCH  69  92
ATOM     92  C   UNL A   1      39.417  32.036  35.680  1.00  0.00     0.064 A 
ATOM     93  C   UNL A   1      38.496  31.578  36.633  1.00  0.00     0.173 A 
ATOM     94  C   UNL A   1      39.929  33.334  35.829  1.00  0.00     0.173 A 
ATOM     95  F   UNL A   1      37.967  30.350  36.526  1.00  0.00    -0.203 F 
ATOM     96  C   UNL A   1      38.088  32.396  37.684  1.00  0.00     0.198 A 
ATOM     97  C   UNL A   1      39.539  34.138  36.895  1.00  0.00     0.198 A 
ATOM     98  F   UNL A   1      40.817  33.816  34.947  1.00  0.00    -0.203 F 
ATOM     99  F   UNL A   1      37.175  31.954  38.559  1.00  0.00    -0.200 F 
ATOM    100  C   UNL A   1      38.615  33.672  37.818  1.00  0.00     0.200 A 
ATOM    101  F   UNL A   1      40.060  35.367  37.031  1.00  0.00    -0.200 F 
ATOM    102  F   UNL A   1      38.228  34.455  38.834  1.00  0.00    -0.200 F 
ENDBRANCH  69  92
ENDBRANCH  43  44
ENDBRANCH  36  38
ENDBRANCH  35  36
ENDBRANCH  34  35
ENDBRANCH  33  34
ENDBRANCH  32  33
ENDBRANCH  31  32
ENDBRANCH   1  31
TORSDOF 19
ENDMDL
MODEL 3
REMARK VINA RESULT:     -11.1      3.996      9.860
REMARK SMILES O=C(COc1ccc(N2C[C@@H](C(=O)OCCOCCOC(=O)c3ccc(-c4c5nc(c(-c6c(F)c(F)c(F)c(F)c6F)c6ccc([nH]6)c(-c6c(F)c(F)c(F)c(F)c6F)c6nc(c(-c7c(F)c(F)c(F)c(F)c7F)c7ccc4[nH]7)C=C6)C=C5)cc3)CC2=O)cc1)Nc1ccc(Cl)cc1Cl
REMARK SMILES IDX 15 1 14 2 12 3 13 4 11 5 9 6 10 7 87 8 86 9 88 10 8 11 5 12
REMARK SMILES IDX 6 13 90 14 7 15 89 16 4 17 3 18 2 19 1 20 91 21 92 23 93 24
REMARK SMILES IDX 98 25 94 26 97 27 99 28 95 29 96 30 16 31 17 32 18 33 19 34
REMARK SMILES IDX 20 35 21 36 22 37 23 38 24 39 85 40 25 41 84 42 26 43 27 44
REMARK SMILES IDX 28 45 78 46 29 47 83 48 77 49 79 50 30 51 82 52 76 53 75 54
REMARK SMILES IDX 31 56 63 57 43 58 62 59 44 60 47 61 61 62 80 63 45 64 46 65
REMARK SMILES IDX 60 67 81 68 48 69 32 70 33 71 41 72 34 73 35 74 39 75 42 76
REMARK SMILES IDX 36 77 37 78 40 79 38 80 64 81 65 82 73 83 66 84 67 85 71 86
REMARK SMILES IDX 74 87 68 88 69 89 72 90 70 91 49 92 50 93 58 94 51 95 52 96
REMARK SMILES IDX 56 97 59 98 53 99 54 100 57 101 55 102
REMARK H PARENT 91 22 79 55 47 66
REMARK Flexibility Score: inf
ROOT
ATOM      1  C   UNL A   1      42.984  19.319  26.429  1.00  0.00     0.261 C 
ENDROOT
BRANCH   1   2
ATOM      2  O   UNL A   1      42.493  20.643  26.687  1.00  0.00    -0.463 OA
BRANCH   2   3
ATOM      3  C   UNL A   1      41.183  20.741  27.019  1.00  0.00     0.311 C 
ATOM      4  O   UNL A   1      40.752  20.919  28.152  1.00  0.00    -0.252 OA
BRANCH   3   5
ATOM      5  C   UNL A   1      40.270  20.615  25.828  1.00  0.00     0.128 C 
ATOM      6  N   UNL A   1      38.108  21.310  25.259  1.00  0.00    -0.312 N 
ATOM      7  C   UNL A   1      39.330  21.800  25.837  1.00  0.00     0.141 C 
ATOM      8  C   UNL A   1      38.080  19.917  25.188  1.00  0.00     0.227 C 
ATOM      9  C   UNL A   1      39.363  19.392  25.763  1.00  0.00     0.117 C 
ATOM     10  O   UNL A   1      37.197  19.189  24.759  1.00  0.00    -0.274 OA
BRANCH   6  11
ATOM     11  C   UNL A   1      37.004  22.158  25.042  1.00  0.00     0.044 A 
ATOM     12  C   UNL A   1      34.887  23.959  24.636  1.00  0.00     0.120 A 
ATOM     13  C   UNL A   1      35.452  23.299  23.549  1.00  0.00     0.048 A 
ATOM     14  C   UNL A   1      35.354  23.695  25.919  1.00  0.00     0.048 A 
ATOM     15  C   UNL A   1      36.526  22.422  23.750  1.00  0.00     0.030 A 
ATOM     16  C   UNL A   1      36.395  22.795  26.121  1.00  0.00     0.030 A 
BRANCH  12  17
ATOM     17  O   UNL A   1      33.808  24.775  24.419  1.00  0.00    -0.484 OA
BRANCH  17  18
ATOM     18  C   UNL A   1      34.078  26.139  24.760  1.00  0.00     0.329 C 
BRANCH  18  19
ATOM     19  C   UNL A   1      32.881  27.079  24.576  1.00  0.00     0.262 C 
ATOM     20  O   UNL A   1      32.723  28.052  25.306  1.00  0.00    -0.271 OA
ATOM     21  N   UNL A   1      32.001  26.624  23.599  1.00  0.00    -0.322 N 
ATOM     22  H   UNL A   1      32.311  25.906  23.000  1.00  0.00     0.170 HD
BRANCH  21  23
ATOM     23  C   UNL A   1      30.693  27.123  23.410  1.00  0.00     0.060 A 
ATOM     24  C   UNL A   1      29.656  26.271  23.830  1.00  0.00     0.029 A 
ATOM     25  C   UNL A   1      30.362  28.388  22.894  1.00  0.00     0.066 A 
ATOM     26  C   UNL A   1      28.330  26.708  23.833  1.00  0.00     0.023 A 
ATOM     27  C   UNL A   1      29.030  28.821  22.895  1.00  0.00     0.043 A 
ATOM     28  Cl  UNL A   1      31.499  29.395  22.066  1.00  0.00    -0.082 Cl
ATOM     29  C   UNL A   1      28.026  27.988  23.381  1.00  0.00     0.042 A 
ATOM     30  Cl  UNL A   1      26.394  28.532  23.397  1.00  0.00    -0.084 Cl
ENDBRANCH  21  23
ENDBRANCH  18  19
ENDBRANCH  17  18
ENDBRANCH  12  17
ENDBRANCH   6  11
ENDBRANCH   3   5
ENDBRANCH   2   3
ENDBRANCH   1   2
BRANCH   1  31
ATOM     31  C   UNL A   1      43.831  19.302  25.155  1.00  0.00     0.202 C 
BRANCH  31  32
ATOM     32  O   UNL A   1      45.211  19.633  25.313  1.00  0.00    -0.374 OA
BRANCH  32  33
ATOM     33  C   UNL A   1      45.645  20.918  24.867  1.00  0.00     0.202 C 
BRANCH  33  34
ATOM     34  C   UNL A   1      45.501  22.084  25.854  1.00  0.00     0.261 C 
BRANCH  34  35
ATOM     35  O   UNL A   1      44.357  22.908  25.565  1.00  0.00    -0.460 OA
BRANCH  35  36
ATOM     36  C   UNL A   1      44.641  24.216  25.361  1.00  0.00     0.338 C 
ATOM     37  O   UNL A   1      45.353  24.693  24.488  1.00  0.00    -0.246 OA
BRANCH  36  38
ATOM     38  C   UNL A   1      43.823  25.064  26.245  1.00  0.00     0.060 A 
ATOM     39  C   UNL A   1      44.133  26.430  26.296  1.00  0.00     0.016 A 
ATOM     40  C   UNL A   1      42.845  24.526  27.083  1.00  0.00     0.016 A 
ATOM     41  C   UNL A   1      43.498  27.256  27.219  1.00  0.00     0.010 A 
ATOM     42  C   UNL A   1      42.214  25.356  28.018  1.00  0.00     0.010 A 
ATOM     43  C   UNL A   1      42.564  26.716  28.113  1.00  0.00    -0.014 A 
BRANCH  43  44
ATOM     44  C   UNL A   1      42.059  27.551  29.230  1.00  0.00     0.031 A 
ATOM     45  C   UNL A   1      42.776  27.518  30.551  1.00  0.00     0.074 A 
ATOM     46  C   UNL A   1      40.989  28.347  29.062  1.00  0.00     0.049 A 
ATOM     47  N   UNL A   1      42.494  28.143  31.667  1.00  0.00    -0.248 NA
ATOM     48  C   UNL A   1      43.972  26.665  30.627  1.00  0.00     0.031 C 
ATOM     49  C   UNL A   1      40.230  28.488  27.822  1.00  0.00     0.029 A 
ATOM     50  N   UNL A   1      40.350  29.180  29.946  1.00  0.00    -0.354 N 
ATOM     51  C   UNL A   1      43.468  27.753  32.576  1.00  0.00     0.074 A 
ATOM     52  C   UNL A   1      44.339  26.822  31.891  1.00  0.00     0.031 C 
ATOM     53  C   UNL A   1      39.213  29.344  28.028  1.00  0.00     0.029 A 
ATOM     54  C   UNL A   1      39.236  29.786  29.422  1.00  0.00     0.049 A 
ATOM     55  H   UNL A   1      40.661  29.328  30.868  1.00  0.00     0.167 HD
ATOM     56  C   UNL A   1      43.623  28.141  33.863  1.00  0.00     0.037 A 
ATOM     57  C   UNL A   1      38.324  30.586  30.009  1.00  0.00     0.037 A 
ATOM     58  C   UNL A   1      42.764  29.077  34.539  1.00  0.00     0.049 A 
ATOM     59  C   UNL A   1      38.489  30.958  31.460  1.00  0.00     0.074 A 
ATOM     60  C   UNL A   1      42.871  29.573  35.827  1.00  0.00     0.029 A 
ATOM     61  N   UNL A   1      41.631  29.652  33.983  1.00  0.00    -0.354 N 
ATOM     62  N   UNL A   1      39.442  30.624  32.297  1.00  0.00    -0.248 NA
ATOM     63  C   UNL A   1      37.453  31.819  32.046  1.00  0.00     0.031 C 
ATOM     64  C   UNL A   1      41.775  30.407  36.067  1.00  0.00     0.029 A 
ATOM     65  C   UNL A   1      41.011  30.469  34.914  1.00  0.00     0.049 A 
ATOM     66  H   UNL A   1      41.314  29.499  33.063  1.00  0.00     0.167 HD
ATOM     67  C   UNL A   1      39.133  31.251  33.498  1.00  0.00     0.074 A 
ATOM     68  C   UNL A   1      37.913  31.998  33.277  1.00  0.00     0.031 C 
ATOM     69  C   UNL A   1      39.800  31.211  34.677  1.00  0.00     0.037 A 
BRANCH  56  70
ATOM     70  C   UNL A   1      44.754  27.537  34.641  1.00  0.00     0.064 A 
ATOM     71  C   UNL A   1      46.003  28.166  34.737  1.00  0.00     0.173 A 
ATOM     72  C   UNL A   1      44.565  26.338  35.345  1.00  0.00     0.173 A 
ATOM     73  F   UNL A   1      46.236  29.308  34.073  1.00  0.00    -0.203 F 
ATOM     74  C   UNL A   1      47.029  27.607  35.494  1.00  0.00     0.198 A 
ATOM     75  C   UNL A   1      45.585  25.794  36.121  1.00  0.00     0.198 A 
ATOM     76  F   UNL A   1      43.386  25.699  35.289  1.00  0.00    -0.203 F 
ATOM     77  F   UNL A   1      48.226  28.206  35.545  1.00  0.00    -0.200 F 
ATOM     78  C   UNL A   1      46.817  26.426  36.192  1.00  0.00     0.200 A 
ATOM     79  F   UNL A   1      45.374  24.660  36.803  1.00  0.00    -0.200 F 
ATOM     80  F   UNL A   1      47.802  25.895  36.928  1.00  0.00    -0.200 F 
ENDBRANCH  56  70
BRANCH  57  81
ATOM     81  C   UNL A   1      37.154  31.073  29.233  1.00  0.00     0.064 A 
ATOM     82  C   UNL A   1      37.076  32.401  28.794  1.00  0.00     0.173 A 
ATOM     83  C   UNL A   1      36.077  30.223  28.939  1.00  0.00     0.173 A 
ATOM     84  F   UNL A   1      38.069  33.258  29.074  1.00  0.00    -0.203 F 
ATOM     85  C   UNL A   1      35.957  32.867  28.107  1.00  0.00     0.198 A 
ATOM     86  C   UNL A   1      34.970  30.683  28.229  1.00  0.00     0.198 A 
ATOM     87  F   UNL A   1      36.102  28.943  29.340  1.00  0.00    -0.203 F 
ATOM     88  F   UNL A   1      35.886  34.154  27.740  1.00  0.00    -0.200 F 
ATOM     89  C   UNL A   1      34.907  32.006  27.821  1.00  0.00     0.200 A 
ATOM     90  F   UNL A   1      33.963  29.845  27.945  1.00  0.00    -0.200 F 
ATOM     91  F   UNL A   1      33.831  32.455  27.160  1.00  0.00    -0.200 F 
ENDBRANCH  57  81
BRANCH  69  92
ATOM     92  C   UNL A   1      39.242  32.018  35.813  1.00  0.00     0.064 A 
ATOM     93  C   UNL A   1      39.546  33.379  35.965  1.00  0.00     0.173 A 
ATOM     94  C   UNL A   1      38.356  31.434  36.731  1.00  0.00     0.173 A 
ATOM     95  F   UNL A   1      40.398  33.978  35.121  1.00  0.00    -0.203 F 
ATOM     96  C   UNL A   1      38.999  34.121  37.009  1.00  0.00     0.198 A 
ATOM     97  C   UNL A   1      37.790  32.186  37.757  1.00  0.00     0.198 A 
ATOM     98  F   UNL A   1      38.028  30.138  36.625  1.00  0.00    -0.203 F 
ATOM     99  F   UNL A   1      39.335  35.409  37.160  1.00  0.00    -0.200 F 
ATOM    100  C   UNL A   1      38.116  33.526  37.899  1.00  0.00     0.200 A 
ATOM    101  F   UNL A   1      36.927  31.613  38.609  1.00  0.00    -0.200 F 
ATOM    102  F   UNL A   1      37.585  34.244  38.898  1.00  0.00    -0.200 F 
ENDBRANCH  69  92
ENDBRANCH  43  44
ENDBRANCH  36  38
ENDBRANCH  35  36
ENDBRANCH  34  35
ENDBRANCH  33  34
ENDBRANCH  32  33
ENDBRANCH  31  32
ENDBRANCH   1  31
TORSDOF 19
ENDMDL
