MODEL 1
REMARK VINA RESULT:      -9.9      0.000      0.000
REMARK SMILES CC(C)(C(=O)OCCOCCOC(=O)c1ccc(-c2c3nc(c(-c4c(F)c(F)c(F)c(F)c4F)c4ccc([nH]4)c(-c4c(F)c(F)c(F)c(F)c4F)c4nc(c(-c5c(F)c(F)c(F)c(F)c5F)c5ccc2[nH]5)C=C4)C=C3)cc1)n1cccc1
REMARK SMILES IDX 10 1 9 2 8 3 7 4 6 5 4 6 5 7 2 8 1 9 3 10 78 11 79 12 82 13
REMARK SMILES IDX 80 14 81 15 11 16 12 17 13 18 14 19 15 20 16 21 77 22 17 23
REMARK SMILES IDX 76 24 18 25 19 26 20 27 70 28 21 29 75 30 69 31 71 32 22 33
REMARK SMILES IDX 74 34 68 35 67 36 23 38 55 39 35 40 54 41 36 42 39 43 53 44
REMARK SMILES IDX 72 45 37 46 38 47 52 49 73 50 40 51 24 52 25 53 33 54 26 55
REMARK SMILES IDX 27 56 31 57 34 58 28 59 29 60 32 61 30 62 56 63 57 64 65 65
REMARK SMILES IDX 58 66 59 67 63 68 66 69 60 70 61 71 64 72 62 73 41 74 42 75
REMARK SMILES IDX 50 76 43 77 44 78 48 79 51 80 45 81 46 82 49 83 47 84
REMARK H PARENT 71 37 39 48
REMARK Flexibility Score: inf
ROOT
ATOM      1  C   UNL A   1      33.551  34.855  28.667  1.00  0.00     0.202 C 
ENDROOT
BRANCH   1   2
ATOM      2  O   UNL A   1      32.680  34.957  29.792  1.00  0.00    -0.374 OA
BRANCH   2   3
ATOM      3  C   UNL A   1      32.841  36.091  30.646  1.00  0.00     0.202 C 
BRANCH   3   4
ATOM      4  C   UNL A   1      33.000  35.791  32.138  1.00  0.00     0.261 C 
BRANCH   4   5
ATOM      5  O   UNL A   1      33.712  34.554  32.332  1.00  0.00    -0.461 OA
BRANCH   5   6
ATOM      6  C   UNL A   1      35.030  34.677  32.657  1.00  0.00     0.331 C 
ATOM      7  O   UNL A   1      35.523  35.708  33.104  1.00  0.00    -0.249 OA
BRANCH   6   8
ATOM      8  C   UNL A   1      35.838  33.398  32.367  1.00  0.00     0.136 C 
ATOM      9  C   UNL A   1      36.408  32.712  33.632  1.00  0.00     0.047 C 
ATOM     10  C   UNL A   1      34.837  32.394  31.753  1.00  0.00     0.047 C 
BRANCH   8  11
ATOM     11  N   UNL A   1      36.925  33.753  31.424  1.00  0.00    -0.338 N 
ATOM     12  C   UNL A   1      38.117  34.366  31.750  1.00  0.00     0.087 A 
ATOM     13  C   UNL A   1      36.873  33.635  30.053  1.00  0.00     0.087 A 
ATOM     14  C   UNL A   1      38.795  34.662  30.590  1.00  0.00     0.019 A 
ATOM     15  C   UNL A   1      38.010  34.195  29.515  1.00  0.00     0.019 A 
ENDBRANCH   8  11
ENDBRANCH   6   8
ENDBRANCH   5   6
ENDBRANCH   4   5
ENDBRANCH   3   4
ENDBRANCH   2   3
ENDBRANCH   1   2
BRANCH   1  16
ATOM     16  C   UNL A   1      33.469  33.549  27.866  1.00  0.00     0.261 C 
BRANCH  16  17
ATOM     17  O   UNL A   1      34.597  32.688  28.105  1.00  0.00    -0.460 OA
BRANCH  17  18
ATOM     18  C   UNL A   1      34.323  31.371  27.966  1.00  0.00     0.338 C 
ATOM     19  O   UNL A   1      33.261  30.866  27.619  1.00  0.00    -0.246 OA
BRANCH  18  20
ATOM     20  C   UNL A   1      35.538  30.556  28.135  1.00  0.00     0.060 A 
ATOM     21  C   UNL A   1      35.575  29.702  29.246  1.00  0.00     0.016 A 
ATOM     22  C   UNL A   1      36.662  30.704  27.318  1.00  0.00     0.016 A 
ATOM     23  C   UNL A   1      36.760  29.069  29.599  1.00  0.00     0.010 A 
ATOM     24  C   UNL A   1      37.857  30.067  27.677  1.00  0.00     0.010 A 
ATOM     25  C   UNL A   1      37.924  29.299  28.854  1.00  0.00    -0.014 A 
BRANCH  25  26
ATOM     26  C   UNL A   1      39.225  28.916  29.457  1.00  0.00     0.031 A 
ATOM     27  C   UNL A   1      39.655  29.599  30.729  1.00  0.00     0.074 A 
ATOM     28  C   UNL A   1      39.957  27.909  28.952  1.00  0.00     0.049 A 
ATOM     29  N   UNL A   1      40.691  29.361  31.495  1.00  0.00    -0.248 NA
ATOM     30  C   UNL A   1      38.798  30.696  31.206  1.00  0.00     0.031 C 
ATOM     31  C   UNL A   1      39.627  27.147  27.751  1.00  0.00     0.029 A 
ATOM     32  N   UNL A   1      41.123  27.344  29.403  1.00  0.00    -0.354 N 
ATOM     33  C   UNL A   1      40.607  30.274  32.539  1.00  0.00     0.074 A 
ATOM     34  C   UNL A   1      39.443  31.096  32.292  1.00  0.00     0.031 C 
ATOM     35  C   UNL A   1      40.567  26.203  27.564  1.00  0.00     0.029 A 
ATOM     36  C   UNL A   1      41.567  26.304  28.625  1.00  0.00     0.049 A 
ATOM     37  H   UNL A   1      41.596  27.655  30.209  1.00  0.00     0.167 HD
ATOM     38  C   UNL A   1      41.417  30.406  33.616  1.00  0.00     0.037 A 
ATOM     39  C   UNL A   1      42.657  25.522  28.760  1.00  0.00     0.037 A 
ATOM     40  C   UNL A   1      42.568  29.583  33.870  1.00  0.00     0.049 A 
ATOM     41  C   UNL A   1      43.565  25.717  29.947  1.00  0.00     0.074 A 
ATOM     42  C   UNL A   1      43.444  29.629  34.941  1.00  0.00     0.029 A 
ATOM     43  N   UNL A   1      43.004  28.563  33.039  1.00  0.00    -0.354 N 
ATOM     44  N   UNL A   1      43.458  26.559  30.946  1.00  0.00    -0.248 NA
ATOM     45  C   UNL A   1      44.741  24.838  30.030  1.00  0.00     0.031 C 
ATOM     46  C   UNL A   1      44.435  28.663  34.736  1.00  0.00     0.029 A 
ATOM     47  C   UNL A   1      44.149  27.984  33.562  1.00  0.00     0.049 A 
ATOM     48  H   UNL A   1      42.565  28.290  32.200  1.00  0.00     0.167 HD
ATOM     49  C   UNL A   1      44.525  26.289  31.792  1.00  0.00     0.074 A 
ATOM     50  C   UNL A   1      45.267  25.199  31.193  1.00  0.00     0.031 C 
ATOM     51  C   UNL A   1      44.862  26.887  32.961  1.00  0.00     0.037 A 
BRANCH  38  52
ATOM     52  C   UNL A   1      41.094  31.500  34.590  1.00  0.00     0.064 A 
ATOM     53  C   UNL A   1      41.697  32.764  34.507  1.00  0.00     0.173 A 
ATOM     54  C   UNL A   1      40.153  31.287  35.609  1.00  0.00     0.173 A 
ATOM     55  F   UNL A   1      42.616  33.012  33.561  1.00  0.00    -0.203 F 
ATOM     56  C   UNL A   1      41.389  33.766  35.423  1.00  0.00     0.198 A 
ATOM     57  C   UNL A   1      39.828  32.299  36.507  1.00  0.00     0.198 A 
ATOM     58  F   UNL A   1      39.547  30.096  35.731  1.00  0.00    -0.203 F 
ATOM     59  F   UNL A   1      42.012  34.952  35.352  1.00  0.00    -0.200 F 
ATOM     60  C   UNL A   1      40.450  33.536  36.417  1.00  0.00     0.200 A 
ATOM     61  F   UNL A   1      38.914  32.079  37.462  1.00  0.00    -0.200 F 
ATOM     62  F   UNL A   1      40.152  34.503  37.296  1.00  0.00    -0.200 F 
ENDBRANCH  38  52
BRANCH  39  63
ATOM     63  C   UNL A   1      42.941  24.465  27.756  1.00  0.00     0.064 A 
ATOM     64  C   UNL A   1      42.548  23.137  27.971  1.00  0.00     0.173 A 
ATOM     65  C   UNL A   1      43.633  24.759  26.572  1.00  0.00     0.173 A 
ATOM     66  F   UNL A   1      41.906  22.803  29.100  1.00  0.00    -0.203 F 
ATOM     67  C   UNL A   1      42.853  22.138  27.047  1.00  0.00     0.198 A 
ATOM     68  C   UNL A   1      43.914  23.764  25.637  1.00  0.00     0.198 A 
ATOM     69  F   UNL A   1      44.033  26.014  26.322  1.00  0.00    -0.203 F 
ATOM     70  F   UNL A   1      42.506  20.869  27.299  1.00  0.00    -0.200 F 
ATOM     71  C   UNL A   1      43.531  22.453  25.880  1.00  0.00     0.200 A 
ATOM     72  F   UNL A   1      44.562  24.075  24.506  1.00  0.00    -0.200 F 
ATOM     73  F   UNL A   1      43.824  21.493  24.992  1.00  0.00    -0.200 F 
ENDBRANCH  39  63
BRANCH  51  74
ATOM     74  C   UNL A   1      46.054  26.345  33.694  1.00  0.00     0.064 A 
ATOM     75  C   UNL A   1      47.344  26.858  33.490  1.00  0.00     0.173 A 
ATOM     76  C   UNL A   1      45.897  25.319  34.639  1.00  0.00     0.173 A 
ATOM     77  F   UNL A   1      47.547  27.831  32.589  1.00  0.00    -0.203 F 
ATOM     78  C   UNL A   1      48.436  26.344  34.184  1.00  0.00     0.198 A 
ATOM     79  C   UNL A   1      46.988  24.827  35.351  1.00  0.00     0.198 A 
ATOM     80  F   UNL A   1      44.683  24.799  34.878  1.00  0.00    -0.203 F 
ATOM     81  F   UNL A   1      49.666  26.815  33.937  1.00  0.00    -0.200 F 
ATOM     82  C   UNL A   1      48.256  25.333  35.116  1.00  0.00     0.200 A 
ATOM     83  F   UNL A   1      46.810  23.859  36.262  1.00  0.00    -0.200 F 
ATOM     84  F   UNL A   1      49.309  24.842  35.784  1.00  0.00    -0.200 F 
ENDBRANCH  51  74
ENDBRANCH  25  26
ENDBRANCH  18  20
ENDBRANCH  17  18
ENDBRANCH  16  17
ENDBRANCH   1  16
TORSDOF 15
ENDMDL
MODEL 2
REMARK VINA RESULT:      -9.8      3.220      5.502
REMARK SMILES CC(C)(C(=O)OCCOCCOC(=O)c1ccc(-c2c3nc(c(-c4c(F)c(F)c(F)c(F)c4F)c4ccc([nH]4)c(-c4c(F)c(F)c(F)c(F)c4F)c4nc(c(-c5c(F)c(F)c(F)c(F)c5F)c5ccc2[nH]5)C=C4)C=C3)cc1)n1cccc1
REMARK SMILES IDX 10 1 9 2 8 3 7 4 6 5 4 6 5 7 2 8 1 9 3 10 78 11 79 12 82 13
REMARK SMILES IDX 80 14 81 15 11 16 12 17 13 18 14 19 15 20 16 21 77 22 17 23
REMARK SMILES IDX 76 24 18 25 19 26 20 27 70 28 21 29 75 30 69 31 71 32 22 33
REMARK SMILES IDX 74 34 68 35 67 36 23 38 55 39 35 40 54 41 36 42 39 43 53 44
REMARK SMILES IDX 72 45 37 46 38 47 52 49 73 50 40 51 24 52 25 53 33 54 26 55
REMARK SMILES IDX 27 56 31 57 34 58 28 59 29 60 32 61 30 62 56 63 57 64 65 65
REMARK SMILES IDX 58 66 59 67 63 68 66 69 60 70 61 71 64 72 62 73 41 74 42 75
REMARK SMILES IDX 50 76 43 77 44 78 48 79 51 80 45 81 46 82 49 83 47 84
REMARK H PARENT 71 37 39 48
REMARK Flexibility Score: inf
ROOT
ATOM      1  C   UNL A   1      31.686  30.066  25.633  1.00  0.00     0.202 C 
ENDROOT
BRANCH   1   2
ATOM      2  O   UNL A   1      32.854  29.702  24.899  1.00  0.00    -0.374 OA
BRANCH   2   3
ATOM      3  C   UNL A   1      33.644  28.628  25.411  1.00  0.00     0.202 C 
BRANCH   3   4
ATOM      4  C   UNL A   1      32.970  27.735  26.456  1.00  0.00     0.261 C 
BRANCH   4   5
ATOM      5  O   UNL A   1      33.221  26.346  26.170  1.00  0.00    -0.461 OA
BRANCH   5   6
ATOM      6  C   UNL A   1      32.115  25.578  25.958  1.00  0.00     0.331 C 
ATOM      7  O   UNL A   1      31.390  25.171  26.860  1.00  0.00    -0.249 OA
BRANCH   6   8
ATOM      8  C   UNL A   1      31.893  25.249  24.470  1.00  0.00     0.136 C 
ATOM      9  C   UNL A   1      33.192  24.917  23.697  1.00  0.00     0.047 C 
ATOM     10  C   UNL A   1      31.042  23.960  24.443  1.00  0.00     0.047 C 
BRANCH   8  11
ATOM     11  N   UNL A   1      31.190  26.399  23.851  1.00  0.00    -0.338 N 
ATOM     12  C   UNL A   1      29.946  26.876  24.207  1.00  0.00     0.087 A 
ATOM     13  C   UNL A   1      31.611  27.101  22.745  1.00  0.00     0.087 A 
ATOM     14  C   UNL A   1      29.573  27.851  23.310  1.00  0.00     0.019 A 
ATOM     15  C   UNL A   1      30.629  27.997  22.387  1.00  0.00     0.019 A 
ENDBRANCH   8  11
ENDBRANCH   6   8
ENDBRANCH   5   6
ENDBRANCH   4   5
ENDBRANCH   3   4
ENDBRANCH   2   3
ENDBRANCH   1   2
BRANCH   1  16
ATOM     16  C   UNL A   1      31.799  31.324  26.503  1.00  0.00     0.261 C 
BRANCH  16  17
ATOM     17  O   UNL A   1      32.761  31.171  27.563  1.00  0.00    -0.460 OA
BRANCH  17  18
ATOM     18  C   UNL A   1      33.572  32.241  27.729  1.00  0.00     0.338 C 
ATOM     19  O   UNL A   1      33.237  33.415  27.840  1.00  0.00    -0.246 OA
BRANCH  18  20
ATOM     20  C   UNL A   1      34.969  31.821  27.927  1.00  0.00     0.060 A 
ATOM     21  C   UNL A   1      35.211  30.443  27.986  1.00  0.00     0.016 A 
ATOM     22  C   UNL A   1      35.999  32.733  28.176  1.00  0.00     0.016 A 
ATOM     23  C   UNL A   1      36.455  29.970  28.386  1.00  0.00     0.010 A 
ATOM     24  C   UNL A   1      37.251  32.255  28.582  1.00  0.00     0.010 A 
ATOM     25  C   UNL A   1      37.463  30.874  28.749  1.00  0.00    -0.014 A 
BRANCH  25  26
ATOM     26  C   UNL A   1      38.625  30.353  29.510  1.00  0.00     0.031 A 
ATOM     27  C   UNL A   1      38.778  30.757  30.953  1.00  0.00     0.074 A 
ATOM     28  C   UNL A   1      39.466  29.456  28.968  1.00  0.00     0.049 A 
ATOM     29  N   UNL A   1      39.646  30.350  31.846  1.00  0.00    -0.248 NA
ATOM     30  C   UNL A   1      37.819  31.751  31.461  1.00  0.00     0.031 C 
ATOM     31  C   UNL A   1      39.399  28.958  27.597  1.00  0.00     0.029 A 
ATOM     32  N   UNL A   1      40.532  28.789  29.519  1.00  0.00    -0.354 N 
ATOM     33  C   UNL A   1      39.336  31.034  33.014  1.00  0.00     0.074 A 
ATOM     34  C   UNL A   1      38.226  31.911  32.712  1.00  0.00     0.031 C 
ATOM     35  C   UNL A   1      40.378  28.054  27.415  1.00  0.00     0.029 A 
ATOM     36  C   UNL A   1      41.145  27.920  28.652  1.00  0.00     0.049 A 
ATOM     37  H   UNL A   1      40.828  28.922  30.449  1.00  0.00     0.167 HD
ATOM     38  C   UNL A   1      39.911  30.931  34.235  1.00  0.00     0.037 A 
ATOM     39  C   UNL A   1      42.203  27.107  28.842  1.00  0.00     0.037 A 
ATOM     40  C   UNL A   1      41.007  30.052  34.543  1.00  0.00     0.049 A 
ATOM     41  C   UNL A   1      42.852  27.041  30.200  1.00  0.00     0.074 A 
ATOM     42  C   UNL A   1      41.652  29.864  35.753  1.00  0.00     0.029 A 
ATOM     43  N   UNL A   1      41.623  29.213  33.627  1.00  0.00    -0.354 N 
ATOM     44  N   UNL A   1      42.529  27.666  31.306  1.00  0.00    -0.248 NA
ATOM     45  C   UNL A   1      44.008  26.142  30.337  1.00  0.00     0.031 C 
ATOM     46  C   UNL A   1      42.685  28.942  35.560  1.00  0.00     0.029 A 
ATOM     47  C   UNL A   1      42.653  28.519  34.240  1.00  0.00     0.049 A 
ATOM     48  H   UNL A   1      41.366  29.124  32.680  1.00  0.00     0.167 HD
ATOM     49  C   UNL A   1      43.413  27.210  32.276  1.00  0.00     0.074 A 
ATOM     50  C   UNL A   1      44.283  26.250  31.629  1.00  0.00     0.031 C 
ATOM     51  C   UNL A   1      43.497  27.554  33.585  1.00  0.00     0.037 A 
BRANCH  38  52
ATOM     52  C   UNL A   1      39.377  31.811  35.326  1.00  0.00     0.064 A 
ATOM     53  C   UNL A   1      38.454  31.337  36.271  1.00  0.00     0.173 A 
ATOM     54  C   UNL A   1      39.809  33.140  35.440  1.00  0.00     0.173 A 
ATOM     55  F   UNL A   1      37.997  30.078  36.195  1.00  0.00    -0.203 F 
ATOM     56  C   UNL A   1      37.966  32.170  37.275  1.00  0.00     0.198 A 
ATOM     57  C   UNL A   1      39.339  33.963  36.460  1.00  0.00     0.198 A 
ATOM     58  F   UNL A   1      40.691  33.642  34.562  1.00  0.00    -0.203 F 
ATOM     59  F   UNL A   1      37.050  31.709  38.139  1.00  0.00    -0.200 F 
ATOM     60  C   UNL A   1      38.413  33.479  37.372  1.00  0.00     0.200 A 
ATOM     61  F   UNL A   1      39.778  35.225  36.558  1.00  0.00    -0.200 F 
ATOM     62  F   UNL A   1      37.944  34.278  38.341  1.00  0.00    -0.200 F 
ENDBRANCH  38  52
BRANCH  39  63
ATOM     63  C   UNL A   1      42.705  26.270  27.722  1.00  0.00     0.064 A 
ATOM     64  C   UNL A   1      43.721  26.729  26.872  1.00  0.00     0.173 A 
ATOM     65  C   UNL A   1      42.160  25.003  27.465  1.00  0.00     0.173 A 
ATOM     66  F   UNL A   1      44.254  27.945  27.062  1.00  0.00    -0.203 F 
ATOM     67  C   UNL A   1      44.160  25.959  25.796  1.00  0.00     0.198 A 
ATOM     68  C   UNL A   1      42.619  24.224  26.405  1.00  0.00     0.198 A 
ATOM     69  F   UNL A   1      41.184  24.520  28.248  1.00  0.00    -0.203 F 
ATOM     70  F   UNL A   1      45.100  26.441  24.971  1.00  0.00    -0.200 F 
ATOM     71  C   UNL A   1      43.613  24.706  25.566  1.00  0.00     0.200 A 
ATOM     72  F   UNL A   1      42.094  23.009  26.192  1.00  0.00    -0.200 F 
ATOM     73  F   UNL A   1      44.036  23.967  24.532  1.00  0.00    -0.200 F 
ENDBRANCH  39  63
BRANCH  51  74
ATOM     74  C   UNL A   1      44.531  26.853  34.416  1.00  0.00     0.064 A 
ATOM     75  C   UNL A   1      44.265  25.631  35.052  1.00  0.00     0.173 A 
ATOM     76  C   UNL A   1      45.819  27.396  34.549  1.00  0.00     0.173 A 
ATOM     77  F   UNL A   1      43.045  25.077  34.965  1.00  0.00    -0.203 F 
ATOM     78  C   UNL A   1      45.240  24.995  35.816  1.00  0.00     0.198 A 
ATOM     79  C   UNL A   1      46.799  26.742  35.290  1.00  0.00     0.198 A 
ATOM     80  F   UNL A   1      46.127  28.558  33.954  1.00  0.00    -0.203 F 
ATOM     81  F   UNL A   1      44.948  23.854  36.456  1.00  0.00    -0.200 F 
ATOM     82  C   UNL A   1      46.507  25.548  35.930  1.00  0.00     0.200 A 
ATOM     83  F   UNL A   1      48.027  27.271  35.388  1.00  0.00    -0.200 F 
ATOM     84  F   UNL A   1      47.444  24.932  36.663  1.00  0.00    -0.200 F 
ENDBRANCH  51  74
ENDBRANCH  25  26
ENDBRANCH  18  20
ENDBRANCH  17  18
ENDBRANCH  16  17
ENDBRANCH   1  16
TORSDOF 15
ENDMDL
MODEL 3
REMARK VINA RESULT:      -9.6      3.552      5.855
REMARK SMILES CC(C)(C(=O)OCCOCCOC(=O)c1ccc(-c2c3nc(c(-c4c(F)c(F)c(F)c(F)c4F)c4ccc([nH]4)c(-c4c(F)c(F)c(F)c(F)c4F)c4nc(c(-c5c(F)c(F)c(F)c(F)c5F)c5ccc2[nH]5)C=C4)C=C3)cc1)n1cccc1
REMARK SMILES IDX 10 1 9 2 8 3 7 4 6 5 4 6 5 7 2 8 1 9 3 10 78 11 79 12 82 13
REMARK SMILES IDX 80 14 81 15 11 16 12 17 13 18 14 19 15 20 16 21 77 22 17 23
REMARK SMILES IDX 76 24 18 25 19 26 20 27 70 28 21 29 75 30 69 31 71 32 22 33
REMARK SMILES IDX 74 34 68 35 67 36 23 38 55 39 35 40 54 41 36 42 39 43 53 44
REMARK SMILES IDX 72 45 37 46 38 47 52 49 73 50 40 51 24 52 25 53 33 54 26 55
REMARK SMILES IDX 27 56 31 57 34 58 28 59 29 60 32 61 30 62 56 63 57 64 65 65
REMARK SMILES IDX 58 66 59 67 63 68 66 69 60 70 61 71 64 72 62 73 41 74 42 75
REMARK SMILES IDX 50 76 43 77 44 78 48 79 51 80 45 81 46 82 49 83 47 84
REMARK H PARENT 71 37 39 48
REMARK Flexibility Score: inf
ROOT
ATOM      1  C   UNL A   1      31.930  29.999  25.296  1.00  0.00     0.202 C 
ENDROOT
BRANCH   1   2
ATOM      2  O   UNL A   1      32.444  28.719  25.657  1.00  0.00    -0.374 OA
BRANCH   2   3
ATOM      3  C   UNL A   1      31.514  27.638  25.749  1.00  0.00     0.202 C 
BRANCH   3   4
ATOM      4  C   UNL A   1      31.967  26.428  26.568  1.00  0.00     0.261 C 
BRANCH   4   5
ATOM      5  O   UNL A   1      31.949  25.235  25.760  1.00  0.00    -0.461 OA
BRANCH   5   6
ATOM      6  C   UNL A   1      32.118  24.064  26.435  1.00  0.00     0.331 C 
ATOM      7  O   UNL A   1      31.363  23.679  27.322  1.00  0.00    -0.249 OA
BRANCH   6   8
ATOM      8  C   UNL A   1      33.377  23.295  25.991  1.00  0.00     0.136 C 
ATOM      9  C   UNL A   1      34.451  24.180  25.314  1.00  0.00     0.047 C 
ATOM     10  C   UNL A   1      34.025  22.758  27.288  1.00  0.00     0.047 C 
BRANCH   8  11
ATOM     11  N   UNL A   1      32.946  22.203  25.087  1.00  0.00    -0.338 N 
ATOM     12  C   UNL A   1      32.864  20.865  25.411  1.00  0.00     0.087 A 
ATOM     13  C   UNL A   1      32.670  22.330  23.744  1.00  0.00     0.087 A 
ATOM     14  C   UNL A   1      32.570  20.151  24.271  1.00  0.00     0.019 A 
ATOM     15  C   UNL A   1      32.443  21.078  23.217  1.00  0.00     0.019 A 
ENDBRANCH   8  11
ENDBRANCH   6   8
ENDBRANCH   5   6
ENDBRANCH   4   5
ENDBRANCH   3   4
ENDBRANCH   2   3
ENDBRANCH   1   2
BRANCH   1  16
ATOM     16  C   UNL A   1      31.684  30.978  26.451  1.00  0.00     0.261 C 
BRANCH  16  17
ATOM     17  O   UNL A   1      32.678  30.865  27.485  1.00  0.00    -0.460 OA
BRANCH  17  18
ATOM     18  C   UNL A   1      33.467  31.957  27.612  1.00  0.00     0.338 C 
ATOM     19  O   UNL A   1      33.107  33.126  27.703  1.00  0.00    -0.246 OA
BRANCH  18  20
ATOM     20  C   UNL A   1      34.878  31.575  27.793  1.00  0.00     0.060 A 
ATOM     21  C   UNL A   1      35.153  30.204  27.879  1.00  0.00     0.016 A 
ATOM     22  C   UNL A   1      35.890  32.515  28.002  1.00  0.00     0.016 A 
ATOM     23  C   UNL A   1      36.414  29.769  28.266  1.00  0.00     0.010 A 
ATOM     24  C   UNL A   1      37.161  32.076  28.395  1.00  0.00     0.010 A 
ATOM     25  C   UNL A   1      37.407  30.704  28.590  1.00  0.00    -0.014 A 
BRANCH  25  26
ATOM     26  C   UNL A   1      38.595  30.228  29.340  1.00  0.00     0.031 A 
ATOM     27  C   UNL A   1      38.762  30.665  30.772  1.00  0.00     0.074 A 
ATOM     28  C   UNL A   1      39.448  29.341  28.801  1.00  0.00     0.049 A 
ATOM     29  N   UNL A   1      39.656  30.298  31.657  1.00  0.00    -0.248 NA
ATOM     30  C   UNL A   1      37.787  31.645  31.277  1.00  0.00     0.031 C 
ATOM     31  C   UNL A   1      39.371  28.814  27.442  1.00  0.00     0.029 A 
ATOM     32  N   UNL A   1      40.540  28.712  29.347  1.00  0.00    -0.354 N 
ATOM     33  C   UNL A   1      39.348  30.998  32.817  1.00  0.00     0.074 A 
ATOM     34  C   UNL A   1      38.212  31.840  32.516  1.00  0.00     0.031 C 
ATOM     35  C   UNL A   1      40.369  27.930  27.261  1.00  0.00     0.029 A 
ATOM     36  C   UNL A   1      41.160  27.841  28.487  1.00  0.00     0.049 A 
ATOM     37  H   UNL A   1      40.849  28.871  30.269  1.00  0.00     0.167 HD
ATOM     38  C   UNL A   1      39.947  30.934  34.029  1.00  0.00     0.037 A 
ATOM     39  C   UNL A   1      42.241  27.059  28.674  1.00  0.00     0.037 A 
ATOM     40  C   UNL A   1      41.070  30.089  34.335  1.00  0.00     0.049 A 
ATOM     41  C   UNL A   1      42.915  27.036  30.021  1.00  0.00     0.074 A 
ATOM     42  C   UNL A   1      41.739  29.942  35.538  1.00  0.00     0.029 A 
ATOM     43  N   UNL A   1      41.691  29.247  33.425  1.00  0.00    -0.354 N 
ATOM     44  N   UNL A   1      42.596  27.675  31.121  1.00  0.00    -0.248 NA
ATOM     45  C   UNL A   1      44.095  26.169  30.156  1.00  0.00     0.031 C 
ATOM     46  C   UNL A   1      42.792  29.041  35.344  1.00  0.00     0.029 A 
ATOM     47  C   UNL A   1      42.748  28.592  34.034  1.00  0.00     0.049 A 
ATOM     48  H   UNL A   1      41.420  29.132  32.485  1.00  0.00     0.167 HD
ATOM     49  C   UNL A   1      43.507  27.261  32.083  1.00  0.00     0.074 A 
ATOM     50  C   UNL A   1      44.389  26.311  31.441  1.00  0.00     0.031 C 
ATOM     51  C   UNL A   1      43.605  27.634  33.384  1.00  0.00     0.037 A 
BRANCH  38  52
ATOM     52  C   UNL A   1      39.410  31.822  35.111  1.00  0.00     0.064 A 
ATOM     53  C   UNL A   1      38.541  31.338  36.101  1.00  0.00     0.173 A 
ATOM     54  C   UNL A   1      39.785  33.173  35.172  1.00  0.00     0.173 A 
ATOM     55  F   UNL A   1      38.138  30.059  36.078  1.00  0.00    -0.203 F 
ATOM     56  C   UNL A   1      38.048  32.179  37.096  1.00  0.00     0.198 A 
ATOM     57  C   UNL A   1      39.312  34.004  36.182  1.00  0.00     0.198 A 
ATOM     58  F   UNL A   1      40.614  33.685  34.250  1.00  0.00    -0.203 F 
ATOM     59  F   UNL A   1      37.183  31.705  38.004  1.00  0.00    -0.200 F 
ATOM     60  C   UNL A   1      38.439  33.509  37.140  1.00  0.00     0.200 A 
ATOM     61  F   UNL A   1      39.696  35.287  36.229  1.00  0.00    -0.200 F 
ATOM     62  F   UNL A   1      37.967  34.316  38.100  1.00  0.00    -0.200 F 
ENDBRANCH  38  52
BRANCH  39  63
ATOM     63  C   UNL A   1      42.745  26.211  27.563  1.00  0.00     0.064 A 
ATOM     64  C   UNL A   1      43.786  26.648  26.732  1.00  0.00     0.173 A 
ATOM     65  C   UNL A   1      42.177  24.956  27.295  1.00  0.00     0.173 A 
ATOM     66  F   UNL A   1      44.342  27.851  26.933  1.00  0.00    -0.203 F 
ATOM     67  C   UNL A   1      44.227  25.869  25.663  1.00  0.00     0.198 A 
ATOM     68  C   UNL A   1      42.637  24.168  26.242  1.00  0.00     0.198 A 
ATOM     69  F   UNL A   1      41.176  24.495  28.059  1.00  0.00    -0.203 F 
ATOM     70  F   UNL A   1      45.193  26.331  24.856  1.00  0.00    -0.200 F 
ATOM     71  C   UNL A   1      43.657  24.629  25.422  1.00  0.00     0.200 A 
ATOM     72  F   UNL A   1      42.089  22.966  26.018  1.00  0.00    -0.200 F 
ATOM     73  F   UNL A   1      44.082  23.881  24.395  1.00  0.00    -0.200 F 
ENDBRANCH  39  63
BRANCH  51  74
ATOM     74  C   UNL A   1      44.670  26.976  34.211  1.00  0.00     0.064 A 
ATOM     75  C   UNL A   1      45.919  27.577  34.421  1.00  0.00     0.173 A 
ATOM     76  C   UNL A   1      44.423  25.740  34.829  1.00  0.00     0.173 A 
ATOM     77  F   UNL A   1      46.208  28.753  33.842  1.00  0.00    -0.203 F 
ATOM     78  C   UNL A   1      46.893  26.951  35.195  1.00  0.00     0.198 A 
ATOM     79  C   UNL A   1      45.390  25.131  35.625  1.00  0.00     0.198 A 
ATOM     80  F   UNL A   1      43.241  25.126  34.667  1.00  0.00    -0.203 F 
ATOM     81  F   UNL A   1      48.098  27.521  35.341  1.00  0.00    -0.200 F 
ATOM     82  C   UNL A   1      46.626  25.733  35.800  1.00  0.00     0.200 A 
ATOM     83  F   UNL A   1      45.124  23.959  36.220  1.00  0.00    -0.200 F 
ATOM     84  F   UNL A   1      47.564  25.134  36.547  1.00  0.00    -0.200 F 
ENDBRANCH  51  74
ENDBRANCH  25  26
ENDBRANCH  18  20
ENDBRANCH  17  18
ENDBRANCH  16  17
ENDBRANCH   1  16
TORSDOF 15
ENDMDL
