MODEL 1
REMARK VINA RESULT:     -10.5      0.000      0.000
REMARK SMILES O=C(OCCOCCOC(=O)[C@H]1C[C@](O)(c2ccccc2Cl)[C@@H](c2ccccc2Cl)O1)c1ccc(-c2c3nc(c(-c4c(F)c(F)c(F)c(F)c4F)c4ccc([nH]4)c(-c4c(F)c(F)c(F)c(F)c4F)c4nc(c(-c5c(F)c(F)c(F)c(F)c5F)c5ccc2[nH]5)C=C4)C=C3)cc1
REMARK SMILES IDX 5 1 4 2 3 3 2 4 1 5 32 6 33 7 94 8 34 9 93 10 35 11 36 12
REMARK SMILES IDX 37 13 87 14 38 15 92 16 86 17 88 18 39 19 91 20 85 21 84 22
REMARK SMILES IDX 40 24 72 25 52 26 71 27 53 28 56 29 70 30 89 31 54 32 55 33
REMARK SMILES IDX 69 35 90 36 57 37 41 38 42 39 50 40 43 41 44 42 48 43 51 44
REMARK SMILES IDX 45 45 46 46 49 47 47 48 73 49 74 50 82 51 75 52 76 53 80 54
REMARK SMILES IDX 83 55 77 56 78 57 81 58 79 59 58 60 59 61 67 62 60 63 61 64
REMARK SMILES IDX 65 65 68 66 62 67 63 68 66 69 64 70 6 71 7 72 8 73 9 74
REMARK SMILES IDX 10 75 11 76 12 77 13 78 31 79 14 80 23 81 16 82 17 83 21 84
REMARK SMILES IDX 18 85 20 86 22 87 19 88 15 89 24 91 25 92 29 93 26 94 28 95
REMARK SMILES IDX 30 96 27 97
REMARK H PARENT 88 23 56 34 15 90
REMARK Flexibility Score: inf
ROOT
ATOM      1  C   UNL A   1      33.656  34.036  28.190  1.00  0.00     0.202 C 
ENDROOT
BRANCH   1   2
ATOM      2  C   UNL A   1      33.410  32.632  27.642  1.00  0.00     0.261 C 
BRANCH   2   3
ATOM      3  O   UNL A   1      34.190  31.669  28.359  1.00  0.00    -0.460 OA
BRANCH   3   4
ATOM      4  C   UNL A   1      34.729  30.538  27.851  1.00  0.00     0.338 C 
ATOM      5  O   UNL A   1      34.113  29.912  26.991  1.00  0.00    -0.246 OA
BRANCH   4   6
ATOM      6  C   UNL A   1      36.074  30.031  28.244  1.00  0.00     0.060 A 
ATOM      7  C   UNL A   1      37.227  30.159  27.471  1.00  0.00     0.016 A 
ATOM      8  C   UNL A   1      36.200  29.500  29.537  1.00  0.00     0.016 A 
ATOM      9  C   UNL A   1      38.464  29.760  27.943  1.00  0.00     0.010 A 
ATOM     10  C   UNL A   1      37.451  29.120  30.034  1.00  0.00     0.010 A 
ATOM     11  C   UNL A   1      38.588  29.257  29.231  1.00  0.00    -0.014 A 
BRANCH  11  12
ATOM     12  C   UNL A   1      39.919  28.789  29.650  1.00  0.00     0.031 A 
ATOM     13  C   UNL A   1      40.612  29.531  30.744  1.00  0.00     0.074 A 
ATOM     14  C   UNL A   1      40.411  27.639  29.156  1.00  0.00     0.049 A 
ATOM     15  N   UNL A   1      41.822  29.382  31.208  1.00  0.00    -0.248 NA
ATOM     16  C   UNL A   1      39.827  30.576  31.421  1.00  0.00     0.031 C 
ATOM     17  C   UNL A   1      39.719  26.763  28.208  1.00  0.00     0.029 A 
ATOM     18  N   UNL A   1      41.591  26.992  29.407  1.00  0.00    -0.354 N 
ATOM     19  C   UNL A   1      41.962  30.351  32.190  1.00  0.00     0.074 A 
ATOM     20  C   UNL A   1      40.711  31.069  32.273  1.00  0.00     0.031 C 
ATOM     21  C   UNL A   1      40.479  25.681  27.975  1.00  0.00     0.029 A 
ATOM     22  C   UNL A   1      41.745  25.836  28.681  1.00  0.00     0.049 A 
ATOM     23  H   UNL A   1      42.263  27.323  30.045  1.00  0.00     0.167 HD
ATOM     24  C   UNL A   1      43.060  30.618  32.936  1.00  0.00     0.037 A 
ATOM     25  C   UNL A   1      42.817  25.031  28.566  1.00  0.00     0.037 A 
ATOM     26  C   UNL A   1      44.280  29.866  32.830  1.00  0.00     0.049 A 
ATOM     27  C   UNL A   1      44.059  25.409  29.330  1.00  0.00     0.074 A 
ATOM     28  C   UNL A   1      45.485  30.073  33.472  1.00  0.00     0.029 A 
ATOM     29  N   UNL A   1      44.442  28.748  32.019  1.00  0.00    -0.354 N 
ATOM     30  N   UNL A   1      44.240  26.394  30.179  1.00  0.00    -0.248 NA
ATOM     31  C   UNL A   1      45.252  24.586  29.101  1.00  0.00     0.031 C 
ATOM     32  C   UNL A   1      46.389  29.108  33.014  1.00  0.00     0.029 A 
ATOM     33  C   UNL A   1      45.732  28.263  32.133  1.00  0.00     0.049 A 
ATOM     34  H   UNL A   1      43.740  28.360  31.449  1.00  0.00     0.167 HD
ATOM     35  C   UNL A   1      45.559  26.303  30.597  1.00  0.00     0.074 A 
ATOM     36  C   UNL A   1      46.125  25.149  29.925  1.00  0.00     0.031 C 
ATOM     37  C   UNL A   1      46.248  27.101  31.451  1.00  0.00     0.037 A 
BRANCH  24  38
ATOM     38  C   UNL A   1      42.997  31.814  33.837  1.00  0.00     0.064 A 
ATOM     39  C   UNL A   1      43.303  33.108  33.391  1.00  0.00     0.173 A 
ATOM     40  C   UNL A   1      42.664  31.649  35.191  1.00  0.00     0.173 A 
ATOM     41  F   UNL A   1      43.660  33.315  32.115  1.00  0.00    -0.203 F 
ATOM     42  C   UNL A   1      43.309  34.187  34.274  1.00  0.00     0.198 A 
ATOM     43  C   UNL A   1      42.641  32.733  36.063  1.00  0.00     0.198 A 
ATOM     44  F   UNL A   1      42.375  30.431  35.673  1.00  0.00    -0.203 F 
ATOM     45  F   UNL A   1      43.669  35.402  33.840  1.00  0.00    -0.200 F 
ATOM     46  C   UNL A   1      42.973  33.999  35.606  1.00  0.00     0.200 A 
ATOM     47  F   UNL A   1      42.315  32.550  37.350  1.00  0.00    -0.200 F 
ATOM     48  F   UNL A   1      42.988  35.036  36.455  1.00  0.00    -0.200 F 
ENDBRANCH  24  38
BRANCH  25  49
ATOM     49  C   UNL A   1      42.790  23.857  27.652  1.00  0.00     0.064 A 
ATOM     50  C   UNL A   1      42.403  22.587  28.105  1.00  0.00     0.173 A 
ATOM     51  C   UNL A   1      43.170  23.973  26.304  1.00  0.00     0.173 A 
ATOM     52  F   UNL A   1      42.054  22.412  29.388  1.00  0.00    -0.203 F 
ATOM     53  C   UNL A   1      42.414  21.482  27.254  1.00  0.00     0.198 A 
ATOM     54  C   UNL A   1      43.146  22.875  25.446  1.00  0.00     0.198 A 
ATOM     55  F   UNL A   1      43.557  25.159  25.815  1.00  0.00    -0.203 F 
ATOM     56  F   UNL A   1      42.090  20.271  27.729  1.00  0.00    -0.200 F 
ATOM     57  C   UNL A   1      42.778  21.628  25.925  1.00  0.00     0.200 A 
ATOM     58  F   UNL A   1      43.485  23.027  24.159  1.00  0.00    -0.200 F 
ATOM     59  F   UNL A   1      42.786  20.567  25.107  1.00  0.00    -0.200 F 
ENDBRANCH  25  49
BRANCH  37  60
ATOM     60  C   UNL A   1      47.672  26.724  31.730  1.00  0.00     0.064 A 
ATOM     61  C   UNL A   1      48.008  25.802  32.732  1.00  0.00     0.173 A 
ATOM     62  C   UNL A   1      48.707  27.259  30.949  1.00  0.00     0.173 A 
ATOM     63  F   UNL A   1      47.053  25.278  33.515  1.00  0.00    -0.203 F 
ATOM     64  C   UNL A   1      49.334  25.447  32.956  1.00  0.00     0.198 A 
ATOM     65  C   UNL A   1      50.028  26.876  31.154  1.00  0.00     0.198 A 
ATOM     66  F   UNL A   1      48.433  28.139  29.974  1.00  0.00    -0.203 F 
ATOM     67  F   UNL A   1      49.639  24.600  33.950  1.00  0.00    -0.200 F 
ATOM     68  C   UNL A   1      50.341  25.976  32.161  1.00  0.00     0.200 A 
ATOM     69  F   UNL A   1      50.996  27.374  30.375  1.00  0.00    -0.200 F 
ATOM     70  F   UNL A   1      51.616  25.623  32.372  1.00  0.00    -0.200 F 
ENDBRANCH  37  60
ENDBRANCH  11  12
ENDBRANCH   4   6
ENDBRANCH   3   4
ENDBRANCH   2   3
ENDBRANCH   1   2
BRANCH   1  71
ATOM     71  O   UNL A   1      33.142  34.260  29.506  1.00  0.00    -0.374 OA
BRANCH  71  72
ATOM     72  C   UNL A   1      32.965  35.632  29.873  1.00  0.00     0.202 C 
BRANCH  72  73
ATOM     73  C   UNL A   1      32.532  35.698  31.337  1.00  0.00     0.261 C 
BRANCH  73  74
ATOM     74  O   UNL A   1      33.721  35.814  32.137  1.00  0.00    -0.461 OA
BRANCH  74  75
ATOM     75  C   UNL A   1      33.974  34.743  32.949  1.00  0.00     0.335 C 
ATOM     76  O   UNL A   1      33.377  33.677  32.910  1.00  0.00    -0.249 OA
BRANCH  75  77
ATOM     77  C   UNL A   1      35.165  35.061  33.861  1.00  0.00     0.232 C 
ATOM     78  C   UNL A   1      35.614  33.877  34.685  1.00  0.00     0.087 C 
ATOM     79  O   UNL A   1      36.276  35.539  33.119  1.00  0.00    -0.355 OA
ATOM     80  C   UNL A   1      37.087  33.602  34.321  1.00  0.00     0.124 C 
ATOM     81  C   UNL A   1      37.390  34.631  33.191  1.00  0.00     0.187 C 
BRANCH  80  82
ATOM     82  C   UNL A   1      37.881  33.545  35.643  1.00  0.00     0.005 A 
ATOM     83  C   UNL A   1      37.432  32.550  36.561  1.00  0.00     0.008 A 
ATOM     84  C   UNL A   1      38.928  34.370  36.101  1.00  0.00     0.047 A 
ATOM     85  C   UNL A   1      37.980  32.380  37.832  1.00  0.00     0.001 A 
ATOM     86  C   UNL A   1      39.504  34.165  37.371  1.00  0.00     0.021 A 
ATOM     87  Cl  UNL A   1      39.595  35.730  35.280  1.00  0.00    -0.084 Cl
ATOM     88  C   UNL A   1      39.031  33.183  38.235  1.00  0.00     0.002 A 
ENDBRANCH  80  82
BRANCH  80  89
ATOM     89  O   UNL A   1      37.131  32.258  33.796  1.00  0.00    -0.382 OA
ATOM     90  H   UNL A   1      37.453  32.278  32.882  1.00  0.00     0.212 HD
ENDBRANCH  80  89
BRANCH  81  91
ATOM     91  C   UNL A   1      37.728  34.142  31.779  1.00  0.00     0.003 A 
ATOM     92  C   UNL A   1      36.710  33.693  30.917  1.00  0.00     0.008 A 
ATOM     93  C   UNL A   1      39.040  34.154  31.258  1.00  0.00     0.046 A 
ATOM     94  C   UNL A   1      36.978  33.284  29.605  1.00  0.00     0.000 A 
ATOM     95  C   UNL A   1      39.306  33.751  29.940  1.00  0.00     0.021 A 
ATOM     96  Cl  UNL A   1      40.417  34.652  32.178  1.00  0.00    -0.084 Cl
ATOM     97  C   UNL A   1      38.276  33.318  29.113  1.00  0.00     0.002 A 
ENDBRANCH  81  91
ENDBRANCH  75  77
ENDBRANCH  74  75
ENDBRANCH  73  74
ENDBRANCH  72  73
ENDBRANCH  71  72
ENDBRANCH   1  71
TORSDOF 17
ENDMDL
MODEL 2
REMARK VINA RESULT:     -10.4      5.235     11.294
REMARK SMILES O=C(OCCOCCOC(=O)[C@H]1C[C@](O)(c2ccccc2Cl)[C@@H](c2ccccc2Cl)O1)c1ccc(-c2c3nc(c(-c4c(F)c(F)c(F)c(F)c4F)c4ccc([nH]4)c(-c4c(F)c(F)c(F)c(F)c4F)c4nc(c(-c5c(F)c(F)c(F)c(F)c5F)c5ccc2[nH]5)C=C4)C=C3)cc1
REMARK SMILES IDX 5 1 4 2 3 3 2 4 1 5 32 6 33 7 94 8 34 9 93 10 35 11 36 12
REMARK SMILES IDX 37 13 87 14 38 15 92 16 86 17 88 18 39 19 91 20 85 21 84 22
REMARK SMILES IDX 40 24 72 25 52 26 71 27 53 28 56 29 70 30 89 31 54 32 55 33
REMARK SMILES IDX 69 35 90 36 57 37 41 38 42 39 50 40 43 41 44 42 48 43 51 44
REMARK SMILES IDX 45 45 46 46 49 47 47 48 73 49 74 50 82 51 75 52 76 53 80 54
REMARK SMILES IDX 83 55 77 56 78 57 81 58 79 59 58 60 59 61 67 62 60 63 61 64
REMARK SMILES IDX 65 65 68 66 62 67 63 68 66 69 64 70 6 71 7 72 8 73 9 74
REMARK SMILES IDX 10 75 11 76 12 77 13 78 31 79 14 80 23 81 16 82 17 83 21 84
REMARK SMILES IDX 18 85 20 86 22 87 19 88 15 89 24 91 25 92 29 93 26 94 28 95
REMARK SMILES IDX 30 96 27 97
REMARK H PARENT 88 23 56 34 15 90
REMARK Flexibility Score: inf
ROOT
ATOM      1  C   UNL A   1      31.564  28.485  25.354  1.00  0.00     0.202 C 
ENDROOT
BRANCH   1   2
ATOM      2  C   UNL A   1      31.662  30.007  25.434  1.00  0.00     0.261 C 
BRANCH   2   3
ATOM      3  O   UNL A   1      32.996  30.408  25.759  1.00  0.00    -0.460 OA
BRANCH   3   4
ATOM      4  C   UNL A   1      33.370  31.160  26.819  1.00  0.00     0.338 C 
ATOM      5  O   UNL A   1      32.689  32.132  27.136  1.00  0.00    -0.246 OA
BRANCH   4   6
ATOM      6  C   UNL A   1      34.550  30.836  27.670  1.00  0.00     0.060 A 
ATOM      7  C   UNL A   1      34.857  29.563  28.150  1.00  0.00     0.016 A 
ATOM      8  C   UNL A   1      35.474  31.869  27.894  1.00  0.00     0.016 A 
ATOM      9  C   UNL A   1      36.025  29.313  28.845  1.00  0.00     0.010 A 
ATOM     10  C   UNL A   1      36.671  31.619  28.571  1.00  0.00     0.010 A 
ATOM     11  C   UNL A   1      36.948  30.332  29.044  1.00  0.00    -0.014 A 
BRANCH  11  12
ATOM     12  C   UNL A   1      38.140  30.019  29.848  1.00  0.00     0.031 A 
ATOM     13  C   UNL A   1      39.207  29.180  29.226  1.00  0.00     0.074 A 
ATOM     14  C   UNL A   1      38.312  30.604  31.046  1.00  0.00     0.049 A 
ATOM     15  N   UNL A   1      40.287  28.682  29.762  1.00  0.00    -0.248 NA
ATOM     16  C   UNL A   1      39.041  28.873  27.796  1.00  0.00     0.031 C 
ATOM     17  C   UNL A   1      37.395  31.572  31.653  1.00  0.00     0.029 A 
ATOM     18  N   UNL A   1      39.332  30.498  31.954  1.00  0.00    -0.354 N 
ATOM     19  C   UNL A   1      40.899  27.956  28.751  1.00  0.00     0.074 A 
ATOM     20  C   UNL A   1      40.086  28.093  27.565  1.00  0.00     0.031 C 
ATOM     21  C   UNL A   1      37.906  31.987  32.823  1.00  0.00     0.029 A 
ATOM     22  C   UNL A   1      39.133  31.246  33.089  1.00  0.00     0.049 A 
ATOM     23  H   UNL A   1      40.129  29.939  31.807  1.00  0.00     0.167 HD
ATOM     24  C   UNL A   1      42.035  27.225  28.832  1.00  0.00     0.037 A 
ATOM     25  C   UNL A   1      39.843  31.276  34.231  1.00  0.00     0.037 A 
ATOM     26  C   UNL A   1      42.821  27.129  30.032  1.00  0.00     0.049 A 
ATOM     27  C   UNL A   1      41.046  30.376  34.330  1.00  0.00     0.074 A 
ATOM     28  C   UNL A   1      43.950  26.371  30.271  1.00  0.00     0.029 A 
ATOM     29  N   UNL A   1      42.550  27.831  31.202  1.00  0.00    -0.354 N 
ATOM     30  N   UNL A   1      41.572  29.594  33.416  1.00  0.00    -0.248 NA
ATOM     31  C   UNL A   1      41.738  30.336  35.624  1.00  0.00     0.031 C 
ATOM     32  C   UNL A   1      44.335  26.578  31.600  1.00  0.00     0.029 A 
ATOM     33  C   UNL A   1      43.482  27.511  32.172  1.00  0.00     0.049 A 
ATOM     34  H   UNL A   1      41.804  28.462  31.320  1.00  0.00     0.167 HD
ATOM     35  C   UNL A   1      42.662  28.981  34.015  1.00  0.00     0.074 A 
ATOM     36  C   UNL A   1      42.736  29.502  35.366  1.00  0.00     0.031 C 
ATOM     37  C   UNL A   1      43.522  28.065  33.503  1.00  0.00     0.037 A 
BRANCH  24  38
ATOM     38  C   UNL A   1      42.413  26.418  27.628  1.00  0.00     0.064 A 
ATOM     39  C   UNL A   1      41.824  25.178  27.338  1.00  0.00     0.173 A 
ATOM     40  C   UNL A   1      43.421  26.881  26.767  1.00  0.00     0.173 A 
ATOM     41  F   UNL A   1      40.880  24.675  28.147  1.00  0.00    -0.203 F 
ATOM     42  C   UNL A   1      42.253  24.418  26.251  1.00  0.00     0.198 A 
ATOM     43  C   UNL A   1      43.826  26.133  25.665  1.00  0.00     0.198 A 
ATOM     44  F   UNL A   1      44.025  28.054  27.004  1.00  0.00    -0.203 F 
ATOM     45  F   UNL A   1      41.723  23.206  26.034  1.00  0.00    -0.200 F 
ATOM     46  C   UNL A   1      43.249  24.898  25.414  1.00  0.00     0.200 A 
ATOM     47  F   UNL A   1      44.786  26.600  24.856  1.00  0.00    -0.200 F 
ATOM     48  F   UNL A   1      43.666  24.162  24.375  1.00  0.00    -0.200 F 
ENDBRANCH  24  38
BRANCH  25  49
ATOM     49  C   UNL A   1      39.399  32.115  35.378  1.00  0.00     0.064 A 
ATOM     50  C   UNL A   1      39.833  33.440  35.525  1.00  0.00     0.173 A 
ATOM     51  C   UNL A   1      38.543  31.603  36.368  1.00  0.00     0.173 A 
ATOM     52  F   UNL A   1      40.671  33.974  34.624  1.00  0.00    -0.203 F 
ATOM     53  C   UNL A   1      39.444  34.211  36.621  1.00  0.00     0.198 A 
ATOM     54  C   UNL A   1      38.126  32.385  37.443  1.00  0.00     0.198 A 
ATOM     55  F   UNL A   1      38.102  30.339  36.286  1.00  0.00    -0.203 F 
ATOM     56  F   UNL A   1      39.918  35.457  36.762  1.00  0.00    -0.200 F 
ATOM     57  C   UNL A   1      38.586  33.685  37.574  1.00  0.00     0.200 A 
ATOM     58  F   UNL A   1      37.285  31.875  38.353  1.00  0.00    -0.200 F 
ATOM     59  F   UNL A   1      38.210  34.427  38.625  1.00  0.00    -0.200 F 
ENDBRANCH  25  49
BRANCH  37  60
ATOM     60  C   UNL A   1      44.633  27.605  34.399  1.00  0.00     0.064 A 
ATOM     61  C   UNL A   1      45.851  28.295  34.476  1.00  0.00     0.173 A 
ATOM     62  C   UNL A   1      44.452  26.486  35.227  1.00  0.00     0.173 A 
ATOM     63  F   UNL A   1      46.076  29.359  33.692  1.00  0.00    -0.203 F 
ATOM     64  C   UNL A   1      46.859  27.865  35.335  1.00  0.00     0.198 A 
ATOM     65  C   UNL A   1      45.449  26.081  36.107  1.00  0.00     0.198 A 
ATOM     66  F   UNL A   1      43.301  25.800  35.192  1.00  0.00    -0.203 F 
ATOM     67  F   UNL A   1      48.034  28.509  35.359  1.00  0.00    -0.200 F 
ATOM     68  C   UNL A   1      46.653  26.765  36.155  1.00  0.00     0.200 A 
ATOM     69  F   UNL A   1      45.241  25.029  36.910  1.00  0.00    -0.200 F 
ATOM     70  F   UNL A   1      47.620  26.361  36.989  1.00  0.00    -0.200 F 
ENDBRANCH  37  60
ENDBRANCH  11  12
ENDBRANCH   4   6
ENDBRANCH   3   4
ENDBRANCH   2   3
ENDBRANCH   1   2
BRANCH   1  71
ATOM     71  O   UNL A   1      32.211  27.906  24.217  1.00  0.00    -0.374 OA
BRANCH  71  72
ATOM     72  C   UNL A   1      32.089  26.486  24.095  1.00  0.00     0.202 C 
BRANCH  72  73
ATOM     73  C   UNL A   1      32.695  25.831  25.335  1.00  0.00     0.261 C 
BRANCH  73  74
ATOM     74  O   UNL A   1      32.465  24.415  25.236  1.00  0.00    -0.461 OA
BRANCH  74  75
ATOM     75  C   UNL A   1      32.096  23.810  26.406  1.00  0.00     0.335 C 
ATOM     76  O   UNL A   1      31.646  24.389  27.384  1.00  0.00    -0.249 OA
BRANCH  75  77
ATOM     77  C   UNL A   1      32.267  22.291  26.273  1.00  0.00     0.232 C 
ATOM     78  C   UNL A   1      32.242  21.815  24.840  1.00  0.00     0.087 C 
ATOM     79  O   UNL A   1      33.474  21.849  26.873  1.00  0.00    -0.355 OA
ATOM     80  C   UNL A   1      33.586  21.111  24.571  1.00  0.00     0.124 C 
ATOM     81  C   UNL A   1      34.382  21.310  25.896  1.00  0.00     0.187 C 
BRANCH  80  82
ATOM     82  C   UNL A   1      33.264  19.720  23.984  1.00  0.00     0.005 A 
ATOM     83  C   UNL A   1      33.871  18.630  24.676  1.00  0.00     0.008 A 
ATOM     84  C   UNL A   1      32.522  19.377  22.836  1.00  0.00     0.047 A 
ATOM     85  C   UNL A   1      33.749  17.303  24.266  1.00  0.00     0.001 A 
ATOM     86  C   UNL A   1      32.370  18.029  22.452  1.00  0.00     0.021 A 
ATOM     87  Cl  UNL A   1      31.783  20.471  21.729  1.00  0.00    -0.084 Cl
ATOM     88  C   UNL A   1      32.984  16.998  23.155  1.00  0.00     0.002 A 
ENDBRANCH  80  82
BRANCH  80  89
ATOM     89  O   UNL A   1      34.217  21.838  23.496  1.00  0.00    -0.382 OA
ATOM     90  H   UNL A   1      34.337  21.250  22.734  1.00  0.00     0.212 HD
ENDBRANCH  80  89
BRANCH  81  91
ATOM     91  C   UNL A   1      35.671  22.139  25.899  1.00  0.00     0.003 A 
ATOM     92  C   UNL A   1      35.651  23.484  26.314  1.00  0.00     0.008 A 
ATOM     93  C   UNL A   1      36.926  21.605  25.537  1.00  0.00     0.046 A 
ATOM     94  C   UNL A   1      36.817  24.256  26.374  1.00  0.00     0.000 A 
ATOM     95  C   UNL A   1      38.096  22.379  25.605  1.00  0.00     0.021 A 
ATOM     96  Cl  UNL A   1      37.137  19.981  24.983  1.00  0.00    -0.084 Cl
ATOM     97  C   UNL A   1      38.042  23.703  26.025  1.00  0.00     0.002 A 
ENDBRANCH  81  91
ENDBRANCH  75  77
ENDBRANCH  74  75
ENDBRANCH  73  74
ENDBRANCH  72  73
ENDBRANCH  71  72
ENDBRANCH   1  71
TORSDOF 17
ENDMDL
MODEL 3
REMARK VINA RESULT:     -10.2      4.245      8.297
REMARK SMILES O=C(OCCOCCOC(=O)[C@H]1C[C@](O)(c2ccccc2Cl)[C@@H](c2ccccc2Cl)O1)c1ccc(-c2c3nc(c(-c4c(F)c(F)c(F)c(F)c4F)c4ccc([nH]4)c(-c4c(F)c(F)c(F)c(F)c4F)c4nc(c(-c5c(F)c(F)c(F)c(F)c5F)c5ccc2[nH]5)C=C4)C=C3)cc1
REMARK SMILES IDX 5 1 4 2 3 3 2 4 1 5 32 6 33 7 94 8 34 9 93 10 35 11 36 12
REMARK SMILES IDX 37 13 87 14 38 15 92 16 86 17 88 18 39 19 91 20 85 21 84 22
REMARK SMILES IDX 40 24 72 25 52 26 71 27 53 28 56 29 70 30 89 31 54 32 55 33
REMARK SMILES IDX 69 35 90 36 57 37 41 38 42 39 50 40 43 41 44 42 48 43 51 44
REMARK SMILES IDX 45 45 46 46 49 47 47 48 73 49 74 50 82 51 75 52 76 53 80 54
REMARK SMILES IDX 83 55 77 56 78 57 81 58 79 59 58 60 59 61 67 62 60 63 61 64
REMARK SMILES IDX 65 65 68 66 62 67 63 68 66 69 64 70 6 71 7 72 8 73 9 74
REMARK SMILES IDX 10 75 11 76 12 77 13 78 31 79 14 80 23 81 16 82 17 83 21 84
REMARK SMILES IDX 18 85 20 86 22 87 19 88 15 89 24 91 25 92 29 93 26 94 28 95
REMARK SMILES IDX 30 96 27 97
REMARK H PARENT 88 23 56 34 15 90
REMARK Flexibility Score: inf
ROOT
ATOM      1  C   UNL A   1      32.849  34.590  28.681  1.00  0.00     0.202 C 
ENDROOT
BRANCH   1   2
ATOM      2  C   UNL A   1      33.244  35.932  29.294  1.00  0.00     0.261 C 
BRANCH   2   3
ATOM      3  O   UNL A   1      32.387  36.253  30.394  1.00  0.00    -0.460 OA
BRANCH   3   4
ATOM      4  C   UNL A   1      32.525  35.821  31.668  1.00  0.00     0.338 C 
ATOM      5  O   UNL A   1      31.631  36.049  32.480  1.00  0.00    -0.246 OA
BRANCH   4   6
ATOM      6  C   UNL A   1      33.696  35.026  32.135  1.00  0.00     0.060 A 
ATOM      7  C   UNL A   1      33.653  33.673  32.469  1.00  0.00     0.016 A 
ATOM      8  C   UNL A   1      34.946  35.664  32.115  1.00  0.00     0.016 A 
ATOM      9  C   UNL A   1      34.799  32.970  32.792  1.00  0.00     0.010 A 
ATOM     10  C   UNL A   1      36.113  34.954  32.413  1.00  0.00     0.010 A 
ATOM     11  C   UNL A   1      36.037  33.598  32.749  1.00  0.00    -0.014 A 
BRANCH  11  12
ATOM     12  C   UNL A   1      37.209  32.814  33.167  1.00  0.00     0.031 A 
ATOM     13  C   UNL A   1      37.742  33.028  34.545  1.00  0.00     0.074 A 
ATOM     14  C   UNL A   1      37.677  31.835  32.375  1.00  0.00     0.049 A 
ATOM     15  N   UNL A   1      38.819  32.545  35.101  1.00  0.00    -0.248 NA
ATOM     16  C   UNL A   1      36.942  33.896  35.424  1.00  0.00     0.031 C 
ATOM     17  C   UNL A   1      37.104  31.446  31.083  1.00  0.00     0.029 A 
ATOM     18  N   UNL A   1      38.719  30.964  32.551  1.00  0.00    -0.354 N 
ATOM     19  C   UNL A   1      38.855  33.095  36.373  1.00  0.00     0.074 A 
ATOM     20  C   UNL A   1      37.686  33.930  36.519  1.00  0.00     0.031 C 
ATOM     21  C   UNL A   1      37.790  30.401  30.595  1.00  0.00     0.029 A 
ATOM     22  C   UNL A   1      38.902  30.109  31.491  1.00  0.00     0.049 A 
ATOM     23  H   UNL A   1      39.283  30.952  33.358  1.00  0.00     0.167 HD
ATOM     24  C   UNL A   1      39.806  32.920  37.321  1.00  0.00     0.037 A 
ATOM     25  C   UNL A   1      39.895  29.232  31.258  1.00  0.00     0.037 A 
ATOM     26  C   UNL A   1      40.948  32.067  37.137  1.00  0.00     0.049 A 
ATOM     27  C   UNL A   1      40.994  29.132  32.284  1.00  0.00     0.074 A 
ATOM     28  C   UNL A   1      42.018  31.854  37.984  1.00  0.00     0.029 A 
ATOM     29  N   UNL A   1      41.158  31.274  36.014  1.00  0.00    -0.354 N 
ATOM     30  N   UNL A   1      41.099  29.735  33.446  1.00  0.00    -0.248 NA
ATOM     31  C   UNL A   1      42.126  28.257  31.957  1.00  0.00     0.031 C 
ATOM     32  C   UNL A   1      42.899  30.969  37.352  1.00  0.00     0.029 A 
ATOM     33  C   UNL A   1      42.349  30.582  36.139  1.00  0.00     0.049 A 
ATOM     34  H   UNL A   1      40.548  31.214  35.244  1.00  0.00     0.167 HD
ATOM     35  C   UNL A   1      42.295  29.303  33.996  1.00  0.00     0.074 A 
ATOM     36  C   UNL A   1      42.870  28.367  33.049  1.00  0.00     0.031 C 
ATOM     37  C   UNL A   1      42.877  29.650  35.172  1.00  0.00     0.037 A 
BRANCH  24  38
ATOM     38  C   UNL A   1      39.682  33.739  38.569  1.00  0.00     0.064 A 
ATOM     39  C   UNL A   1      40.377  34.944  38.751  1.00  0.00     0.173 A 
ATOM     40  C   UNL A   1      38.879  33.281  39.626  1.00  0.00     0.173 A 
ATOM     41  F   UNL A   1      41.184  35.409  37.785  1.00  0.00    -0.203 F 
ATOM     42  C   UNL A   1      40.298  35.642  39.955  1.00  0.00     0.198 A 
ATOM     43  C   UNL A   1      38.779  33.996  40.816  1.00  0.00     0.198 A 
ATOM     44  F   UNL A   1      38.202  32.130  39.510  1.00  0.00    -0.203 F 
ATOM     45  F   UNL A   1      41.024  36.755  40.129  1.00  0.00    -0.200 F 
ATOM     46  C   UNL A   1      39.496  35.171  40.983  1.00  0.00     0.200 A 
ATOM     47  F   UNL A   1      38.001  33.540  41.807  1.00  0.00    -0.200 F 
ATOM     48  F   UNL A   1      39.429  35.839  42.142  1.00  0.00    -0.200 F 
ENDBRANCH  24  38
BRANCH  25  49
ATOM     49  C   UNL A   1      39.937  28.451  29.991  1.00  0.00     0.064 A 
ATOM     50  C   UNL A   1      39.351  27.181  29.897  1.00  0.00     0.173 A 
ATOM     51  C   UNL A   1      40.582  28.951  28.848  1.00  0.00     0.173 A 
ATOM     52  F   UNL A   1      38.744  26.642  30.965  1.00  0.00    -0.203 F 
ATOM     53  C   UNL A   1      39.424  26.436  28.719  1.00  0.00     0.198 A 
ATOM     54  C   UNL A   1      40.622  28.222  27.661  1.00  0.00     0.198 A 
ATOM     55  F   UNL A   1      41.167  30.157  28.879  1.00  0.00    -0.203 F 
ATOM     56  F   UNL A   1      38.901  25.203  28.676  1.00  0.00    -0.200 F 
ATOM     57  C   UNL A   1      40.052  26.961  27.601  1.00  0.00     0.200 A 
ATOM     58  F   UNL A   1      41.219  28.742  26.579  1.00  0.00    -0.200 F 
ATOM     59  F   UNL A   1      40.120  26.247  26.469  1.00  0.00    -0.200 F 
ENDBRANCH  25  49
BRANCH  37  60
ATOM     60  C   UNL A   1      44.177  28.983  35.508  1.00  0.00     0.064 A 
ATOM     61  C   UNL A   1      44.223  27.777  36.220  1.00  0.00     0.173 A 
ATOM     62  C   UNL A   1      45.387  29.539  35.066  1.00  0.00     0.173 A 
ATOM     63  F   UNL A   1      43.093  27.218  36.677  1.00  0.00    -0.203 F 
ATOM     64  C   UNL A   1      45.440  27.161  36.498  1.00  0.00     0.198 A 
ATOM     65  C   UNL A   1      46.598  28.903  35.317  1.00  0.00     0.198 A 
ATOM     66  F   UNL A   1      45.391  30.688  34.375  1.00  0.00    -0.203 F 
ATOM     67  F   UNL A   1      45.467  26.033  37.221  1.00  0.00    -0.200 F 
ATOM     68  C   UNL A   1      46.624  27.720  36.038  1.00  0.00     0.200 A 
ATOM     69  F   UNL A   1      47.738  29.435  34.857  1.00  0.00    -0.200 F 
ATOM     70  F   UNL A   1      47.793  27.119  36.297  1.00  0.00    -0.200 F 
ENDBRANCH  37  60
ENDBRANCH  11  12
ENDBRANCH   4   6
ENDBRANCH   3   4
ENDBRANCH   2   3
ENDBRANCH   1   2
BRANCH   1  71
ATOM     71  O   UNL A   1      33.926  33.876  28.067  1.00  0.00    -0.374 OA
BRANCH  71  72
ATOM     72  C   UNL A   1      34.580  32.912  28.899  1.00  0.00     0.202 C 
BRANCH  72  73
ATOM     73  C   UNL A   1      34.984  31.715  28.040  1.00  0.00     0.261 C 
BRANCH  73  74
ATOM     74  O   UNL A   1      33.843  31.344  27.248  1.00  0.00    -0.461 OA
BRANCH  74  75
ATOM     75  C   UNL A   1      33.554  30.007  27.248  1.00  0.00     0.335 C 
ATOM     76  O   UNL A   1      34.325  29.123  27.592  1.00  0.00    -0.249 OA
BRANCH  75  77
ATOM     77  C   UNL A   1      32.096  29.797  26.821  1.00  0.00     0.232 C 
ATOM     78  C   UNL A   1      31.859  30.088  25.358  1.00  0.00     0.087 C 
ATOM     79  O   UNL A   1      31.659  28.475  27.093  1.00  0.00    -0.355 OA
ATOM     80  C   UNL A   1      31.316  28.794  24.719  1.00  0.00     0.124 C 
ATOM     81  C   UNL A   1      31.359  27.758  25.882  1.00  0.00     0.187 C 
BRANCH  80  82
ATOM     82  C   UNL A   1      30.019  29.165  23.970  1.00  0.00     0.005 A 
ATOM     83  C   UNL A   1      29.769  30.566  23.877  1.00  0.00     0.008 A 
ATOM     84  C   UNL A   1      29.021  28.330  23.430  1.00  0.00     0.047 A 
ATOM     85  C   UNL A   1      28.621  31.100  23.291  1.00  0.00     0.001 A 
ATOM     86  C   UNL A   1      27.884  28.878  22.803  1.00  0.00     0.021 A 
ATOM     87  Cl  UNL A   1      28.975  26.609  23.501  1.00  0.00    -0.084 Cl
ATOM     88  C   UNL A   1      27.679  30.252  22.738  1.00  0.00     0.002 A 
ENDBRANCH  80  82
BRANCH  80  89
ATOM     89  O   UNL A   1      32.257  28.426  23.688  1.00  0.00    -0.382 OA
ATOM     90  H   UNL A   1      31.937  28.745  22.830  1.00  0.00     0.212 HD
ENDBRANCH  80  89
BRANCH  81  91
ATOM     91  C   UNL A   1      32.277  26.535  25.785  1.00  0.00     0.003 A 
ATOM     92  C   UNL A   1      33.653  26.695  25.536  1.00  0.00     0.008 A 
ATOM     93  C   UNL A   1      31.817  25.214  25.979  1.00  0.00     0.046 A 
ATOM     94  C   UNL A   1      34.527  25.602  25.489  1.00  0.00     0.000 A 
ATOM     95  C   UNL A   1      32.696  24.121  25.939  1.00  0.00     0.021 A 
ATOM     96  Cl  UNL A   1      30.158  24.827  26.274  1.00  0.00    -0.084 Cl
ATOM     97  C   UNL A   1      34.051  24.315  25.695  1.00  0.00     0.002 A 
ENDBRANCH  81  91
ENDBRANCH  75  77
ENDBRANCH  74  75
ENDBRANCH  73  74
ENDBRANCH  72  73
ENDBRANCH  71  72
ENDBRANCH   1  71
TORSDOF 17
ENDMDL
