MODEL 1
REMARK VINA RESULT:     -12.0      0.000      0.000
REMARK SMILES CCCC[C@H](C(=O)OCCOCCOC(=O)c1ccc(-c2c3nc(c(-c4c(F)c(F)c(F)c(F)c4F)c4ccc([nH]4)c(-c4c(F)c(F)c(F)c(F)c4F)c4nc(c(-c5c(F)c(F)c(F)c(F)c5F)c5ccc2[nH]5)C=C4)C=C3)cc1)[C@H](O)c1ccc(C(F)(F)F)cc1
REMARK SMILES IDX 10 1 9 2 8 3 6 4 7 5 5 6 4 7 3 8 2 9 1 10 80 11 82 12 83 13
REMARK SMILES IDX 91 14 84 15 90 16 85 17 86 18 87 19 88 20 89 21 81 22 11 24
REMARK SMILES IDX 12 25 13 26 14 27 15 28 16 29 17 30 18 31 79 32 19 33 78 34
REMARK SMILES IDX 20 35 21 36 22 37 72 38 23 39 77 40 71 41 73 42 24 43 76 44
REMARK SMILES IDX 70 45 69 46 25 48 57 49 37 50 56 51 38 52 41 53 55 54 74 55
REMARK SMILES IDX 39 56 40 57 54 59 75 60 42 61 26 62 27 63 35 64 28 65 29 66
REMARK SMILES IDX 33 67 36 68 30 69 31 70 34 71 32 72 58 73 59 74 67 75 60 76
REMARK SMILES IDX 61 77 65 78 68 79 62 80 63 81 66 82 64 83 43 84 44 85 52 86
REMARK SMILES IDX 45 87 46 88 50 89 53 90 47 91 48 92 51 93 49 94
REMARK H PARENT 81 23 73 47 41 58
REMARK Flexibility Score: inf
ROOT
ATOM      1  C   UNL A   1      32.902  21.361  25.089  1.00  0.00     0.202 C 
ENDROOT
BRANCH   1   2
ATOM      2  C   UNL A   1      31.589  21.833  25.755  1.00  0.00     0.261 C 
BRANCH   2   3
ATOM      3  O   UNL A   1      31.117  23.123  25.309  1.00  0.00    -0.463 OA
BRANCH   3   4
ATOM      4  C   UNL A   1      31.284  24.135  26.191  1.00  0.00     0.312 C 
ATOM      5  O   UNL A   1      31.569  23.948  27.371  1.00  0.00    -0.252 OA
BRANCH   4   6
ATOM      6  C   UNL A   1      31.137  25.519  25.564  1.00  0.00     0.132 C 
BRANCH   6   7
ATOM      7  C   UNL A   1      32.617  26.060  25.600  1.00  0.00     0.018 C 
BRANCH   7   8
ATOM      8  C   UNL A   1      32.906  27.554  25.645  1.00  0.00     0.001 C 
BRANCH   8   9
ATOM      9  C   UNL A   1      31.767  28.434  26.151  1.00  0.00    -0.003 C 
ATOM     10  C   UNL A   1      31.402  28.196  27.609  1.00  0.00     0.004 C 
ENDBRANCH   8   9
ENDBRANCH   7   8
ENDBRANCH   6   7
BRANCH   6  11
ATOM     11  C   UNL A   1      30.568  25.582  24.108  1.00  0.00     0.158 C 
BRANCH  11  12
ATOM     12  C   UNL A   1      30.107  26.804  23.298  1.00  0.00    -0.019 A 
ATOM     13  C   UNL A   1      31.175  27.998  22.473  1.00  0.00     0.007 A 
ATOM     14  C   UNL A   1      28.369  27.215  23.552  1.00  0.00     0.007 A 
ATOM     15  C   UNL A   1      30.544  29.654  22.031  1.00  0.00     0.013 A 
ATOM     16  C   UNL A   1      27.738  28.847  23.115  1.00  0.00     0.013 A 
ATOM     17  C   UNL A   1      28.805  30.061  22.314  1.00  0.00     0.056 A 
BRANCH  17  18
ATOM     18  C   UNL A   1      28.241  31.389  21.912  1.00  0.00     0.416 C 
ATOM     19  F   UNL A   1      27.280  31.820  22.775  1.00  0.00    -0.166 F 
ATOM     20  F   UNL A   1      29.175  32.374  21.865  1.00  0.00    -0.166 F 
ATOM     21  F   UNL A   1      27.652  31.356  20.685  1.00  0.00    -0.166 F 
ENDBRANCH  17  18
ENDBRANCH  11  12
BRANCH  11  22
ATOM     22  O   UNL A   1      31.468  24.886  23.241  1.00  0.00    -0.388 OA
ATOM     23  H   UNL A   1      32.347  24.845  23.652  1.00  0.00     0.211 HD
ENDBRANCH  11  22
ENDBRANCH   6  11
ENDBRANCH   4   6
ENDBRANCH   3   4
ENDBRANCH   2   3
ENDBRANCH   1   2
BRANCH   1  24
ATOM     24  O   UNL A   1      33.182  21.574  23.701  1.00  0.00    -0.374 OA
BRANCH  24  25
ATOM     25  C   UNL A   1      34.274  22.369  23.249  1.00  0.00     0.202 C 
BRANCH  25  26
ATOM     26  C   UNL A   1      35.378  23.035  24.282  1.00  0.00     0.261 C 
BRANCH  26  27
ATOM     27  O   UNL A   1      37.030  22.212  25.101  1.00  0.00    -0.460 OA
BRANCH  27  28
ATOM     28  C   UNL A   1      38.265  22.009  25.774  1.00  0.00     0.338 C 
ATOM     29  O   UNL A   1      38.981  21.012  25.656  1.00  0.00    -0.246 OA
BRANCH  28  30
ATOM     30  C   UNL A   1      38.850  23.137  26.595  1.00  0.00     0.060 A 
ATOM     31  C   UNL A   1      38.324  24.434  26.700  1.00  0.00     0.016 A 
ATOM     32  C   UNL A   1      40.143  22.928  27.100  1.00  0.00     0.016 A 
ATOM     33  C   UNL A   1      39.059  25.489  27.265  1.00  0.00     0.010 A 
ATOM     34  C   UNL A   1      40.885  23.976  27.660  1.00  0.00     0.010 A 
ATOM     35  C   UNL A   1      40.357  25.271  27.722  1.00  0.00    -0.014 A 
BRANCH  35  36
ATOM     36  C   UNL A   1      41.217  26.379  28.200  1.00  0.00     0.031 A 
ATOM     37  C   UNL A   1      40.606  27.506  28.979  1.00  0.00     0.074 A 
ATOM     38  C   UNL A   1      42.518  26.416  27.866  1.00  0.00     0.049 A 
ATOM     39  N   UNL A   1      41.077  28.701  29.222  1.00  0.00    -0.248 NA
ATOM     40  C   UNL A   1      39.281  27.247  29.565  1.00  0.00     0.031 C 
ATOM     41  C   UNL A   1      43.244  25.344  27.189  1.00  0.00     0.029 A 
ATOM     42  N   UNL A   1      43.445  27.418  28.009  1.00  0.00    -0.354 N 
ATOM     43  C   UNL A   1      40.096  29.351  29.959  1.00  0.00     0.074 A 
ATOM     44  C   UNL A   1      39.007  28.413  30.137  1.00  0.00     0.031 C 
ATOM     45  C   UNL A   1      44.491  25.765  26.925  1.00  0.00     0.029 A 
ATOM     46  C   UNL A   1      44.623  27.157  27.353  1.00  0.00     0.049 A 
ATOM     47  H   UNL A   1      43.283  28.240  28.528  1.00  0.00     0.167 HD
ATOM     48  C   UNL A   1      40.106  30.622  30.428  1.00  0.00     0.037 A 
ATOM     49  C   UNL A   1      45.654  27.971  27.057  1.00  0.00     0.037 A 
ATOM     50  C   UNL A   1      41.199  31.540  30.243  1.00  0.00     0.049 A 
ATOM     51  C   UNL A   1      45.596  29.413  27.477  1.00  0.00     0.074 A 
ATOM     52  C   UNL A   1      41.329  32.841  30.699  1.00  0.00     0.029 A 
ATOM     53  N   UNL A   1      42.355  31.249  29.531  1.00  0.00    -0.354 N 
ATOM     54  N   UNL A   1      44.657  30.044  28.139  1.00  0.00    -0.248 NA
ATOM     55  C   UNL A   1      46.731  30.263  27.087  1.00  0.00     0.031 C 
ATOM     56  C   UNL A   1      42.542  33.352  30.224  1.00  0.00     0.029 A 
ATOM     57  C   UNL A   1      43.187  32.357  29.506  1.00  0.00     0.049 A 
ATOM     58  H   UNL A   1      42.554  30.384  29.107  1.00  0.00     0.167 HD
ATOM     59  C   UNL A   1      45.082  31.360  28.248  1.00  0.00     0.074 A 
ATOM     60  C   UNL A   1      46.375  31.435  27.597  1.00  0.00     0.031 C 
ATOM     61  C   UNL A   1      44.459  32.412  28.832  1.00  0.00     0.037 A 
BRANCH  48  62
ATOM     62  C   UNL A   1      38.884  31.111  31.148  1.00  0.00     0.064 A 
ATOM     63  C   UNL A   1      37.803  31.686  30.465  1.00  0.00     0.173 A 
ATOM     64  C   UNL A   1      38.777  30.960  32.539  1.00  0.00     0.173 A 
ATOM     65  F   UNL A   1      37.861  31.863  29.137  1.00  0.00    -0.203 F 
ATOM     66  C   UNL A   1      36.665  32.106  31.150  1.00  0.00     0.198 A 
ATOM     67  C   UNL A   1      37.629  31.362  33.219  1.00  0.00     0.198 A 
ATOM     68  F   UNL A   1      39.782  30.411  33.239  1.00  0.00    -0.203 F 
ATOM     69  F   UNL A   1      35.654  32.680  30.483  1.00  0.00    -0.200 F 
ATOM     70  C   UNL A   1      36.577  31.938  32.525  1.00  0.00     0.200 A 
ATOM     71  F   UNL A   1      37.542  31.189  34.545  1.00  0.00    -0.200 F 
ATOM     72  F   UNL A   1      35.478  32.334  33.181  1.00  0.00    -0.200 F 
ENDBRANCH  48  62
BRANCH  49  73
ATOM     73  C   UNL A   1      46.785  27.446  26.253  1.00  0.00     0.064 A 
ATOM     74  C   UNL A   1      46.812  27.599  24.862  1.00  0.00     0.173 A 
ATOM     75  C   UNL A   1      47.882  26.819  26.864  1.00  0.00     0.173 A 
ATOM     76  F   UNL A   1      45.773  28.166  24.231  1.00  0.00    -0.203 F 
ATOM     77  C   UNL A   1      47.899  27.156  24.112  1.00  0.00     0.198 A 
ATOM     78  C   UNL A   1      48.979  26.397  26.117  1.00  0.00     0.198 A 
ATOM     79  F   UNL A   1      47.899  26.643  28.193  1.00  0.00    -0.203 F 
ATOM     80  F   UNL A   1      47.895  27.300  22.779  1.00  0.00    -0.200 F 
ATOM     81  C   UNL A   1      48.987  26.567  24.741  1.00  0.00     0.200 A 
ATOM     82  F   UNL A   1      50.031  25.840  26.731  1.00  0.00    -0.200 F 
ATOM     83  F   UNL A   1      50.042  26.160  24.021  1.00  0.00    -0.200 F 
ENDBRANCH  49  73
BRANCH  61  84
ATOM     84  C   UNL A   1      45.170  33.730  28.792  1.00  0.00     0.064 A 
ATOM     85  C   UNL A   1      46.098  34.086  29.781  1.00  0.00     0.173 A 
ATOM     86  C   UNL A   1      44.942  34.633  27.743  1.00  0.00     0.173 A 
ATOM     87  F   UNL A   1      46.334  33.263  30.813  1.00  0.00    -0.203 F 
ATOM     88  C   UNL A   1      46.762  35.308  29.729  1.00  0.00     0.198 A 
ATOM     89  C   UNL A   1      45.623  35.845  27.683  1.00  0.00     0.198 A 
ATOM     90  F   UNL A   1      44.066  34.335  26.773  1.00  0.00    -0.203 F 
ATOM     91  F   UNL A   1      47.618  35.646  30.704  1.00  0.00    -0.200 F 
ATOM     92  C   UNL A   1      46.529  36.184  28.679  1.00  0.00     0.200 A 
ATOM     93  F   UNL A   1      45.403  36.687  26.664  1.00  0.00    -0.200 F 
ATOM     94  F   UNL A   1      47.169  37.361  28.630  1.00  0.00    -0.200 F 
ENDBRANCH  61  84
ENDBRANCH  35  36
ENDBRANCH  28  30
ENDBRANCH  27  28
ENDBRANCH  26  27
ENDBRANCH  25  26
ENDBRANCH  24  25
ENDBRANCH   1  24
TORSDOF 21
ENDMDL
MODEL 2
REMARK VINA RESULT:     -11.8      0.612      2.117
REMARK SMILES CCCC[C@H](C(=O)OCCOCCOC(=O)c1ccc(-c2c3nc(c(-c4c(F)c(F)c(F)c(F)c4F)c4ccc([nH]4)c(-c4c(F)c(F)c(F)c(F)c4F)c4nc(c(-c5c(F)c(F)c(F)c(F)c5F)c5ccc2[nH]5)C=C4)C=C3)cc1)[C@H](O)c1ccc(C(F)(F)F)cc1
REMARK SMILES IDX 10 1 9 2 8 3 6 4 7 5 5 6 4 7 3 8 2 9 1 10 80 11 82 12 83 13
REMARK SMILES IDX 91 14 84 15 90 16 85 17 86 18 87 19 88 20 89 21 81 22 11 24
REMARK SMILES IDX 12 25 13 26 14 27 15 28 16 29 17 30 18 31 79 32 19 33 78 34
REMARK SMILES IDX 20 35 21 36 22 37 72 38 23 39 77 40 71 41 73 42 24 43 76 44
REMARK SMILES IDX 70 45 69 46 25 48 57 49 37 50 56 51 38 52 41 53 55 54 74 55
REMARK SMILES IDX 39 56 40 57 54 59 75 60 42 61 26 62 27 63 35 64 28 65 29 66
REMARK SMILES IDX 33 67 36 68 30 69 31 70 34 71 32 72 58 73 59 74 67 75 60 76
REMARK SMILES IDX 61 77 65 78 68 79 62 80 63 81 66 82 64 83 43 84 44 85 52 86
REMARK SMILES IDX 45 87 46 88 50 89 53 90 47 91 48 92 51 93 49 94
REMARK H PARENT 81 23 73 47 41 58
REMARK Flexibility Score: inf
ROOT
ATOM      1  C   UNL A   1      33.312  21.506  25.317  1.00  0.00     0.202 C 
ENDROOT
BRANCH   1   2
ATOM      2  C   UNL A   1      31.905  21.892  25.830  1.00  0.00     0.261 C 
BRANCH   2   3
ATOM      3  O   UNL A   1      31.380  23.119  25.279  1.00  0.00    -0.463 OA
BRANCH   3   4
ATOM      4  C   UNL A   1      30.863  23.983  26.183  1.00  0.00     0.312 C 
ATOM      5  O   UNL A   1      30.636  23.668  27.348  1.00  0.00    -0.252 OA
BRANCH   4   6
ATOM      6  C   UNL A   1      30.644  25.388  25.627  1.00  0.00     0.132 C 
BRANCH   6   7
ATOM      7  C   UNL A   1      32.062  26.047  25.817  1.00  0.00     0.018 C 
BRANCH   7   8
ATOM      8  C   UNL A   1      32.273  27.185  26.807  1.00  0.00     0.001 C 
BRANCH   8   9
ATOM      9  C   UNL A   1      31.848  28.568  26.326  1.00  0.00    -0.003 C 
ATOM     10  C   UNL A   1      32.764  29.162  25.264  1.00  0.00     0.004 C 
ENDBRANCH   8   9
ENDBRANCH   7   8
ENDBRANCH   6   7
BRANCH   6  11
ATOM     11  C   UNL A   1      30.187  25.496  24.134  1.00  0.00     0.158 C 
BRANCH  11  12
ATOM     12  C   UNL A   1      29.788  26.743  23.329  1.00  0.00    -0.019 A 
ATOM     13  C   UNL A   1      30.912  27.858  22.468  1.00  0.00     0.007 A 
ATOM     14  C   UNL A   1      28.090  27.273  23.629  1.00  0.00     0.007 A 
ATOM     15  C   UNL A   1      30.384  29.552  22.033  1.00  0.00     0.013 A 
ATOM     16  C   UNL A   1      27.560  28.943  23.199  1.00  0.00     0.013 A 
ATOM     17  C   UNL A   1      28.685  30.078  22.361  1.00  0.00     0.056 A 
BRANCH  17  18
ATOM     18  C   UNL A   1      28.202  31.439  21.967  1.00  0.00     0.416 C 
ATOM     19  F   UNL A   1      29.190  32.373  22.029  1.00  0.00    -0.166 F 
ATOM     20  F   UNL A   1      27.716  31.487  20.699  1.00  0.00    -0.166 F 
ATOM     21  F   UNL A   1      27.208  31.895  22.779  1.00  0.00    -0.166 F 
ENDBRANCH  17  18
ENDBRANCH  11  12
BRANCH  11  22
ATOM     22  O   UNL A   1      31.151  24.826  23.317  1.00  0.00    -0.388 OA
ATOM     23  H   UNL A   1      31.545  25.459  22.695  1.00  0.00     0.211 HD
ENDBRANCH  11  22
ENDBRANCH   6  11
ENDBRANCH   4   6
ENDBRANCH   3   4
ENDBRANCH   2   3
ENDBRANCH   1   2
BRANCH   1  24
ATOM     24  O   UNL A   1      33.768  21.831  24.000  1.00  0.00    -0.374 OA
BRANCH  24  25
ATOM     25  C   UNL A   1      34.394  23.072  23.687  1.00  0.00     0.202 C 
BRANCH  25  26
ATOM     26  C   UNL A   1      35.669  23.669  24.551  1.00  0.00     0.261 C 
BRANCH  26  27
ATOM     27  O   UNL A   1      37.091  22.680  25.590  1.00  0.00    -0.460 OA
BRANCH  27  28
ATOM     28  C   UNL A   1      38.325  22.142  26.045  1.00  0.00     0.338 C 
ATOM     29  O   UNL A   1      38.630  20.948  26.023  1.00  0.00    -0.246 OA
BRANCH  28  30
ATOM     30  C   UNL A   1      39.430  23.088  26.464  1.00  0.00     0.060 A 
ATOM     31  C   UNL A   1      40.293  22.908  27.557  1.00  0.00     0.016 A 
ATOM     32  C   UNL A   1      39.430  24.349  25.849  1.00  0.00     0.016 A 
ATOM     33  C   UNL A   1      41.111  23.945  28.034  1.00  0.00     0.010 A 
ATOM     34  C   UNL A   1      40.239  25.392  26.322  1.00  0.00     0.010 A 
ATOM     35  C   UNL A   1      41.066  25.204  27.435  1.00  0.00    -0.014 A 
BRANCH  35  36
ATOM     36  C   UNL A   1      41.808  26.361  27.987  1.00  0.00     0.031 A 
ATOM     37  C   UNL A   1      41.067  27.420  28.748  1.00  0.00     0.074 A 
ATOM     38  C   UNL A   1      43.121  26.504  27.734  1.00  0.00     0.049 A 
ATOM     39  N   UNL A   1      41.431  28.641  29.042  1.00  0.00    -0.248 NA
ATOM     40  C   UNL A   1      39.733  27.049  29.246  1.00  0.00     0.031 C 
ATOM     41  C   UNL A   1      43.966  25.506  27.083  1.00  0.00     0.029 A 
ATOM     42  N   UNL A   1      43.958  27.569  27.954  1.00  0.00    -0.354 N 
ATOM     43  C   UNL A   1      40.360  29.198  29.730  1.00  0.00     0.074 A 
ATOM     44  C   UNL A   1      39.337  28.177  29.822  1.00  0.00     0.031 C 
ATOM     45  C   UNL A   1      45.191  26.026  26.905  1.00  0.00     0.029 A 
ATOM     46  C   UNL A   1      45.190  27.413  27.366  1.00  0.00     0.049 A 
ATOM     47  H   UNL A   1      43.703  28.364  28.477  1.00  0.00     0.167 HD
ATOM     48  C   UNL A   1      40.244  30.454  30.223  1.00  0.00     0.037 A 
ATOM     49  C   UNL A   1      46.172  28.309  27.151  1.00  0.00     0.037 A 
ATOM     50  C   UNL A   1      41.273  31.456  30.123  1.00  0.00     0.049 A 
ATOM     51  C   UNL A   1      45.979  29.732  27.594  1.00  0.00     0.074 A 
ATOM     52  C   UNL A   1      41.275  32.752  30.611  1.00  0.00     0.029 A 
ATOM     53  N   UNL A   1      42.488  31.270  29.479  1.00  0.00    -0.354 N 
ATOM     54  N   UNL A   1      44.955  30.275  28.208  1.00  0.00    -0.248 NA
ATOM     55  C   UNL A   1      47.066  30.674  27.291  1.00  0.00     0.031 C 
ATOM     56  C   UNL A   1      42.472  33.364  30.222  1.00  0.00     0.029 A 
ATOM     57  C   UNL A   1      43.234  32.437  29.527  1.00  0.00     0.049 A 
ATOM     58  H   UNL A   1      42.778  30.432  29.051  1.00  0.00     0.167 HD
ATOM     59  C   UNL A   1      45.271  31.617  28.368  1.00  0.00     0.074 A 
ATOM     60  C   UNL A   1      46.592  31.804  27.800  1.00  0.00     0.031 C 
ATOM     61  C   UNL A   1      44.535  32.604  28.934  1.00  0.00     0.037 A 
BRANCH  48  62
ATOM     62  C   UNL A   1      38.948  30.833  30.875  1.00  0.00     0.064 A 
ATOM     63  C   UNL A   1      38.754  30.723  32.258  1.00  0.00     0.173 A 
ATOM     64  C   UNL A   1      37.898  31.358  30.104  1.00  0.00     0.173 A 
ATOM     65  F   UNL A   1      39.722  30.217  33.037  1.00  0.00    -0.203 F 
ATOM     66  C   UNL A   1      37.551  31.109  32.847  1.00  0.00     0.198 A 
ATOM     67  C   UNL A   1      36.704  31.763  30.697  1.00  0.00     0.198 A 
ATOM     68  F   UNL A   1      38.035  31.489  28.776  1.00  0.00    -0.203 F 
ATOM     69  F   UNL A   1      37.375  30.967  34.168  1.00  0.00    -0.200 F 
ATOM     70  C   UNL A   1      36.530  31.634  32.067  1.00  0.00     0.200 A 
ATOM     71  F   UNL A   1      35.725  32.280  29.944  1.00  0.00    -0.200 F 
ATOM     72  F   UNL A   1      35.377  32.014  32.635  1.00  0.00    -0.200 F 
ENDBRANCH  48  62
BRANCH  49  73
ATOM     73  C   UNL A   1      47.386  27.890  26.408  1.00  0.00     0.064 A 
ATOM     74  C   UNL A   1      48.549  27.508  27.085  1.00  0.00     0.173 A 
ATOM     75  C   UNL A   1      47.392  27.822  25.006  1.00  0.00     0.173 A 
ATOM     76  F   UNL A   1      48.600  27.584  28.423  1.00  0.00    -0.203 F 
ATOM     77  C   UNL A   1      49.671  27.062  26.390  1.00  0.00     0.198 A 
ATOM     78  C   UNL A   1      48.505  27.354  24.313  1.00  0.00     0.198 A 
ATOM     79  F   UNL A   1      46.303  28.184  24.312  1.00  0.00    -0.203 F 
ATOM     80  F   UNL A   1      50.779  26.716  27.060  1.00  0.00    -0.200 F 
ATOM     81  C   UNL A   1      49.644  26.973  25.005  1.00  0.00     0.200 A 
ATOM     82  F   UNL A   1      48.469  27.259  22.976  1.00  0.00    -0.200 F 
ATOM     83  F   UNL A   1      50.715  26.523  24.338  1.00  0.00    -0.200 F 
ENDBRANCH  49  73
BRANCH  61  84
ATOM     84  C   UNL A   1      45.145  33.973  28.963  1.00  0.00     0.064 A 
ATOM     85  C   UNL A   1      44.886  34.905  27.948  1.00  0.00     0.173 A 
ATOM     86  C   UNL A   1      45.971  34.364  30.026  1.00  0.00     0.173 A 
ATOM     87  F   UNL A   1      44.116  34.569  26.902  1.00  0.00    -0.203 F 
ATOM     88  C   UNL A   1      45.447  36.178  27.989  1.00  0.00     0.198 A 
ATOM     89  C   UNL A   1      46.514  35.645  30.074  1.00  0.00     0.198 A 
ATOM     90  F   UNL A   1      46.245  33.507  31.020  1.00  0.00    -0.203 F 
ATOM     91  F   UNL A   1      45.218  37.043  26.991  1.00  0.00    -0.200 F 
ATOM     92  C   UNL A   1      46.256  36.548  29.054  1.00  0.00     0.200 A 
ATOM     93  F   UNL A   1      47.290  36.004  31.106  1.00  0.00    -0.200 F 
ATOM     94  F   UNL A   1      46.796  37.775  29.093  1.00  0.00    -0.200 F 
ENDBRANCH  61  84
ENDBRANCH  35  36
ENDBRANCH  28  30
ENDBRANCH  27  28
ENDBRANCH  26  27
ENDBRANCH  25  26
ENDBRANCH  24  25
ENDBRANCH   1  24
TORSDOF 21
ENDMDL
MODEL 3
REMARK VINA RESULT:     -11.8      9.775     14.850
REMARK SMILES CCCC[C@H](C(=O)OCCOCCOC(=O)c1ccc(-c2c3nc(c(-c4c(F)c(F)c(F)c(F)c4F)c4ccc([nH]4)c(-c4c(F)c(F)c(F)c(F)c4F)c4nc(c(-c5c(F)c(F)c(F)c(F)c5F)c5ccc2[nH]5)C=C4)C=C3)cc1)[C@H](O)c1ccc(C(F)(F)F)cc1
REMARK SMILES IDX 10 1 9 2 8 3 6 4 7 5 5 6 4 7 3 8 2 9 1 10 80 11 82 12 83 13
REMARK SMILES IDX 91 14 84 15 90 16 85 17 86 18 87 19 88 20 89 21 81 22 11 24
REMARK SMILES IDX 12 25 13 26 14 27 15 28 16 29 17 30 18 31 79 32 19 33 78 34
REMARK SMILES IDX 20 35 21 36 22 37 72 38 23 39 77 40 71 41 73 42 24 43 76 44
REMARK SMILES IDX 70 45 69 46 25 48 57 49 37 50 56 51 38 52 41 53 55 54 74 55
REMARK SMILES IDX 39 56 40 57 54 59 75 60 42 61 26 62 27 63 35 64 28 65 29 66
REMARK SMILES IDX 33 67 36 68 30 69 31 70 34 71 32 72 58 73 59 74 67 75 60 76
REMARK SMILES IDX 61 77 65 78 68 79 62 80 63 81 66 82 64 83 43 84 44 85 52 86
REMARK SMILES IDX 45 87 46 88 50 89 53 90 47 91 48 92 51 93 49 94
REMARK H PARENT 81 23 73 47 41 58
REMARK Flexibility Score: inf
ROOT
ATOM      1  C   UNL A   1      45.447  18.569  36.888  1.00  0.00     0.202 C 
ENDROOT
BRANCH   1   2
ATOM      2  C   UNL A   1      46.264  18.562  38.201  1.00  0.00     0.261 C 
BRANCH   2   3
ATOM      3  O   UNL A   1      45.723  19.394  39.250  1.00  0.00    -0.463 OA
BRANCH   3   4
ATOM      4  C   UNL A   1      46.235  19.173  40.483  1.00  0.00     0.312 C 
ATOM      5  O   UNL A   1      46.975  19.972  41.049  1.00  0.00    -0.252 OA
BRANCH   4   6
ATOM      6  C   UNL A   1      45.760  17.866  41.113  1.00  0.00     0.132 C 
BRANCH   6   7
ATOM      7  C   UNL A   1      46.380  17.949  42.560  1.00  0.00     0.018 C 
BRANCH   7   8
ATOM      8  C   UNL A   1      47.285  16.846  43.091  1.00  0.00     0.001 C 
BRANCH   8   9
ATOM      9  C   UNL A   1      46.830  16.182  44.387  1.00  0.00    -0.003 C 
ATOM     10  C   UNL A   1      46.922  14.662  44.368  1.00  0.00     0.004 C 
ENDBRANCH   8   9
ENDBRANCH   7   8
ENDBRANCH   6   7
BRANCH   6  11
ATOM     11  C   UNL A   1      44.213  17.638  41.194  1.00  0.00     0.158 C 
BRANCH  11  12
ATOM     12  C   UNL A   1      43.437  16.458  41.799  1.00  0.00    -0.019 A 
ATOM     13  C   UNL A   1      43.537  15.880  43.503  1.00  0.00     0.007 A 
ATOM     14  C   UNL A   1      42.676  15.392  40.558  1.00  0.00     0.007 A 
ATOM     15  C   UNL A   1      43.008  14.187  43.940  1.00  0.00     0.013 A 
ATOM     16  C   UNL A   1      42.148  13.720  40.982  1.00  0.00     0.013 A 
ATOM     17  C   UNL A   1      42.269  13.121  42.680  1.00  0.00     0.056 A 
BRANCH  17  18
ATOM     18  C   UNL A   1      41.772  11.749  43.014  1.00  0.00     0.416 C 
ATOM     19  F   UNL A   1      42.061  11.397  44.297  1.00  0.00    -0.166 F 
ATOM     20  F   UNL A   1      40.426  11.620  42.882  1.00  0.00    -0.166 F 
ATOM     21  F   UNL A   1      42.331  10.786  42.229  1.00  0.00    -0.166 F 
ENDBRANCH  17  18
ENDBRANCH  11  12
BRANCH  11  22
ATOM     22  O   UNL A   1      43.615  18.803  41.769  1.00  0.00    -0.388 OA
ATOM     23  H   UNL A   1      43.077  18.546  42.534  1.00  0.00     0.211 HD
ENDBRANCH  11  22
ENDBRANCH   6  11
ENDBRANCH   4   6
ENDBRANCH   3   4
ENDBRANCH   2   3
ENDBRANCH   1   2
BRANCH   1  24
ATOM     24  O   UNL A   1      45.964  19.098  35.662  1.00  0.00    -0.374 OA
BRANCH  24  25
ATOM     25  C   UNL A   1      45.639  20.402  35.189  1.00  0.00     0.202 C 
BRANCH  25  26
ATOM     26  C   UNL A   1      45.373  21.676  36.206  1.00  0.00     0.261 C 
BRANCH  26  27
ATOM     27  O   UNL A   1      46.189  23.523  36.191  1.00  0.00    -0.460 OA
BRANCH  27  28
ATOM     28  C   UNL A   1      46.415  24.919  36.339  1.00  0.00     0.338 C 
ATOM     29  O   UNL A   1      47.461  25.429  36.747  1.00  0.00    -0.246 OA
BRANCH  28  30
ATOM     30  C   UNL A   1      45.370  25.890  35.837  1.00  0.00     0.060 A 
ATOM     31  C   UNL A   1      44.016  25.596  35.614  1.00  0.00     0.016 A 
ATOM     32  C   UNL A   1      45.850  27.111  35.337  1.00  0.00     0.016 A 
ATOM     33  C   UNL A   1      43.174  26.468  34.905  1.00  0.00     0.010 A 
ATOM     34  C   UNL A   1      45.019  27.985  34.624  1.00  0.00     0.010 A 
ATOM     35  C   UNL A   1      43.680  27.657  34.380  1.00  0.00    -0.014 A 
BRANCH  35  36
ATOM     36  C   UNL A   1      42.866  28.541  33.514  1.00  0.00     0.031 A 
ATOM     37  C   UNL A   1      42.025  29.616  34.136  1.00  0.00     0.074 A 
ATOM     38  C   UNL A   1      42.817  28.327  32.188  1.00  0.00     0.049 A 
ATOM     39  N   UNL A   1      41.021  30.284  33.630  1.00  0.00    -0.248 NA
ATOM     40  C   UNL A   1      42.365  29.989  35.518  1.00  0.00     0.031 C 
ATOM     41  C   UNL A   1      43.649  27.374  31.458  1.00  0.00     0.029 A 
ATOM     42  N   UNL A   1      41.995  28.866  31.229  1.00  0.00    -0.354 N 
ATOM     43  C   UNL A   1      40.585  31.132  34.640  1.00  0.00     0.074 A 
ATOM     44  C   UNL A   1      41.443  30.905  35.785  1.00  0.00     0.031 C 
ATOM     45  C   UNL A   1      43.259  27.353  30.173  1.00  0.00     0.029 A 
ATOM     46  C   UNL A   1      42.108  28.239  30.013  1.00  0.00     0.049 A 
ATOM     47  H   UNL A   1      41.387  29.622  31.397  1.00  0.00     0.167 HD
ATOM     48  C   UNL A   1      39.551  32.007  34.610  1.00  0.00     0.037 A 
ATOM     49  C   UNL A   1      41.322  28.309  28.921  1.00  0.00     0.037 A 
ATOM     50  C   UNL A   1      38.710  32.220  33.461  1.00  0.00     0.049 A 
ATOM     51  C   UNL A   1      40.106  29.192  28.946  1.00  0.00     0.074 A 
ATOM     52  C   UNL A   1      37.653  33.100  33.310  1.00  0.00     0.029 A 
ATOM     53  N   UNL A   1      38.830  31.530  32.263  1.00  0.00    -0.354 N 
ATOM     54  N   UNL A   1      39.666  29.965  29.908  1.00  0.00    -0.248 NA
ATOM     55  C   UNL A   1      39.263  29.192  27.742  1.00  0.00     0.031 C 
ATOM     56  C   UNL A   1      37.105  32.911  32.036  1.00  0.00     0.029 A 
ATOM     57  C   UNL A   1      37.845  31.941  31.379  1.00  0.00     0.049 A 
ATOM     58  H   UNL A   1      39.515  30.849  32.070  1.00  0.00     0.167 HD
ATOM     59  C   UNL A   1      38.499  30.546  29.431  1.00  0.00     0.074 A 
ATOM     60  C   UNL A   1      38.308  30.047  28.083  1.00  0.00     0.031 C 
ATOM     61  C   UNL A   1      37.662  31.413  30.052  1.00  0.00     0.037 A 
BRANCH  48  62
ATOM     62  C   UNL A   1      39.242  32.767  35.865  1.00  0.00     0.064 A 
ATOM     63  C   UNL A   1      38.389  32.254  36.851  1.00  0.00     0.173 A 
ATOM     64  C   UNL A   1      39.848  34.011  36.104  1.00  0.00     0.173 A 
ATOM     65  F   UNL A   1      37.776  31.075  36.666  1.00  0.00    -0.203 F 
ATOM     66  C   UNL A   1      38.139  32.964  38.024  1.00  0.00     0.198 A 
ATOM     67  C   UNL A   1      39.614  34.709  37.286  1.00  0.00     0.198 A 
ATOM     68  F   UNL A   1      40.678  34.544  35.194  1.00  0.00    -0.203 F 
ATOM     69  F   UNL A   1      37.296  32.469  38.941  1.00  0.00    -0.200 F 
ATOM     70  C   UNL A   1      38.757  34.188  38.243  1.00  0.00     0.200 A 
ATOM     71  F   UNL A   1      40.220  35.885  37.500  1.00  0.00    -0.200 F 
ATOM     72  F   UNL A   1      38.523  34.865  39.375  1.00  0.00    -0.200 F 
ENDBRANCH  48  62
BRANCH  49  73
ATOM     73  C   UNL A   1      41.629  27.450  27.750  1.00  0.00     0.064 A 
ATOM     74  C   UNL A   1      42.405  27.930  26.688  1.00  0.00     0.173 A 
ATOM     75  C   UNL A   1      41.189  26.120  27.691  1.00  0.00     0.173 A 
ATOM     76  F   UNL A   1      42.823  29.205  26.687  1.00  0.00    -0.203 F 
ATOM     77  C   UNL A   1      42.739  27.107  25.615  1.00  0.00     0.198 A 
ATOM     78  C   UNL A   1      41.543  25.290  26.629  1.00  0.00     0.198 A 
ATOM     79  F   UNL A   1      40.437  25.616  28.681  1.00  0.00    -0.203 F 
ATOM     80  F   UNL A   1      43.469  27.594  24.602  1.00  0.00    -0.200 F 
ATOM     81  C   UNL A   1      42.319  25.785  25.592  1.00  0.00     0.200 A 
ATOM     82  F   UNL A   1      41.145  24.011  26.618  1.00  0.00    -0.200 F 
ATOM     83  F   UNL A   1      42.660  24.988  24.570  1.00  0.00    -0.200 F 
ENDBRANCH  49  73
BRANCH  61  84
ATOM     84  C   UNL A   1      36.466  31.873  29.277  1.00  0.00     0.064 A 
ATOM     85  C   UNL A   1      35.407  31.000  28.988  1.00  0.00     0.173 A 
ATOM     86  C   UNL A   1      36.364  33.203  28.843  1.00  0.00     0.173 A 
ATOM     87  F   UNL A   1      35.469  29.715  29.366  1.00  0.00    -0.203 F 
ATOM     88  C   UNL A   1      34.294  31.440  28.278  1.00  0.00     0.198 A 
ATOM     89  C   UNL A   1      35.240  33.644  28.151  1.00  0.00     0.198 A 
ATOM     90  F   UNL A   1      37.350  34.074  29.099  1.00  0.00    -0.203 F 
ATOM     91  F   UNL A   1      33.309  30.581  27.979  1.00  0.00    -0.200 F 
ATOM     92  C   UNL A   1      34.209  32.761  27.865  1.00  0.00     0.200 A 
ATOM     93  F   UNL A   1      35.155  34.923  27.759  1.00  0.00    -0.200 F 
ATOM     94  F   UNL A   1      33.135  33.184  27.180  1.00  0.00    -0.200 F 
ENDBRANCH  61  84
ENDBRANCH  35  36
ENDBRANCH  28  30
ENDBRANCH  27  28
ENDBRANCH  26  27
ENDBRANCH  25  26
ENDBRANCH  24  25
ENDBRANCH   1  24
TORSDOF 21
ENDMDL
