MODEL 1
REMARK VINA RESULT:     -12.4      0.000      0.000
REMARK SMILES O=C(OCCOCCOC(=O)c1nccnc1C(=O)Nc1ccc(-n2cncn2)c(Cl)c1)c1ccc(-c2c3nc(c(-c4c(F)c(F)c(F)c(F)c4F)c4ccc([nH]4)c(-c4c(F)c(F)c(F)c(F)c4F)c4nc(c(-c5c(F)c(F)c(F)c(F)c5F)c5ccc2[nH]5)C=C4)C=C3)cc1
REMARK SMILES IDX 7 1 6 2 5 3 4 4 3 5 2 6 1 7 33 8 34 9 95 10 35 11 94 12
REMARK SMILES IDX 36 13 37 14 38 15 88 16 39 17 93 18 87 19 89 20 40 21 92 22
REMARK SMILES IDX 86 23 85 24 41 26 73 27 53 28 72 29 54 30 57 31 71 32 90 33
REMARK SMILES IDX 55 34 56 35 70 37 91 38 58 39 42 40 43 41 51 42 44 43 45 44
REMARK SMILES IDX 49 45 52 46 46 47 47 48 50 49 48 50 74 51 75 52 83 53 76 54
REMARK SMILES IDX 77 55 81 56 84 57 78 58 79 59 82 60 80 61 59 62 60 63 68 64
REMARK SMILES IDX 61 65 62 66 66 67 69 68 63 69 64 70 67 71 65 72 8 73 9 74
REMARK SMILES IDX 10 75 11 76 12 77 13 78 17 79 14 80 16 81 15 82 18 83 19 84
REMARK SMILES IDX 20 85 21 87 22 88 32 89 23 90 30 91 24 92 31 93 25 94 26 95
REMARK SMILES IDX 29 96 27 97 28 98
REMARK H PARENT 89 25 57 36 20 86
REMARK Flexibility Score: inf
ROOT
ATOM      1  C   UNL A   1      36.678  22.288  25.234  1.00  0.00     0.202 C 
ENDROOT
BRANCH   1   2
ATOM      2  O   UNL A   1      37.474  21.367  24.482  1.00  0.00    -0.374 OA
BRANCH   2   3
ATOM      3  C   UNL A   1      38.037  20.218  25.084  1.00  0.00     0.202 C 
BRANCH   3   4
ATOM      4  C   UNL A   1      39.423  20.400  25.712  1.00  0.00     0.261 C 
BRANCH   4   5
ATOM      5  O   UNL A   1      39.713  21.753  26.080  1.00  0.00    -0.460 OA
BRANCH   5   6
ATOM      6  C   UNL A   1      40.441  22.162  27.143  1.00  0.00     0.338 C 
ATOM      7  O   UNL A   1      40.754  21.326  27.992  1.00  0.00    -0.246 OA
BRANCH   6   8
ATOM      8  C   UNL A   1      40.960  23.553  27.312  1.00  0.00     0.060 A 
ATOM      9  C   UNL A   1      42.090  23.935  28.043  1.00  0.00     0.016 A 
ATOM     10  C   UNL A   1      40.166  24.556  26.729  1.00  0.00     0.016 A 
ATOM     11  C   UNL A   1      42.277  25.244  28.408  1.00  0.00     0.010 A 
ATOM     12  C   UNL A   1      40.355  25.877  27.067  1.00  0.00     0.010 A 
ATOM     13  C   UNL A   1      41.340  26.177  27.998  1.00  0.00    -0.014 A 
BRANCH  13  14
ATOM     14  C   UNL A   1      41.403  27.467  28.637  1.00  0.00     0.031 A 
ATOM     15  C   UNL A   1      42.597  28.263  28.288  1.00  0.00     0.074 A 
ATOM     16  C   UNL A   1      40.407  27.837  29.461  1.00  0.00     0.049 A 
ATOM     17  N   UNL A   1      43.543  28.663  29.071  1.00  0.00    -0.248 NA
ATOM     18  C   UNL A   1      42.847  28.509  26.860  1.00  0.00     0.031 C 
ATOM     19  C   UNL A   1      39.114  27.175  29.668  1.00  0.00     0.029 A 
ATOM     20  N   UNL A   1      40.297  28.960  30.213  1.00  0.00    -0.354 N 
ATOM     21  C   UNL A   1      44.411  29.387  28.261  1.00  0.00     0.074 A 
ATOM     22  C   UNL A   1      44.035  29.111  26.900  1.00  0.00     0.031 C 
ATOM     23  C   UNL A   1      38.270  28.033  30.279  1.00  0.00     0.029 A 
ATOM     24  C   UNL A   1      39.000  29.241  30.613  1.00  0.00     0.049 A 
ATOM     25  H   UNL A   1      41.068  29.522  30.452  1.00  0.00     0.167 HD
ATOM     26  C   UNL A   1      45.198  30.369  28.779  1.00  0.00     0.037 A 
ATOM     27  C   UNL A   1      38.569  30.445  31.062  1.00  0.00     0.037 A 
ATOM     28  C   UNL A   1      45.368  30.213  30.199  1.00  0.00     0.049 A 
ATOM     29  C   UNL A   1      39.771  31.212  31.489  1.00  0.00     0.074 A 
ATOM     30  C   UNL A   1      45.917  29.234  31.003  1.00  0.00     0.029 A 
ATOM     31  N   UNL A   1      44.608  31.000  31.030  1.00  0.00    -0.354 N 
ATOM     32  N   UNL A   1      40.499  30.896  32.527  1.00  0.00    -0.248 NA
ATOM     33  C   UNL A   1      40.441  32.034  30.489  1.00  0.00     0.031 C 
ATOM     34  C   UNL A   1      45.090  29.198  32.163  1.00  0.00     0.029 A 
ATOM     35  C   UNL A   1      44.121  30.193  32.027  1.00  0.00     0.049 A 
ATOM     36  H   UNL A   1      44.443  31.964  30.929  1.00  0.00     0.167 HD
ATOM     37  C   UNL A   1      41.810  31.111  32.121  1.00  0.00     0.074 A 
ATOM     38  C   UNL A   1      41.707  31.885  30.888  1.00  0.00     0.031 C 
ATOM     39  C   UNL A   1      42.839  30.392  32.659  1.00  0.00     0.037 A 
BRANCH  26  40
ATOM     40  C   UNL A   1      45.473  31.667  28.067  1.00  0.00     0.064 A 
ATOM     41  C   UNL A   1      44.391  32.465  27.654  1.00  0.00     0.173 A 
ATOM     42  C   UNL A   1      46.728  32.002  27.508  1.00  0.00     0.173 A 
ATOM     43  F   UNL A   1      43.151  32.219  28.102  1.00  0.00    -0.203 F 
ATOM     44  C   UNL A   1      44.543  33.471  26.695  1.00  0.00     0.198 A 
ATOM     45  C   UNL A   1      46.885  33.042  26.597  1.00  0.00     0.198 A 
ATOM     46  F   UNL A   1      47.826  31.269  27.723  1.00  0.00    -0.203 F 
ATOM     47  F   UNL A   1      43.463  34.117  26.234  1.00  0.00    -0.200 F 
ATOM     48  C   UNL A   1      45.788  33.755  26.165  1.00  0.00     0.200 A 
ATOM     49  F   UNL A   1      48.097  33.286  26.080  1.00  0.00    -0.200 F 
ATOM     50  F   UNL A   1      45.925  34.673  25.200  1.00  0.00    -0.200 F 
ENDBRANCH  26  40
BRANCH  27  51
ATOM     51  C   UNL A   1      37.260  31.082  30.782  1.00  0.00     0.064 A 
ATOM     52  C   UNL A   1      36.399  31.447  31.828  1.00  0.00     0.173 A 
ATOM     53  C   UNL A   1      36.934  31.579  29.503  1.00  0.00     0.173 A 
ATOM     54  F   UNL A   1      36.664  31.058  33.084  1.00  0.00    -0.203 F 
ATOM     55  C   UNL A   1      35.292  32.274  31.612  1.00  0.00     0.198 A 
ATOM     56  C   UNL A   1      35.823  32.392  29.286  1.00  0.00     0.198 A 
ATOM     57  F   UNL A   1      37.737  31.366  28.452  1.00  0.00    -0.203 F 
ATOM     58  F   UNL A   1      34.527  32.650  32.646  1.00  0.00    -0.200 F 
ATOM     59  C   UNL A   1      35.008  32.751  30.342  1.00  0.00     0.200 A 
ATOM     60  F   UNL A   1      35.582  32.876  28.058  1.00  0.00    -0.200 F 
ATOM     61  F   UNL A   1      33.979  33.587  30.144  1.00  0.00    -0.200 F 
ENDBRANCH  27  51
BRANCH  39  62
ATOM     62  C   UNL A   1      42.545  29.549  33.867  1.00  0.00     0.064 A 
ATOM     63  C   UNL A   1      42.000  28.254  33.802  1.00  0.00     0.173 A 
ATOM     64  C   UNL A   1      42.973  30.007  35.119  1.00  0.00     0.173 A 
ATOM     65  F   UNL A   1      41.671  27.704  32.627  1.00  0.00    -0.203 F 
ATOM     66  C   UNL A   1      41.849  27.477  34.949  1.00  0.00     0.198 A 
ATOM     67  C   UNL A   1      42.855  29.214  36.256  1.00  0.00     0.198 A 
ATOM     68  F   UNL A   1      43.557  31.210  35.229  1.00  0.00    -0.203 F 
ATOM     69  F   UNL A   1      41.317  26.247  34.863  1.00  0.00    -0.200 F 
ATOM     70  C   UNL A   1      42.283  27.955  36.174  1.00  0.00     0.200 A 
ATOM     71  F   UNL A   1      43.327  29.659  37.429  1.00  0.00    -0.200 F 
ATOM     72  F   UNL A   1      42.179  27.191  37.271  1.00  0.00    -0.200 F 
ENDBRANCH  39  62
ENDBRANCH  13  14
ENDBRANCH   6   8
ENDBRANCH   5   6
ENDBRANCH   4   5
ENDBRANCH   3   4
ENDBRANCH   2   3
ENDBRANCH   1   2
BRANCH   1  73
ATOM     73  C   UNL A   1      36.468  23.769  24.856  1.00  0.00     0.261 C 
BRANCH  73  74
ATOM     74  O   UNL A   1      35.199  24.306  25.257  1.00  0.00    -0.458 OA
BRANCH  74  75
ATOM     75  C   UNL A   1      34.208  24.244  24.361  1.00  0.00     0.359 C 
ATOM     76  O   UNL A   1      34.009  25.056  23.448  1.00  0.00    -0.244 OA
BRANCH  75  77
ATOM     77  C   UNL A   1      33.303  23.100  24.604  1.00  0.00     0.179 A 
ATOM     78  N   UNL A   1      33.607  22.053  23.762  1.00  0.00    -0.245 NA
ATOM     79  C   UNL A   1      32.292  22.994  25.558  1.00  0.00     0.161 A 
ATOM     80  C   UNL A   1      32.844  20.948  23.844  1.00  0.00     0.132 A 
ATOM     81  N   UNL A   1      31.546  21.837  25.625  1.00  0.00    -0.247 NA
ATOM     82  C   UNL A   1      31.821  20.846  24.754  1.00  0.00     0.132 A 
BRANCH  79  83
ATOM     83  C   UNL A   1      31.696  23.998  26.491  1.00  0.00     0.276 C 
ATOM     84  O   UNL A   1      31.465  23.597  27.645  1.00  0.00    -0.267 OA
ATOM     85  N   UNL A   1      31.363  25.324  26.300  1.00  0.00    -0.321 N 
ATOM     86  H   UNL A   1      31.292  25.815  27.150  1.00  0.00     0.170 HD
BRANCH  85  87
ATOM     87  C   UNL A   1      31.104  26.142  25.198  1.00  0.00     0.043 A 
ATOM     88  C   UNL A   1      30.527  25.701  24.025  1.00  0.00     0.028 A 
ATOM     89  C   UNL A   1      31.325  27.521  25.380  1.00  0.00     0.049 A 
ATOM     90  C   UNL A   1      29.957  26.622  23.146  1.00  0.00     0.032 A 
ATOM     91  C   UNL A   1      30.771  28.457  24.498  1.00  0.00     0.068 A 
ATOM     92  C   UNL A   1      30.032  27.998  23.411  1.00  0.00     0.085 A 
ATOM     93  Cl  UNL A   1      31.080  30.130  24.784  1.00  0.00    -0.082 Cl
BRANCH  92  94
ATOM     94  N   UNL A   1      29.213  28.847  22.643  1.00  0.00    -0.220 N 
ATOM     95  C   UNL A   1      27.986  29.344  23.007  1.00  0.00     0.226 A 
ATOM     96  N   UNL A   1      29.743  29.626  21.668  1.00  0.00    -0.155 NA
ATOM     97  N   UNL A   1      27.727  30.451  22.354  1.00  0.00    -0.223 NA
ATOM     98  C   UNL A   1      28.837  30.603  21.576  1.00  0.00     0.246 A 
ENDBRANCH  92  94
ENDBRANCH  85  87
ENDBRANCH  79  83
ENDBRANCH  75  77
ENDBRANCH  74  75
ENDBRANCH  73  74
ENDBRANCH   1  73
TORSDOF 17
ENDMDL
MODEL 2
REMARK VINA RESULT:     -12.4      1.969      4.079
REMARK SMILES O=C(OCCOCCOC(=O)c1nccnc1C(=O)Nc1ccc(-n2cncn2)c(Cl)c1)c1ccc(-c2c3nc(c(-c4c(F)c(F)c(F)c(F)c4F)c4ccc([nH]4)c(-c4c(F)c(F)c(F)c(F)c4F)c4nc(c(-c5c(F)c(F)c(F)c(F)c5F)c5ccc2[nH]5)C=C4)C=C3)cc1
REMARK SMILES IDX 7 1 6 2 5 3 4 4 3 5 2 6 1 7 33 8 34 9 95 10 35 11 94 12
REMARK SMILES IDX 36 13 37 14 38 15 88 16 39 17 93 18 87 19 89 20 40 21 92 22
REMARK SMILES IDX 86 23 85 24 41 26 73 27 53 28 72 29 54 30 57 31 71 32 90 33
REMARK SMILES IDX 55 34 56 35 70 37 91 38 58 39 42 40 43 41 51 42 44 43 45 44
REMARK SMILES IDX 49 45 52 46 46 47 47 48 50 49 48 50 74 51 75 52 83 53 76 54
REMARK SMILES IDX 77 55 81 56 84 57 78 58 79 59 82 60 80 61 59 62 60 63 68 64
REMARK SMILES IDX 61 65 62 66 66 67 69 68 63 69 64 70 67 71 65 72 8 73 9 74
REMARK SMILES IDX 10 75 11 76 12 77 13 78 17 79 14 80 16 81 15 82 18 83 19 84
REMARK SMILES IDX 20 85 21 87 22 88 32 89 23 90 30 91 24 92 31 93 25 94 26 95
REMARK SMILES IDX 29 96 27 97 28 98
REMARK H PARENT 89 25 57 36 20 86
REMARK Flexibility Score: inf
ROOT
ATOM      1  C   UNL A   1      35.962  23.439  26.288  1.00  0.00     0.202 C 
ENDROOT
BRANCH   1   2
ATOM      2  O   UNL A   1      36.242  22.063  26.016  1.00  0.00    -0.374 OA
BRANCH   2   3
ATOM      3  C   UNL A   1      37.134  21.683  24.986  1.00  0.00     0.202 C 
BRANCH   3   4
ATOM      4  C   UNL A   1      38.585  21.434  25.414  1.00  0.00     0.261 C 
BRANCH   4   5
ATOM      5  O   UNL A   1      38.987  22.202  26.553  1.00  0.00    -0.460 OA
BRANCH   5   6
ATOM      6  C   UNL A   1      40.253  22.415  26.978  1.00  0.00     0.338 C 
ATOM      7  O   UNL A   1      40.996  21.441  27.103  1.00  0.00    -0.246 OA
BRANCH   6   8
ATOM      8  C   UNL A   1      40.832  23.769  27.227  1.00  0.00     0.060 A 
ATOM      9  C   UNL A   1      41.876  24.077  28.107  1.00  0.00     0.016 A 
ATOM     10  C   UNL A   1      40.189  24.821  26.551  1.00  0.00     0.016 A 
ATOM     11  C   UNL A   1      42.094  25.372  28.506  1.00  0.00     0.010 A 
ATOM     12  C   UNL A   1      40.415  26.128  26.924  1.00  0.00     0.010 A 
ATOM     13  C   UNL A   1      41.282  26.363  27.982  1.00  0.00    -0.014 A 
BRANCH  13  14
ATOM     14  C   UNL A   1      41.341  27.647  28.636  1.00  0.00     0.031 A 
ATOM     15  C   UNL A   1      42.533  28.450  28.296  1.00  0.00     0.074 A 
ATOM     16  C   UNL A   1      40.343  28.003  29.463  1.00  0.00     0.049 A 
ATOM     17  N   UNL A   1      43.477  28.845  29.085  1.00  0.00    -0.248 NA
ATOM     18  C   UNL A   1      42.783  28.713  26.871  1.00  0.00     0.031 C 
ATOM     19  C   UNL A   1      39.052  27.335  29.661  1.00  0.00     0.029 A 
ATOM     20  N   UNL A   1      40.229  29.118  30.227  1.00  0.00    -0.354 N 
ATOM     21  C   UNL A   1      44.343  29.580  28.283  1.00  0.00     0.074 A 
ATOM     22  C   UNL A   1      43.969  29.318  26.919  1.00  0.00     0.031 C 
ATOM     23  C   UNL A   1      38.204  28.184  30.281  1.00  0.00     0.029 A 
ATOM     24  C   UNL A   1      38.930  29.390  30.629  1.00  0.00     0.049 A 
ATOM     25  H   UNL A   1      40.998  29.680  30.474  1.00  0.00     0.167 HD
ATOM     26  C   UNL A   1      45.126  30.558  28.813  1.00  0.00     0.037 A 
ATOM     27  C   UNL A   1      38.495  30.587  31.091  1.00  0.00     0.037 A 
ATOM     28  C   UNL A   1      45.295  30.387  30.231  1.00  0.00     0.049 A 
ATOM     29  C   UNL A   1      39.695  31.354  31.528  1.00  0.00     0.074 A 
ATOM     30  C   UNL A   1      45.847  29.401  31.025  1.00  0.00     0.029 A 
ATOM     31  N   UNL A   1      44.532  31.162  31.071  1.00  0.00    -0.354 N 
ATOM     32  N   UNL A   1      40.423  31.029  32.563  1.00  0.00    -0.248 NA
ATOM     33  C   UNL A   1      40.362  32.189  30.538  1.00  0.00     0.031 C 
ATOM     34  C   UNL A   1      45.019  29.350  32.183  1.00  0.00     0.029 A 
ATOM     35  C   UNL A   1      44.048  30.343  32.058  1.00  0.00     0.049 A 
ATOM     36  H   UNL A   1      44.364  32.127  30.981  1.00  0.00     0.167 HD
ATOM     37  C   UNL A   1      41.733  31.252  32.160  1.00  0.00     0.074 A 
ATOM     38  C   UNL A   1      41.629  32.039  30.936  1.00  0.00     0.031 C 
ATOM     39  C   UNL A   1      42.764  30.531  32.691  1.00  0.00     0.037 A 
BRANCH  26  40
ATOM     40  C   UNL A   1      45.398  31.866  28.115  1.00  0.00     0.064 A 
ATOM     41  C   UNL A   1      44.321  32.720  27.818  1.00  0.00     0.173 A 
ATOM     42  C   UNL A   1      46.615  32.165  27.462  1.00  0.00     0.173 A 
ATOM     43  F   UNL A   1      43.113  32.512  28.363  1.00  0.00    -0.203 F 
ATOM     44  C   UNL A   1      44.436  33.748  26.878  1.00  0.00     0.198 A 
ATOM     45  C   UNL A   1      46.741  33.226  26.569  1.00  0.00     0.198 A 
ATOM     46  F   UNL A   1      47.694  31.381  27.562  1.00  0.00    -0.203 F 
ATOM     47  F   UNL A   1      43.352  34.452  26.528  1.00  0.00    -0.200 F 
ATOM     48  C   UNL A   1      45.644  33.996  26.251  1.00  0.00     0.200 A 
ATOM     49  F   UNL A   1      47.915  33.434  25.958  1.00  0.00    -0.200 F 
ATOM     50  F   UNL A   1      45.740  34.937  25.304  1.00  0.00    -0.200 F 
ENDBRANCH  26  40
BRANCH  27  51
ATOM     51  C   UNL A   1      37.185  31.223  30.818  1.00  0.00     0.064 A 
ATOM     52  C   UNL A   1      36.297  31.520  31.863  1.00  0.00     0.173 A 
ATOM     53  C   UNL A   1      36.880  31.787  29.561  1.00  0.00     0.173 A 
ATOM     54  F   UNL A   1      36.539  31.065  33.101  1.00  0.00    -0.203 F 
ATOM     55  C   UNL A   1      35.183  32.344  31.667  1.00  0.00     0.198 A 
ATOM     56  C   UNL A   1      35.763  32.598  29.364  1.00  0.00     0.198 A 
ATOM     57  F   UNL A   1      37.709  31.642  28.518  1.00  0.00    -0.203 F 
ATOM     58  F   UNL A   1      34.391  32.653  32.703  1.00  0.00    -0.200 F 
ATOM     59  C   UNL A   1      34.921  32.887  30.420  1.00  0.00     0.200 A 
ATOM     60  F   UNL A   1      35.544  33.145  28.160  1.00  0.00    -0.200 F 
ATOM     61  F   UNL A   1      33.886  33.721  30.245  1.00  0.00    -0.200 F 
ENDBRANCH  27  51
BRANCH  39  62
ATOM     62  C   UNL A   1      42.473  29.673  33.889  1.00  0.00     0.064 A 
ATOM     63  C   UNL A   1      41.936  28.375  33.810  1.00  0.00     0.173 A 
ATOM     64  C   UNL A   1      42.893  30.120  35.147  1.00  0.00     0.173 A 
ATOM     65  F   UNL A   1      41.614  27.835  32.628  1.00  0.00    -0.203 F 
ATOM     66  C   UNL A   1      41.786  27.585  34.947  1.00  0.00     0.198 A 
ATOM     67  C   UNL A   1      42.777  29.315  36.276  1.00  0.00     0.198 A 
ATOM     68  F   UNL A   1      43.470  31.326  35.272  1.00  0.00    -0.203 F 
ATOM     69  F   UNL A   1      41.262  26.353  34.848  1.00  0.00    -0.200 F 
ATOM     70  C   UNL A   1      42.214  28.053  36.179  1.00  0.00     0.200 A 
ATOM     71  F   UNL A   1      43.243  29.751  37.455  1.00  0.00    -0.200 F 
ATOM     72  F   UNL A   1      42.111  27.277  37.267  1.00  0.00    -0.200 F 
ENDBRANCH  39  62
ENDBRANCH  13  14
ENDBRANCH   6   8
ENDBRANCH   5   6
ENDBRANCH   4   5
ENDBRANCH   3   4
ENDBRANCH   2   3
ENDBRANCH   1   2
BRANCH   1  73
ATOM     73  C   UNL A   1      35.186  24.375  25.339  1.00  0.00     0.261 C 
BRANCH  73  74
ATOM     74  O   UNL A   1      34.106  25.086  25.963  1.00  0.00    -0.458 OA
BRANCH  74  75
ATOM     75  C   UNL A   1      33.761  26.256  25.416  1.00  0.00     0.359 C 
ATOM     76  O   UNL A   1      33.974  27.373  25.907  1.00  0.00    -0.244 OA
BRANCH  75  77
ATOM     77  C   UNL A   1      33.021  26.086  24.147  1.00  0.00     0.179 A 
ATOM     78  N   UNL A   1      33.612  26.818  23.139  1.00  0.00    -0.245 NA
ATOM     79  C   UNL A   1      31.907  25.284  23.904  1.00  0.00     0.161 A 
ATOM     80  C   UNL A   1      33.030  26.787  21.926  1.00  0.00     0.132 A 
ATOM     81  N   UNL A   1      31.353  25.263  22.642  1.00  0.00    -0.247 NA
ATOM     82  C   UNL A   1      31.910  26.031  21.684  1.00  0.00     0.132 A 
BRANCH  79  83
ATOM     83  C   UNL A   1      31.026  24.503  24.823  1.00  0.00     0.276 C 
ATOM     84  O   UNL A   1      30.151  25.154  25.420  1.00  0.00    -0.267 OA
ATOM     85  N   UNL A   1      31.000  23.156  25.123  1.00  0.00    -0.321 N 
ATOM     86  H   UNL A   1      30.135  22.877  25.502  1.00  0.00     0.170 HD
BRANCH  85  87
ATOM     87  C   UNL A   1      31.897  22.090  25.022  1.00  0.00     0.043 A 
ATOM     88  C   UNL A   1      32.709  21.661  26.053  1.00  0.00     0.028 A 
ATOM     89  C   UNL A   1      31.844  21.341  23.831  1.00  0.00     0.049 A 
ATOM     90  C   UNL A   1      33.274  20.387  26.003  1.00  0.00     0.032 A 
ATOM     91  C   UNL A   1      32.418  20.066  23.762  1.00  0.00     0.068 A 
ATOM     92  C   UNL A   1      33.083  19.568  24.879  1.00  0.00     0.085 A 
ATOM     93  Cl  UNL A   1      32.310  19.202  22.272  1.00  0.00    -0.082 Cl
BRANCH  92  94
ATOM     94  N   UNL A   1      33.440  18.213  25.003  1.00  0.00    -0.220 N 
ATOM     95  C   UNL A   1      32.598  17.171  25.304  1.00  0.00     0.226 A 
ATOM     96  N   UNL A   1      34.552  17.730  24.394  1.00  0.00    -0.155 NA
ATOM     97  N   UNL A   1      33.088  16.040  24.856  1.00  0.00    -0.223 NA
ATOM     98  C   UNL A   1      34.260  16.432  24.281  1.00  0.00     0.246 A 
ENDBRANCH  92  94
ENDBRANCH  85  87
ENDBRANCH  79  83
ENDBRANCH  75  77
ENDBRANCH  74  75
ENDBRANCH  73  74
ENDBRANCH   1  73
TORSDOF 17
ENDMDL
MODEL 3
REMARK VINA RESULT:     -12.2      1.442      1.949
REMARK SMILES O=C(OCCOCCOC(=O)c1nccnc1C(=O)Nc1ccc(-n2cncn2)c(Cl)c1)c1ccc(-c2c3nc(c(-c4c(F)c(F)c(F)c(F)c4F)c4ccc([nH]4)c(-c4c(F)c(F)c(F)c(F)c4F)c4nc(c(-c5c(F)c(F)c(F)c(F)c5F)c5ccc2[nH]5)C=C4)C=C3)cc1
REMARK SMILES IDX 7 1 6 2 5 3 4 4 3 5 2 6 1 7 33 8 34 9 95 10 35 11 94 12
REMARK SMILES IDX 36 13 37 14 38 15 88 16 39 17 93 18 87 19 89 20 40 21 92 22
REMARK SMILES IDX 86 23 85 24 41 26 73 27 53 28 72 29 54 30 57 31 71 32 90 33
REMARK SMILES IDX 55 34 56 35 70 37 91 38 58 39 42 40 43 41 51 42 44 43 45 44
REMARK SMILES IDX 49 45 52 46 46 47 47 48 50 49 48 50 74 51 75 52 83 53 76 54
REMARK SMILES IDX 77 55 81 56 84 57 78 58 79 59 82 60 80 61 59 62 60 63 68 64
REMARK SMILES IDX 61 65 62 66 66 67 69 68 63 69 64 70 67 71 65 72 8 73 9 74
REMARK SMILES IDX 10 75 11 76 12 77 13 78 17 79 14 80 16 81 15 82 18 83 19 84
REMARK SMILES IDX 20 85 21 87 22 88 32 89 23 90 30 91 24 92 31 93 25 94 26 95
REMARK SMILES IDX 29 96 27 97 28 98
REMARK H PARENT 89 25 57 36 20 86
REMARK Flexibility Score: inf
ROOT
ATOM      1  C   UNL A   1      38.044  21.776  25.735  1.00  0.00     0.202 C 
ENDROOT
BRANCH   1   2
ATOM      2  O   UNL A   1      39.450  21.981  25.899  1.00  0.00    -0.374 OA
BRANCH   2   3
ATOM      3  C   UNL A   1      40.245  21.076  26.640  1.00  0.00     0.202 C 
BRANCH   3   4
ATOM      4  C   UNL A   1      41.671  20.855  26.123  1.00  0.00     0.261 C 
BRANCH   4   5
ATOM      5  O   UNL A   1      42.119  21.875  25.224  1.00  0.00    -0.460 OA
BRANCH   5   6
ATOM      6  C   UNL A   1      42.751  23.024  25.556  1.00  0.00     0.338 C 
ATOM      7  O   UNL A   1      43.880  23.219  25.105  1.00  0.00    -0.246 OA
BRANCH   6   8
ATOM      8  C   UNL A   1      42.130  24.110  26.373  1.00  0.00     0.060 A 
ATOM      9  C   UNL A   1      41.297  25.131  25.902  1.00  0.00     0.016 A 
ATOM     10  C   UNL A   1      42.504  24.118  27.728  1.00  0.00     0.016 A 
ATOM     11  C   UNL A   1      41.065  26.250  26.661  1.00  0.00     0.010 A 
ATOM     12  C   UNL A   1      42.257  25.225  28.511  1.00  0.00     0.010 A 
ATOM     13  C   UNL A   1      41.643  26.318  27.917  1.00  0.00    -0.014 A 
BRANCH  13  14
ATOM     14  C   UNL A   1      41.627  27.610  28.557  1.00  0.00     0.031 A 
ATOM     15  C   UNL A   1      42.792  28.462  28.240  1.00  0.00     0.074 A 
ATOM     16  C   UNL A   1      40.591  27.932  29.351  1.00  0.00     0.049 A 
ATOM     17  N   UNL A   1      43.695  28.906  29.050  1.00  0.00    -0.248 NA
ATOM     18  C   UNL A   1      43.070  28.719  26.820  1.00  0.00     0.031 C 
ATOM     19  C   UNL A   1      39.326  27.210  29.522  1.00  0.00     0.029 A 
ATOM     20  N   UNL A   1      40.408  29.049  30.098  1.00  0.00    -0.354 N 
ATOM     21  C   UNL A   1      44.551  29.670  28.263  1.00  0.00     0.074 A 
ATOM     22  C   UNL A   1      44.227  29.376  26.893  1.00  0.00     0.031 C 
ATOM     23  C   UNL A   1      38.425  28.028  30.108  1.00  0.00     0.029 A 
ATOM     24  C   UNL A   1      39.088  29.269  30.462  1.00  0.00     0.049 A 
ATOM     25  H   UNL A   1      41.144  29.647  30.359  1.00  0.00     0.167 HD
ATOM     26  C   UNL A   1      45.275  30.687  28.802  1.00  0.00     0.037 A 
ATOM     27  C   UNL A   1      38.588  30.450  30.897  1.00  0.00     0.037 A 
ATOM     28  C   UNL A   1      45.412  30.540  30.227  1.00  0.00     0.049 A 
ATOM     29  C   UNL A   1      39.740  31.274  31.357  1.00  0.00     0.074 A 
ATOM     30  C   UNL A   1      45.984  29.588  31.047  1.00  0.00     0.029 A 
ATOM     31  N   UNL A   1      44.592  31.289  31.035  1.00  0.00    -0.354 N 
ATOM     32  N   UNL A   1      40.453  30.992  32.415  1.00  0.00    -0.248 NA
ATOM     33  C   UNL A   1      40.398  32.126  30.375  1.00  0.00     0.031 C 
ATOM     34  C   UNL A   1      45.127  29.513  32.183  1.00  0.00     0.029 A 
ATOM     35  C   UNL A   1      44.117  30.461  32.018  1.00  0.00     0.049 A 
ATOM     36  H   UNL A   1      44.385  32.245  30.929  1.00  0.00     0.167 HD
ATOM     37  C   UNL A   1      41.763  31.269  32.046  1.00  0.00     0.074 A 
ATOM     38  C   UNL A   1      41.659  32.037  30.809  1.00  0.00     0.031 C 
ATOM     39  C   UNL A   1      42.809  30.599  32.614  1.00  0.00     0.037 A 
BRANCH  26  40
ATOM     40  C   UNL A   1      45.509  31.998  28.096  1.00  0.00     0.064 A 
ATOM     41  C   UNL A   1      44.405  32.802  27.761  1.00  0.00     0.173 A 
ATOM     42  C   UNL A   1      46.729  32.342  27.471  1.00  0.00     0.173 A 
ATOM     43  F   UNL A   1      43.193  32.547  28.276  1.00  0.00    -0.203 F 
ATOM     44  C   UNL A   1      44.501  33.823  26.811  1.00  0.00     0.198 A 
ATOM     45  C   UNL A   1      46.833  33.397  26.569  1.00  0.00     0.198 A 
ATOM     46  F   UNL A   1      47.838  31.607  27.610  1.00  0.00    -0.203 F 
ATOM     47  F   UNL A   1      43.397  34.476  26.424  1.00  0.00    -0.200 F 
ATOM     48  C   UNL A   1      45.713  34.116  26.214  1.00  0.00     0.200 A 
ATOM     49  F   UNL A   1      48.013  33.650  25.987  1.00  0.00    -0.200 F 
ATOM     50  F   UNL A   1      45.794  35.050  25.258  1.00  0.00    -0.200 F 
ENDBRANCH  26  40
BRANCH  27  51
ATOM     51  C   UNL A   1      37.259  31.025  30.580  1.00  0.00     0.064 A 
ATOM     52  C   UNL A   1      36.371  31.392  31.602  1.00  0.00     0.173 A 
ATOM     53  C   UNL A   1      36.931  31.465  29.280  1.00  0.00     0.173 A 
ATOM     54  F   UNL A   1      36.634  31.057  32.873  1.00  0.00    -0.203 F 
ATOM     55  C   UNL A   1      35.235  32.166  31.343  1.00  0.00     0.198 A 
ATOM     56  C   UNL A   1      35.791  32.225  29.021  1.00  0.00     0.198 A 
ATOM     57  F   UNL A   1      37.756  31.247  28.246  1.00  0.00    -0.203 F 
ATOM     58  F   UNL A   1      34.442  32.547  32.354  1.00  0.00    -0.200 F 
ATOM     59  C   UNL A   1      34.950  32.587  30.054  1.00  0.00     0.200 A 
ATOM     60  F   UNL A   1      35.549  32.656  27.774  1.00  0.00    -0.200 F 
ATOM     61  F   UNL A   1      33.892  33.375  29.815  1.00  0.00    -0.200 F 
ENDBRANCH  27  51
BRANCH  39  62
ATOM     62  C   UNL A   1      42.521  29.743  33.814  1.00  0.00     0.064 A 
ATOM     63  C   UNL A   1      42.029  28.427  33.736  1.00  0.00     0.173 A 
ATOM     64  C   UNL A   1      42.902  30.214  35.076  1.00  0.00     0.173 A 
ATOM     65  F   UNL A   1      41.748  27.867  32.553  1.00  0.00    -0.203 F 
ATOM     66  C   UNL A   1      41.882  27.643  34.878  1.00  0.00     0.198 A 
ATOM     67  C   UNL A   1      42.790  29.416  36.210  1.00  0.00     0.198 A 
ATOM     68  F   UNL A   1      43.437  31.439  35.200  1.00  0.00    -0.203 F 
ATOM     69  F   UNL A   1      41.400  26.394  34.780  1.00  0.00    -0.200 F 
ATOM     70  C   UNL A   1      42.270  28.136  36.113  1.00  0.00     0.200 A 
ATOM     71  F   UNL A   1      43.218  29.876  37.393  1.00  0.00    -0.200 F 
ATOM     72  F   UNL A   1      42.171  27.366  37.206  1.00  0.00    -0.200 F 
ENDBRANCH  39  62
ENDBRANCH  13  14
ENDBRANCH   6   8
ENDBRANCH   5   6
ENDBRANCH   4   5
ENDBRANCH   3   4
ENDBRANCH   2   3
ENDBRANCH   1   2
BRANCH   1  73
ATOM     73  C   UNL A   1      37.414  20.883  24.646  1.00  0.00     0.261 C 
BRANCH  73  74
ATOM     74  O   UNL A   1      35.980  20.827  24.685  1.00  0.00    -0.458 OA
BRANCH  74  75
ATOM     75  C   UNL A   1      35.326  21.959  24.408  1.00  0.00     0.359 C 
ATOM     76  O   UNL A   1      35.624  22.765  23.517  1.00  0.00    -0.244 OA
BRANCH  75  77
ATOM     77  C   UNL A   1      34.200  22.198  25.336  1.00  0.00     0.179 A 
ATOM     78  N   UNL A   1      34.642  22.218  26.642  1.00  0.00    -0.245 NA
ATOM     79  C   UNL A   1      32.862  22.428  25.020  1.00  0.00     0.161 A 
ATOM     80  C   UNL A   1      33.721  22.396  27.607  1.00  0.00     0.132 A 
ATOM     81  N   UNL A   1      31.953  22.627  26.036  1.00  0.00    -0.247 NA
ATOM     82  C   UNL A   1      32.394  22.585  27.309  1.00  0.00     0.132 A 
BRANCH  79  83
ATOM     83  C   UNL A   1      32.118  22.346  23.727  1.00  0.00     0.276 C 
ATOM     84  O   UNL A   1      32.190  21.259  23.127  1.00  0.00    -0.267 OA
ATOM     85  N   UNL A   1      31.337  23.277  23.072  1.00  0.00    -0.321 N 
ATOM     86  H   UNL A   1      30.728  22.858  22.421  1.00  0.00     0.170 HD
BRANCH  85  87
ATOM     87  C   UNL A   1      31.196  24.666  23.104  1.00  0.00     0.043 A 
ATOM     88  C   UNL A   1      30.198  25.327  23.790  1.00  0.00     0.028 A 
ATOM     89  C   UNL A   1      32.232  25.412  22.508  1.00  0.00     0.049 A 
ATOM     90  C   UNL A   1      30.345  26.681  24.089  1.00  0.00     0.032 A 
ATOM     91  C   UNL A   1      32.384  26.775  22.789  1.00  0.00     0.068 A 
ATOM     92  C   UNL A   1      31.466  27.392  23.635  1.00  0.00     0.085 A 
ATOM     93  Cl  UNL A   1      33.679  27.625  22.028  1.00  0.00    -0.082 Cl
BRANCH  92  94
ATOM     94  N   UNL A   1      31.692  28.664  24.193  1.00  0.00    -0.220 N 
ATOM     95  C   UNL A   1      30.786  29.691  24.276  1.00  0.00     0.226 A 
ATOM     96  N   UNL A   1      32.671  28.853  25.113  1.00  0.00    -0.155 NA
ATOM     97  N   UNL A   1      31.101  30.505  25.254  1.00  0.00    -0.223 NA
ATOM     98  C   UNL A   1      32.234  29.938  25.757  1.00  0.00     0.246 A 
ENDBRANCH  92  94
ENDBRANCH  85  87
ENDBRANCH  79  83
ENDBRANCH  75  77
ENDBRANCH  74  75
ENDBRANCH  73  74
ENDBRANCH   1  73
TORSDOF 17
ENDMDL
