MODEL 1
REMARK VINA RESULT:     -12.0      0.000      0.000
REMARK SMILES Cc1ccc(C)c(S(=O)(=O)N[C@H](CC2=c3ccccc3=NC2)C(=O)OCCOCCOC(=O)c2ccc(-c3c4nc(c(-c5c(F)c(F)c(F)c(F)c5F)c5ccc([nH]5)c(-c5c(F)c(F)c(F)c(F)c5F)c5nc(c(-c6c(F)c(F)c(F)c(F)c6F)c6ccc3[nH]6)C=C5)C=C4)cc2)c1
REMARK SMILES IDX 27 1 26 2 25 3 23 4 24 5 12 6 11 7 8 9 9 10 10 11 7 12 1 13
REMARK SMILES IDX 2 14 3 15 97 16 4 17 5 18 6 19 13 20 14 21 15 22 22 23 16 24
REMARK SMILES IDX 20 25 21 26 17 27 19 28 18 29 28 30 29 31 30 32 31 33 32 34
REMARK SMILES IDX 33 35 34 36 35 37 96 38 36 39 95 40 37 41 38 42 39 43 89 44
REMARK SMILES IDX 40 45 94 46 88 47 90 48 41 49 93 50 87 51 86 52 42 54 74 55
REMARK SMILES IDX 54 56 73 57 55 58 58 59 72 60 91 61 56 62 57 63 71 65 92 66
REMARK SMILES IDX 59 67 43 68 44 69 52 70 45 71 46 72 50 73 53 74 47 75 48 76
REMARK SMILES IDX 51 77 49 78 75 79 76 80 84 81 77 82 78 83 82 84 85 85 79 86
REMARK SMILES IDX 80 87 83 88 81 89 60 90 61 91 69 92 62 93 63 94 67 95 70 96
REMARK SMILES IDX 64 97 65 98 68 99 66 100
REMARK H PARENT 11 8 90 53 58 64
REMARK Flexibility Score: inf
ROOT
ATOM      1  C   UNL A   1      32.751  31.027  26.859  1.00  0.00     0.202 C 
ENDROOT
BRANCH   1   2
ATOM      2  C   UNL A   1      33.128  29.537  26.767  1.00  0.00     0.261 C 
BRANCH   2   3
ATOM      3  O   UNL A   1      32.045  28.782  26.173  1.00  0.00    -0.462 OA
BRANCH   3   4
ATOM      4  C   UNL A   1      31.702  27.652  26.839  1.00  0.00     0.324 C 
ATOM      5  O   UNL A   1      31.082  27.637  27.892  1.00  0.00    -0.250 OA
BRANCH   4   6
ATOM      6  C   UNL A   1      32.214  26.386  26.167  1.00  0.00     0.183 C 
BRANCH   6   7
ATOM      7  N   UNL A   1      31.865  25.190  26.989  1.00  0.00    -0.197 NA
ATOM      8  H   UNL A   1      32.739  24.769  27.302  1.00  0.00     0.142 HD
BRANCH   7   9
ATOM      9  S   UNL A   1      30.960  23.982  26.250  1.00  0.00     0.241 S 
ATOM     10  O   UNL A   1      30.380  24.551  25.045  1.00  0.00    -0.207 OA
ATOM     11  O   UNL A   1      30.203  23.366  27.293  1.00  0.00    -0.207 OA
BRANCH   9  12
ATOM     12  C   UNL A   1      32.094  22.791  25.606  1.00  0.00     0.085 A 
ATOM     13  C   UNL A   1      32.145  20.468  22.629  1.00  0.00     0.044 C 
ATOM     14  C   UNL A   1      32.502  21.103  23.937  1.00  0.00    -0.050 A 
ATOM     15  C   UNL A   1      33.416  20.489  24.801  1.00  0.00     0.004 A 
ATOM     16  C   UNL A   1      31.888  22.293  24.321  1.00  0.00     0.025 A 
ATOM     17  C   UNL A   1      33.666  21.021  26.065  1.00  0.00     0.005 A 
ATOM     18  C   UNL A   1      32.992  22.167  26.496  1.00  0.00    -0.031 A 
ATOM     19  C   UNL A   1      33.131  22.567  27.937  1.00  0.00     0.046 C 
ENDBRANCH   9  12
ENDBRANCH   7   9
ENDBRANCH   6   7
BRANCH   6  20
ATOM     20  C   UNL A   1      33.714  26.270  25.792  1.00  0.00     0.065 C 
BRANCH  20  21
ATOM     21  C   UNL A   1      34.201  25.314  24.748  1.00  0.00    -0.037 C 
ATOM     22  C   UNL A   1      35.193  24.427  24.821  1.00  0.00     0.001 A 
ATOM     23  C   UNL A   1      33.673  25.378  23.339  1.00  0.00     0.174 C 
ATOM     24  C   UNL A   1      36.117  24.004  25.826  1.00  0.00     0.010 A 
ATOM     25  C   UNL A   1      35.166  23.796  23.488  1.00  0.00     0.065 A 
ATOM     26  N   UNL A   1      34.345  24.278  22.609  1.00  0.00    -0.280 NA
ATOM     27  C   UNL A   1      36.924  22.961  25.561  1.00  0.00     0.001 A 
ATOM     28  C   UNL A   1      36.048  22.627  23.291  1.00  0.00     0.028 A 
ATOM     29  C   UNL A   1      36.861  22.253  24.292  1.00  0.00     0.002 A 
ENDBRANCH  20  21
ENDBRANCH   6  20
ENDBRANCH   4   6
ENDBRANCH   3   4
ENDBRANCH   2   3
ENDBRANCH   1   2
BRANCH   1  30
ATOM     30  O   UNL A   1      33.741  31.686  27.628  1.00  0.00    -0.374 OA
BRANCH  30  31
ATOM     31  C   UNL A   1      33.551  33.027  28.030  1.00  0.00     0.202 C 
BRANCH  31  32
ATOM     32  C   UNL A   1      34.162  33.390  29.383  1.00  0.00     0.261 C 
BRANCH  32  33
ATOM     33  O   UNL A   1      35.275  32.546  29.748  1.00  0.00    -0.460 OA
BRANCH  33  34
ATOM     34  C   UNL A   1      36.501  33.100  29.533  1.00  0.00     0.338 C 
ATOM     35  O   UNL A   1      36.691  34.282  29.304  1.00  0.00    -0.246 OA
BRANCH  34  36
ATOM     36  C   UNL A   1      37.525  32.023  29.421  1.00  0.00     0.060 A 
ATOM     37  C   UNL A   1      37.106  30.685  29.343  1.00  0.00     0.016 A 
ATOM     38  C   UNL A   1      38.850  32.329  29.746  1.00  0.00     0.016 A 
ATOM     39  C   UNL A   1      37.992  29.662  29.705  1.00  0.00     0.010 A 
ATOM     40  C   UNL A   1      39.672  31.330  30.236  1.00  0.00     0.010 A 
ATOM     41  C   UNL A   1      39.263  29.987  30.204  1.00  0.00    -0.014 A 
BRANCH  41  42
ATOM     42  C   UNL A   1      40.402  29.064  30.139  1.00  0.00     0.031 A 
ATOM     43  C   UNL A   1      40.828  28.805  31.512  1.00  0.00     0.074 A 
ATOM     44  C   UNL A   1      41.155  28.536  29.155  1.00  0.00     0.049 A 
ATOM     45  N   UNL A   1      41.762  29.513  32.057  1.00  0.00    -0.248 NA
ATOM     46  C   UNL A   1      40.054  27.982  32.441  1.00  0.00     0.031 C 
ATOM     47  C   UNL A   1      41.282  29.031  27.800  1.00  0.00     0.029 A 
ATOM     48  N   UNL A   1      41.989  27.423  29.168  1.00  0.00    -0.354 N 
ATOM     49  C   UNL A   1      41.919  28.960  33.296  1.00  0.00     0.074 A 
ATOM     50  C   UNL A   1      40.695  28.252  33.583  1.00  0.00     0.031 C 
ATOM     51  C   UNL A   1      42.064  28.193  27.089  1.00  0.00     0.029 A 
ATOM     52  C   UNL A   1      42.401  27.025  27.897  1.00  0.00     0.049 A 
ATOM     53  H   UNL A   1      42.263  26.962  29.995  1.00  0.00     0.167 HD
ATOM     54  C   UNL A   1      43.189  28.750  33.718  1.00  0.00     0.037 A 
ATOM     55  C   UNL A   1      43.434  26.233  27.516  1.00  0.00     0.037 A 
ATOM     56  C   UNL A   1      44.157  29.536  32.980  1.00  0.00     0.049 A 
ATOM     57  C   UNL A   1      44.625  26.677  28.260  1.00  0.00     0.074 A 
ATOM     58  C   UNL A   1      44.542  30.862  32.928  1.00  0.00     0.029 A 
ATOM     59  N   UNL A   1      44.592  28.967  31.812  1.00  0.00    -0.354 N 
ATOM     60  N   UNL A   1      45.238  27.805  28.039  1.00  0.00    -0.248 NA
ATOM     61  C   UNL A   1      44.991  25.982  29.493  1.00  0.00     0.031 C 
ATOM     62  C   UNL A   1      45.252  31.057  31.702  1.00  0.00     0.029 A 
ATOM     63  C   UNL A   1      45.290  29.850  31.023  1.00  0.00     0.049 A 
ATOM     64  H   UNL A   1      44.423  28.029  31.564  1.00  0.00     0.167 HD
ATOM     65  C   UNL A   1      45.686  28.164  29.292  1.00  0.00     0.074 A 
ATOM     66  C   UNL A   1      45.675  26.954  30.096  1.00  0.00     0.031 C 
ATOM     67  C   UNL A   1      45.647  29.464  29.685  1.00  0.00     0.037 A 
BRANCH  54  68
ATOM     68  C   UNL A   1      43.561  27.487  34.432  1.00  0.00     0.064 A 
ATOM     69  C   UNL A   1      43.650  26.294  33.707  1.00  0.00     0.173 A 
ATOM     70  C   UNL A   1      43.609  27.364  35.840  1.00  0.00     0.173 A 
ATOM     71  F   UNL A   1      43.526  26.301  32.371  1.00  0.00    -0.203 F 
ATOM     72  C   UNL A   1      43.806  25.066  34.348  1.00  0.00     0.198 A 
ATOM     73  C   UNL A   1      43.844  26.151  36.473  1.00  0.00     0.198 A 
ATOM     74  F   UNL A   1      43.316  28.383  36.659  1.00  0.00    -0.203 F 
ATOM     75  F   UNL A   1      43.796  23.937  33.630  1.00  0.00    -0.200 F 
ATOM     76  C   UNL A   1      43.925  24.997  35.728  1.00  0.00     0.200 A 
ATOM     77  F   UNL A   1      43.916  26.109  37.811  1.00  0.00    -0.200 F 
ATOM     78  F   UNL A   1      44.060  23.817  36.343  1.00  0.00    -0.200 F 
ENDBRANCH  54  68
BRANCH  55  79
ATOM     79  C   UNL A   1      43.303  24.851  26.997  1.00  0.00     0.064 A 
ATOM     80  C   UNL A   1      43.699  24.561  25.680  1.00  0.00     0.173 A 
ATOM     81  C   UNL A   1      42.796  23.781  27.751  1.00  0.00     0.173 A 
ATOM     82  F   UNL A   1      44.214  25.527  24.906  1.00  0.00    -0.203 F 
ATOM     83  C   UNL A   1      43.569  23.279  25.138  1.00  0.00     0.198 A 
ATOM     84  C   UNL A   1      42.650  22.502  27.203  1.00  0.00     0.198 A 
ATOM     85  F   UNL A   1      42.428  23.962  29.028  1.00  0.00    -0.203 F 
ATOM     86  F   UNL A   1      43.961  23.042  23.879  1.00  0.00    -0.200 F 
ATOM     87  C   UNL A   1      43.034  22.253  25.896  1.00  0.00     0.200 A 
ATOM     88  F   UNL A   1      42.127  21.514  27.943  1.00  0.00    -0.200 F 
ATOM     89  F   UNL A   1      42.892  21.027  25.373  1.00  0.00    -0.200 F 
ENDBRANCH  55  79
BRANCH  67  90
ATOM     90  C   UNL A   1      45.843  30.466  28.604  1.00  0.00     0.064 A 
ATOM     91  C   UNL A   1      47.087  30.785  28.045  1.00  0.00     0.173 A 
ATOM     92  C   UNL A   1      44.718  31.155  28.136  1.00  0.00     0.173 A 
ATOM     93  F   UNL A   1      48.187  30.114  28.402  1.00  0.00    -0.203 F 
ATOM     94  C   UNL A   1      47.203  31.787  27.081  1.00  0.00     0.198 A 
ATOM     95  C   UNL A   1      44.830  32.131  27.152  1.00  0.00     0.198 A 
ATOM     96  F   UNL A   1      43.502  30.863  28.626  1.00  0.00    -0.203 F 
ATOM     97  F   UNL A   1      48.403  32.095  26.569  1.00  0.00    -0.200 F 
ATOM     98  C   UNL A   1      46.072  32.456  26.633  1.00  0.00     0.200 A 
ATOM     99  F   UNL A   1      43.730  32.749  26.698  1.00  0.00    -0.200 F 
ATOM    100  F   UNL A   1      46.178  33.400  25.687  1.00  0.00    -0.200 F 
ENDBRANCH  67  90
ENDBRANCH  41  42
ENDBRANCH  34  36
ENDBRANCH  33  34
ENDBRANCH  32  33
ENDBRANCH  31  32
ENDBRANCH  30  31
ENDBRANCH   1  30
TORSDOF 19
ENDMDL
MODEL 2
REMARK VINA RESULT:     -12.0      3.540      8.856
REMARK SMILES Cc1ccc(C)c(S(=O)(=O)N[C@H](CC2=c3ccccc3=NC2)C(=O)OCCOCCOC(=O)c2ccc(-c3c4nc(c(-c5c(F)c(F)c(F)c(F)c5F)c5ccc([nH]5)c(-c5c(F)c(F)c(F)c(F)c5F)c5nc(c(-c6c(F)c(F)c(F)c(F)c6F)c6ccc3[nH]6)C=C5)C=C4)cc2)c1
REMARK SMILES IDX 27 1 26 2 25 3 23 4 24 5 12 6 11 7 8 9 9 10 10 11 7 12 1 13
REMARK SMILES IDX 2 14 3 15 97 16 4 17 5 18 6 19 13 20 14 21 15 22 22 23 16 24
REMARK SMILES IDX 20 25 21 26 17 27 19 28 18 29 28 30 29 31 30 32 31 33 32 34
REMARK SMILES IDX 33 35 34 36 35 37 96 38 36 39 95 40 37 41 38 42 39 43 89 44
REMARK SMILES IDX 40 45 94 46 88 47 90 48 41 49 93 50 87 51 86 52 42 54 74 55
REMARK SMILES IDX 54 56 73 57 55 58 58 59 72 60 91 61 56 62 57 63 71 65 92 66
REMARK SMILES IDX 59 67 43 68 44 69 52 70 45 71 46 72 50 73 53 74 47 75 48 76
REMARK SMILES IDX 51 77 49 78 75 79 76 80 84 81 77 82 78 83 82 84 85 85 79 86
REMARK SMILES IDX 80 87 83 88 81 89 60 90 61 91 69 92 62 93 63 94 67 95 70 96
REMARK SMILES IDX 64 97 65 98 68 99 66 100
REMARK H PARENT 11 8 90 53 58 64
REMARK Flexibility Score: inf
ROOT
ATOM      1  C   UNL A   1      38.027  21.725  25.532  1.00  0.00     0.202 C 
ENDROOT
BRANCH   1   2
ATOM      2  C   UNL A   1      37.010  22.869  25.705  1.00  0.00     0.261 C 
BRANCH   2   3
ATOM      3  O   UNL A   1      36.481  23.266  24.418  1.00  0.00    -0.462 OA
BRANCH   3   4
ATOM      4  C   UNL A   1      35.166  22.998  24.231  1.00  0.00     0.324 C 
ATOM      5  O   UNL A   1      34.719  21.885  23.996  1.00  0.00    -0.250 OA
BRANCH   4   6
ATOM      6  C   UNL A   1      34.289  24.241  24.292  1.00  0.00     0.183 C 
BRANCH   6   7
ATOM      7  N   UNL A   1      34.353  24.980  22.998  1.00  0.00    -0.197 NA
ATOM      8  H   UNL A   1      34.715  25.912  23.196  1.00  0.00     0.142 HD
BRANCH   7   9
ATOM      9  S   UNL A   1      32.918  25.167  22.142  1.00  0.00     0.241 S 
ATOM     10  O   UNL A   1      32.127  23.967  22.357  1.00  0.00    -0.207 OA
ATOM     11  O   UNL A   1      33.290  25.665  20.857  1.00  0.00    -0.207 OA
BRANCH   9  12
ATOM     12  C   UNL A   1      31.969  26.407  22.968  1.00  0.00     0.085 A 
ATOM     13  C   UNL A   1      28.318  26.873  23.814  1.00  0.00     0.044 C 
ATOM     14  C   UNL A   1      29.773  27.162  23.608  1.00  0.00    -0.050 A 
ATOM     15  C   UNL A   1      30.252  28.475  23.652  1.00  0.00     0.004 A 
ATOM     16  C   UNL A   1      30.654  26.119  23.325  1.00  0.00     0.025 A 
ATOM     17  C   UNL A   1      31.584  28.756  23.352  1.00  0.00     0.005 A 
ATOM     18  C   UNL A   1      32.457  27.729  22.982  1.00  0.00    -0.031 A 
ATOM     19  C   UNL A   1      33.812  28.110  22.458  1.00  0.00     0.046 C 
ENDBRANCH   9  12
ENDBRANCH   7   9
ENDBRANCH   6   7
BRANCH   6  20
ATOM     20  C   UNL A   1      34.502  25.274  25.428  1.00  0.00     0.065 C 
BRANCH  20  21
ATOM     21  C   UNL A   1      33.365  26.043  26.027  1.00  0.00    -0.037 C 
ATOM     22  C   UNL A   1      33.320  27.324  26.392  1.00  0.00     0.001 A 
ATOM     23  C   UNL A   1      32.103  25.342  26.458  1.00  0.00     0.174 C 
ATOM     24  C   UNL A   1      34.220  28.433  26.351  1.00  0.00     0.010 A 
ATOM     25  C   UNL A   1      31.941  27.472  26.894  1.00  0.00     0.065 A 
ATOM     26  N   UNL A   1      31.206  26.407  26.962  1.00  0.00    -0.280 NA
ATOM     27  C   UNL A   1      33.765  29.646  26.713  1.00  0.00     0.001 A 
ATOM     28  C   UNL A   1      31.502  28.843  27.227  1.00  0.00     0.028 A 
ATOM     29  C   UNL A   1      32.385  29.850  27.124  1.00  0.00     0.002 A 
ENDBRANCH  20  21
ENDBRANCH   6  20
ENDBRANCH   4   6
ENDBRANCH   3   4
ENDBRANCH   2   3
ENDBRANCH   1   2
BRANCH   1  30
ATOM     30  O   UNL A   1      39.320  22.241  25.794  1.00  0.00    -0.374 OA
BRANCH  30  31
ATOM     31  C   UNL A   1      40.126  21.659  26.798  1.00  0.00     0.202 C 
BRANCH  31  32
ATOM     32  C   UNL A   1      41.466  21.106  26.314  1.00  0.00     0.261 C 
BRANCH  32  33
ATOM     33  O   UNL A   1      42.571  22.002  26.560  1.00  0.00    -0.460 OA
BRANCH  33  34
ATOM     34  C   UNL A   1      42.711  22.995  25.637  1.00  0.00     0.338 C 
ATOM     35  O   UNL A   1      43.058  22.818  24.483  1.00  0.00    -0.246 OA
BRANCH  34  36
ATOM     36  C   UNL A   1      42.575  24.322  26.304  1.00  0.00     0.060 A 
ATOM     37  C   UNL A   1      43.010  24.469  27.631  1.00  0.00     0.016 A 
ATOM     38  C   UNL A   1      41.717  25.267  25.734  1.00  0.00     0.016 A 
ATOM     39  C   UNL A   1      42.489  25.504  28.417  1.00  0.00     0.010 A 
ATOM     40  C   UNL A   1      41.101  26.198  26.552  1.00  0.00     0.010 A 
ATOM     41  C   UNL A   1      41.492  26.342  27.893  1.00  0.00    -0.014 A 
BRANCH  41  42
ATOM     42  C   UNL A   1      41.245  27.696  28.399  1.00  0.00     0.031 A 
ATOM     43  C   UNL A   1      42.279  28.564  27.840  1.00  0.00     0.074 A 
ATOM     44  C   UNL A   1      40.401  28.248  29.293  1.00  0.00     0.049 A 
ATOM     45  N   UNL A   1      43.369  28.794  28.495  1.00  0.00    -0.248 NA
ATOM     46  C   UNL A   1      42.306  28.960  26.432  1.00  0.00     0.031 C 
ATOM     47  C   UNL A   1      39.673  27.559  30.338  1.00  0.00     0.029 A 
ATOM     48  N   UNL A   1      40.019  29.575  29.459  1.00  0.00    -0.354 N 
ATOM     49  C   UNL A   1      44.056  29.667  27.699  1.00  0.00     0.074 A 
ATOM     50  C   UNL A   1      43.524  29.507  26.367  1.00  0.00     0.031 C 
ATOM     51  C   UNL A   1      38.873  28.436  30.979  1.00  0.00     0.029 A 
ATOM     52  C   UNL A   1      38.930  29.735  30.315  1.00  0.00     0.049 A 
ATOM     53  H   UNL A   1      40.473  30.328  29.015  1.00  0.00     0.167 HD
ATOM     54  C   UNL A   1      44.628  30.734  28.308  1.00  0.00     0.037 A 
ATOM     55  C   UNL A   1      38.483  30.833  30.972  1.00  0.00     0.037 A 
ATOM     56  C   UNL A   1      44.781  30.542  29.736  1.00  0.00     0.049 A 
ATOM     57  C   UNL A   1      39.651  31.475  31.599  1.00  0.00     0.074 A 
ATOM     58  C   UNL A   1      45.604  29.805  30.566  1.00  0.00     0.029 A 
ATOM     59  N   UNL A   1      43.681  30.871  30.484  1.00  0.00    -0.354 N 
ATOM     60  N   UNL A   1      40.296  30.973  32.613  1.00  0.00    -0.248 NA
ATOM     61  C   UNL A   1      40.312  32.579  30.904  1.00  0.00     0.031 C 
ATOM     62  C   UNL A   1      44.973  29.733  31.846  1.00  0.00     0.029 A 
ATOM     63  C   UNL A   1      43.775  30.426  31.781  1.00  0.00     0.049 A 
ATOM     64  H   UNL A   1      42.909  31.370  30.132  1.00  0.00     0.167 HD
ATOM     65  C   UNL A   1      41.595  31.368  32.379  1.00  0.00     0.074 A 
ATOM     66  C   UNL A   1      41.525  32.481  31.447  1.00  0.00     0.031 C 
ATOM     67  C   UNL A   1      42.626  30.522  32.640  1.00  0.00     0.037 A 
BRANCH  54  68
ATOM     68  C   UNL A   1      44.567  32.094  27.685  1.00  0.00     0.064 A 
ATOM     69  C   UNL A   1      45.624  32.521  26.873  1.00  0.00     0.173 A 
ATOM     70  C   UNL A   1      43.619  33.082  28.041  1.00  0.00     0.173 A 
ATOM     71  F   UNL A   1      46.619  31.679  26.556  1.00  0.00    -0.203 F 
ATOM     72  C   UNL A   1      45.708  33.839  26.426  1.00  0.00     0.198 A 
ATOM     73  C   UNL A   1      43.660  34.371  27.530  1.00  0.00     0.198 A 
ATOM     74  F   UNL A   1      42.689  32.874  28.982  1.00  0.00    -0.203 F 
ATOM     75  F   UNL A   1      46.778  34.236  25.727  1.00  0.00    -0.200 F 
ATOM     76  C   UNL A   1      44.716  34.757  26.735  1.00  0.00     0.200 A 
ATOM     77  F   UNL A   1      42.708  35.249  27.877  1.00  0.00    -0.200 F 
ATOM     78  F   UNL A   1      44.804  36.025  26.317  1.00  0.00    -0.200 F 
ENDBRANCH  54  68
BRANCH  55  79
ATOM     79  C   UNL A   1      37.260  31.597  30.626  1.00  0.00     0.064 A 
ATOM     80  C   UNL A   1      36.296  31.853  31.615  1.00  0.00     0.173 A 
ATOM     81  C   UNL A   1      36.991  32.094  29.341  1.00  0.00     0.173 A 
ATOM     82  F   UNL A   1      36.493  31.428  32.871  1.00  0.00    -0.203 F 
ATOM     83  C   UNL A   1      35.114  32.543  31.330  1.00  0.00     0.198 A 
ATOM     84  C   UNL A   1      35.800  32.770  29.051  1.00  0.00     0.198 A 
ATOM     85  F   UNL A   1      37.874  31.925  28.346  1.00  0.00    -0.203 F 
ATOM     86  F   UNL A   1      34.220  32.771  32.302  1.00  0.00    -0.200 F 
ATOM     87  C   UNL A   1      34.862  32.992  30.045  1.00  0.00     0.200 A 
ATOM     88  F   UNL A   1      35.562  33.199  27.804  1.00  0.00    -0.200 F 
ATOM     89  F   UNL A   1      33.723  33.639  29.766  1.00  0.00    -0.200 F 
ENDBRANCH  55  79
BRANCH  67  90
ATOM     90  C   UNL A   1      42.417  29.591  33.781  1.00  0.00     0.064 A 
ATOM     91  C   UNL A   1      41.971  28.271  33.644  1.00  0.00     0.173 A 
ATOM     92  C   UNL A   1      42.651  30.074  35.073  1.00  0.00     0.173 A 
ATOM     93  F   UNL A   1      41.795  27.732  32.433  1.00  0.00    -0.203 F 
ATOM     94  C   UNL A   1      41.730  27.477  34.766  1.00  0.00     0.198 A 
ATOM     95  C   UNL A   1      42.442  29.271  36.190  1.00  0.00     0.198 A 
ATOM     96  F   UNL A   1      43.104  31.326  35.249  1.00  0.00    -0.203 F 
ATOM     97  F   UNL A   1      41.284  26.220  34.621  1.00  0.00    -0.200 F 
ATOM     98  C   UNL A   1      41.970  27.978  36.037  1.00  0.00     0.200 A 
ATOM     99  F   UNL A   1      42.708  29.749  37.413  1.00  0.00    -0.200 F 
ATOM    100  F   UNL A   1      41.766  27.207  37.116  1.00  0.00    -0.200 F 
ENDBRANCH  67  90
ENDBRANCH  41  42
ENDBRANCH  34  36
ENDBRANCH  33  34
ENDBRANCH  32  33
ENDBRANCH  31  32
ENDBRANCH  30  31
ENDBRANCH   1  30
TORSDOF 19
ENDMDL
MODEL 3
REMARK VINA RESULT:     -11.6      1.535      2.701
REMARK SMILES Cc1ccc(C)c(S(=O)(=O)N[C@H](CC2=c3ccccc3=NC2)C(=O)OCCOCCOC(=O)c2ccc(-c3c4nc(c(-c5c(F)c(F)c(F)c(F)c5F)c5ccc([nH]5)c(-c5c(F)c(F)c(F)c(F)c5F)c5nc(c(-c6c(F)c(F)c(F)c(F)c6F)c6ccc3[nH]6)C=C5)C=C4)cc2)c1
REMARK SMILES IDX 27 1 26 2 25 3 23 4 24 5 12 6 11 7 8 9 9 10 10 11 7 12 1 13
REMARK SMILES IDX 2 14 3 15 97 16 4 17 5 18 6 19 13 20 14 21 15 22 22 23 16 24
REMARK SMILES IDX 20 25 21 26 17 27 19 28 18 29 28 30 29 31 30 32 31 33 32 34
REMARK SMILES IDX 33 35 34 36 35 37 96 38 36 39 95 40 37 41 38 42 39 43 89 44
REMARK SMILES IDX 40 45 94 46 88 47 90 48 41 49 93 50 87 51 86 52 42 54 74 55
REMARK SMILES IDX 54 56 73 57 55 58 58 59 72 60 91 61 56 62 57 63 71 65 92 66
REMARK SMILES IDX 59 67 43 68 44 69 52 70 45 71 46 72 50 73 53 74 47 75 48 76
REMARK SMILES IDX 51 77 49 78 75 79 76 80 84 81 77 82 78 83 82 84 85 85 79 86
REMARK SMILES IDX 80 87 83 88 81 89 60 90 61 91 69 92 62 93 63 94 67 95 70 96
REMARK SMILES IDX 64 97 65 98 68 99 66 100
REMARK H PARENT 11 8 90 53 58 64
REMARK Flexibility Score: inf
ROOT
ATOM      1  C   UNL A   1      33.268  29.019  23.193  1.00  0.00     0.202 C 
ENDROOT
BRANCH   1   2
ATOM      2  C   UNL A   1      32.804  27.679  22.594  1.00  0.00     0.261 C 
BRANCH   2   3
ATOM      3  O   UNL A   1      32.787  26.653  23.615  1.00  0.00    -0.462 OA
BRANCH   3   4
ATOM      4  C   UNL A   1      33.574  25.579  23.361  1.00  0.00     0.324 C 
ATOM      5  O   UNL A   1      34.032  25.308  22.261  1.00  0.00    -0.250 OA
BRANCH   4   6
ATOM      6  C   UNL A   1      33.794  24.699  24.583  1.00  0.00     0.183 C 
BRANCH   6   7
ATOM      7  N   UNL A   1      32.706  24.918  25.579  1.00  0.00    -0.197 NA
ATOM      8  H   UNL A   1      33.147  25.146  26.470  1.00  0.00     0.142 HD
BRANCH   7   9
ATOM      9  S   UNL A   1      31.641  23.647  25.854  1.00  0.00     0.241 S 
ATOM     10  O   UNL A   1      30.653  23.672  24.788  1.00  0.00    -0.207 OA
ATOM     11  O   UNL A   1      31.324  23.694  27.245  1.00  0.00    -0.207 OA
BRANCH   9  12
ATOM     12  C   UNL A   1      32.516  22.146  25.532  1.00  0.00     0.085 A 
ATOM     13  C   UNL A   1      32.155  19.303  23.074  1.00  0.00     0.044 C 
ATOM     14  C   UNL A   1      32.604  20.106  24.255  1.00  0.00    -0.050 A 
ATOM     15  C   UNL A   1      33.346  19.511  25.282  1.00  0.00     0.004 A 
ATOM     16  C   UNL A   1      32.244  21.449  24.358  1.00  0.00     0.025 A 
ATOM     17  C   UNL A   1      33.669  20.229  26.432  1.00  0.00     0.005 A 
ATOM     18  C   UNL A   1      33.239  21.551  26.585  1.00  0.00    -0.031 A 
ATOM     19  C   UNL A   1      33.422  22.200  27.927  1.00  0.00     0.046 C 
ENDBRANCH   9  12
ENDBRANCH   7   9
ENDBRANCH   6   7
BRANCH   6  20
ATOM     20  C   UNL A   1      35.143  24.771  25.346  1.00  0.00     0.065 C 
BRANCH  20  21
ATOM     21  C   UNL A   1      36.153  23.667  25.280  1.00  0.00    -0.037 C 
ATOM     22  C   UNL A   1      37.362  23.604  25.836  1.00  0.00     0.001 A 
ATOM     23  C   UNL A   1      35.945  22.487  24.367  1.00  0.00     0.174 C 
ATOM     24  C   UNL A   1      38.145  24.446  26.685  1.00  0.00     0.010 A 
ATOM     25  C   UNL A   1      37.847  22.276  25.412  1.00  0.00     0.065 A 
ATOM     26  N   UNL A   1      37.110  21.599  24.589  1.00  0.00    -0.280 NA
ATOM     27  C   UNL A   1      39.314  23.977  27.156  1.00  0.00     0.001 A 
ATOM     28  C   UNL A   1      39.116  21.814  26.010  1.00  0.00     0.028 A 
ATOM     29  C   UNL A   1      39.782  22.637  26.837  1.00  0.00     0.002 A 
ENDBRANCH  20  21
ENDBRANCH   6  20
ENDBRANCH   4   6
ENDBRANCH   3   4
ENDBRANCH   2   3
ENDBRANCH   1   2
BRANCH   1  30
ATOM     30  O   UNL A   1      32.693  29.149  24.481  1.00  0.00    -0.374 OA
BRANCH  30  31
ATOM     31  C   UNL A   1      33.520  29.212  25.625  1.00  0.00     0.202 C 
BRANCH  31  32
ATOM     32  C   UNL A   1      33.092  30.235  26.678  1.00  0.00     0.261 C 
BRANCH  32  33
ATOM     33  O   UNL A   1      33.818  30.107  27.920  1.00  0.00    -0.460 OA
BRANCH  33  34
ATOM     34  C   UNL A   1      34.719  31.102  28.154  1.00  0.00     0.338 C 
ATOM     35  O   UNL A   1      34.512  32.283  27.934  1.00  0.00    -0.246 OA
BRANCH  34  36
ATOM     36  C   UNL A   1      36.037  30.510  28.518  1.00  0.00     0.060 A 
ATOM     37  C   UNL A   1      36.982  31.303  29.190  1.00  0.00     0.016 A 
ATOM     38  C   UNL A   1      36.431  29.326  27.889  1.00  0.00     0.016 A 
ATOM     39  C   UNL A   1      38.339  30.961  29.128  1.00  0.00     0.010 A 
ATOM     40  C   UNL A   1      37.780  29.072  27.712  1.00  0.00     0.010 A 
ATOM     41  C   UNL A   1      38.747  29.871  28.342  1.00  0.00    -0.014 A 
BRANCH  41  42
ATOM     42  C   UNL A   1      39.996  29.141  28.584  1.00  0.00     0.031 A 
ATOM     43  C   UNL A   1      40.149  29.009  30.031  1.00  0.00     0.074 A 
ATOM     44  C   UNL A   1      41.014  28.700  27.819  1.00  0.00     0.049 A 
ATOM     45  N   UNL A   1      40.827  29.880  30.703  1.00  0.00    -0.248 NA
ATOM     46  C   UNL A   1      39.322  28.111  30.837  1.00  0.00     0.031 C 
ATOM     47  C   UNL A   1      41.356  29.154  26.487  1.00  0.00     0.029 A 
ATOM     48  N   UNL A   1      41.980  27.737  28.087  1.00  0.00    -0.354 N 
ATOM     49  C   UNL A   1      40.793  29.409  31.986  1.00  0.00     0.074 A 
ATOM     50  C   UNL A   1      39.653  28.527  32.064  1.00  0.00     0.031 C 
ATOM     51  C   UNL A   1      42.389  28.423  26.017  1.00  0.00     0.029 A 
ATOM     52  C   UNL A   1      42.712  27.359  26.962  1.00  0.00     0.049 A 
ATOM     53  H   UNL A   1      42.134  27.360  28.984  1.00  0.00     0.167 HD
ATOM     54  C   UNL A   1      41.957  29.424  32.677  1.00  0.00     0.037 A 
ATOM     55  C   UNL A   1      43.908  26.728  26.863  1.00  0.00     0.037 A 
ATOM     56  C   UNL A   1      42.935  30.323  32.099  1.00  0.00     0.049 A 
ATOM     57  C   UNL A   1      44.830  27.387  27.803  1.00  0.00     0.074 A 
ATOM     58  C   UNL A   1      43.123  31.691  32.030  1.00  0.00     0.029 A 
ATOM     59  N   UNL A   1      43.692  29.784  31.091  1.00  0.00    -0.354 N 
ATOM     60  N   UNL A   1      45.304  28.588  27.631  1.00  0.00    -0.248 NA
ATOM     61  C   UNL A   1      45.020  26.810  29.134  1.00  0.00     0.031 C 
ATOM     62  C   UNL A   1      44.043  31.947  30.967  1.00  0.00     0.029 A 
ATOM     63  C   UNL A   1      44.405  30.735  30.402  1.00  0.00     0.049 A 
ATOM     64  H   UNL A   1      43.721  28.822  30.884  1.00  0.00     0.167 HD
ATOM     65  C   UNL A   1      45.412  29.065  28.920  1.00  0.00     0.074 A 
ATOM     66  C   UNL A   1      45.406  27.903  29.791  1.00  0.00     0.031 C 
ATOM     67  C   UNL A   1      45.097  30.358  29.199  1.00  0.00     0.037 A 
BRANCH  54  68
ATOM     68  C   UNL A   1      42.349  28.267  33.543  1.00  0.00     0.064 A 
ATOM     69  C   UNL A   1      42.407  28.441  34.930  1.00  0.00     0.173 A 
ATOM     70  C   UNL A   1      42.889  27.057  33.045  1.00  0.00     0.173 A 
ATOM     71  F   UNL A   1      42.001  29.592  35.487  1.00  0.00    -0.203 F 
ATOM     72  C   UNL A   1      42.945  27.459  35.762  1.00  0.00     0.198 A 
ATOM     73  C   UNL A   1      43.349  26.049  33.880  1.00  0.00     0.198 A 
ATOM     74  F   UNL A   1      43.100  26.852  31.739  1.00  0.00    -0.203 F 
ATOM     75  F   UNL A   1      43.069  27.696  37.073  1.00  0.00    -0.200 F 
ATOM     76  C   UNL A   1      43.394  26.256  35.240  1.00  0.00     0.200 A 
ATOM     77  F   UNL A   1      43.813  24.910  33.345  1.00  0.00    -0.200 F 
ATOM     78  F   UNL A   1      43.921  25.320  36.037  1.00  0.00    -0.200 F 
ENDBRANCH  54  68
BRANCH  55  79
ATOM     79  C   UNL A   1      44.099  25.322  26.433  1.00  0.00     0.064 A 
ATOM     80  C   UNL A   1      43.404  24.292  27.089  1.00  0.00     0.173 A 
ATOM     81  C   UNL A   1      44.951  24.938  25.385  1.00  0.00     0.173 A 
ATOM     82  F   UNL A   1      42.555  24.584  28.085  1.00  0.00    -0.203 F 
ATOM     83  C   UNL A   1      43.574  22.950  26.737  1.00  0.00     0.198 A 
ATOM     84  C   UNL A   1      45.134  23.593  25.044  1.00  0.00     0.198 A 
ATOM     85  F   UNL A   1      45.625  25.861  24.682  1.00  0.00    -0.203 F 
ATOM     86  F   UNL A   1      42.890  21.996  27.385  1.00  0.00    -0.200 F 
ATOM     87  C   UNL A   1      44.447  22.600  25.722  1.00  0.00     0.200 A 
ATOM     88  F   UNL A   1      45.984  23.263  24.063  1.00  0.00    -0.200 F 
ATOM     89  F   UNL A   1      44.623  21.313  25.394  1.00  0.00    -0.200 F 
ENDBRANCH  55  79
BRANCH  67  90
ATOM     90  C   UNL A   1      45.371  31.333  28.111  1.00  0.00     0.064 A 
ATOM     91  C   UNL A   1      46.643  31.838  27.812  1.00  0.00     0.173 A 
ATOM     92  C   UNL A   1      44.288  31.798  27.358  1.00  0.00     0.173 A 
ATOM     93  F   UNL A   1      47.726  31.382  28.451  1.00  0.00    -0.203 F 
ATOM     94  C   UNL A   1      46.814  32.804  26.821  1.00  0.00     0.198 A 
ATOM     95  C   UNL A   1      44.464  32.738  26.347  1.00  0.00     0.198 A 
ATOM     96  F   UNL A   1      43.054  31.321  27.593  1.00  0.00    -0.203 F 
ATOM     97  F   UNL A   1      48.035  33.294  26.559  1.00  0.00    -0.200 F 
ATOM     98  C   UNL A   1      45.724  33.250  26.087  1.00  0.00     0.200 A 
ATOM     99  F   UNL A   1      43.412  33.138  25.619  1.00  0.00    -0.200 F 
ATOM    100  F   UNL A   1      45.891  34.159  25.115  1.00  0.00    -0.200 F 
ENDBRANCH  67  90
ENDBRANCH  41  42
ENDBRANCH  34  36
ENDBRANCH  33  34
ENDBRANCH  32  33
ENDBRANCH  31  32
ENDBRANCH  30  31
ENDBRANCH   1  30
TORSDOF 19
ENDMDL
