MODEL 1
REMARK VINA RESULT:     -11.5      0.000      0.000
REMARK SMILES O=C(OCCOCCOC(=O)[C@H](Cc1ccc(O)cc1)NC(=O)c1ccc(Cl)s1)c1ccc(-c2c3nc(c(-c4c(F)c(F)c(F)c(F)c4F)c4ccc([nH]4)c(-c4c(F)c(F)c(F)c(F)c4F)c4nc(c(-c5c(F)c(F)c(F)c(F)c5F)c5ccc2[nH]5)C=C4)C=C3)cc1
REMARK SMILES IDX 7 1 6 2 5 3 4 4 3 5 2 6 1 7 30 8 31 9 92 10 32 11 91 12
REMARK SMILES IDX 33 13 34 14 35 15 85 16 36 17 90 18 84 19 86 20 37 21 89 22
REMARK SMILES IDX 83 23 82 24 38 26 70 27 50 28 69 29 51 30 54 31 68 32 87 33
REMARK SMILES IDX 52 34 53 35 67 37 88 38 55 39 39 40 40 41 48 42 41 43 42 44
REMARK SMILES IDX 46 45 49 46 43 47 44 48 47 49 45 50 71 51 72 52 80 53 73 54
REMARK SMILES IDX 74 55 78 56 81 57 75 58 76 59 79 60 77 61 56 62 57 63 65 64
REMARK SMILES IDX 58 65 59 66 63 67 66 68 60 69 61 70 64 71 62 72 8 73 9 74
REMARK SMILES IDX 10 75 11 76 12 77 21 78 22 79 23 81 24 82 25 83 29 84 26 85
REMARK SMILES IDX 27 86 28 87 13 88 14 89 15 90 20 91 16 92 19 93 17 94 18 95
REMARK H PARENT 86 25 54 36 21 80 18 96
REMARK Flexibility Score: inf
ROOT
ATOM      1  C   UNL A   1      34.164  29.599  27.134  1.00  0.00     0.202 C 
ENDROOT
BRANCH   1   2
ATOM      2  O   UNL A   1      33.145  30.469  27.634  1.00  0.00    -0.374 OA
BRANCH   2   3
ATOM      3  C   UNL A   1      32.464  31.262  26.662  1.00  0.00     0.202 C 
BRANCH   3   4
ATOM      4  C   UNL A   1      31.620  32.393  27.251  1.00  0.00     0.261 C 
BRANCH   4   5
ATOM      5  O   UNL A   1      32.342  33.628  27.222  1.00  0.00    -0.460 OA
BRANCH   5   6
ATOM      6  C   UNL A   1      32.988  34.235  28.246  1.00  0.00     0.338 C 
ATOM      7  O   UNL A   1      32.524  35.288  28.681  1.00  0.00    -0.246 OA
BRANCH   6   8
ATOM      8  C   UNL A   1      34.222  33.697  28.903  1.00  0.00     0.060 A 
ATOM      9  C   UNL A   1      35.532  34.075  28.606  1.00  0.00     0.016 A 
ATOM     10  C   UNL A   1      34.030  32.792  29.964  1.00  0.00     0.016 A 
ATOM     11  C   UNL A   1      36.616  33.566  29.299  1.00  0.00     0.010 A 
ATOM     12  C   UNL A   1      35.116  32.278  30.680  1.00  0.00     0.010 A 
ATOM     13  C   UNL A   1      36.413  32.659  30.332  1.00  0.00    -0.014 A 
BRANCH  13  14
ATOM     14  C   UNL A   1      37.615  32.023  30.890  1.00  0.00     0.031 A 
ATOM     15  C   UNL A   1      37.957  32.316  32.316  1.00  0.00     0.074 A 
ATOM     16  C   UNL A   1      38.235  31.058  30.188  1.00  0.00     0.049 A 
ATOM     17  N   UNL A   1      38.927  31.844  33.050  1.00  0.00    -0.248 NA
ATOM     18  C   UNL A   1      37.062  33.250  33.023  1.00  0.00     0.031 C 
ATOM     19  C   UNL A   1      37.845  30.612  28.849  1.00  0.00     0.029 A 
ATOM     20  N   UNL A   1      39.282  30.245  30.523  1.00  0.00    -0.354 N 
ATOM     21  C   UNL A   1      38.777  32.445  34.292  1.00  0.00     0.074 A 
ATOM     22  C   UNL A   1      37.620  33.308  34.221  1.00  0.00     0.031 C 
ATOM     23  C   UNL A   1      38.626  29.581  28.489  1.00  0.00     0.029 A 
ATOM     24  C   UNL A   1      39.606  29.339  29.543  1.00  0.00     0.049 A 
ATOM     25  H   UNL A   1      39.758  30.303  31.383  1.00  0.00     0.167 HD
ATOM     26  C   UNL A   1      39.555  32.291  35.387  1.00  0.00     0.037 A 
ATOM     27  C   UNL A   1      40.602  28.437  29.509  1.00  0.00     0.037 A 
ATOM     28  C   UNL A   1      40.699  31.423  35.418  1.00  0.00     0.049 A 
ATOM     29  C   UNL A   1      41.510  28.354  30.708  1.00  0.00     0.074 A 
ATOM     30  C   UNL A   1      41.627  31.241  36.426  1.00  0.00     0.029 A 
ATOM     31  N   UNL A   1      41.066  30.583  34.373  1.00  0.00    -0.354 N 
ATOM     32  N   UNL A   1      41.428  28.992  31.853  1.00  0.00    -0.248 NA
ATOM     33  C   UNL A   1      42.656  27.443  30.608  1.00  0.00     0.031 C 
ATOM     34  C   UNL A   1      42.578  30.320  35.973  1.00  0.00     0.029 A 
ATOM     35  C   UNL A   1      42.215  29.888  34.705  1.00  0.00     0.049 A 
ATOM     36  H   UNL A   1      40.580  30.495  33.521  1.00  0.00     0.167 HD
ATOM     37  C   UNL A   1      42.494  28.545  32.618  1.00  0.00     0.074 A 
ATOM     38  C   UNL A   1      43.199  27.567  31.811  1.00  0.00     0.031 C 
ATOM     39  C   UNL A   1      42.868  28.911  33.869  1.00  0.00     0.037 A 
BRANCH  26  40
ATOM     40  C   UNL A   1      39.236  33.152  36.572  1.00  0.00     0.064 A 
ATOM     41  C   UNL A   1      39.823  34.412  36.760  1.00  0.00     0.173 A 
ATOM     42  C   UNL A   1      38.374  32.675  37.571  1.00  0.00     0.173 A 
ATOM     43  F   UNL A   1      40.684  34.899  35.854  1.00  0.00    -0.203 F 
ATOM     44  C   UNL A   1      39.584  35.147  37.921  1.00  0.00     0.198 A 
ATOM     45  C   UNL A   1      38.116  33.422  38.716  1.00  0.00     0.198 A 
ATOM     46  F   UNL A   1      37.799  31.469  37.446  1.00  0.00    -0.203 F 
ATOM     47  F   UNL A   1      40.208  36.318  38.111  1.00  0.00    -0.200 F 
ATOM     48  C   UNL A   1      38.729  34.653  38.895  1.00  0.00     0.200 A 
ATOM     49  F   UNL A   1      37.292  32.941  39.657  1.00  0.00    -0.200 F 
ATOM     50  F   UNL A   1      38.512  35.353  40.017  1.00  0.00    -0.200 F 
ENDBRANCH  26  40
BRANCH  27  51
ATOM     51  C   UNL A   1      40.814  27.586  28.306  1.00  0.00     0.064 A 
ATOM     52  C   UNL A   1      40.197  26.334  28.178  1.00  0.00     0.173 A 
ATOM     53  C   UNL A   1      41.655  28.003  27.261  1.00  0.00     0.173 A 
ATOM     54  F   UNL A   1      39.402  25.876  29.155  1.00  0.00    -0.203 F 
ATOM     55  C   UNL A   1      40.427  25.527  27.063  1.00  0.00     0.198 A 
ATOM     56  C   UNL A   1      41.857  27.211  26.133  1.00  0.00     0.198 A 
ATOM     57  F   UNL A   1      42.275  29.191  27.331  1.00  0.00    -0.203 F 
ATOM     58  F   UNL A   1      39.862  24.314  26.990  1.00  0.00    -0.200 F 
ATOM     59  C   UNL A   1      41.251  25.968  26.039  1.00  0.00     0.200 A 
ATOM     60  F   UNL A   1      42.645  27.649  25.142  1.00  0.00    -0.200 F 
ATOM     61  F   UNL A   1      41.469  25.194  24.968  1.00  0.00    -0.200 F 
ENDBRANCH  27  51
BRANCH  39  62
ATOM     62  C   UNL A   1      44.060  28.212  34.447  1.00  0.00     0.064 A 
ATOM     63  C   UNL A   1      43.939  26.998  35.138  1.00  0.00     0.173 A 
ATOM     64  C   UNL A   1      45.344  28.748  34.267  1.00  0.00     0.173 A 
ATOM     65  F   UNL A   1      42.728  26.458  35.346  1.00  0.00    -0.203 F 
ATOM     66  C   UNL A   1      45.060  26.358  35.654  1.00  0.00     0.198 A 
ATOM     67  C   UNL A   1      46.466  28.089  34.758  1.00  0.00     0.198 A 
ATOM     68  F   UNL A   1      45.508  29.902  33.605  1.00  0.00    -0.203 F 
ATOM     69  F   UNL A   1      44.919  25.224  36.354  1.00  0.00    -0.200 F 
ATOM     70  C   UNL A   1      46.323  26.900  35.457  1.00  0.00     0.200 A 
ATOM     71  F   UNL A   1      47.686  28.605  34.555  1.00  0.00    -0.200 F 
ATOM     72  F   UNL A   1      47.403  26.277  35.949  1.00  0.00    -0.200 F 
ENDBRANCH  39  62
ENDBRANCH  13  14
ENDBRANCH   6   8
ENDBRANCH   5   6
ENDBRANCH   4   5
ENDBRANCH   3   4
ENDBRANCH   2   3
ENDBRANCH   1   2
BRANCH   1  73
ATOM     73  C   UNL A   1      33.551  28.713  26.052  1.00  0.00     0.261 C 
BRANCH  73  74
ATOM     74  O   UNL A   1      33.243  27.449  26.657  1.00  0.00    -0.462 OA
BRANCH  74  75
ATOM     75  C   UNL A   1      31.920  27.158  26.849  1.00  0.00     0.329 C 
ATOM     76  O   UNL A   1      31.154  27.736  27.606  1.00  0.00    -0.250 OA
BRANCH  75  77
ATOM     77  C   UNL A   1      31.577  25.935  26.003  1.00  0.00     0.197 C 
BRANCH  77  78
ATOM     78  N   UNL A   1      31.597  24.775  26.885  1.00  0.00    -0.338 N 
ATOM     79  C   UNL A   1      32.249  23.579  26.722  1.00  0.00     0.262 C 
ATOM     80  H   UNL A   1      31.069  24.861  27.712  1.00  0.00     0.164 HD
ATOM     81  O   UNL A   1      32.159  22.753  27.630  1.00  0.00    -0.268 OA
BRANCH  79  82
ATOM     82  C   UNL A   1      32.970  23.337  25.489  1.00  0.00     0.093 A 
ATOM     83  C   UNL A   1      32.517  22.895  24.256  1.00  0.00     0.027 A 
ATOM     84  S   UNL A   1      34.661  23.627  25.463  1.00  0.00    -0.118 S 
ATOM     85  C   UNL A   1      33.584  22.689  23.329  1.00  0.00     0.033 A 
ATOM     86  C   UNL A   1      34.786  23.048  23.880  1.00  0.00     0.094 A 
ATOM     87  Cl  UNL A   1      36.326  22.951  23.127  1.00  0.00    -0.072 Cl
ENDBRANCH  79  82
ENDBRANCH  77  78
BRANCH  77  88
ATOM     88  C   UNL A   1      30.233  26.094  25.267  1.00  0.00     0.072 C 
BRANCH  88  89
ATOM     89  C   UNL A   1      30.194  27.134  24.157  1.00  0.00    -0.045 A 
ATOM     90  C   UNL A   1      29.010  27.719  23.679  1.00  0.00     0.007 A 
ATOM     91  C   UNL A   1      31.400  27.504  23.541  1.00  0.00     0.007 A 
ATOM     92  C   UNL A   1      29.036  28.726  22.712  1.00  0.00     0.046 A 
ATOM     93  C   UNL A   1      31.427  28.490  22.550  1.00  0.00     0.046 A 
ATOM     94  C   UNL A   1      30.251  29.119  22.170  1.00  0.00     0.115 A 
BRANCH  94  95
ATOM     95  O   UNL A   1      30.322  30.126  21.256  1.00  0.00    -0.508 OA
ATOM     96  H   UNL A   1      30.971  30.101  20.581  1.00  0.00     0.293 HD
ENDBRANCH  94  95
ENDBRANCH  88  89
ENDBRANCH  77  88
ENDBRANCH  75  77
ENDBRANCH  74  75
ENDBRANCH  73  74
ENDBRANCH   1  73
TORSDOF 19
ENDMDL
MODEL 2
REMARK VINA RESULT:     -11.5      1.464      2.900
REMARK SMILES O=C(OCCOCCOC(=O)[C@H](Cc1ccc(O)cc1)NC(=O)c1ccc(Cl)s1)c1ccc(-c2c3nc(c(-c4c(F)c(F)c(F)c(F)c4F)c4ccc([nH]4)c(-c4c(F)c(F)c(F)c(F)c4F)c4nc(c(-c5c(F)c(F)c(F)c(F)c5F)c5ccc2[nH]5)C=C4)C=C3)cc1
REMARK SMILES IDX 7 1 6 2 5 3 4 4 3 5 2 6 1 7 30 8 31 9 92 10 32 11 91 12
REMARK SMILES IDX 33 13 34 14 35 15 85 16 36 17 90 18 84 19 86 20 37 21 89 22
REMARK SMILES IDX 83 23 82 24 38 26 70 27 50 28 69 29 51 30 54 31 68 32 87 33
REMARK SMILES IDX 52 34 53 35 67 37 88 38 55 39 39 40 40 41 48 42 41 43 42 44
REMARK SMILES IDX 46 45 49 46 43 47 44 48 47 49 45 50 71 51 72 52 80 53 73 54
REMARK SMILES IDX 74 55 78 56 81 57 75 58 76 59 79 60 77 61 56 62 57 63 65 64
REMARK SMILES IDX 58 65 59 66 63 67 66 68 60 69 61 70 64 71 62 72 8 73 9 74
REMARK SMILES IDX 10 75 11 76 12 77 21 78 22 79 23 81 24 82 25 83 29 84 26 85
REMARK SMILES IDX 27 86 28 87 13 88 14 89 15 90 20 91 16 92 19 93 17 94 18 95
REMARK H PARENT 86 25 54 36 21 80 18 96
REMARK Flexibility Score: inf
ROOT
ATOM      1  C   UNL A   1      33.855  29.874  27.350  1.00  0.00     0.202 C 
ENDROOT
BRANCH   1   2
ATOM      2  O   UNL A   1      33.413  31.164  26.918  1.00  0.00    -0.374 OA
BRANCH   2   3
ATOM      3  C   UNL A   1      32.009  31.307  26.705  1.00  0.00     0.202 C 
BRANCH   3   4
ATOM      4  C   UNL A   1      31.441  32.659  27.138  1.00  0.00     0.261 C 
BRANCH   4   5
ATOM      5  O   UNL A   1      32.473  33.651  27.172  1.00  0.00    -0.460 OA
BRANCH   5   6
ATOM      6  C   UNL A   1      33.052  34.208  28.262  1.00  0.00     0.338 C 
ATOM      7  O   UNL A   1      32.528  35.208  28.751  1.00  0.00    -0.246 OA
BRANCH   6   8
ATOM      8  C   UNL A   1      34.281  33.674  28.930  1.00  0.00     0.060 A 
ATOM      9  C   UNL A   1      35.588  34.107  28.698  1.00  0.00     0.016 A 
ATOM     10  C   UNL A   1      34.086  32.706  29.934  1.00  0.00     0.016 A 
ATOM     11  C   UNL A   1      36.665  33.595  29.399  1.00  0.00     0.010 A 
ATOM     12  C   UNL A   1      35.165  32.188  30.657  1.00  0.00     0.010 A 
ATOM     13  C   UNL A   1      36.459  32.627  30.374  1.00  0.00    -0.014 A 
BRANCH  13  14
ATOM     14  C   UNL A   1      37.663  31.999  30.937  1.00  0.00     0.031 A 
ATOM     15  C   UNL A   1      38.000  32.298  32.363  1.00  0.00     0.074 A 
ATOM     16  C   UNL A   1      38.289  31.035  30.241  1.00  0.00     0.049 A 
ATOM     17  N   UNL A   1      38.970  31.835  33.102  1.00  0.00    -0.248 NA
ATOM     18  C   UNL A   1      37.099  33.231  33.064  1.00  0.00     0.031 C 
ATOM     19  C   UNL A   1      37.905  30.582  28.902  1.00  0.00     0.029 A 
ATOM     20  N   UNL A   1      39.339  30.228  30.581  1.00  0.00    -0.354 N 
ATOM     21  C   UNL A   1      38.815  32.438  34.340  1.00  0.00     0.074 A 
ATOM     22  C   UNL A   1      37.654  33.296  34.263  1.00  0.00     0.031 C 
ATOM     23  C   UNL A   1      38.691  29.553  28.548  1.00  0.00     0.029 A 
ATOM     24  C   UNL A   1      39.670  29.320  29.605  1.00  0.00     0.049 A 
ATOM     25  H   UNL A   1      39.813  30.292  31.441  1.00  0.00     0.167 HD
ATOM     26  C   UNL A   1      39.590  32.293  35.438  1.00  0.00     0.037 A 
ATOM     27  C   UNL A   1      40.671  28.423  29.576  1.00  0.00     0.037 A 
ATOM     28  C   UNL A   1      40.739  31.431  35.475  1.00  0.00     0.049 A 
ATOM     29  C   UNL A   1      41.577  28.348  30.778  1.00  0.00     0.074 A 
ATOM     30  C   UNL A   1      41.665  31.257  36.486  1.00  0.00     0.029 A 
ATOM     31  N   UNL A   1      41.113  30.588  34.433  1.00  0.00    -0.354 N 
ATOM     32  N   UNL A   1      41.488  28.991  31.920  1.00  0.00    -0.248 NA
ATOM     33  C   UNL A   1      42.727  27.443  30.683  1.00  0.00     0.031 C 
ATOM     34  C   UNL A   1      42.622  30.339  36.038  1.00  0.00     0.029 A 
ATOM     35  C   UNL A   1      42.264  29.900  34.771  1.00  0.00     0.049 A 
ATOM     36  H   UNL A   1      40.629  30.495  33.581  1.00  0.00     0.167 HD
ATOM     37  C   UNL A   1      42.555  28.552  32.689  1.00  0.00     0.074 A 
ATOM     38  C   UNL A   1      43.266  27.574  31.887  1.00  0.00     0.031 C 
ATOM     39  C   UNL A   1      42.924  28.923  33.940  1.00  0.00     0.037 A 
BRANCH  26  40
ATOM     40  C   UNL A   1      39.265  33.157  36.619  1.00  0.00     0.064 A 
ATOM     41  C   UNL A   1      39.827  34.430  36.792  1.00  0.00     0.173 A 
ATOM     42  C   UNL A   1      38.422  32.669  37.630  1.00  0.00     0.173 A 
ATOM     43  F   UNL A   1      40.669  34.927  35.873  1.00  0.00    -0.203 F 
ATOM     44  C   UNL A   1      39.582  35.169  37.949  1.00  0.00     0.198 A 
ATOM     45  C   UNL A   1      38.159  33.420  38.771  1.00  0.00     0.198 A 
ATOM     46  F   UNL A   1      37.871  31.450  37.520  1.00  0.00    -0.203 F 
ATOM     47  F   UNL A   1      40.183  36.354  38.124  1.00  0.00    -0.200 F 
ATOM     48  C   UNL A   1      38.748  34.665  38.935  1.00  0.00     0.200 A 
ATOM     49  F   UNL A   1      37.354  32.929  39.724  1.00  0.00    -0.200 F 
ATOM     50  F   UNL A   1      38.527  35.370  40.053  1.00  0.00    -0.200 F 
ENDBRANCH  26  40
BRANCH  27  51
ATOM     51  C   UNL A   1      40.890  27.569  28.377  1.00  0.00     0.064 A 
ATOM     52  C   UNL A   1      41.764  27.958  27.352  1.00  0.00     0.173 A 
ATOM     53  C   UNL A   1      40.215  26.347  28.222  1.00  0.00     0.173 A 
ATOM     54  F   UNL A   1      42.417  29.127  27.436  1.00  0.00    -0.203 F 
ATOM     55  C   UNL A   1      41.939  27.170  26.215  1.00  0.00     0.198 A 
ATOM     56  C   UNL A   1      40.416  25.545  27.101  1.00  0.00     0.198 A 
ATOM     57  F   UNL A   1      39.364  25.926  29.169  1.00  0.00    -0.203 F 
ATOM     58  F   UNL A   1      42.743  27.591  25.229  1.00  0.00    -0.200 F 
ATOM     59  C   UNL A   1      41.271  25.962  26.093  1.00  0.00     0.200 A 
ATOM     60  F   UNL A   1      39.777  24.372  26.996  1.00  0.00    -0.200 F 
ATOM     61  F   UNL A   1      41.441  25.204  25.001  1.00  0.00    -0.200 F 
ENDBRANCH  27  51
BRANCH  39  62
ATOM     62  C   UNL A   1      44.118  28.232  34.523  1.00  0.00     0.064 A 
ATOM     63  C   UNL A   1      45.409  28.768  34.406  1.00  0.00     0.173 A 
ATOM     64  C   UNL A   1      43.957  27.038  35.243  1.00  0.00     0.173 A 
ATOM     65  F   UNL A   1      45.610  29.899  33.714  1.00  0.00    -0.203 F 
ATOM     66  C   UNL A   1      46.502  28.118  34.967  1.00  0.00     0.198 A 
ATOM     67  C   UNL A   1      45.049  26.408  35.828  1.00  0.00     0.198 A 
ATOM     68  F   UNL A   1      42.740  26.495  35.387  1.00  0.00    -0.203 F 
ATOM     69  F   UNL A   1      47.733  28.620  34.804  1.00  0.00    -0.200 F 
ATOM     70  C   UNL A   1      46.320  26.943  35.684  1.00  0.00     0.200 A 
ATOM     71  F   UNL A   1      44.872  25.281  36.532  1.00  0.00    -0.200 F 
ATOM     72  F   UNL A   1      47.375  26.321  36.230  1.00  0.00    -0.200 F 
ENDBRANCH  39  62
ENDBRANCH  13  14
ENDBRANCH   6   8
ENDBRANCH   5   6
ENDBRANCH   4   5
ENDBRANCH   3   4
ENDBRANCH   2   3
ENDBRANCH   1   2
BRANCH   1  73
ATOM     73  C   UNL A   1      33.924  28.957  26.132  1.00  0.00     0.261 C 
BRANCH  73  74
ATOM     74  O   UNL A   1      33.658  27.622  26.586  1.00  0.00    -0.462 OA
BRANCH  74  75
ATOM     75  C   UNL A   1      32.423  27.104  26.302  1.00  0.00     0.329 C 
ATOM     76  O   UNL A   1      31.374  27.726  26.235  1.00  0.00    -0.250 OA
BRANCH  75  77
ATOM     77  C   UNL A   1      32.569  25.591  26.149  1.00  0.00     0.197 C 
BRANCH  77  78
ATOM     78  N   UNL A   1      31.297  24.990  26.527  1.00  0.00    -0.338 N 
ATOM     79  C   UNL A   1      31.027  23.691  26.876  1.00  0.00     0.262 C 
ATOM     80  H   UNL A   1      30.524  25.600  26.534  1.00  0.00     0.164 HD
ATOM     81  O   UNL A   1      29.873  23.418  27.207  1.00  0.00    -0.268 OA
BRANCH  79  82
ATOM     82  C   UNL A   1      32.091  22.710  26.800  1.00  0.00     0.093 A 
ATOM     83  C   UNL A   1      33.133  22.445  27.675  1.00  0.00     0.027 A 
ATOM     84  S   UNL A   1      32.136  21.661  25.442  1.00  0.00    -0.118 S 
ATOM     85  C   UNL A   1      34.028  21.456  27.166  1.00  0.00     0.033 A 
ATOM     86  C   UNL A   1      33.588  20.970  25.963  1.00  0.00     0.094 A 
ATOM     87  Cl  UNL A   1      34.362  19.782  24.994  1.00  0.00    -0.072 Cl
ENDBRANCH  79  82
ENDBRANCH  77  78
BRANCH  77  88
ATOM     88  C   UNL A   1      33.012  25.190  24.729  1.00  0.00     0.072 C 
BRANCH  88  89
ATOM     89  C   UNL A   1      34.329  24.434  24.626  1.00  0.00    -0.045 A 
ATOM     90  C   UNL A   1      35.331  24.477  25.609  1.00  0.00     0.007 A 
ATOM     91  C   UNL A   1      34.585  23.685  23.466  1.00  0.00     0.007 A 
ATOM     92  C   UNL A   1      36.489  23.704  25.502  1.00  0.00     0.046 A 
ATOM     93  C   UNL A   1      35.758  22.933  23.341  1.00  0.00     0.046 A 
ATOM     94  C   UNL A   1      36.682  22.920  24.375  1.00  0.00     0.115 A 
BRANCH  94  95
ATOM     95  O   UNL A   1      37.778  22.120  24.252  1.00  0.00    -0.508 OA
ATOM     96  H   UNL A   1      37.698  21.275  23.855  1.00  0.00     0.293 HD
ENDBRANCH  94  95
ENDBRANCH  88  89
ENDBRANCH  77  88
ENDBRANCH  75  77
ENDBRANCH  74  75
ENDBRANCH  73  74
ENDBRANCH   1  73
TORSDOF 19
ENDMDL
MODEL 3
REMARK VINA RESULT:     -11.4      1.578      3.270
REMARK SMILES O=C(OCCOCCOC(=O)[C@H](Cc1ccc(O)cc1)NC(=O)c1ccc(Cl)s1)c1ccc(-c2c3nc(c(-c4c(F)c(F)c(F)c(F)c4F)c4ccc([nH]4)c(-c4c(F)c(F)c(F)c(F)c4F)c4nc(c(-c5c(F)c(F)c(F)c(F)c5F)c5ccc2[nH]5)C=C4)C=C3)cc1
REMARK SMILES IDX 7 1 6 2 5 3 4 4 3 5 2 6 1 7 30 8 31 9 92 10 32 11 91 12
REMARK SMILES IDX 33 13 34 14 35 15 85 16 36 17 90 18 84 19 86 20 37 21 89 22
REMARK SMILES IDX 83 23 82 24 38 26 70 27 50 28 69 29 51 30 54 31 68 32 87 33
REMARK SMILES IDX 52 34 53 35 67 37 88 38 55 39 39 40 40 41 48 42 41 43 42 44
REMARK SMILES IDX 46 45 49 46 43 47 44 48 47 49 45 50 71 51 72 52 80 53 73 54
REMARK SMILES IDX 74 55 78 56 81 57 75 58 76 59 79 60 77 61 56 62 57 63 65 64
REMARK SMILES IDX 58 65 59 66 63 67 66 68 60 69 61 70 64 71 62 72 8 73 9 74
REMARK SMILES IDX 10 75 11 76 12 77 21 78 22 79 23 81 24 82 25 83 29 84 26 85
REMARK SMILES IDX 27 86 28 87 13 88 14 89 15 90 20 91 16 92 19 93 17 94 18 95
REMARK H PARENT 86 25 54 36 21 80 18 96
REMARK Flexibility Score: inf
ROOT
ATOM      1  C   UNL A   1      32.154  30.375  26.347  1.00  0.00     0.202 C 
ENDROOT
BRANCH   1   2
ATOM      2  O   UNL A   1      31.054  31.246  26.069  1.00  0.00    -0.374 OA
BRANCH   2   3
ATOM      3  C   UNL A   1      31.294  32.640  26.261  1.00  0.00     0.202 C 
BRANCH   3   4
ATOM      4  C   UNL A   1      32.413  32.955  27.255  1.00  0.00     0.261 C 
BRANCH   4   5
ATOM      5  O   UNL A   1      32.197  34.230  27.870  1.00  0.00    -0.460 OA
BRANCH   5   6
ATOM      6  C   UNL A   1      33.011  34.882  28.734  1.00  0.00     0.338 C 
ATOM      7  O   UNL A   1      32.707  36.027  29.065  1.00  0.00    -0.246 OA
BRANCH   6   8
ATOM      8  C   UNL A   1      34.250  34.293  29.334  1.00  0.00     0.060 A 
ATOM      9  C   UNL A   1      35.557  34.544  28.912  1.00  0.00     0.016 A 
ATOM     10  C   UNL A   1      34.078  33.479  30.469  1.00  0.00     0.016 A 
ATOM     11  C   UNL A   1      36.653  33.998  29.557  1.00  0.00     0.010 A 
ATOM     12  C   UNL A   1      35.177  32.930  31.137  1.00  0.00     0.010 A 
ATOM     13  C   UNL A   1      36.467  33.182  30.666  1.00  0.00    -0.014 A 
BRANCH  13  14
ATOM     14  C   UNL A   1      37.660  32.492  31.177  1.00  0.00     0.031 A 
ATOM     15  C   UNL A   1      38.086  32.787  32.579  1.00  0.00     0.074 A 
ATOM     16  C   UNL A   1      38.192  31.484  30.464  1.00  0.00     0.049 A 
ATOM     17  N   UNL A   1      39.064  32.277  33.275  1.00  0.00    -0.248 NA
ATOM     18  C   UNL A   1      37.277  33.779  33.311  1.00  0.00     0.031 C 
ATOM     19  C   UNL A   1      37.715  31.038  29.153  1.00  0.00     0.029 A 
ATOM     20  N   UNL A   1      39.210  30.621  30.763  1.00  0.00    -0.354 N 
ATOM     21  C   UNL A   1      39.008  32.903  34.511  1.00  0.00     0.074 A 
ATOM     22  C   UNL A   1      37.896  33.826  34.479  1.00  0.00     0.031 C 
ATOM     23  C   UNL A   1      38.421  29.961  28.775  1.00  0.00     0.029 A 
ATOM     24  C   UNL A   1      39.437  29.684  29.785  1.00  0.00     0.049 A 
ATOM     25  H   UNL A   1      39.730  30.667  31.597  1.00  0.00     0.167 HD
ATOM     26  C   UNL A   1      39.828  32.726  35.570  1.00  0.00     0.037 A 
ATOM     27  C   UNL A   1      40.382  28.729  29.719  1.00  0.00     0.037 A 
ATOM     28  C   UNL A   1      40.926  31.798  35.562  1.00  0.00     0.049 A 
ATOM     29  C   UNL A   1      41.342  28.616  30.875  1.00  0.00     0.074 A 
ATOM     30  C   UNL A   1      41.890  31.583  36.527  1.00  0.00     0.029 A 
ATOM     31  N   UNL A   1      41.196  30.923  34.515  1.00  0.00    -0.354 N 
ATOM     32  N   UNL A   1      41.350  29.276  32.010  1.00  0.00    -0.248 NA
ATOM     33  C   UNL A   1      42.431  27.644  30.736  1.00  0.00     0.031 C 
ATOM     34  C   UNL A   1      42.769  30.605  36.046  1.00  0.00     0.029 A 
ATOM     35  C   UNL A   1      42.321  30.173  34.804  1.00  0.00     0.049 A 
ATOM     36  H   UNL A   1      40.665  30.848  33.690  1.00  0.00     0.167 HD
ATOM     37  C   UNL A   1      42.427  28.785  32.731  1.00  0.00     0.074 A 
ATOM     38  C   UNL A   1      43.039  27.758  31.909  1.00  0.00     0.031 C 
ATOM     39  C   UNL A   1      42.880  29.149  33.957  1.00  0.00     0.037 A 
BRANCH  26  40
ATOM     40  C   UNL A   1      39.614  33.621  36.753  1.00  0.00     0.064 A 
ATOM     41  C   UNL A   1      38.808  33.246  37.838  1.00  0.00     0.173 A 
ATOM     42  C   UNL A   1      40.176  34.907  36.767  1.00  0.00     0.173 A 
ATOM     43  F   UNL A   1      38.216  32.042  37.856  1.00  0.00    -0.203 F 
ATOM     44  C   UNL A   1      38.548  34.138  38.877  1.00  0.00     0.198 A 
ATOM     45  C   UNL A   1      39.935  35.785  37.819  1.00  0.00     0.198 A 
ATOM     46  F   UNL A   1      40.942  35.320  35.745  1.00  0.00    -0.203 F 
ATOM     47  F   UNL A   1      37.720  33.783  39.871  1.00  0.00    -0.200 F 
ATOM     48  C   UNL A   1      39.113  35.404  38.868  1.00  0.00     0.200 A 
ATOM     49  F   UNL A   1      40.481  37.009  37.806  1.00  0.00    -0.200 F 
ATOM     50  F   UNL A   1      38.848  36.266  39.860  1.00  0.00    -0.200 F 
ENDBRANCH  26  40
BRANCH  27  51
ATOM     51  C   UNL A   1      40.490  27.850  28.523  1.00  0.00     0.064 A 
ATOM     52  C   UNL A   1      41.222  28.239  27.393  1.00  0.00     0.173 A 
ATOM     53  C   UNL A   1      39.847  26.602  28.479  1.00  0.00     0.173 A 
ATOM     54  F   UNL A   1      41.837  29.431  27.371  1.00  0.00    -0.203 F 
ATOM     55  C   UNL A   1      41.291  27.426  26.262  1.00  0.00     0.198 A 
ATOM     56  C   UNL A   1      39.944  25.776  27.362  1.00  0.00     0.198 A 
ATOM     57  F   UNL A   1      39.129  26.179  29.531  1.00  0.00    -0.203 F 
ATOM     58  F   UNL A   1      41.957  27.845  25.178  1.00  0.00    -0.200 F 
ATOM     59  C   UNL A   1      40.658  26.192  26.250  1.00  0.00     0.200 A 
ATOM     60  F   UNL A   1      39.341  24.579  27.362  1.00  0.00    -0.200 F 
ATOM     61  F   UNL A   1      40.726  25.410  25.164  1.00  0.00    -0.200 F 
ENDBRANCH  27  51
BRANCH  39  62
ATOM     62  C   UNL A   1      44.061  28.396  34.489  1.00  0.00     0.064 A 
ATOM     63  C   UNL A   1      43.907  27.272  35.313  1.00  0.00     0.173 A 
ATOM     64  C   UNL A   1      45.361  28.786  34.133  1.00  0.00     0.173 A 
ATOM     65  F   UNL A   1      42.682  26.875  35.690  1.00  0.00    -0.203 F 
ATOM     66  C   UNL A   1      45.016  26.579  35.784  1.00  0.00     0.198 A 
ATOM     67  C   UNL A   1      46.466  28.071  34.582  1.00  0.00     0.198 A 
ATOM     68  F   UNL A   1      45.555  29.850  33.340  1.00  0.00    -0.203 F 
ATOM     69  F   UNL A   1      44.850  25.536  36.609  1.00  0.00    -0.200 F 
ATOM     70  C   UNL A   1      46.293  26.974  35.412  1.00  0.00     0.200 A 
ATOM     71  F   UNL A   1      47.699  28.444  34.211  1.00  0.00    -0.200 F 
ATOM     72  F   UNL A   1      47.361  26.300  35.862  1.00  0.00    -0.200 F 
ENDBRANCH  39  62
ENDBRANCH  13  14
ENDBRANCH   6   8
ENDBRANCH   5   6
ENDBRANCH   4   5
ENDBRANCH   3   4
ENDBRANCH   2   3
ENDBRANCH   1   2
BRANCH   1  73
ATOM     73  C   UNL A   1      32.295  29.394  25.186  1.00  0.00     0.261 C 
BRANCH  73  74
ATOM     74  O   UNL A   1      32.362  28.075  25.745  1.00  0.00    -0.462 OA
BRANCH  74  75
ATOM     75  C   UNL A   1      33.609  27.549  25.949  1.00  0.00     0.329 C 
ATOM     76  O   UNL A   1      34.516  28.060  26.589  1.00  0.00    -0.250 OA
BRANCH  75  77
ATOM     77  C   UNL A   1      33.700  26.235  25.175  1.00  0.00     0.197 C 
BRANCH  77  78
ATOM     78  N   UNL A   1      33.908  26.569  23.772  1.00  0.00    -0.338 N 
ATOM     79  C   UNL A   1      33.432  25.931  22.654  1.00  0.00     0.262 C 
ATOM     80  H   UNL A   1      34.467  27.361  23.602  1.00  0.00     0.164 HD
ATOM     81  O   UNL A   1      33.701  26.424  21.559  1.00  0.00    -0.268 OA
BRANCH  79  82
ATOM     82  C   UNL A   1      32.680  24.703  22.816  1.00  0.00     0.093 A 
ATOM     83  C   UNL A   1      31.377  24.497  23.239  1.00  0.00     0.027 A 
ATOM     84  S   UNL A   1      33.453  23.219  22.435  1.00  0.00    -0.118 S 
ATOM     85  C   UNL A   1      31.058  23.110  23.356  1.00  0.00     0.033 A 
ATOM     86  C   UNL A   1      32.111  22.330  22.953  1.00  0.00     0.094 A 
ATOM     87  Cl  UNL A   1      32.169  20.615  22.942  1.00  0.00    -0.072 Cl
ENDBRANCH  79  82
ENDBRANCH  77  78
BRANCH  77  88
ATOM     88  C   UNL A   1      34.797  25.307  25.730  1.00  0.00     0.072 C 
BRANCH  88  89
ATOM     89  C   UNL A   1      34.401  23.853  25.943  1.00  0.00    -0.045 A 
ATOM     90  C   UNL A   1      35.230  22.765  25.624  1.00  0.00     0.007 A 
ATOM     91  C   UNL A   1      33.121  23.572  26.445  1.00  0.00     0.007 A 
ATOM     92  C   UNL A   1      34.849  21.452  25.911  1.00  0.00     0.046 A 
ATOM     93  C   UNL A   1      32.724  22.257  26.706  1.00  0.00     0.046 A 
ATOM     94  C   UNL A   1      33.604  21.211  26.471  1.00  0.00     0.115 A 
BRANCH  94  95
ATOM     95  O   UNL A   1      33.213  19.950  26.805  1.00  0.00    -0.508 OA
ATOM     96  H   UNL A   1      33.168  19.697  27.706  1.00  0.00     0.293 HD
ENDBRANCH  94  95
ENDBRANCH  88  89
ENDBRANCH  77  88
ENDBRANCH  75  77
ENDBRANCH  74  75
ENDBRANCH  73  74
ENDBRANCH   1  73
TORSDOF 19
ENDMDL
