MODEL 1
REMARK VINA RESULT:     -11.4      0.000      0.000
REMARK SMILES O=C(CC1CCN(S(=O)(=O)c2cc[nH]c2)CC1)OCCOCCOC(=O)c1ccc(-c2c3nc(c(-c4c(F)c(F)c(F)c(F)c4F)c4ccc([nH]4)c(-c4c(F)c(F)c(F)c(F)c4F)c4nc(c(-c5c(F)c(F)c(F)c(F)c5F)c5ccc2[nH]5)C=C4)C=C3)cc1
REMARK SMILES IDX 20 1 19 2 18 3 2 4 1 5 3 6 4 7 5 8 17 9 6 10 16 11 7 12 8 13
REMARK SMILES IDX 9 14 10 15 11 16 12 17 15 18 13 19 14 20 21 22 22 23 23 24
REMARK SMILES IDX 24 25 25 26 26 27 27 28 28 29 89 30 29 31 88 32 30 33 31 34
REMARK SMILES IDX 32 35 82 36 33 37 87 38 81 39 83 40 34 41 86 42 80 43 79 44
REMARK SMILES IDX 35 46 67 47 47 48 66 49 48 50 51 51 65 52 84 53 49 54 50 55
REMARK SMILES IDX 64 57 85 58 52 59 36 60 37 61 45 62 38 63 39 64 43 65 46 66
REMARK SMILES IDX 40 67 41 68 44 69 42 70 68 71 69 72 77 73 70 74 71 75 75 76
REMARK SMILES IDX 78 77 72 78 73 79 76 80 74 81 53 82 54 83 62 84 55 85 56 86
REMARK SMILES IDX 60 87 63 88 57 89 58 90 61 91 59 92
REMARK H PARENT 14 21 83 45 51 56
REMARK Flexibility Score: inf
ROOT
ATOM      1  C   UNL A   1      34.606  29.001  26.907  1.00  0.00     0.202 C 
ENDROOT
BRANCH   1   2
ATOM      2  C   UNL A   1      33.743  27.909  26.296  1.00  0.00     0.261 C 
BRANCH   2   3
ATOM      3  O   UNL A   1      33.921  27.816  24.881  1.00  0.00    -0.463 OA
BRANCH   3   4
ATOM      4  C   UNL A   1      33.749  26.662  24.199  1.00  0.00     0.306 C 
ATOM      5  O   UNL A   1      33.473  26.716  23.002  1.00  0.00    -0.252 OA
BRANCH   4   6
ATOM      6  C   UNL A   1      33.703  25.327  24.931  1.00  0.00     0.126 C 
BRANCH   6   7
ATOM      7  C   UNL A   1      34.868  24.333  24.832  1.00  0.00     0.003 C 
ATOM      8  C   UNL A   1      34.855  23.684  23.429  1.00  0.00     0.021 C 
ATOM      9  C   UNL A   1      34.852  23.156  25.833  1.00  0.00     0.021 C 
ATOM     10  C   UNL A   1      33.682  22.711  23.237  1.00  0.00     0.103 C 
ATOM     11  C   UNL A   1      33.702  22.171  25.634  1.00  0.00     0.103 C 
ATOM     12  N   UNL A   1      33.735  21.625  24.258  1.00  0.00    -0.198 NA
BRANCH  12  13
ATOM     13  S   UNL A   1      32.547  20.410  23.975  1.00  0.00     0.244 S 
ATOM     14  O   UNL A   1      31.698  20.336  25.158  1.00  0.00    -0.207 OA
ATOM     15  O   UNL A   1      31.992  20.620  22.665  1.00  0.00    -0.207 OA
BRANCH  13  16
ATOM     16  C   UNL A   1      33.321  18.859  23.900  1.00  0.00     0.100 A 
ATOM     17  C   UNL A   1      34.474  18.462  24.628  1.00  0.00     0.041 A 
ATOM     18  C   UNL A   1      32.940  17.782  23.122  1.00  0.00     0.104 A 
ATOM     19  C   UNL A   1      34.775  17.171  24.251  1.00  0.00     0.083 A 
ATOM     20  N   UNL A   1      33.826  16.761  23.351  1.00  0.00    -0.366 N 
ATOM     21  H   UNL A   1      33.787  15.871  22.931  1.00  0.00     0.165 HD
ENDBRANCH  13  16
ENDBRANCH  12  13
ENDBRANCH   6   7
ENDBRANCH   4   6
ENDBRANCH   3   4
ENDBRANCH   2   3
ENDBRANCH   1   2
BRANCH   1  22
ATOM     22  O   UNL A   1      33.855  29.977  27.629  1.00  0.00    -0.374 OA
BRANCH  22  23
ATOM     23  C   UNL A   1      32.553  30.289  27.106  1.00  0.00     0.202 C 
BRANCH  23  24
ATOM     24  C   UNL A   1      32.310  31.780  26.996  1.00  0.00     0.261 C 
BRANCH  24  25
ATOM     25  O   UNL A   1      33.391  32.441  27.613  1.00  0.00    -0.460 OA
BRANCH  25  26
ATOM     26  C   UNL A   1      33.115  33.675  28.079  1.00  0.00     0.338 C 
ATOM     27  O   UNL A   1      32.246  34.453  27.723  1.00  0.00    -0.246 OA
BRANCH  26  28
ATOM     28  C   UNL A   1      34.164  33.994  29.045  1.00  0.00     0.060 A 
ATOM     29  C   UNL A   1      35.431  34.167  28.493  1.00  0.00     0.016 A 
ATOM     30  C   UNL A   1      33.948  33.656  30.391  1.00  0.00     0.016 A 
ATOM     31  C   UNL A   1      36.492  33.684  29.209  1.00  0.00     0.010 A 
ATOM     32  C   UNL A   1      34.988  33.091  31.069  1.00  0.00     0.010 A 
ATOM     33  C   UNL A   1      36.233  33.068  30.438  1.00  0.00    -0.014 A 
BRANCH  33  34
ATOM     34  C   UNL A   1      37.364  32.500  31.149  1.00  0.00     0.031 A 
ATOM     35  C   UNL A   1      37.779  31.198  30.483  1.00  0.00     0.074 A 
ATOM     36  C   UNL A   1      37.760  33.204  32.247  1.00  0.00     0.049 A 
ATOM     37  N   UNL A   1      38.409  30.186  30.980  1.00  0.00    -0.248 NA
ATOM     38  C   UNL A   1      37.371  30.942  29.068  1.00  0.00     0.031 C 
ATOM     39  C   UNL A   1      37.177  34.494  32.682  1.00  0.00     0.029 A 
ATOM     40  N   UNL A   1      38.701  32.985  33.224  1.00  0.00    -0.354 N 
ATOM     41  C   UNL A   1      38.673  29.313  29.912  1.00  0.00     0.074 A 
ATOM     42  C   UNL A   1      37.893  29.749  28.801  1.00  0.00     0.031 C 
ATOM     43  C   UNL A   1      37.706  34.887  33.858  1.00  0.00     0.029 A 
ATOM     44  C   UNL A   1      38.696  33.921  34.291  1.00  0.00     0.049 A 
ATOM     45  H   UNL A   1      39.335  32.233  33.187  1.00  0.00     0.167 HD
ATOM     46  C   UNL A   1      39.659  28.381  29.959  1.00  0.00     0.037 A 
ATOM     47  C   UNL A   1      39.416  33.886  35.455  1.00  0.00     0.037 A 
ATOM     48  C   UNL A   1      40.244  28.342  31.258  1.00  0.00     0.049 A 
ATOM     49  C   UNL A   1      40.346  32.756  35.286  1.00  0.00     0.074 A 
ATOM     50  C   UNL A   1      39.760  27.898  32.460  1.00  0.00     0.029 A 
ATOM     51  N   UNL A   1      41.320  29.168  31.485  1.00  0.00    -0.354 N 
ATOM     52  N   UNL A   1      41.370  32.762  34.487  1.00  0.00    -0.248 NA
ATOM     53  C   UNL A   1      40.056  31.488  35.965  1.00  0.00     0.031 C 
ATOM     54  C   UNL A   1      40.305  28.797  33.402  1.00  0.00     0.029 A 
ATOM     55  C   UNL A   1      41.212  29.653  32.767  1.00  0.00     0.049 A 
ATOM     56  H   UNL A   1      42.038  29.373  30.845  1.00  0.00     0.167 HD
ATOM     57  C   UNL A   1      41.628  31.421  34.323  1.00  0.00     0.074 A 
ATOM     58  C   UNL A   1      41.035  30.746  35.453  1.00  0.00     0.031 C 
ATOM     59  C   UNL A   1      41.828  30.924  33.075  1.00  0.00     0.037 A 
BRANCH  46  60
ATOM     60  C   UNL A   1      40.321  27.639  28.846  1.00  0.00     0.064 A 
ATOM     61  C   UNL A   1      41.118  28.376  27.945  1.00  0.00     0.173 A 
ATOM     62  C   UNL A   1      39.947  26.347  28.444  1.00  0.00     0.173 A 
ATOM     63  F   UNL A   1      41.552  29.606  28.263  1.00  0.00    -0.203 F 
ATOM     64  C   UNL A   1      41.410  27.902  26.671  1.00  0.00     0.198 A 
ATOM     65  C   UNL A   1      40.288  25.855  27.185  1.00  0.00     0.198 A 
ATOM     66  F   UNL A   1      39.162  25.576  29.208  1.00  0.00    -0.203 F 
ATOM     67  F   UNL A   1      42.050  28.693  25.798  1.00  0.00    -0.200 F 
ATOM     68  C   UNL A   1      40.981  26.647  26.285  1.00  0.00     0.200 A 
ATOM     69  F   UNL A   1      39.874  24.635  26.817  1.00  0.00    -0.200 F 
ATOM     70  F   UNL A   1      41.201  26.214  25.037  1.00  0.00    -0.200 F 
ENDBRANCH  46  60
BRANCH  47  71
ATOM     71  C   UNL A   1      39.444  34.606  36.785  1.00  0.00     0.064 A 
ATOM     72  C   UNL A   1      38.777  34.218  37.955  1.00  0.00     0.173 A 
ATOM     73  C   UNL A   1      40.276  35.751  36.952  1.00  0.00     0.173 A 
ATOM     74  F   UNL A   1      37.871  33.237  37.947  1.00  0.00    -0.203 F 
ATOM     75  C   UNL A   1      39.009  34.844  39.195  1.00  0.00     0.198 A 
ATOM     76  C   UNL A   1      40.540  36.346  38.186  1.00  0.00     0.198 A 
ATOM     77  F   UNL A   1      40.879  36.340  35.911  1.00  0.00    -0.203 F 
ATOM     78  F   UNL A   1      38.354  34.420  40.285  1.00  0.00    -0.200 F 
ATOM     79  C   UNL A   1      39.918  35.880  39.316  1.00  0.00     0.200 A 
ATOM     80  F   UNL A   1      41.419  37.354  38.261  1.00  0.00    -0.200 F 
ATOM     81  F   UNL A   1      40.181  36.430  40.508  1.00  0.00    -0.200 F 
ENDBRANCH  47  71
BRANCH  59  82
ATOM     82  C   UNL A   1      42.294  31.971  32.077  1.00  0.00     0.064 A 
ATOM     83  C   UNL A   1      43.571  32.541  32.201  1.00  0.00     0.173 A 
ATOM     84  C   UNL A   1      41.465  32.534  31.093  1.00  0.00     0.173 A 
ATOM     85  F   UNL A   1      44.439  32.046  33.096  1.00  0.00    -0.203 F 
ATOM     86  C   UNL A   1      43.973  33.627  31.416  1.00  0.00     0.198 A 
ATOM     87  C   UNL A   1      41.860  33.618  30.306  1.00  0.00     0.198 A 
ATOM     88  F   UNL A   1      40.252  32.040  30.863  1.00  0.00    -0.203 F 
ATOM     89  F   UNL A   1      45.198  34.146  31.572  1.00  0.00    -0.200 F 
ATOM     90  C   UNL A   1      43.113  34.171  30.474  1.00  0.00     0.200 A 
ATOM     91  F   UNL A   1      41.023  34.117  29.383  1.00  0.00    -0.200 F 
ATOM     92  F   UNL A   1      43.498  35.210  29.721  1.00  0.00    -0.200 F 
ENDBRANCH  59  82
ENDBRANCH  33  34
ENDBRANCH  26  28
ENDBRANCH  25  26
ENDBRANCH  24  25
ENDBRANCH  23  24
ENDBRANCH  22  23
ENDBRANCH   1  22
TORSDOF 17
ENDMDL
MODEL 2
REMARK VINA RESULT:     -11.2      5.310     10.431
REMARK SMILES O=C(CC1CCN(S(=O)(=O)c2cc[nH]c2)CC1)OCCOCCOC(=O)c1ccc(-c2c3nc(c(-c4c(F)c(F)c(F)c(F)c4F)c4ccc([nH]4)c(-c4c(F)c(F)c(F)c(F)c4F)c4nc(c(-c5c(F)c(F)c(F)c(F)c5F)c5ccc2[nH]5)C=C4)C=C3)cc1
REMARK SMILES IDX 20 1 19 2 18 3 2 4 1 5 3 6 4 7 5 8 17 9 6 10 16 11 7 12 8 13
REMARK SMILES IDX 9 14 10 15 11 16 12 17 15 18 13 19 14 20 21 22 22 23 23 24
REMARK SMILES IDX 24 25 25 26 26 27 27 28 28 29 89 30 29 31 88 32 30 33 31 34
REMARK SMILES IDX 32 35 82 36 33 37 87 38 81 39 83 40 34 41 86 42 80 43 79 44
REMARK SMILES IDX 35 46 67 47 47 48 66 49 48 50 51 51 65 52 84 53 49 54 50 55
REMARK SMILES IDX 64 57 85 58 52 59 36 60 37 61 45 62 38 63 39 64 43 65 46 66
REMARK SMILES IDX 40 67 41 68 44 69 42 70 68 71 69 72 77 73 70 74 71 75 75 76
REMARK SMILES IDX 78 77 72 78 73 79 76 80 74 81 53 82 54 83 62 84 55 85 56 86
REMARK SMILES IDX 60 87 63 88 57 89 58 90 61 91 59 92
REMARK H PARENT 14 21 83 45 51 56
REMARK Flexibility Score: inf
ROOT
ATOM      1  C   UNL A   1      36.683  22.772  24.490  1.00  0.00     0.202 C 
ENDROOT
BRANCH   1   2
ATOM      2  C   UNL A   1      35.713  22.851  23.322  1.00  0.00     0.261 C 
BRANCH   2   3
ATOM      3  O   UNL A   1      34.581  23.670  23.622  1.00  0.00    -0.463 OA
BRANCH   3   4
ATOM      4  C   UNL A   1      33.843  24.272  22.664  1.00  0.00     0.306 C 
ATOM      5  O   UNL A   1      33.664  23.688  21.597  1.00  0.00    -0.252 OA
BRANCH   4   6
ATOM      6  C   UNL A   1      33.402  25.721  22.820  1.00  0.00     0.126 C 
BRANCH   6   7
ATOM      7  C   UNL A   1      31.959  26.069  23.213  1.00  0.00     0.003 C 
ATOM      8  C   UNL A   1      31.919  26.410  24.720  1.00  0.00     0.021 C 
ATOM      9  C   UNL A   1      30.907  24.956  23.011  1.00  0.00     0.021 C 
ATOM     10  C   UNL A   1      32.128  25.176  25.612  1.00  0.00     0.103 C 
ATOM     11  C   UNL A   1      31.094  23.737  23.911  1.00  0.00     0.103 C 
ATOM     12  N   UNL A   1      31.083  24.149  25.333  1.00  0.00    -0.198 NA
BRANCH  12  13
ATOM     13  S   UNL A   1      31.166  22.825  26.432  1.00  0.00     0.244 S 
ATOM     14  O   UNL A   1      31.595  23.348  27.724  1.00  0.00    -0.207 OA
ATOM     15  O   UNL A   1      29.961  22.052  26.297  1.00  0.00    -0.207 OA
BRANCH  13  16
ATOM     16  C   UNL A   1      32.448  21.760  25.949  1.00  0.00     0.100 A 
ATOM     17  C   UNL A   1      32.384  20.784  24.919  1.00  0.00     0.041 A 
ATOM     18  C   UNL A   1      33.718  21.697  26.491  1.00  0.00     0.104 A 
ATOM     19  C   UNL A   1      33.601  20.140  24.886  1.00  0.00     0.083 A 
ATOM     20  N   UNL A   1      34.411  20.715  25.832  1.00  0.00    -0.366 N 
ATOM     21  H   UNL A   1      35.345  20.460  26.011  1.00  0.00     0.165 HD
ENDBRANCH  13  16
ENDBRANCH  12  13
ENDBRANCH   6   7
ENDBRANCH   4   6
ENDBRANCH   3   4
ENDBRANCH   2   3
ENDBRANCH   1   2
BRANCH   1  22
ATOM     22  O   UNL A   1      37.384  21.531  24.560  1.00  0.00    -0.374 OA
BRANCH  22  23
ATOM     23  C   UNL A   1      38.463  21.465  25.509  1.00  0.00     0.202 C 
BRANCH  23  24
ATOM     24  C   UNL A   1      39.088  20.088  25.585  1.00  0.00     0.261 C 
BRANCH  24  25
ATOM     25  O   UNL A   1      40.109  20.130  26.556  1.00  0.00    -0.460 OA
BRANCH  25  26
ATOM     26  C   UNL A   1      41.268  19.548  26.193  1.00  0.00     0.338 C 
ATOM     27  O   UNL A   1      41.457  18.432  25.738  1.00  0.00    -0.246 OA
BRANCH  26  28
ATOM     28  C   UNL A   1      42.332  20.476  26.572  1.00  0.00     0.060 A 
ATOM     29  C   UNL A   1      42.241  20.966  27.872  1.00  0.00     0.016 A 
ATOM     30  C   UNL A   1      43.033  21.131  25.547  1.00  0.00     0.016 A 
ATOM     31  C   UNL A   1      42.579  22.276  28.068  1.00  0.00     0.010 A 
ATOM     32  C   UNL A   1      43.284  22.462  25.714  1.00  0.00     0.010 A 
ATOM     33  C   UNL A   1      43.000  23.022  26.961  1.00  0.00    -0.014 A 
BRANCH  33  34
ATOM     34  C   UNL A   1      43.287  24.428  27.176  1.00  0.00     0.031 A 
ATOM     35  C   UNL A   1      41.984  25.190  27.351  1.00  0.00     0.074 A 
ATOM     36  C   UNL A   1      44.609  24.755  27.124  1.00  0.00     0.049 A 
ATOM     37  N   UNL A   1      41.730  26.440  27.146  1.00  0.00    -0.248 NA
ATOM     38  C   UNL A   1      40.750  24.442  27.743  1.00  0.00     0.031 C 
ATOM     39  C   UNL A   1      45.716  23.786  26.950  1.00  0.00     0.029 A 
ATOM     40  N   UNL A   1      45.295  25.945  27.185  1.00  0.00    -0.354 N 
ATOM     41  C   UNL A   1      40.420  26.663  27.600  1.00  0.00     0.074 A 
ATOM     42  C   UNL A   1      39.819  25.388  27.816  1.00  0.00     0.031 C 
ATOM     43  C   UNL A   1      46.898  24.424  26.832  1.00  0.00     0.029 A 
ATOM     44  C   UNL A   1      46.690  25.853  26.945  1.00  0.00     0.049 A 
ATOM     45  H   UNL A   1      44.849  26.800  27.381  1.00  0.00     0.167 HD
ATOM     46  C   UNL A   1      39.966  27.896  27.939  1.00  0.00     0.037 A 
ATOM     47  C   UNL A   1      47.597  26.870  26.810  1.00  0.00     0.037 A 
ATOM     48  C   UNL A   1      40.942  28.887  27.628  1.00  0.00     0.049 A 
ATOM     49  C   UNL A   1      46.846  28.090  27.152  1.00  0.00     0.074 A 
ATOM     50  C   UNL A   1      41.391  29.376  26.430  1.00  0.00     0.029 A 
ATOM     51  N   UNL A   1      41.853  29.198  28.609  1.00  0.00    -0.354 N 
ATOM     52  N   UNL A   1      46.461  28.402  28.354  1.00  0.00    -0.248 NA
ATOM     53  C   UNL A   1      46.387  28.970  26.071  1.00  0.00     0.031 C 
ATOM     54  C   UNL A   1      42.765  29.613  26.650  1.00  0.00     0.029 A 
ATOM     55  C   UNL A   1      43.068  29.408  28.000  1.00  0.00     0.049 A 
ATOM     56  H   UNL A   1      41.669  29.259  29.574  1.00  0.00     0.167 HD
ATOM     57  C   UNL A   1      45.455  29.310  28.118  1.00  0.00     0.074 A 
ATOM     58  C   UNL A   1      45.675  29.835  26.791  1.00  0.00     0.031 C 
ATOM     59  C   UNL A   1      44.271  29.183  28.771  1.00  0.00     0.037 A 
BRANCH  46  60
ATOM     60  C   UNL A   1      38.781  28.282  28.761  1.00  0.00     0.064 A 
ATOM     61  C   UNL A   1      37.956  29.322  28.281  1.00  0.00     0.173 A 
ATOM     62  C   UNL A   1      38.621  27.925  30.109  1.00  0.00     0.173 A 
ATOM     63  F   UNL A   1      38.015  29.704  26.995  1.00  0.00    -0.203 F 
ATOM     64  C   UNL A   1      37.121  30.043  29.127  1.00  0.00     0.198 A 
ATOM     65  C   UNL A   1      37.742  28.616  30.942  1.00  0.00     0.198 A 
ATOM     66  F   UNL A   1      39.379  26.976  30.675  1.00  0.00    -0.203 F 
ATOM     67  F   UNL A   1      36.461  31.111  28.658  1.00  0.00    -0.200 F 
ATOM     68  C   UNL A   1      37.027  29.700  30.462  1.00  0.00     0.200 A 
ATOM     69  F   UNL A   1      37.650  28.277  32.235  1.00  0.00    -0.200 F 
ATOM     70  F   UNL A   1      36.276  30.434  31.294  1.00  0.00    -0.200 F 
ENDBRANCH  46  60
BRANCH  47  71
ATOM     71  C   UNL A   1      49.032  27.050  26.364  1.00  0.00     0.064 A 
ATOM     72  C   UNL A   1      50.155  27.150  27.196  1.00  0.00     0.173 A 
ATOM     73  C   UNL A   1      49.346  27.043  24.974  1.00  0.00     0.173 A 
ATOM     74  F   UNL A   1      50.030  27.286  28.519  1.00  0.00    -0.203 F 
ATOM     75  C   UNL A   1      51.469  27.129  26.690  1.00  0.00     0.198 A 
ATOM     76  C   UNL A   1      50.646  26.978  24.473  1.00  0.00     0.198 A 
ATOM     77  F   UNL A   1      48.390  27.090  24.036  1.00  0.00    -0.203 F 
ATOM     78  F   UNL A   1      52.506  27.212  27.535  1.00  0.00    -0.200 F 
ATOM     79  C   UNL A   1      51.713  27.004  25.335  1.00  0.00     0.200 A 
ATOM     80  F   UNL A   1      50.843  26.868  23.151  1.00  0.00    -0.200 F 
ATOM     81  F   UNL A   1      52.964  26.921  24.864  1.00  0.00    -0.200 F 
ENDBRANCH  47  71
BRANCH  59  82
ATOM     82  C   UNL A   1      44.381  28.409  30.073  1.00  0.00     0.064 A 
ATOM     83  C   UNL A   1      45.074  28.962  31.163  1.00  0.00     0.173 A 
ATOM     84  C   UNL A   1      43.953  27.081  30.231  1.00  0.00     0.173 A 
ATOM     85  F   UNL A   1      45.494  30.234  31.110  1.00  0.00    -0.203 F 
ATOM     86  C   UNL A   1      45.349  28.218  32.315  1.00  0.00     0.198 A 
ATOM     87  C   UNL A   1      44.224  26.333  31.379  1.00  0.00     0.198 A 
ATOM     88  F   UNL A   1      43.249  26.477  29.277  1.00  0.00    -0.203 F 
ATOM     89  F   UNL A   1      46.020  28.781  33.328  1.00  0.00    -0.200 F 
ATOM     90  C   UNL A   1      44.932  26.900  32.419  1.00  0.00     0.200 A 
ATOM     91  F   UNL A   1      43.792  25.065  31.471  1.00  0.00    -0.200 F 
ATOM     92  F   UNL A   1      45.194  26.187  33.523  1.00  0.00    -0.200 F 
ENDBRANCH  59  82
ENDBRANCH  33  34
ENDBRANCH  26  28
ENDBRANCH  25  26
ENDBRANCH  24  25
ENDBRANCH  23  24
ENDBRANCH  22  23
ENDBRANCH   1  22
TORSDOF 17
ENDMDL
MODEL 3
REMARK VINA RESULT:     -11.2      1.675      2.732
REMARK SMILES O=C(CC1CCN(S(=O)(=O)c2cc[nH]c2)CC1)OCCOCCOC(=O)c1ccc(-c2c3nc(c(-c4c(F)c(F)c(F)c(F)c4F)c4ccc([nH]4)c(-c4c(F)c(F)c(F)c(F)c4F)c4nc(c(-c5c(F)c(F)c(F)c(F)c5F)c5ccc2[nH]5)C=C4)C=C3)cc1
REMARK SMILES IDX 20 1 19 2 18 3 2 4 1 5 3 6 4 7 5 8 17 9 6 10 16 11 7 12 8 13
REMARK SMILES IDX 9 14 10 15 11 16 12 17 15 18 13 19 14 20 21 22 22 23 23 24
REMARK SMILES IDX 24 25 25 26 26 27 27 28 28 29 89 30 29 31 88 32 30 33 31 34
REMARK SMILES IDX 32 35 82 36 33 37 87 38 81 39 83 40 34 41 86 42 80 43 79 44
REMARK SMILES IDX 35 46 67 47 47 48 66 49 48 50 51 51 65 52 84 53 49 54 50 55
REMARK SMILES IDX 64 57 85 58 52 59 36 60 37 61 45 62 38 63 39 64 43 65 46 66
REMARK SMILES IDX 40 67 41 68 44 69 42 70 68 71 69 72 77 73 70 74 71 75 75 76
REMARK SMILES IDX 78 77 72 78 73 79 76 80 74 81 53 82 54 83 62 84 55 85 56 86
REMARK SMILES IDX 60 87 63 88 57 89 58 90 61 91 59 92
REMARK H PARENT 14 21 83 45 51 56
REMARK Flexibility Score: inf
ROOT
ATOM      1  C   UNL A   1      34.100  29.842  26.905  1.00  0.00     0.202 C 
ENDROOT
BRANCH   1   2
ATOM      2  C   UNL A   1      33.279  28.808  26.151  1.00  0.00     0.261 C 
BRANCH   2   3
ATOM      3  O   UNL A   1      33.557  28.823  24.750  1.00  0.00    -0.463 OA
BRANCH   3   4
ATOM      4  C   UNL A   1      32.587  28.736  23.814  1.00  0.00     0.306 C 
ATOM      5  O   UNL A   1      32.812  29.165  22.683  1.00  0.00    -0.252 OA
BRANCH   4   6
ATOM      6  C   UNL A   1      31.179  28.296  24.194  1.00  0.00     0.126 C 
BRANCH   6   7
ATOM      7  C   UNL A   1      30.450  27.207  23.394  1.00  0.00     0.003 C 
ATOM      8  C   UNL A   1      29.371  26.563  24.294  1.00  0.00     0.021 C 
ATOM      9  C   UNL A   1      31.318  26.036  22.883  1.00  0.00     0.021 C 
ATOM     10  C   UNL A   1      29.972  25.692  25.408  1.00  0.00     0.103 C 
ATOM     11  C   UNL A   1      31.899  25.151  23.983  1.00  0.00     0.103 C 
ATOM     12  N   UNL A   1      30.810  24.604  24.823  1.00  0.00    -0.198 NA
BRANCH  12  13
ATOM     13  S   UNL A   1      31.358  23.494  26.020  1.00  0.00     0.244 S 
ATOM     14  O   UNL A   1      31.373  24.194  27.299  1.00  0.00    -0.207 OA
ATOM     15  O   UNL A   1      30.645  22.258  25.849  1.00  0.00    -0.207 OA
BRANCH  13  16
ATOM     16  C   UNL A   1      33.023  23.106  25.720  1.00  0.00     0.100 A 
ATOM     17  C   UNL A   1      33.503  22.050  24.900  1.00  0.00     0.041 A 
ATOM     18  C   UNL A   1      34.129  23.757  26.234  1.00  0.00     0.104 A 
ATOM     19  C   UNL A   1      34.879  22.073  24.962  1.00  0.00     0.083 A 
ATOM     20  N   UNL A   1      35.249  23.126  25.760  1.00  0.00    -0.366 N 
ATOM     21  H   UNL A   1      36.177  23.387  25.962  1.00  0.00     0.165 HD
ENDBRANCH  13  16
ENDBRANCH  12  13
ENDBRANCH   6   7
ENDBRANCH   4   6
ENDBRANCH   3   4
ENDBRANCH   2   3
ENDBRANCH   1   2
BRANCH   1  22
ATOM     22  O   UNL A   1      33.304  30.765  27.646  1.00  0.00    -0.374 OA
BRANCH  22  23
ATOM     23  C   UNL A   1      32.201  31.361  26.941  1.00  0.00     0.202 C 
BRANCH  23  24
ATOM     24  C   UNL A   1      32.162  32.868  27.086  1.00  0.00     0.261 C 
BRANCH  24  25
ATOM     25  O   UNL A   1      33.289  33.260  27.836  1.00  0.00    -0.460 OA
BRANCH  25  26
ATOM     26  C   UNL A   1      33.156  34.425  28.500  1.00  0.00     0.338 C 
ATOM     27  O   UNL A   1      32.335  35.311  28.337  1.00  0.00    -0.246 OA
BRANCH  26  28
ATOM     28  C   UNL A   1      34.296  34.512  29.409  1.00  0.00     0.060 A 
ATOM     29  C   UNL A   1      35.538  34.582  28.782  1.00  0.00     0.016 A 
ATOM     30  C   UNL A   1      34.123  34.069  30.731  1.00  0.00     0.016 A 
ATOM     31  C   UNL A   1      36.569  33.901  29.368  1.00  0.00     0.010 A 
ATOM     32  C   UNL A   1      35.121  33.313  31.273  1.00  0.00     0.010 A 
ATOM     33  C   UNL A   1      36.311  33.200  30.551  1.00  0.00    -0.014 A 
BRANCH  33  34
ATOM     34  C   UNL A   1      37.400  32.428  31.119  1.00  0.00     0.031 A 
ATOM     35  C   UNL A   1      37.597  31.158  30.308  1.00  0.00     0.074 A 
ATOM     36  C   UNL A   1      37.954  32.964  32.243  1.00  0.00     0.049 A 
ATOM     37  N   UNL A   1      38.119  30.031  30.661  1.00  0.00    -0.248 NA
ATOM     38  C   UNL A   1      37.069  31.097  28.910  1.00  0.00     0.031 C 
ATOM     39  C   UNL A   1      37.574  34.267  32.837  1.00  0.00     0.029 A 
ATOM     40  N   UNL A   1      38.919  32.533  33.122  1.00  0.00    -0.354 N 
ATOM     41  C   UNL A   1      38.198  29.243  29.501  1.00  0.00     0.074 A 
ATOM     42  C   UNL A   1      37.413  29.882  28.497  1.00  0.00     0.031 C 
ATOM     43  C   UNL A   1      38.224  34.470  34.001  1.00  0.00     0.029 A 
ATOM     44  C   UNL A   1      39.104  33.350  34.267  1.00  0.00     0.049 A 
ATOM     45  H   UNL A   1      39.444  31.715  32.968  1.00  0.00     0.167 HD
ATOM     46  C   UNL A   1      39.054  28.196  29.388  1.00  0.00     0.037 A 
ATOM     47  C   UNL A   1      39.886  33.109  35.365  1.00  0.00     0.037 A 
ATOM     48  C   UNL A   1      39.710  27.955  30.629  1.00  0.00     0.049 A 
ATOM     49  C   UNL A   1      40.647  31.895  35.024  1.00  0.00     0.074 A 
ATOM     50  C   UNL A   1      39.250  27.456  31.819  1.00  0.00     0.029 A 
ATOM     51  N   UNL A   1      40.897  28.613  30.848  1.00  0.00    -0.354 N 
ATOM     52  N   UNL A   1      41.610  31.854  34.152  1.00  0.00    -0.248 NA
ATOM     53  C   UNL A   1      40.236  30.612  35.604  1.00  0.00     0.031 C 
ATOM     54  C   UNL A   1      39.967  28.181  32.795  1.00  0.00     0.029 A 
ATOM     55  C   UNL A   1      40.936  28.976  32.174  1.00  0.00     0.049 A 
ATOM     56  H   UNL A   1      41.594  28.790  30.177  1.00  0.00     0.167 HD
ATOM     57  C   UNL A   1      41.679  30.514  33.848  1.00  0.00     0.074 A 
ATOM     58  C   UNL A   1      41.076  29.808  34.954  1.00  0.00     0.031 C 
ATOM     59  C   UNL A   1      41.732  30.124  32.548  1.00  0.00     0.037 A 
BRANCH  46  60
ATOM     60  C   UNL A   1      39.541  27.492  28.165  1.00  0.00     0.064 A 
ATOM     61  C   UNL A   1      39.578  26.081  28.187  1.00  0.00     0.173 A 
ATOM     62  C   UNL A   1      40.263  28.124  27.141  1.00  0.00     0.173 A 
ATOM     63  F   UNL A   1      38.886  25.393  29.109  1.00  0.00    -0.203 F 
ATOM     64  C   UNL A   1      40.391  25.357  27.322  1.00  0.00     0.198 A 
ATOM     65  C   UNL A   1      41.035  27.390  26.241  1.00  0.00     0.198 A 
ATOM     66  F   UNL A   1      40.323  29.459  27.049  1.00  0.00    -0.203 F 
ATOM     67  F   UNL A   1      40.504  24.030  27.470  1.00  0.00    -0.200 F 
ATOM     68  C   UNL A   1      41.132  26.014  26.359  1.00  0.00     0.200 A 
ATOM     69  F   UNL A   1      41.748  28.030  25.305  1.00  0.00    -0.200 F 
ATOM     70  F   UNL A   1      41.968  25.327  25.569  1.00  0.00    -0.200 F 
ENDBRANCH  46  60
BRANCH  47  71
ATOM     71  C   UNL A   1      40.093  33.683  36.750  1.00  0.00     0.064 A 
ATOM     72  C   UNL A   1      41.180  34.459  37.175  1.00  0.00     0.173 A 
ATOM     73  C   UNL A   1      39.080  33.522  37.740  1.00  0.00     0.173 A 
ATOM     74  F   UNL A   1      42.266  34.611  36.413  1.00  0.00    -0.203 F 
ATOM     75  C   UNL A   1      41.198  35.104  38.426  1.00  0.00     0.198 A 
ATOM     76  C   UNL A   1      39.076  34.195  38.962  1.00  0.00     0.198 A 
ATOM     77  F   UNL A   1      38.037  32.702  37.554  1.00  0.00    -0.203 F 
ATOM     78  F   UNL A   1      42.259  35.846  38.773  1.00  0.00    -0.200 F 
ATOM     79  C   UNL A   1      40.131  35.004  39.301  1.00  0.00     0.200 A 
ATOM     80  F   UNL A   1      38.028  34.064  39.788  1.00  0.00    -0.200 F 
ATOM     81  F   UNL A   1      40.126  35.670  40.462  1.00  0.00    -0.200 F 
ENDBRANCH  47  71
BRANCH  59  82
ATOM     82  C   UNL A   1      42.267  31.199  31.618  1.00  0.00     0.064 A 
ATOM     83  C   UNL A   1      43.626  31.549  31.656  1.00  0.00     0.173 A 
ATOM     84  C   UNL A   1      41.452  31.995  30.796  1.00  0.00     0.173 A 
ATOM     85  F   UNL A   1      44.482  30.824  32.392  1.00  0.00    -0.203 F 
ATOM     86  C   UNL A   1      44.124  32.647  30.946  1.00  0.00     0.198 A 
ATOM     87  C   UNL A   1      41.944  33.093  30.085  1.00  0.00     0.198 A 
ATOM     88  F   UNL A   1      40.159  31.722  30.654  1.00  0.00    -0.203 F 
ATOM     89  F   UNL A   1      45.426  32.952  31.016  1.00  0.00    -0.200 F 
ATOM     90  C   UNL A   1      43.280  33.424  30.168  1.00  0.00     0.200 A 
ATOM     91  F   UNL A   1      41.116  33.820  29.318  1.00  0.00    -0.200 F 
ATOM     92  F   UNL A   1      43.757  34.475  29.487  1.00  0.00    -0.200 F 
ENDBRANCH  59  82
ENDBRANCH  33  34
ENDBRANCH  26  28
ENDBRANCH  25  26
ENDBRANCH  24  25
ENDBRANCH  23  24
ENDBRANCH  22  23
ENDBRANCH   1  22
TORSDOF 17
ENDMDL
