MODEL 1
REMARK VINA RESULT:     -11.1      0.000      0.000
REMARK SMILES O=C(OCCOCCOC(=O)c1ccc(COc2cccc(C(F)(F)F)c2)nc1)c1ccc(-c2c3nc(c(-c4c(F)c(F)c(F)c(F)c4F)c4ccc([nH]4)c(-c4c(F)c(F)c(F)c(F)c4F)c4nc(c(-c5c(F)c(F)c(F)c(F)c5F)c5ccc2[nH]5)C=C4)C=C3)cc1
REMARK SMILES IDX 7 1 6 2 5 3 4 4 3 5 2 6 1 7 30 8 31 9 92 10 32 11 91 12
REMARK SMILES IDX 33 13 34 14 35 15 85 16 36 17 90 18 84 19 86 20 37 21 89 22
REMARK SMILES IDX 83 23 82 24 38 26 70 27 50 28 69 29 51 30 54 31 68 32 87 33
REMARK SMILES IDX 52 34 53 35 67 37 88 38 55 39 39 40 40 41 48 42 41 43 42 44
REMARK SMILES IDX 46 45 49 46 43 47 44 48 47 49 45 50 71 51 72 52 80 53 73 54
REMARK SMILES IDX 74 55 78 56 81 57 75 58 76 59 79 60 77 61 56 62 57 63 65 64
REMARK SMILES IDX 58 65 59 66 63 67 66 68 60 69 61 70 64 71 62 72 8 73 9 74
REMARK SMILES IDX 10 75 11 76 12 77 13 78 29 79 14 80 28 81 15 82 16 83 17 84
REMARK SMILES IDX 18 85 19 86 27 87 20 88 22 89 21 90 23 91 24 92 25 93 26 94
REMARK H PARENT 86 25 54 36
REMARK Flexibility Score: inf
ROOT
ATOM      1  C   UNL A   1      34.527  32.414  29.119  1.00  0.00     0.202 C 
ENDROOT
BRANCH   1   2
ATOM      2  O   UNL A   1      34.547  33.845  29.091  1.00  0.00    -0.374 OA
BRANCH   2   3
ATOM      3  C   UNL A   1      33.342  34.496  28.685  1.00  0.00     0.202 C 
BRANCH   3   4
ATOM      4  C   UNL A   1      32.934  35.731  29.491  1.00  0.00     0.261 C 
BRANCH   4   5
ATOM      5  O   UNL A   1      32.361  35.344  30.748  1.00  0.00    -0.460 OA
BRANCH   5   6
ATOM      6  C   UNL A   1      32.906  35.481  31.979  1.00  0.00     0.338 C 
ATOM      7  O   UNL A   1      32.374  36.241  32.784  1.00  0.00    -0.246 OA
BRANCH   6   8
ATOM      8  C   UNL A   1      34.127  34.742  32.415  1.00  0.00     0.060 A 
ATOM      9  C   UNL A   1      34.116  33.451  32.935  1.00  0.00     0.016 A 
ATOM     10  C   UNL A   1      35.373  35.357  32.210  1.00  0.00     0.016 A 
ATOM     11  C   UNL A   1      35.272  32.808  33.317  1.00  0.00     0.010 A 
ATOM     12  C   UNL A   1      36.560  34.687  32.529  1.00  0.00     0.010 A 
ATOM     13  C   UNL A   1      36.502  33.408  33.091  1.00  0.00    -0.014 A 
BRANCH  13  14
ATOM     14  C   UNL A   1      37.674  32.653  33.553  1.00  0.00     0.031 A 
ATOM     15  C   UNL A   1      38.319  31.697  32.606  1.00  0.00     0.074 A 
ATOM     16  C   UNL A   1      38.259  33.025  34.708  1.00  0.00     0.049 A 
ATOM     17  N   UNL A   1      39.388  30.966  32.771  1.00  0.00    -0.248 NA
ATOM     18  C   UNL A   1      37.693  31.563  31.278  1.00  0.00     0.031 C 
ATOM     19  C   UNL A   1      37.758  34.075  35.603  1.00  0.00     0.029 A 
ATOM     20  N   UNL A   1      39.425  32.620  35.295  1.00  0.00    -0.354 N 
ATOM     21  C   UNL A   1      39.552  30.275  31.580  1.00  0.00     0.074 A 
ATOM     22  C   UNL A   1      38.470  30.660  30.702  1.00  0.00     0.031 C 
ATOM     23  C   UNL A   1      38.633  34.256  36.603  1.00  0.00     0.029 A 
ATOM     24  C   UNL A   1      39.704  33.278  36.467  1.00  0.00     0.049 A 
ATOM     25  H   UNL A   1      40.008  31.924  34.913  1.00  0.00     0.167 HD
ATOM     26  C   UNL A   1      40.528  29.396  31.263  1.00  0.00     0.037 A 
ATOM     27  C   UNL A   1      40.698  33.073  37.350  1.00  0.00     0.037 A 
ATOM     28  C   UNL A   1      41.583  29.039  32.171  1.00  0.00     0.049 A 
ATOM     29  C   UNL A   1      41.699  31.999  37.021  1.00  0.00     0.074 A 
ATOM     30  C   UNL A   1      42.572  28.086  32.023  1.00  0.00     0.029 A 
ATOM     31  N   UNL A   1      41.784  29.640  33.409  1.00  0.00    -0.354 N 
ATOM     32  N   UNL A   1      41.796  31.263  35.938  1.00  0.00    -0.248 NA
ATOM     33  C   UNL A   1      42.718  31.713  38.036  1.00  0.00     0.031 C 
ATOM     34  C   UNL A   1      43.343  28.080  33.191  1.00  0.00     0.029 A 
ATOM     35  C   UNL A   1      42.873  29.069  34.043  1.00  0.00     0.049 A 
ATOM     36  H   UNL A   1      41.231  30.365  33.780  1.00  0.00     0.167 HD
ATOM     37  C   UNL A   1      42.889  30.434  36.134  1.00  0.00     0.074 A 
ATOM     38  C   UNL A   1      43.445  30.788  37.427  1.00  0.00     0.031 C 
ATOM     39  C   UNL A   1      43.387  29.460  35.333  1.00  0.00     0.037 A 
BRANCH  26  40
ATOM     40  C   UNL A   1      40.436  28.727  29.925  1.00  0.00     0.064 A 
ATOM     41  C   UNL A   1      39.685  27.558  29.728  1.00  0.00     0.173 A 
ATOM     42  C   UNL A   1      41.142  29.245  28.829  1.00  0.00     0.173 A 
ATOM     43  F   UNL A   1      39.020  27.001  30.752  1.00  0.00    -0.203 F 
ATOM     44  C   UNL A   1      39.666  26.919  28.490  1.00  0.00     0.198 A 
ATOM     45  C   UNL A   1      41.099  28.619  27.587  1.00  0.00     0.198 A 
ATOM     46  F   UNL A   1      41.887  30.352  28.967  1.00  0.00    -0.203 F 
ATOM     47  F   UNL A   1      38.990  25.771  28.340  1.00  0.00    -0.200 F 
ATOM     48  C   UNL A   1      40.368  27.453  27.420  1.00  0.00     0.200 A 
ATOM     49  F   UNL A   1      41.779  29.138  26.554  1.00  0.00    -0.200 F 
ATOM     50  F   UNL A   1      40.354  26.835  26.231  1.00  0.00    -0.200 F 
ENDBRANCH  26  40
BRANCH  27  51
ATOM     51  C   UNL A   1      40.739  33.819  38.638  1.00  0.00     0.064 A 
ATOM     52  C   UNL A   1      39.922  33.469  39.722  1.00  0.00     0.173 A 
ATOM     53  C   UNL A   1      41.572  34.940  38.795  1.00  0.00     0.173 A 
ATOM     54  F   UNL A   1      39.090  32.421  39.623  1.00  0.00    -0.203 F 
ATOM     55  C   UNL A   1      39.912  34.226  40.894  1.00  0.00     0.198 A 
ATOM     56  C   UNL A   1      41.592  35.672  39.980  1.00  0.00     0.198 A 
ATOM     57  F   UNL A   1      42.375  35.328  37.793  1.00  0.00    -0.203 F 
ATOM     58  F   UNL A   1      39.069  33.909  41.886  1.00  0.00    -0.200 F 
ATOM     59  C   UNL A   1      40.750  35.324  41.023  1.00  0.00     0.200 A 
ATOM     60  F   UNL A   1      42.414  36.722  40.103  1.00  0.00    -0.200 F 
ATOM     61  F   UNL A   1      40.734  36.056  42.145  1.00  0.00    -0.200 F 
ENDBRANCH  27  51
BRANCH  39  62
ATOM     62  C   UNL A   1      44.602  28.741  35.835  1.00  0.00     0.064 A 
ATOM     63  C   UNL A   1      45.896  29.186  35.531  1.00  0.00     0.173 A 
ATOM     64  C   UNL A   1      44.466  27.606  36.648  1.00  0.00     0.173 A 
ATOM     65  F   UNL A   1      46.075  30.257  34.743  1.00  0.00    -0.203 F 
ATOM     66  C   UNL A   1      47.013  28.496  35.992  1.00  0.00     0.198 A 
ATOM     67  C   UNL A   1      45.584  26.942  37.138  1.00  0.00     0.198 A 
ATOM     68  F   UNL A   1      43.248  27.148  36.974  1.00  0.00    -0.203 F 
ATOM     69  F   UNL A   1      48.240  28.900  35.636  1.00  0.00    -0.200 F 
ATOM     70  C   UNL A   1      46.856  27.381  36.801  1.00  0.00     0.200 A 
ATOM     71  F   UNL A   1      45.432  25.875  37.935  1.00  0.00    -0.200 F 
ATOM     72  F   UNL A   1      47.932  26.720  37.248  1.00  0.00    -0.200 F 
ENDBRANCH  39  62
ENDBRANCH  13  14
ENDBRANCH   6   8
ENDBRANCH   5   6
ENDBRANCH   4   5
ENDBRANCH   3   4
ENDBRANCH   2   3
ENDBRANCH   1   2
BRANCH   1  73
ATOM     73  C   UNL A   1      34.626  31.861  27.691  1.00  0.00     0.261 C 
BRANCH  73  74
ATOM     74  O   UNL A   1      33.777  30.708  27.599  1.00  0.00    -0.460 OA
BRANCH  74  75
ATOM     75  C   UNL A   1      34.429  29.586  27.210  1.00  0.00     0.339 C 
ATOM     76  O   UNL A   1      35.630  29.375  27.230  1.00  0.00    -0.246 OA
BRANCH  75  77
ATOM     77  C   UNL A   1      33.419  28.546  27.001  1.00  0.00     0.078 A 
ATOM     78  C   UNL A   1      32.102  28.660  27.436  1.00  0.00     0.019 A 
ATOM     79  C   UNL A   1      33.803  27.393  26.336  1.00  0.00     0.127 A 
ATOM     80  C   UNL A   1      31.190  27.675  27.068  1.00  0.00     0.028 A 
ATOM     81  N   UNL A   1      32.955  26.382  26.041  1.00  0.00    -0.257 NA
ATOM     82  C   UNL A   1      31.637  26.594  26.303  1.00  0.00     0.078 A 
BRANCH  82  83
ATOM     83  C   UNL A   1      30.636  25.772  25.513  1.00  0.00     0.285 C 
BRANCH  83  84
ATOM     84  O   UNL A   1      30.769  25.817  24.073  1.00  0.00    -0.487 OA
BRANCH  84  85
ATOM     85  C   UNL A   1      30.530  26.995  23.416  1.00  0.00     0.120 A 
ATOM     86  C   UNL A   1      31.630  27.693  22.933  1.00  0.00     0.046 A 
ATOM     87  C   UNL A   1      29.292  27.635  23.384  1.00  0.00     0.059 A 
ATOM     88  C   UNL A   1      31.477  28.985  22.408  1.00  0.00     0.004 A 
ATOM     89  C   UNL A   1      29.107  28.924  22.866  1.00  0.00     0.059 A 
ATOM     90  C   UNL A   1      30.222  29.599  22.375  1.00  0.00     0.013 A 
BRANCH  89  91
ATOM     91  C   UNL A   1      27.741  29.563  22.920  1.00  0.00     0.416 C 
ATOM     92  F   UNL A   1      27.681  30.600  23.799  1.00  0.00    -0.166 F 
ATOM     93  F   UNL A   1      27.347  30.065  21.717  1.00  0.00    -0.166 F 
ATOM     94  F   UNL A   1      26.755  28.699  23.293  1.00  0.00    -0.166 F 
ENDBRANCH  89  91
ENDBRANCH  84  85
ENDBRANCH  83  84
ENDBRANCH  82  83
ENDBRANCH  75  77
ENDBRANCH  74  75
ENDBRANCH  73  74
ENDBRANCH   1  73
TORSDOF 18
ENDMDL
MODEL 2
REMARK VINA RESULT:     -10.9      0.962      7.366
REMARK SMILES O=C(OCCOCCOC(=O)c1ccc(COc2cccc(C(F)(F)F)c2)nc1)c1ccc(-c2c3nc(c(-c4c(F)c(F)c(F)c(F)c4F)c4ccc([nH]4)c(-c4c(F)c(F)c(F)c(F)c4F)c4nc(c(-c5c(F)c(F)c(F)c(F)c5F)c5ccc2[nH]5)C=C4)C=C3)cc1
REMARK SMILES IDX 7 1 6 2 5 3 4 4 3 5 2 6 1 7 30 8 31 9 92 10 32 11 91 12
REMARK SMILES IDX 33 13 34 14 35 15 85 16 36 17 90 18 84 19 86 20 37 21 89 22
REMARK SMILES IDX 83 23 82 24 38 26 70 27 50 28 69 29 51 30 54 31 68 32 87 33
REMARK SMILES IDX 52 34 53 35 67 37 88 38 55 39 39 40 40 41 48 42 41 43 42 44
REMARK SMILES IDX 46 45 49 46 43 47 44 48 47 49 45 50 71 51 72 52 80 53 73 54
REMARK SMILES IDX 74 55 78 56 81 57 75 58 76 59 79 60 77 61 56 62 57 63 65 64
REMARK SMILES IDX 58 65 59 66 63 67 66 68 60 69 61 70 64 71 62 72 8 73 9 74
REMARK SMILES IDX 10 75 11 76 12 77 13 78 29 79 14 80 28 81 15 82 16 83 17 84
REMARK SMILES IDX 18 85 19 86 27 87 20 88 22 89 21 90 23 91 24 92 25 93 26 94
REMARK H PARENT 86 25 54 36
REMARK Flexibility Score: inf
ROOT
ATOM      1  C   UNL A   1      35.231  33.589  29.077  1.00  0.00     0.202 C 
ENDROOT
BRANCH   1   2
ATOM      2  O   UNL A   1      34.722  34.865  28.672  1.00  0.00    -0.374 OA
BRANCH   2   3
ATOM      3  C   UNL A   1      33.312  35.063  28.797  1.00  0.00     0.202 C 
BRANCH   3   4
ATOM      4  C   UNL A   1      32.868  36.274  29.619  1.00  0.00     0.261 C 
BRANCH   4   5
ATOM      5  O   UNL A   1      32.137  35.854  30.779  1.00  0.00    -0.460 OA
BRANCH   5   6
ATOM      6  C   UNL A   1      32.601  35.727  32.044  1.00  0.00     0.338 C 
ATOM      7  O   UNL A   1      31.949  36.208  32.968  1.00  0.00    -0.246 OA
BRANCH   6   8
ATOM      8  C   UNL A   1      33.872  35.019  32.377  1.00  0.00     0.060 A 
ATOM      9  C   UNL A   1      35.136  35.598  32.290  1.00  0.00     0.016 A 
ATOM     10  C   UNL A   1      33.780  33.715  32.888  1.00  0.00     0.016 A 
ATOM     11  C   UNL A   1      36.279  34.904  32.616  1.00  0.00     0.010 A 
ATOM     12  C   UNL A   1      34.930  33.023  33.287  1.00  0.00     0.010 A 
ATOM     13  C   UNL A   1      36.184  33.625  33.143  1.00  0.00    -0.014 A 
BRANCH  13  14
ATOM     14  C   UNL A   1      37.460  32.960  33.437  1.00  0.00     0.031 A 
ATOM     15  C   UNL A   1      38.087  33.189  34.772  1.00  0.00     0.074 A 
ATOM     16  C   UNL A   1      37.884  31.993  32.601  1.00  0.00     0.049 A 
ATOM     17  N   UNL A   1      39.175  32.672  35.273  1.00  0.00    -0.248 NA
ATOM     18  C   UNL A   1      37.379  34.108  35.682  1.00  0.00     0.031 C 
ATOM     19  C   UNL A   1      37.216  31.610  31.351  1.00  0.00     0.029 A 
ATOM     20  N   UNL A   1      38.927  31.115  32.699  1.00  0.00    -0.354 N 
ATOM     21  C   UNL A   1      39.291  33.212  36.544  1.00  0.00     0.074 A 
ATOM     22  C   UNL A   1      38.174  34.108  36.740  1.00  0.00     0.031 C 
ATOM     23  C   UNL A   1      37.845  30.550  30.822  1.00  0.00     0.029 A 
ATOM     24  C   UNL A   1      39.006  30.239  31.644  1.00  0.00     0.049 A 
ATOM     25  H   UNL A   1      39.561  31.111  33.453  1.00  0.00     0.167 HD
ATOM     26  C   UNL A   1      40.257  32.972  37.458  1.00  0.00     0.037 A 
ATOM     27  C   UNL A   1      39.945  29.318  31.363  1.00  0.00     0.037 A 
ATOM     28  C   UNL A   1      41.355  32.075  37.219  1.00  0.00     0.049 A 
ATOM     29  C   UNL A   1      41.074  29.164  32.346  1.00  0.00     0.074 A 
ATOM     30  C   UNL A   1      42.458  31.820  38.010  1.00  0.00     0.029 A 
ATOM     31  N   UNL A   1      41.476  31.276  36.087  1.00  0.00    -0.354 N 
ATOM     32  N   UNL A   1      41.246  29.755  33.506  1.00  0.00    -0.248 NA
ATOM     33  C   UNL A   1      42.145  28.232  31.980  1.00  0.00     0.031 C 
ATOM     34  C   UNL A   1      43.268  30.900  37.335  1.00  0.00     0.029 A 
ATOM     35  C   UNL A   1      42.643  30.537  36.152  1.00  0.00     0.049 A 
ATOM     36  H   UNL A   1      40.826  31.243  35.348  1.00  0.00     0.167 HD
ATOM     37  C   UNL A   1      42.436  29.261  34.014  1.00  0.00     0.074 A 
ATOM     38  C   UNL A   1      42.923  28.293  33.050  1.00  0.00     0.031 C 
ATOM     39  C   UNL A   1      43.083  29.583  35.163  1.00  0.00     0.037 A 
BRANCH  26  40
ATOM     40  C   UNL A   1      40.191  33.745  38.741  1.00  0.00     0.064 A 
ATOM     41  C   UNL A   1      40.947  34.909  38.947  1.00  0.00     0.173 A 
ATOM     42  C   UNL A   1      39.384  33.292  39.795  1.00  0.00     0.173 A 
ATOM     43  F   UNL A   1      41.763  35.364  37.984  1.00  0.00    -0.203 F 
ATOM     44  C   UNL A   1      40.917  35.575  40.171  1.00  0.00     0.198 A 
ATOM     45  C   UNL A   1      39.335  33.976  41.006  1.00  0.00     0.198 A 
ATOM     46  F   UNL A   1      38.652  32.177  39.655  1.00  0.00    -0.203 F 
ATOM     47  F   UNL A   1      41.693  36.650  40.366  1.00  0.00    -0.200 F 
ATOM     48  C   UNL A   1      40.107  35.111  41.196  1.00  0.00     0.200 A 
ATOM     49  F   UNL A   1      38.551  33.525  41.997  1.00  0.00    -0.200 F 
ATOM     50  F   UNL A   1      40.083  35.749  42.374  1.00  0.00    -0.200 F 
ENDBRANCH  26  40
BRANCH  27  51
ATOM     51  C   UNL A   1      39.907  28.558  30.083  1.00  0.00     0.064 A 
ATOM     52  C   UNL A   1      39.330  27.283  29.997  1.00  0.00     0.173 A 
ATOM     53  C   UNL A   1      40.496  29.079  28.918  1.00  0.00     0.173 A 
ATOM     54  F   UNL A   1      38.771  26.726  31.082  1.00  0.00    -0.203 F 
ATOM     55  C   UNL A   1      39.374  26.549  28.812  1.00  0.00     0.198 A 
ATOM     56  C   UNL A   1      40.504  28.362  27.724  1.00  0.00     0.198 A 
ATOM     57  F   UNL A   1      41.067  30.293  28.937  1.00  0.00    -0.203 F 
ATOM     58  F   UNL A   1      38.878  25.304  28.779  1.00  0.00    -0.200 F 
ATOM     59  C   UNL A   1      39.957  27.090  27.675  1.00  0.00     0.200 A 
ATOM     60  F   UNL A   1      41.055  28.898  26.627  1.00  0.00    -0.200 F 
ATOM     61  F   UNL A   1      40.007  26.381  26.540  1.00  0.00    -0.200 F 
ENDBRANCH  27  51
BRANCH  39  62
ATOM     62  C   UNL A   1      44.364  28.853  35.432  1.00  0.00     0.064 A 
ATOM     63  C   UNL A   1      45.598  29.350  34.992  1.00  0.00     0.173 A 
ATOM     64  C   UNL A   1      44.353  27.654  36.160  1.00  0.00     0.173 A 
ATOM     65  F   UNL A   1      45.655  30.485  34.279  1.00  0.00    -0.203 F 
ATOM     66  C   UNL A   1      46.776  28.650  35.237  1.00  0.00     0.198 A 
ATOM     67  C   UNL A   1      45.536  26.978  36.436  1.00  0.00     0.198 A 
ATOM     68  F   UNL A   1      43.197  27.144  36.610  1.00  0.00    -0.203 F 
ATOM     69  F   UNL A   1      47.937  29.109  34.752  1.00  0.00    -0.200 F 
ATOM     70  C   UNL A   1      46.745  27.470  35.965  1.00  0.00     0.200 A 
ATOM     71  F   UNL A   1      45.507  25.846  37.154  1.00  0.00    -0.200 F 
ATOM     72  F   UNL A   1      47.879  26.800  36.204  1.00  0.00    -0.200 F 
ENDBRANCH  39  62
ENDBRANCH  13  14
ENDBRANCH   6   8
ENDBRANCH   5   6
ENDBRANCH   4   5
ENDBRANCH   3   4
ENDBRANCH   2   3
ENDBRANCH   1   2
BRANCH   1  73
ATOM     73  C   UNL A   1      35.445  32.698  27.847  1.00  0.00     0.261 C 
BRANCH  73  74
ATOM     74  O   UNL A   1      34.596  31.549  27.975  1.00  0.00    -0.460 OA
BRANCH  74  75
ATOM     75  C   UNL A   1      35.187  30.394  27.586  1.00  0.00     0.339 C 
ATOM     76  O   UNL A   1      36.344  30.050  27.762  1.00  0.00    -0.246 OA
BRANCH  75  77
ATOM     77  C   UNL A   1      34.123  29.490  27.140  1.00  0.00     0.078 A 
ATOM     78  C   UNL A   1      32.770  29.807  27.212  1.00  0.00     0.019 A 
ATOM     79  C   UNL A   1      34.493  28.259  26.624  1.00  0.00     0.127 A 
ATOM     80  C   UNL A   1      31.850  28.934  26.637  1.00  0.00     0.028 A 
ATOM     81  N   UNL A   1      33.611  27.357  26.137  1.00  0.00    -0.257 NA
ATOM     82  C   UNL A   1      32.316  27.761  26.039  1.00  0.00     0.078 A 
BRANCH  82  83
ATOM     83  C   UNL A   1      31.443  27.037  25.031  1.00  0.00     0.285 C 
BRANCH  83  84
ATOM     84  O   UNL A   1      31.178  27.742  23.795  1.00  0.00    -0.487 OA
BRANCH  84  85
ATOM     85  C   UNL A   1      29.990  28.406  23.646  1.00  0.00     0.120 A 
ATOM     86  C   UNL A   1      28.860  27.642  23.378  1.00  0.00     0.046 A 
ATOM     87  C   UNL A   1      29.876  29.790  23.536  1.00  0.00     0.059 A 
ATOM     88  C   UNL A   1      27.647  28.262  23.041  1.00  0.00     0.004 A 
ATOM     89  C   UNL A   1      28.679  30.438  23.202  1.00  0.00     0.059 A 
ATOM     90  C   UNL A   1      27.556  29.654  22.952  1.00  0.00     0.013 A 
BRANCH  89  91
ATOM     91  C   UNL A   1      28.658  31.940  23.053  1.00  0.00     0.416 C 
ATOM     92  F   UNL A   1      29.076  32.352  21.825  1.00  0.00    -0.166 F 
ATOM     93  F   UNL A   1      27.416  32.469  23.225  1.00  0.00    -0.166 F 
ATOM     94  F   UNL A   1      29.454  32.584  23.953  1.00  0.00    -0.166 F 
ENDBRANCH  89  91
ENDBRANCH  84  85
ENDBRANCH  83  84
ENDBRANCH  82  83
ENDBRANCH  75  77
ENDBRANCH  74  75
ENDBRANCH  73  74
ENDBRANCH   1  73
TORSDOF 18
ENDMDL
MODEL 3
REMARK VINA RESULT:     -10.9      7.496     12.677
REMARK SMILES O=C(OCCOCCOC(=O)c1ccc(COc2cccc(C(F)(F)F)c2)nc1)c1ccc(-c2c3nc(c(-c4c(F)c(F)c(F)c(F)c4F)c4ccc([nH]4)c(-c4c(F)c(F)c(F)c(F)c4F)c4nc(c(-c5c(F)c(F)c(F)c(F)c5F)c5ccc2[nH]5)C=C4)C=C3)cc1
REMARK SMILES IDX 7 1 6 2 5 3 4 4 3 5 2 6 1 7 30 8 31 9 92 10 32 11 91 12
REMARK SMILES IDX 33 13 34 14 35 15 85 16 36 17 90 18 84 19 86 20 37 21 89 22
REMARK SMILES IDX 83 23 82 24 38 26 70 27 50 28 69 29 51 30 54 31 68 32 87 33
REMARK SMILES IDX 52 34 53 35 67 37 88 38 55 39 39 40 40 41 48 42 41 43 42 44
REMARK SMILES IDX 46 45 49 46 43 47 44 48 47 49 45 50 71 51 72 52 80 53 73 54
REMARK SMILES IDX 74 55 78 56 81 57 75 58 76 59 79 60 77 61 56 62 57 63 65 64
REMARK SMILES IDX 58 65 59 66 63 67 66 68 60 69 61 70 64 71 62 72 8 73 9 74
REMARK SMILES IDX 10 75 11 76 12 77 13 78 29 79 14 80 28 81 15 82 16 83 17 84
REMARK SMILES IDX 18 85 19 86 27 87 20 88 22 89 21 90 23 91 24 92 25 93 26 94
REMARK H PARENT 86 25 54 36
REMARK Flexibility Score: inf
ROOT
ATOM      1  C   UNL A   1      41.190  21.830  27.626  1.00  0.00     0.202 C 
ENDROOT
BRANCH   1   2
ATOM      2  O   UNL A   1      42.041  20.685  27.516  1.00  0.00    -0.374 OA
BRANCH   2   3
ATOM      3  C   UNL A   1      41.550  19.592  26.737  1.00  0.00     0.202 C 
BRANCH   3   4
ATOM      4  C   UNL A   1      42.596  18.599  26.228  1.00  0.00     0.261 C 
BRANCH   4   5
ATOM      5  O   UNL A   1      43.111  19.018  24.956  1.00  0.00    -0.460 OA
BRANCH   5   6
ATOM      6  C   UNL A   1      44.298  19.616  24.705  1.00  0.00     0.338 C 
ATOM      7  O   UNL A   1      45.199  18.959  24.188  1.00  0.00    -0.246 OA
BRANCH   6   8
ATOM      8  C   UNL A   1      44.569  21.050  25.018  1.00  0.00     0.060 A 
ATOM      9  C   UNL A   1      45.214  21.492  26.170  1.00  0.00     0.016 A 
ATOM     10  C   UNL A   1      44.225  22.008  24.050  1.00  0.00     0.016 A 
ATOM     11  C   UNL A   1      45.447  22.827  26.410  1.00  0.00     0.010 A 
ATOM     12  C   UNL A   1      44.518  23.362  24.251  1.00  0.00     0.010 A 
ATOM     13  C   UNL A   1      45.128  23.768  25.443  1.00  0.00    -0.014 A 
BRANCH  13  14
ATOM     14  C   UNL A   1      45.394  25.167  25.802  1.00  0.00     0.031 A 
ATOM     15  C   UNL A   1      44.311  25.944  26.473  1.00  0.00     0.074 A 
ATOM     16  C   UNL A   1      46.663  25.613  25.736  1.00  0.00     0.049 A 
ATOM     17  N   UNL A   1      44.332  27.167  26.928  1.00  0.00    -0.248 NA
ATOM     18  C   UNL A   1      43.033  25.241  26.688  1.00  0.00     0.031 C 
ATOM     19  C   UNL A   1      47.803  24.834  25.236  1.00  0.00     0.029 A 
ATOM     20  N   UNL A   1      47.223  26.790  26.147  1.00  0.00    -0.354 N 
ATOM     21  C   UNL A   1      43.074  27.385  27.465  1.00  0.00     0.074 A 
ATOM     22  C   UNL A   1      42.303  26.177  27.272  1.00  0.00     0.031 C 
ATOM     23  C   UNL A   1      48.929  25.542  25.407  1.00  0.00     0.029 A 
ATOM     24  C   UNL A   1      48.580  26.851  25.942  1.00  0.00     0.049 A 
ATOM     25  H   UNL A   1      46.704  27.523  26.551  1.00  0.00     0.167 HD
ATOM     26  C   UNL A   1      42.614  28.505  28.065  1.00  0.00     0.037 A 
ATOM     27  C   UNL A   1      49.431  27.875  26.130  1.00  0.00     0.037 A 
ATOM     28  C   UNL A   1      43.415  29.687  28.232  1.00  0.00     0.049 A 
ATOM     29  C   UNL A   1      48.858  29.151  26.686  1.00  0.00     0.074 A 
ATOM     30  C   UNL A   1      43.047  30.926  28.721  1.00  0.00     0.029 A 
ATOM     31  N   UNL A   1      44.766  29.766  27.911  1.00  0.00    -0.354 N 
ATOM     32  N   UNL A   1      47.636  29.398  27.097  1.00  0.00    -0.248 NA
ATOM     33  C   UNL A   1      49.771  30.294  26.791  1.00  0.00     0.031 C 
ATOM     34  C   UNL A   1      44.165  31.765  28.654  1.00  0.00     0.029 A 
ATOM     35  C   UNL A   1      45.245  31.035  28.179  1.00  0.00     0.049 A 
ATOM     36  H   UNL A   1      45.303  29.025  27.546  1.00  0.00     0.167 HD
ATOM     37  C   UNL A   1      47.633  30.718  27.519  1.00  0.00     0.074 A 
ATOM     38  C   UNL A   1      48.988  31.206  27.348  1.00  0.00     0.031 C 
ATOM     39  C   UNL A   1      46.608  31.470  27.991  1.00  0.00     0.037 A 
BRANCH  26  40
ATOM     40  C   UNL A   1      41.180  28.510  28.498  1.00  0.00     0.064 A 
ATOM     41  C   UNL A   1      40.145  28.921  27.644  1.00  0.00     0.173 A 
ATOM     42  C   UNL A   1      40.838  28.129  29.805  1.00  0.00     0.173 A 
ATOM     43  F   UNL A   1      40.422  29.328  26.396  1.00  0.00    -0.203 F 
ATOM     44  C   UNL A   1      38.826  28.975  28.090  1.00  0.00     0.198 A 
ATOM     45  C   UNL A   1      39.516  28.159  30.239  1.00  0.00     0.198 A 
ATOM     46  F   UNL A   1      41.790  27.741  30.666  1.00  0.00    -0.203 F 
ATOM     47  F   UNL A   1      37.863  29.428  27.276  1.00  0.00    -0.200 F 
ATOM     48  C   UNL A   1      38.513  28.589  29.384  1.00  0.00     0.200 A 
ATOM     49  F   UNL A   1      39.215  27.785  31.491  1.00  0.00    -0.200 F 
ATOM     50  F   UNL A   1      37.245  28.647  29.815  1.00  0.00    -0.200 F 
ENDBRANCH  26  40
BRANCH  27  51
ATOM     51  C   UNL A   1      50.856  27.769  25.714  1.00  0.00     0.064 A 
ATOM     52  C   UNL A   1      51.880  27.521  26.638  1.00  0.00     0.173 A 
ATOM     53  C   UNL A   1      51.231  27.962  24.373  1.00  0.00     0.173 A 
ATOM     54  F   UNL A   1      51.585  27.349  27.936  1.00  0.00    -0.203 F 
ATOM     55  C   UNL A   1      53.219  27.505  26.246  1.00  0.00     0.198 A 
ATOM     56  C   UNL A   1      52.564  27.905  23.975  1.00  0.00     0.198 A 
ATOM     57  F   UNL A   1      50.297  28.206  23.441  1.00  0.00    -0.203 F 
ATOM     58  F   UNL A   1      54.181  27.336  27.164  1.00  0.00    -0.200 F 
ATOM     59  C   UNL A   1      53.560  27.693  24.914  1.00  0.00     0.200 A 
ATOM     60  F   UNL A   1      52.884  28.073  22.685  1.00  0.00    -0.200 F 
ATOM     61  F   UNL A   1      54.846  27.686  24.540  1.00  0.00    -0.200 F 
ENDBRANCH  27  51
BRANCH  39  62
ATOM     62  C   UNL A   1      46.938  32.881  28.375  1.00  0.00     0.064 A 
ATOM     63  C   UNL A   1      47.392  33.205  29.661  1.00  0.00     0.173 A 
ATOM     64  C   UNL A   1      46.818  33.915  27.434  1.00  0.00     0.173 A 
ATOM     65  F   UNL A   1      47.505  32.251  30.598  1.00  0.00    -0.203 F 
ATOM     66  C   UNL A   1      47.677  34.523  30.004  1.00  0.00     0.198 A 
ATOM     67  C   UNL A   1      47.142  35.224  27.770  1.00  0.00     0.198 A 
ATOM     68  F   UNL A   1      46.397  33.652  26.188  1.00  0.00    -0.203 F 
ATOM     69  F   UNL A   1      48.047  34.820  31.257  1.00  0.00    -0.200 F 
ATOM     70  C   UNL A   1      47.560  35.529  29.057  1.00  0.00     0.200 A 
ATOM     71  F   UNL A   1      47.044  36.194  26.849  1.00  0.00    -0.200 F 
ATOM     72  F   UNL A   1      47.840  36.797  29.387  1.00  0.00    -0.200 F 
ENDBRANCH  39  62
ENDBRANCH  13  14
ENDBRANCH   6   8
ENDBRANCH   5   6
ENDBRANCH   4   5
ENDBRANCH   3   4
ENDBRANCH   2   3
ENDBRANCH   1   2
BRANCH   1  73
ATOM     73  C   UNL A   1      40.609  22.183  26.251  1.00  0.00     0.261 C 
BRANCH  73  74
ATOM     74  O   UNL A   1      39.200  22.404  26.405  1.00  0.00    -0.460 OA
BRANCH  74  75
ATOM     75  C   UNL A   1      38.441  21.664  25.563  1.00  0.00     0.339 C 
ATOM     76  O   UNL A   1      38.497  20.461  25.369  1.00  0.00    -0.246 OA
BRANCH  75  77
ATOM     77  C   UNL A   1      37.341  22.516  25.104  1.00  0.00     0.078 A 
ATOM     78  C   UNL A   1      36.923  22.578  23.779  1.00  0.00     0.019 A 
ATOM     79  C   UNL A   1      36.692  23.299  26.045  1.00  0.00     0.127 A 
ATOM     80  C   UNL A   1      35.782  23.317  23.474  1.00  0.00     0.028 A 
ATOM     81  N   UNL A   1      35.635  24.091  25.757  1.00  0.00    -0.257 NA
ATOM     82  C   UNL A   1      35.121  23.992  24.503  1.00  0.00     0.078 A 
BRANCH  82  83
ATOM     83  C   UNL A   1      33.674  24.409  24.315  1.00  0.00     0.285 C 
BRANCH  83  84
ATOM     84  O   UNL A   1      32.676  23.436  24.701  1.00  0.00    -0.487 OA
BRANCH  84  85
ATOM     85  C   UNL A   1      32.636  22.227  24.059  1.00  0.00     0.120 A 
ATOM     86  C   UNL A   1      32.147  22.209  22.758  1.00  0.00     0.046 A 
ATOM     87  C   UNL A   1      32.853  21.001  24.685  1.00  0.00     0.059 A 
ATOM     88  C   UNL A   1      31.913  20.991  22.104  1.00  0.00     0.004 A 
ATOM     89  C   UNL A   1      32.631  19.768  24.057  1.00  0.00     0.059 A 
ATOM     90  C   UNL A   1      32.153  19.774  22.749  1.00  0.00     0.013 A 
BRANCH  89  91
ATOM     91  C   UNL A   1      32.841  18.487  24.828  1.00  0.00     0.416 C 
ATOM     92  F   UNL A   1      32.903  18.688  26.173  1.00  0.00    -0.166 F 
ATOM     93  F   UNL A   1      31.844  17.582  24.627  1.00  0.00    -0.166 F 
ATOM     94  F   UNL A   1      33.993  17.838  24.494  1.00  0.00    -0.166 F 
ENDBRANCH  89  91
ENDBRANCH  84  85
ENDBRANCH  83  84
ENDBRANCH  82  83
ENDBRANCH  75  77
ENDBRANCH  74  75
ENDBRANCH  73  74
ENDBRANCH   1  73
TORSDOF 18
ENDMDL
