MODEL 1
REMARK VINA RESULT:     -11.5      0.000      0.000
REMARK SMILES O=C(C[C@H]1COCC[NH2+]1)Nc1cncc(C(=O)OCCOCCOC(=O)c2ccc(-c3c4nc(c(-c5c(F)c(F)c(F)c(F)c5F)c5ccc([nH]5)c(-c5c(F)c(F)c(F)c(F)c5F)c5nc(c(-c6c(F)c(F)c(F)c(F)c6F)c6ccc3[nH]6)C=C5)C=C4)cc2)c1
REMARK SMILES IDX 20 1 19 2 18 3 16 4 17 5 15 6 11 7 12 8 90 9 13 10 14 11
REMARK SMILES IDX 10 12 1 13 2 14 3 16 4 17 5 18 9 19 6 20 8 21 7 24 21 25
REMARK SMILES IDX 22 26 23 27 24 28 25 29 26 30 27 31 28 32 89 33 29 34 88 35
REMARK SMILES IDX 30 36 31 37 32 38 82 39 33 40 87 41 81 42 83 43 34 44 86 45
REMARK SMILES IDX 80 46 79 47 35 49 67 50 47 51 66 52 48 53 51 54 65 55 84 56
REMARK SMILES IDX 49 57 50 58 64 60 85 61 52 62 36 63 37 64 45 65 38 66 39 67
REMARK SMILES IDX 43 68 46 69 40 70 41 71 44 72 42 73 68 74 69 75 77 76 70 77
REMARK SMILES IDX 71 78 75 79 78 80 72 81 73 82 76 83 74 84 53 85 54 86 62 87
REMARK SMILES IDX 55 88 56 89 60 90 63 91 57 92 58 93 61 94 59 95
REMARK H PARENT 10 15 9 22 9 23 83 48 51 59
REMARK Flexibility Score: inf
ROOT
ATOM      1  C   UNL A   1      32.161  28.836  26.560  1.00  0.00     0.202 C 
ENDROOT
BRANCH   1   2
ATOM      2  C   UNL A   1      33.459  28.480  25.825  1.00  0.00     0.261 C 
BRANCH   2   3
ATOM      3  O   UNL A   1      33.839  27.117  26.060  1.00  0.00    -0.460 OA
BRANCH   3   4
ATOM      4  C   UNL A   1      33.538  26.251  25.063  1.00  0.00     0.339 C 
ATOM      5  O   UNL A   1      33.815  26.366  23.878  1.00  0.00    -0.246 OA
BRANCH   4   6
ATOM      6  C   UNL A   1      32.974  25.018  25.634  1.00  0.00     0.080 A 
ATOM      7  C   UNL A   1      32.811  22.630  25.862  1.00  0.00     0.060 A 
ATOM      8  C   UNL A   1      31.812  22.862  26.811  1.00  0.00     0.137 A 
ATOM      9  C   UNL A   1      33.369  23.741  25.233  1.00  0.00     0.045 A 
ATOM     10  N   UNL A   1      31.378  24.088  27.190  1.00  0.00    -0.262 NA
ATOM     11  C   UNL A   1      31.993  25.143  26.608  1.00  0.00     0.126 A 
BRANCH   7  12
ATOM     12  N   UNL A   1      33.256  21.307  25.676  1.00  0.00    -0.324 N 
ATOM     13  O   UNL A   1      32.102  20.664  23.771  1.00  0.00    -0.274 OA
ATOM     14  C   UNL A   1      32.974  20.474  24.615  1.00  0.00     0.230 C 
ATOM     15  H   UNL A   1      33.831  20.936  26.384  1.00  0.00     0.169 HD
BRANCH  14  16
ATOM     16  C   UNL A   1      33.808  19.201  24.575  1.00  0.00     0.167 C 
BRANCH  16  17
ATOM     17  C   UNL A   1      33.284  17.967  23.795  1.00  0.00     0.218 C 
ATOM     18  C   UNL A   1      34.410  16.924  23.593  1.00  0.00     0.225 C 
ATOM     19  N   UNL A   1      32.057  17.316  24.320  1.00  0.00    -0.340 N 
ATOM     20  O   UNL A   1      34.714  16.246  24.817  1.00  0.00    -0.369 OA
ATOM     21  C   UNL A   1      32.387  16.518  25.528  1.00  0.00     0.289 C 
ATOM     22  H   UNL A   1      31.667  16.703  23.604  1.00  0.00     0.346 HD
ATOM     23  H   UNL A   1      31.375  18.034  24.566  1.00  0.00     0.346 HD
ATOM     24  C   UNL A   1      33.561  15.554  25.311  1.00  0.00     0.221 C 
ENDBRANCH  16  17
ENDBRANCH  14  16
ENDBRANCH   7  12
ENDBRANCH   4   6
ENDBRANCH   3   4
ENDBRANCH   2   3
ENDBRANCH   1   2
BRANCH   1  25
ATOM     25  O   UNL A   1      32.099  30.114  27.192  1.00  0.00    -0.374 OA
BRANCH  25  26
ATOM     26  C   UNL A   1      31.621  31.216  26.422  1.00  0.00     0.202 C 
BRANCH  26  27
ATOM     27  C   UNL A   1      31.755  32.618  27.029  1.00  0.00     0.261 C 
BRANCH  27  28
ATOM     28  O   UNL A   1      33.085  33.150  26.907  1.00  0.00    -0.460 OA
BRANCH  28  29
ATOM     29  C   UNL A   1      33.630  33.544  28.082  1.00  0.00     0.338 C 
ATOM     30  O   UNL A   1      33.122  34.255  28.934  1.00  0.00    -0.246 OA
BRANCH  29  31
ATOM     31  C   UNL A   1      34.914  32.858  28.308  1.00  0.00     0.060 A 
ATOM     32  C   UNL A   1      34.856  31.504  28.660  1.00  0.00     0.016 A 
ATOM     33  C   UNL A   1      36.133  33.539  28.294  1.00  0.00     0.016 A 
ATOM     34  C   UNL A   1      36.005  30.846  29.082  1.00  0.00     0.010 A 
ATOM     35  C   UNL A   1      37.289  32.875  28.719  1.00  0.00     0.010 A 
ATOM     36  C   UNL A   1      37.218  31.544  29.168  1.00  0.00    -0.014 A 
BRANCH  36  37
ATOM     37  C   UNL A   1      38.348  30.916  29.896  1.00  0.00     0.031 A 
ATOM     38  C   UNL A   1      38.563  31.255  31.346  1.00  0.00     0.074 A 
ATOM     39  C   UNL A   1      39.125  29.999  29.295  1.00  0.00     0.049 A 
ATOM     40  N   UNL A   1      39.447  30.786  32.190  1.00  0.00    -0.248 NA
ATOM     41  C   UNL A   1      37.659  32.261  31.923  1.00  0.00     0.031 C 
ATOM     42  C   UNL A   1      39.000  29.569  27.906  1.00  0.00     0.029 A 
ATOM     43  N   UNL A   1      40.171  29.260  29.787  1.00  0.00    -0.354 N 
ATOM     44  C   UNL A   1      39.211  31.445  33.390  1.00  0.00     0.074 A 
ATOM     45  C   UNL A   1      38.129  32.376  33.154  1.00  0.00     0.031 C 
ATOM     46  C   UNL A   1      39.934  28.637  27.653  1.00  0.00     0.029 A 
ATOM     47  C   UNL A   1      40.736  28.425  28.857  1.00  0.00     0.049 A 
ATOM     48  H   UNL A   1      40.486  29.323  30.717  1.00  0.00     0.167 HD
ATOM     49  C   UNL A   1      39.832  31.280  34.584  1.00  0.00     0.037 A 
ATOM     50  C   UNL A   1      41.788  27.591  28.964  1.00  0.00     0.037 A 
ATOM     51  C   UNL A   1      40.907  30.350  34.814  1.00  0.00     0.049 A 
ATOM     52  C   UNL A   1      42.486  27.450  30.291  1.00  0.00     0.074 A 
ATOM     53  C   UNL A   1      41.585  30.086  35.992  1.00  0.00     0.029 A 
ATOM     54  N   UNL A   1      41.471  29.536  33.840  1.00  0.00    -0.354 N 
ATOM     55  N   UNL A   1      42.235  28.047  31.430  1.00  0.00    -0.248 NA
ATOM     56  C   UNL A   1      43.606  26.501  30.348  1.00  0.00     0.031 C 
ATOM     57  C   UNL A   1      42.598  29.160  35.717  1.00  0.00     0.029 A 
ATOM     58  C   UNL A   1      42.506  28.791  34.384  1.00  0.00     0.049 A 
ATOM     59  H   UNL A   1      41.178  29.495  32.901  1.00  0.00     0.167 HD
ATOM     60  C   UNL A   1      43.141  27.527  32.347  1.00  0.00     0.074 A 
ATOM     61  C   UNL A   1      43.937  26.552  31.630  1.00  0.00     0.031 C 
ATOM     62  C   UNL A   1      43.296  27.826  33.661  1.00  0.00     0.037 A 
BRANCH  49  63
ATOM     63  C   UNL A   1      39.383  32.155  35.721  1.00  0.00     0.064 A 
ATOM     64  C   UNL A   1      39.894  33.449  35.913  1.00  0.00     0.173 A 
ATOM     65  C   UNL A   1      38.420  31.691  36.631  1.00  0.00     0.173 A 
ATOM     66  F   UNL A   1      40.827  33.938  35.082  1.00  0.00    -0.203 F 
ATOM     67  C   UNL A   1      39.490  34.226  36.996  1.00  0.00     0.198 A 
ATOM     68  C   UNL A   1      37.991  32.486  37.691  1.00  0.00     0.198 A 
ATOM     69  F   UNL A   1      37.893  30.466  36.493  1.00  0.00    -0.203 F 
ATOM     70  F   UNL A   1      40.039  35.433  37.195  1.00  0.00    -0.200 F 
ATOM     71  C   UNL A   1      38.534  33.748  37.880  1.00  0.00     0.200 A 
ATOM     72  F   UNL A   1      37.057  32.027  38.535  1.00  0.00    -0.200 F 
ATOM     73  F   UNL A   1      38.145  34.498  38.919  1.00  0.00    -0.200 F 
ENDBRANCH  49  63
BRANCH  50  74
ATOM     74  C   UNL A   1      42.235  26.816  27.778  1.00  0.00     0.064 A 
ATOM     75  C   UNL A   1      41.691  25.559  27.481  1.00  0.00     0.173 A 
ATOM     76  C   UNL A   1      43.216  27.323  26.912  1.00  0.00     0.173 A 
ATOM     77  F   UNL A   1      40.767  25.022  28.291  1.00  0.00    -0.203 F 
ATOM     78  C   UNL A   1      42.122  24.832  26.374  1.00  0.00     0.198 A 
ATOM     79  C   UNL A   1      43.625  26.609  25.789  1.00  0.00     0.198 A 
ATOM     80  F   UNL A   1      43.769  28.521  27.153  1.00  0.00    -0.203 F 
ATOM     81  F   UNL A   1      41.618  23.613  26.138  1.00  0.00    -0.200 F 
ATOM     82  C   UNL A   1      43.083  25.361  25.524  1.00  0.00     0.200 A 
ATOM     83  F   UNL A   1      44.543  27.129  24.964  1.00  0.00    -0.200 F 
ATOM     84  F   UNL A   1      43.491  24.664  24.455  1.00  0.00    -0.200 F 
ENDBRANCH  50  74
BRANCH  62  85
ATOM     85  C   UNL A   1      44.340  27.054  34.421  1.00  0.00     0.064 A 
ATOM     86  C   UNL A   1      45.657  27.520  34.560  1.00  0.00     0.173 A 
ATOM     87  C   UNL A   1      44.014  25.830  35.028  1.00  0.00     0.173 A 
ATOM     88  F   UNL A   1      46.027  28.679  33.992  1.00  0.00    -0.203 F 
ATOM     89  C   UNL A   1      46.617  26.769  35.233  1.00  0.00     0.198 A 
ATOM     90  C   UNL A   1      44.968  25.101  35.734  1.00  0.00     0.198 A 
ATOM     91  F   UNL A   1      42.769  25.341  34.939  1.00  0.00    -0.203 F 
ATOM     92  F   UNL A   1      47.885  27.202  35.289  1.00  0.00    -0.200 F 
ATOM     93  C   UNL A   1      46.271  25.563  35.824  1.00  0.00     0.200 A 
ATOM     94  F   UNL A   1      44.625  23.944  36.319  1.00  0.00    -0.200 F 
ATOM     95  F   UNL A   1      47.197  24.841  36.469  1.00  0.00    -0.200 F 
ENDBRANCH  62  85
ENDBRANCH  36  37
ENDBRANCH  29  31
ENDBRANCH  28  29
ENDBRANCH  27  28
ENDBRANCH  26  27
ENDBRANCH  25  26
ENDBRANCH   1  25
TORSDOF 17
ENDMDL
MODEL 2
REMARK VINA RESULT:     -11.5      4.628     10.809
REMARK SMILES O=C(C[C@H]1COCC[NH2+]1)Nc1cncc(C(=O)OCCOCCOC(=O)c2ccc(-c3c4nc(c(-c5c(F)c(F)c(F)c(F)c5F)c5ccc([nH]5)c(-c5c(F)c(F)c(F)c(F)c5F)c5nc(c(-c6c(F)c(F)c(F)c(F)c6F)c6ccc3[nH]6)C=C5)C=C4)cc2)c1
REMARK SMILES IDX 20 1 19 2 18 3 16 4 17 5 15 6 11 7 12 8 90 9 13 10 14 11
REMARK SMILES IDX 10 12 1 13 2 14 3 16 4 17 5 18 9 19 6 20 8 21 7 24 21 25
REMARK SMILES IDX 22 26 23 27 24 28 25 29 26 30 27 31 28 32 89 33 29 34 88 35
REMARK SMILES IDX 30 36 31 37 32 38 82 39 33 40 87 41 81 42 83 43 34 44 86 45
REMARK SMILES IDX 80 46 79 47 35 49 67 50 47 51 66 52 48 53 51 54 65 55 84 56
REMARK SMILES IDX 49 57 50 58 64 60 85 61 52 62 36 63 37 64 45 65 38 66 39 67
REMARK SMILES IDX 43 68 46 69 40 70 41 71 44 72 42 73 68 74 69 75 77 76 70 77
REMARK SMILES IDX 71 78 75 79 78 80 72 81 73 82 76 83 74 84 53 85 54 86 62 87
REMARK SMILES IDX 55 88 56 89 60 90 63 91 57 92 58 93 61 94 59 95
REMARK H PARENT 10 15 9 22 9 23 83 48 51 59
REMARK Flexibility Score: inf
ROOT
ATOM      1  C   UNL A   1      34.845  21.680  24.600  1.00  0.00     0.202 C 
ENDROOT
BRANCH   1   2
ATOM      2  C   UNL A   1      33.374  21.285  24.773  1.00  0.00     0.261 C 
BRANCH   2   3
ATOM      3  O   UNL A   1      32.520  22.050  23.911  1.00  0.00    -0.460 OA
BRANCH   3   4
ATOM      4  C   UNL A   1      32.114  23.244  24.406  1.00  0.00     0.339 C 
ATOM      5  O   UNL A   1      31.899  23.521  25.577  1.00  0.00    -0.246 OA
BRANCH   4   6
ATOM      6  C   UNL A   1      32.142  24.255  23.339  1.00  0.00     0.080 A 
ATOM      7  C   UNL A   1      31.477  26.331  22.323  1.00  0.00     0.060 A 
ATOM      8  C   UNL A   1      32.336  26.007  21.270  1.00  0.00     0.137 A 
ATOM      9  C   UNL A   1      31.351  25.406  23.357  1.00  0.00     0.045 A 
ATOM     10  N   UNL A   1      33.083  24.879  21.204  1.00  0.00    -0.262 NA
ATOM     11  C   UNL A   1      32.987  24.038  22.259  1.00  0.00     0.126 A 
BRANCH   7  12
ATOM     12  N   UNL A   1      30.875  27.605  22.321  1.00  0.00    -0.324 N 
ATOM     13  O   UNL A   1      28.898  27.213  23.467  1.00  0.00    -0.274 OA
ATOM     14  C   UNL A   1      29.719  27.980  22.971  1.00  0.00     0.230 C 
ATOM     15  H   UNL A   1      31.330  28.302  21.798  1.00  0.00     0.169 HD
BRANCH  14  16
ATOM     16  C   UNL A   1      29.467  29.481  22.989  1.00  0.00     0.167 C 
BRANCH  16  17
ATOM     17  C   UNL A   1      28.041  30.022  22.707  1.00  0.00     0.218 C 
ATOM     18  C   UNL A   1      27.776  31.321  23.506  1.00  0.00     0.225 C 
ATOM     19  N   UNL A   1      27.664  30.199  21.282  1.00  0.00    -0.340 N 
ATOM     20  O   UNL A   1      28.498  32.426  22.953  1.00  0.00    -0.369 OA
ATOM     21  C   UNL A   1      28.323  31.411  20.732  1.00  0.00     0.289 C 
ATOM     22  H   UNL A   1      26.652  30.302  21.210  1.00  0.00     0.346 HD
ATOM     23  H   UNL A   1      27.964  29.382  20.750  1.00  0.00     0.346 HD
ATOM     24  C   UNL A   1      28.104  32.660  21.597  1.00  0.00     0.221 C 
ENDBRANCH  16  17
ENDBRANCH  14  16
ENDBRANCH   7  12
ENDBRANCH   4   6
ENDBRANCH   3   4
ENDBRANCH   2   3
ENDBRANCH   1   2
BRANCH   1  25
ATOM     25  O   UNL A   1      35.793  21.061  25.469  1.00  0.00    -0.374 OA
BRANCH  25  26
ATOM     26  C   UNL A   1      36.471  19.898  24.998  1.00  0.00     0.202 C 
BRANCH  26  27
ATOM     27  C   UNL A   1      38.004  19.925  24.984  1.00  0.00     0.261 C 
BRANCH  27  28
ATOM     28  O   UNL A   1      38.541  21.164  25.474  1.00  0.00    -0.460 OA
BRANCH  28  29
ATOM     29  C   UNL A   1      39.674  21.025  26.202  1.00  0.00     0.338 C 
ATOM     30  O   UNL A   1      40.439  20.074  26.209  1.00  0.00    -0.246 OA
BRANCH  29  31
ATOM     31  C   UNL A   1      39.989  22.278  26.908  1.00  0.00     0.060 A 
ATOM     32  C   UNL A   1      39.327  23.433  26.476  1.00  0.00     0.016 A 
ATOM     33  C   UNL A   1      40.986  22.351  27.884  1.00  0.00     0.016 A 
ATOM     34  C   UNL A   1      39.716  24.679  26.955  1.00  0.00     0.010 A 
ATOM     35  C   UNL A   1      41.377  23.605  28.366  1.00  0.00     0.010 A 
ATOM     36  C   UNL A   1      40.782  24.776  27.861  1.00  0.00    -0.014 A 
BRANCH  36  37
ATOM     37  C   UNL A   1      41.370  26.113  28.124  1.00  0.00     0.031 A 
ATOM     38  C   UNL A   1      42.745  26.423  27.598  1.00  0.00     0.074 A 
ATOM     39  C   UNL A   1      40.659  27.062  28.754  1.00  0.00     0.049 A 
ATOM     40  N   UNL A   1      43.430  27.537  27.660  1.00  0.00    -0.248 NA
ATOM     41  C   UNL A   1      43.445  25.327  26.912  1.00  0.00     0.031 C 
ATOM     42  C   UNL A   1      39.310  26.890  29.286  1.00  0.00     0.029 A 
ATOM     43  N   UNL A   1      40.977  28.365  29.047  1.00  0.00    -0.354 N 
ATOM     44  C   UNL A   1      44.640  27.273  27.030  1.00  0.00     0.074 A 
ATOM     45  C   UNL A   1      44.613  25.883  26.631  1.00  0.00     0.031 C 
ATOM     46  C   UNL A   1      38.910  28.047  29.841  1.00  0.00     0.029 A 
ATOM     47  C   UNL A   1      39.987  29.031  29.723  1.00  0.00     0.049 A 
ATOM     48  H   UNL A   1      41.833  28.781  28.796  1.00  0.00     0.167 HD
ATOM     49  C   UNL A   1      45.675  28.117  26.795  1.00  0.00     0.037 A 
ATOM     50  C   UNL A   1      39.957  30.289  30.201  1.00  0.00     0.037 A 
ATOM     51  C   UNL A   1      45.695  29.501  27.192  1.00  0.00     0.049 A 
ATOM     52  C   UNL A   1      41.133  31.198  29.960  1.00  0.00     0.074 A 
ATOM     53  C   UNL A   1      46.682  30.447  26.976  1.00  0.00     0.029 A 
ATOM     54  N   UNL A   1      44.683  30.136  27.898  1.00  0.00    -0.354 N 
ATOM     55  N   UNL A   1      42.257  30.954  29.332  1.00  0.00    -0.248 NA
ATOM     56  C   UNL A   1      41.025  32.568  30.481  1.00  0.00     0.031 C 
ATOM     57  C   UNL A   1      46.296  31.636  27.606  1.00  0.00     0.029 A 
ATOM     58  C   UNL A   1      45.034  31.454  28.152  1.00  0.00     0.049 A 
ATOM     59  H   UNL A   1      43.839  29.713  28.178  1.00  0.00     0.167 HD
ATOM     60  C   UNL A   1      42.977  32.143  29.353  1.00  0.00     0.074 A 
ATOM     61  C   UNL A   1      42.151  33.112  30.044  1.00  0.00     0.031 C 
ATOM     62  C   UNL A   1      44.206  32.409  28.844  1.00  0.00     0.037 A 
BRANCH  49  63
ATOM     63  C   UNL A   1      46.884  27.548  26.106  1.00  0.00     0.064 A 
ATOM     64  C   UNL A   1      47.040  27.599  24.711  1.00  0.00     0.173 A 
ATOM     65  C   UNL A   1      47.907  26.947  26.856  1.00  0.00     0.173 A 
ATOM     66  F   UNL A   1      46.088  28.150  23.944  1.00  0.00    -0.203 F 
ATOM     67  C   UNL A   1      48.153  27.033  24.093  1.00  0.00     0.198 A 
ATOM     68  C   UNL A   1      49.035  26.415  26.237  1.00  0.00     0.198 A 
ATOM     69  F   UNL A   1      47.814  26.875  28.192  1.00  0.00    -0.203 F 
ATOM     70  F   UNL A   1      48.249  27.036  22.755  1.00  0.00    -0.200 F 
ATOM     71  C   UNL A   1      49.152  26.447  24.855  1.00  0.00     0.200 A 
ATOM     72  F   UNL A   1      50.006  25.862  26.977  1.00  0.00    -0.200 F 
ATOM     73  F   UNL A   1      50.221  25.904  24.259  1.00  0.00    -0.200 F 
ENDBRANCH  49  63
BRANCH  50  74
ATOM     74  C   UNL A   1      38.763  30.763  30.948  1.00  0.00     0.064 A 
ATOM     75  C   UNL A   1      38.700  30.687  32.346  1.00  0.00     0.173 A 
ATOM     76  C   UNL A   1      37.659  31.307  30.273  1.00  0.00     0.173 A 
ATOM     77  F   UNL A   1      39.721  30.153  33.033  1.00  0.00    -0.203 F 
ATOM     78  C   UNL A   1      37.574  31.122  33.040  1.00  0.00     0.198 A 
ATOM     79  C   UNL A   1      36.546  31.770  30.970  1.00  0.00     0.198 A 
ATOM     80  F   UNL A   1      37.669  31.401  28.936  1.00  0.00    -0.203 F 
ATOM     81  F   UNL A   1      37.521  30.997  34.373  1.00  0.00    -0.200 F 
ATOM     82  C   UNL A   1      36.501  31.671  32.352  1.00  0.00     0.200 A 
ATOM     83  F   UNL A   1      35.518  32.311  30.304  1.00  0.00    -0.200 F 
ATOM     84  F   UNL A   1      35.421  32.097  33.022  1.00  0.00    -0.200 F 
ENDBRANCH  50  74
BRANCH  62  85
ATOM     85  C   UNL A   1      44.713  33.820  28.976  1.00  0.00     0.064 A 
ATOM     86  C   UNL A   1      44.340  34.832  28.078  1.00  0.00     0.173 A 
ATOM     87  C   UNL A   1      45.581  34.164  30.024  1.00  0.00     0.173 A 
ATOM     88  F   UNL A   1      43.521  34.556  27.051  1.00  0.00    -0.203 F 
ATOM     89  C   UNL A   1      44.855  36.121  28.196  1.00  0.00     0.198 A 
ATOM     90  C   UNL A   1      46.063  35.464  30.162  1.00  0.00     0.198 A 
ATOM     91  F   UNL A   1      45.962  33.242  30.920  1.00  0.00    -0.203 F 
ATOM     92  F   UNL A   1      44.540  37.051  27.284  1.00  0.00    -0.200 F 
ATOM     93  C   UNL A   1      45.711  36.437  29.240  1.00  0.00     0.200 A 
ATOM     94  F   UNL A   1      46.876  35.771  31.182  1.00  0.00    -0.200 F 
ATOM     95  F   UNL A   1      46.207  37.677  29.350  1.00  0.00    -0.200 F 
ENDBRANCH  62  85
ENDBRANCH  36  37
ENDBRANCH  29  31
ENDBRANCH  28  29
ENDBRANCH  27  28
ENDBRANCH  26  27
ENDBRANCH  25  26
ENDBRANCH   1  25
TORSDOF 17
ENDMDL
MODEL 3
REMARK VINA RESULT:     -11.4      4.454     10.629
REMARK SMILES O=C(C[C@H]1COCC[NH2+]1)Nc1cncc(C(=O)OCCOCCOC(=O)c2ccc(-c3c4nc(c(-c5c(F)c(F)c(F)c(F)c5F)c5ccc([nH]5)c(-c5c(F)c(F)c(F)c(F)c5F)c5nc(c(-c6c(F)c(F)c(F)c(F)c6F)c6ccc3[nH]6)C=C5)C=C4)cc2)c1
REMARK SMILES IDX 20 1 19 2 18 3 16 4 17 5 15 6 11 7 12 8 90 9 13 10 14 11
REMARK SMILES IDX 10 12 1 13 2 14 3 16 4 17 5 18 9 19 6 20 8 21 7 24 21 25
REMARK SMILES IDX 22 26 23 27 24 28 25 29 26 30 27 31 28 32 89 33 29 34 88 35
REMARK SMILES IDX 30 36 31 37 32 38 82 39 33 40 87 41 81 42 83 43 34 44 86 45
REMARK SMILES IDX 80 46 79 47 35 49 67 50 47 51 66 52 48 53 51 54 65 55 84 56
REMARK SMILES IDX 49 57 50 58 64 60 85 61 52 62 36 63 37 64 45 65 38 66 39 67
REMARK SMILES IDX 43 68 46 69 40 70 41 71 44 72 42 73 68 74 69 75 77 76 70 77
REMARK SMILES IDX 71 78 75 79 78 80 72 81 73 82 76 83 74 84 53 85 54 86 62 87
REMARK SMILES IDX 55 88 56 89 60 90 63 91 57 92 58 93 61 94 59 95
REMARK H PARENT 10 15 9 22 9 23 83 48 51 59
REMARK Flexibility Score: inf
ROOT
ATOM      1  C   UNL A   1      34.149  19.944  25.102  1.00  0.00     0.202 C 
ENDROOT
BRANCH   1   2
ATOM      2  C   UNL A   1      32.759  19.787  24.475  1.00  0.00     0.261 C 
BRANCH   2   3
ATOM      3  O   UNL A   1      31.889  20.866  24.845  1.00  0.00    -0.460 OA
BRANCH   3   4
ATOM      4  C   UNL A   1      31.827  21.891  23.962  1.00  0.00     0.339 C 
ATOM      5  O   UNL A   1      31.904  21.820  22.745  1.00  0.00    -0.246 OA
BRANCH   4   6
ATOM      6  C   UNL A   1      31.457  23.128  24.668  1.00  0.00     0.080 A 
ATOM      7  C   UNL A   1      31.123  25.504  24.813  1.00  0.00     0.060 A 
ATOM      8  C   UNL A   1      30.729  25.294  26.138  1.00  0.00     0.137 A 
ATOM      9  C   UNL A   1      31.536  24.393  24.083  1.00  0.00     0.045 A 
ATOM     10  N   UNL A   1      30.684  24.084  26.746  1.00  0.00    -0.262 NA
ATOM     11  C   UNL A   1      31.025  23.021  25.983  1.00  0.00     0.126 A 
BRANCH   7  12
ATOM     12  N   UNL A   1      30.981  26.799  24.276  1.00  0.00    -0.324 N 
ATOM     13  O   UNL A   1      28.783  26.785  23.539  1.00  0.00    -0.274 OA
ATOM     14  C   UNL A   1      29.828  27.378  23.794  1.00  0.00     0.230 C 
ATOM     15  H   UNL A   1      31.797  27.348  24.239  1.00  0.00     0.169 HD
BRANCH  14  16
ATOM     16  C   UNL A   1      29.941  28.872  23.522  1.00  0.00     0.167 C 
BRANCH  16  17
ATOM     17  C   UNL A   1      29.195  29.487  22.308  1.00  0.00     0.218 C 
ATOM     18  C   UNL A   1      27.664  29.479  22.541  1.00  0.00     0.225 C 
ATOM     19  N   UNL A   1      29.648  30.826  21.855  1.00  0.00    -0.340 N 
ATOM     20  O   UNL A   1      27.281  30.466  23.504  1.00  0.00    -0.369 OA
ATOM     21  C   UNL A   1      29.158  31.869  22.793  1.00  0.00     0.289 C 
ATOM     22  H   UNL A   1      29.280  31.010  20.922  1.00  0.00     0.346 HD
ATOM     23  H   UNL A   1      30.668  30.847  21.832  1.00  0.00     0.346 HD
ATOM     24  C   UNL A   1      27.648  31.777  23.059  1.00  0.00     0.221 C 
ENDBRANCH  16  17
ENDBRANCH  14  16
ENDBRANCH   7  12
ENDBRANCH   4   6
ENDBRANCH   3   4
ENDBRANCH   2   3
ENDBRANCH   1   2
BRANCH   1  25
ATOM     25  O   UNL A   1      34.941  21.047  24.665  1.00  0.00    -0.374 OA
BRANCH  25  26
ATOM     26  C   UNL A   1      36.091  21.389  25.436  1.00  0.00     0.202 C 
BRANCH  26  27
ATOM     27  C   UNL A   1      37.406  20.671  25.110  1.00  0.00     0.261 C 
BRANCH  27  28
ATOM     28  O   UNL A   1      38.542  21.551  25.142  1.00  0.00    -0.460 OA
BRANCH  28  29
ATOM     29  C   UNL A   1      39.433  21.265  26.120  1.00  0.00     0.338 C 
ATOM     30  O   UNL A   1      39.990  20.199  26.328  1.00  0.00    -0.246 OA
BRANCH  29  31
ATOM     31  C   UNL A   1      39.799  22.488  26.855  1.00  0.00     0.060 A 
ATOM     32  C   UNL A   1      39.131  23.665  26.501  1.00  0.00     0.016 A 
ATOM     33  C   UNL A   1      40.845  22.513  27.781  1.00  0.00     0.016 A 
ATOM     34  C   UNL A   1      39.561  24.888  27.005  1.00  0.00     0.010 A 
ATOM     35  C   UNL A   1      41.277  23.744  28.288  1.00  0.00     0.010 A 
ATOM     36  C   UNL A   1      40.672  24.939  27.858  1.00  0.00    -0.014 A 
BRANCH  36  37
ATOM     37  C   UNL A   1      41.290  26.258  28.139  1.00  0.00     0.031 A 
ATOM     38  C   UNL A   1      42.679  26.538  27.635  1.00  0.00     0.074 A 
ATOM     39  C   UNL A   1      40.595  27.220  28.768  1.00  0.00     0.049 A 
ATOM     40  N   UNL A   1      43.391  27.634  27.715  1.00  0.00    -0.248 NA
ATOM     41  C   UNL A   1      43.361  25.429  26.950  1.00  0.00     0.031 C 
ATOM     42  C   UNL A   1      39.234  27.079  29.280  1.00  0.00     0.029 A 
ATOM     43  N   UNL A   1      40.941  28.512  29.075  1.00  0.00    -0.354 N 
ATOM     44  C   UNL A   1      44.603  27.344  27.099  1.00  0.00     0.074 A 
ATOM     45  C   UNL A   1      44.546  25.958  26.689  1.00  0.00     0.031 C 
ATOM     46  C   UNL A   1      38.856  28.241  29.838  1.00  0.00     0.029 A 
ATOM     47  C   UNL A   1      39.959  29.198  29.743  1.00  0.00     0.049 A 
ATOM     48  H   UNL A   1      41.810  28.908  28.839  1.00  0.00     0.167 HD
ATOM     49  C   UNL A   1      45.661  28.163  26.885  1.00  0.00     0.037 A 
ATOM     50  C   UNL A   1      39.954  30.453  30.231  1.00  0.00     0.037 A 
ATOM     51  C   UNL A   1      45.711  29.543  27.293  1.00  0.00     0.049 A 
ATOM     52  C   UNL A   1      41.156  31.334  30.013  1.00  0.00     0.074 A 
ATOM     53  C   UNL A   1      46.725  30.466  27.099  1.00  0.00     0.029 A 
ATOM     54  N   UNL A   1      44.706  30.198  27.991  1.00  0.00    -0.354 N 
ATOM     55  N   UNL A   1      42.282  31.067  29.398  1.00  0.00    -0.248 NA
ATOM     56  C   UNL A   1      41.075  32.702  30.544  1.00  0.00     0.031 C 
ATOM     57  C   UNL A   1      46.360  31.659  27.733  1.00  0.00     0.029 A 
ATOM     58  C   UNL A   1      45.086  31.504  28.260  1.00  0.00     0.049 A 
ATOM     59  H   UNL A   1      43.848  29.794  28.256  1.00  0.00     0.167 HD
ATOM     60  C   UNL A   1      43.031  32.237  29.439  1.00  0.00     0.074 A 
ATOM     61  C   UNL A   1      42.220  33.221  30.127  1.00  0.00     0.031 C 
ATOM     62  C   UNL A   1      44.273  32.475  28.949  1.00  0.00     0.037 A 
BRANCH  49  63
ATOM     63  C   UNL A   1      46.865  27.570  26.208  1.00  0.00     0.064 A 
ATOM     64  C   UNL A   1      47.897  26.948  26.931  1.00  0.00     0.173 A 
ATOM     65  C   UNL A   1      46.987  27.619  24.810  1.00  0.00     0.173 A 
ATOM     66  F   UNL A   1      47.840  26.884  28.270  1.00  0.00    -0.203 F 
ATOM     67  C   UNL A   1      49.020  26.438  26.284  1.00  0.00     0.198 A 
ATOM     68  C   UNL A   1      48.094  27.076  24.165  1.00  0.00     0.198 A 
ATOM     69  F   UNL A   1      46.029  28.195  24.068  1.00  0.00    -0.203 F 
ATOM     70  F   UNL A   1      50.022  25.908  27.001  1.00  0.00    -0.200 F 
ATOM     71  C   UNL A   1      49.116  26.496  24.902  1.00  0.00     0.200 A 
ATOM     72  F   UNL A   1      48.177  27.120  22.827  1.00  0.00    -0.200 F 
ATOM     73  F   UNL A   1      50.196  26.004  24.282  1.00  0.00    -0.200 F 
ENDBRANCH  49  63
BRANCH  50  74
ATOM     74  C   UNL A   1      38.763  30.951  30.965  1.00  0.00     0.064 A 
ATOM     75  C   UNL A   1      37.694  31.560  30.293  1.00  0.00     0.173 A 
ATOM     76  C   UNL A   1      38.669  30.824  32.360  1.00  0.00     0.173 A 
ATOM     77  F   UNL A   1      37.748  31.726  28.964  1.00  0.00    -0.203 F 
ATOM     78  C   UNL A   1      36.585  32.036  30.988  1.00  0.00     0.198 A 
ATOM     79  C   UNL A   1      37.545  31.273  33.050  1.00  0.00     0.198 A 
ATOM     80  F   UNL A   1      39.664  30.250  33.050  1.00  0.00    -0.203 F 
ATOM     81  F   UNL A   1      35.598  32.654  30.326  1.00  0.00    -0.200 F 
ATOM     82  C   UNL A   1      36.507  31.885  32.365  1.00  0.00     0.200 A 
ATOM     83  F   UNL A   1      37.469  31.113  34.378  1.00  0.00    -0.200 F 
ATOM     84  F   UNL A   1      35.435  32.336  33.031  1.00  0.00    -0.200 F 
ENDBRANCH  50  74
BRANCH  62  85
ATOM     85  C   UNL A   1      44.814  33.871  29.099  1.00  0.00     0.064 A 
ATOM     86  C   UNL A   1      44.582  34.867  28.137  1.00  0.00     0.173 A 
ATOM     87  C   UNL A   1      45.570  34.220  30.229  1.00  0.00     0.173 A 
ATOM     88  F   UNL A   1      43.875  34.587  27.031  1.00  0.00    -0.203 F 
ATOM     89  C   UNL A   1      45.127  36.141  28.277  1.00  0.00     0.198 A 
ATOM     90  C   UNL A   1      46.081  35.506  30.385  1.00  0.00     0.198 A 
ATOM     91  F   UNL A   1      45.813  33.313  31.187  1.00  0.00    -0.203 F 
ATOM     92  F   UNL A   1      44.952  37.052  27.310  1.00  0.00    -0.200 F 
ATOM     93  C   UNL A   1      45.872  36.461  29.403  1.00  0.00     0.200 A 
ATOM     94  F   UNL A   1      46.785  35.817  31.483  1.00  0.00    -0.200 F 
ATOM     95  F   UNL A   1      46.398  37.686  29.535  1.00  0.00    -0.200 F 
ENDBRANCH  62  85
ENDBRANCH  36  37
ENDBRANCH  29  31
ENDBRANCH  28  29
ENDBRANCH  27  28
ENDBRANCH  26  27
ENDBRANCH  25  26
ENDBRANCH   1  25
TORSDOF 17
ENDMDL
