MODEL 1
REMARK VINA RESULT:      -9.3      0.000      0.000
REMARK SMILES CC[C@H](Oc1cccc(/C=C2\SC(=S)N(NC(=O)c3cccc(O)c3)C2=O)c1)C(=O)OCCOCCOC(=O)c1ccc(-c2c3nc(c(-c4c(F)c(F)c(F)c(F)c4F)c4ccc([nH]4)c(-c4c(F)c(F)c(F)c(F)c4F)c4nc(c(-c5c(F)c(F)c(F)c(F)c5F)c5ccc2[nH]5)C=C4)C=C3)cc1
REMARK SMILES IDX 32 1 31 2 29 3 30 4 3 5 2 6 1 7 4 8 5 9 6 10 28 11 7 12 9 13
REMARK SMILES IDX 8 14 10 15 11 16 12 17 26 18 13 19 15 20 27 21 14 22 16 23
REMARK SMILES IDX 17 24 18 26 19 27 20 28 25 29 21 30 23 31 22 32 24 33 33 35
REMARK SMILES IDX 34 36 35 37 36 38 37 39 38 40 39 41 40 42 41 43 102 44 42 45
REMARK SMILES IDX 101 46 43 47 44 48 45 49 95 50 46 51 100 52 94 53 96 54
REMARK SMILES IDX 47 55 99 56 93 57 92 58 48 60 80 61 60 62 79 63 61 64 64 65
REMARK SMILES IDX 78 66 97 67 62 68 63 69 77 71 98 72 65 73 49 74 50 75 58 76
REMARK SMILES IDX 51 77 52 78 56 79 59 80 53 81 54 82 57 83 55 84 81 85 82 86
REMARK SMILES IDX 90 87 83 88 84 89 88 90 91 91 85 92 86 93 89 94 87 95 66 96
REMARK SMILES IDX 67 97 75 98 68 99 69 100 73 101 76 102 70 103 71 104 74 105
REMARK SMILES IDX 72 106
REMARK H PARENT 16 25 24 34 96 59 64 70
REMARK Flexibility Score: inf
ROOT
ATOM      1  C   UNL A   1      34.420  33.640  30.750  1.00  0.00     0.261 C 
ENDROOT
BRANCH   1   2
ATOM      2  O   UNL A   1      34.396  32.815  29.576  1.00  0.00    -0.461 OA
BRANCH   2   3
ATOM      3  C   UNL A   1      35.498  32.879  28.768  1.00  0.00     0.347 C 
ATOM      4  O   UNL A   1      35.558  33.487  27.706  1.00  0.00    -0.248 OA
BRANCH   3   5
ATOM      5  C   UNL A   1      36.620  31.974  29.292  1.00  0.00     0.282 C 
BRANCH   5   6
ATOM      6  C   UNL A   1      37.865  32.886  29.237  1.00  0.00     0.054 C 
ATOM      7  C   UNL A   1      38.916  32.763  30.322  1.00  0.00     0.008 C 
ENDBRANCH   5   6
BRANCH   5   8
ATOM      8  O   UNL A   1      36.656  30.794  28.480  1.00  0.00    -0.479 OA
BRANCH   8   9
ATOM      9  C   UNL A   1      37.316  29.683  28.936  1.00  0.00     0.121 A 
ATOM     10  C   UNL A   1      37.342  29.244  30.257  1.00  0.00     0.046 A 
ATOM     11  C   UNL A   1      38.089  29.018  27.970  1.00  0.00     0.054 A 
ATOM     12  C   UNL A   1      38.246  28.258  30.640  1.00  0.00     0.004 A 
ATOM     13  C   UNL A   1      38.997  28.012  28.329  1.00  0.00    -0.021 A 
ATOM     14  C   UNL A   1      39.077  27.665  29.689  1.00  0.00     0.008 A 
BRANCH  13  15
ATOM     15  C   UNL A   1      39.932  27.312  27.421  1.00  0.00     0.029 C 
ATOM     16  C   UNL A   1      40.093  26.030  27.063  1.00  0.00     0.082 C 
ATOM     17  S   UNL A   1      39.298  24.609  27.600  1.00  0.00    -0.052 SA
ATOM     18  C   UNL A   1      41.163  25.667  26.082  1.00  0.00     0.285 C 
ATOM     19  C   UNL A   1      40.480  23.546  26.849  1.00  0.00     0.168 C 
ATOM     20  N   UNL A   1      41.426  24.311  26.196  1.00  0.00    -0.198 N 
ATOM     21  O   UNL A   1      41.660  26.460  25.298  1.00  0.00    -0.266 OA
ATOM     22  S   UNL A   1      40.396  21.882  26.934  1.00  0.00    -0.050 S 
BRANCH  20  23
ATOM     23  N   UNL A   1      42.485  23.695  25.511  1.00  0.00    -0.255 N 
ATOM     24  C   UNL A   1      43.801  23.593  25.915  1.00  0.00     0.270 C 
ATOM     25  H   UNL A   1      42.264  23.288  24.642  1.00  0.00     0.192 HD
ATOM     26  O   UNL A   1      44.587  22.910  25.263  1.00  0.00    -0.267 OA
BRANCH  24  27
ATOM     27  C   UNL A   1      44.318  24.350  27.075  1.00  0.00     0.045 A 
ATOM     28  C   UNL A   1      44.808  25.639  26.821  1.00  0.00     0.014 A 
ATOM     29  C   UNL A   1      44.299  23.839  28.377  1.00  0.00     0.060 A 
ATOM     30  C   UNL A   1      45.215  26.450  27.879  1.00  0.00     0.005 A 
ATOM     31  C   UNL A   1      44.697  24.669  29.423  1.00  0.00     0.116 A 
ATOM     32  C   UNL A   1      45.145  25.968  29.184  1.00  0.00     0.046 A 
BRANCH  31  33
ATOM     33  O   UNL A   1      44.643  24.259  30.722  1.00  0.00    -0.508 OA
ATOM     34  H   UNL A   1      43.815  24.163  31.150  1.00  0.00     0.293 HD
ENDBRANCH  31  33
ENDBRANCH  24  27
ENDBRANCH  20  23
ENDBRANCH  13  15
ENDBRANCH   8   9
ENDBRANCH   5   8
ENDBRANCH   3   5
ENDBRANCH   2   3
ENDBRANCH   1   2
BRANCH   1  35
ATOM     35  C   UNL A   1      34.664  32.839  32.028  1.00  0.00     0.202 C 
BRANCH  35  36
ATOM     36  O   UNL A   1      34.260  33.445  33.252  1.00  0.00    -0.374 OA
BRANCH  36  37
ATOM     37  C   UNL A   1      35.280  33.950  34.110  1.00  0.00     0.202 C 
BRANCH  37  38
ATOM     38  C   UNL A   1      36.697  33.402  33.904  1.00  0.00     0.261 C 
BRANCH  38  39
ATOM     39  O   UNL A   1      36.843  32.038  34.335  1.00  0.00    -0.460 OA
BRANCH  39  40
ATOM     40  C   UNL A   1      37.700  31.862  35.372  1.00  0.00     0.338 C 
ATOM     41  O   UNL A   1      37.517  32.147  36.541  1.00  0.00    -0.246 OA
BRANCH  40  42
ATOM     42  C   UNL A   1      38.893  31.118  34.926  1.00  0.00     0.060 A 
ATOM     43  C   UNL A   1      40.136  31.503  35.441  1.00  0.00     0.016 A 
ATOM     44  C   UNL A   1      38.808  30.137  33.937  1.00  0.00     0.016 A 
ATOM     45  C   UNL A   1      41.306  30.944  34.931  1.00  0.00     0.010 A 
ATOM     46  C   UNL A   1      39.983  29.578  33.424  1.00  0.00     0.010 A 
ATOM     47  C   UNL A   1      41.238  30.007  33.891  1.00  0.00    -0.014 A 
BRANCH  47  48
ATOM     48  C   UNL A   1      42.478  29.589  33.194  1.00  0.00     0.031 A 
ATOM     49  C   UNL A   1      43.252  28.411  33.720  1.00  0.00     0.074 A 
ATOM     50  C   UNL A   1      42.900  30.238  32.095  1.00  0.00     0.049 A 
ATOM     51  N   UNL A   1      44.375  27.894  33.288  1.00  0.00    -0.248 NA
ATOM     52  C   UNL A   1      42.684  27.725  34.891  1.00  0.00     0.031 C 
ATOM     53  C   UNL A   1      42.220  31.371  31.472  1.00  0.00     0.029 A 
ATOM     54  N   UNL A   1      44.010  30.038  31.312  1.00  0.00    -0.354 N 
ATOM     55  C   UNL A   1      44.650  26.830  34.137  1.00  0.00     0.074 A 
ATOM     56  C   UNL A   1      43.596  26.792  35.126  1.00  0.00     0.031 C 
ATOM     57  C   UNL A   1      42.932  31.774  30.405  1.00  0.00     0.029 A 
ATOM     58  C   UNL A   1      44.133  30.947  30.291  1.00  0.00     0.049 A 
ATOM     59  H   UNL A   1      44.656  29.312  31.468  1.00  0.00     0.167 HD
ATOM     60  C   UNL A   1      45.686  25.957  34.089  1.00  0.00     0.037 A 
ATOM     61  C   UNL A   1      45.115  31.106  29.382  1.00  0.00     0.037 A 
ATOM     62  C   UNL A   1      46.733  25.994  33.102  1.00  0.00     0.049 A 
ATOM     63  C   UNL A   1      46.291  30.162  29.392  1.00  0.00     0.074 A 
ATOM     64  C   UNL A   1      47.808  25.136  32.952  1.00  0.00     0.029 A 
ATOM     65  N   UNL A   1      46.839  26.948  32.100  1.00  0.00    -0.354 N 
ATOM     66  N   UNL A   1      46.524  29.136  30.174  1.00  0.00    -0.248 NA
ATOM     67  C   UNL A   1      47.338  30.400  28.389  1.00  0.00     0.031 C 
ATOM     68  C   UNL A   1      48.595  25.603  31.893  1.00  0.00     0.029 A 
ATOM     69  C   UNL A   1      47.978  26.718  31.347  1.00  0.00     0.049 A 
ATOM     70  H   UNL A   1      46.199  27.680  31.948  1.00  0.00     0.167 HD
ATOM     71  C   UNL A   1      47.724  28.588  29.739  1.00  0.00     0.074 A 
ATOM     72  C   UNL A   1      48.165  29.389  28.616  1.00  0.00     0.031 C 
ATOM     73  C   UNL A   1      48.399  27.517  30.224  1.00  0.00     0.037 A 
BRANCH  60  74
ATOM     74  C   UNL A   1      45.752  24.898  35.151  1.00  0.00     0.064 A 
ATOM     75  C   UNL A   1      46.227  25.175  36.441  1.00  0.00     0.173 A 
ATOM     76  C   UNL A   1      45.291  23.599  34.886  1.00  0.00     0.173 A 
ATOM     77  F   UNL A   1      46.689  26.399  36.743  1.00  0.00    -0.203 F 
ATOM     78  C   UNL A   1      46.259  24.186  37.421  1.00  0.00     0.198 A 
ATOM     79  C   UNL A   1      45.299  22.621  35.876  1.00  0.00     0.198 A 
ATOM     80  F   UNL A   1      44.822  23.283  33.670  1.00  0.00    -0.203 F 
ATOM     81  F   UNL A   1      46.755  24.463  38.635  1.00  0.00    -0.200 F 
ATOM     82  C   UNL A   1      45.788  22.912  37.140  1.00  0.00     0.200 A 
ATOM     83  F   UNL A   1      44.830  21.393  35.606  1.00  0.00    -0.200 F 
ATOM     84  F   UNL A   1      45.810  21.964  38.087  1.00  0.00    -0.200 F 
ENDBRANCH  60  74
BRANCH  61  85
ATOM     85  C   UNL A   1      45.037  32.207  28.387  1.00  0.00     0.064 A 
ATOM     86  C   UNL A   1      44.359  32.035  27.171  1.00  0.00     0.173 A 
ATOM     87  C   UNL A   1      45.659  33.442  28.619  1.00  0.00     0.173 A 
ATOM     88  F   UNL A   1      43.772  30.863  26.891  1.00  0.00    -0.203 F 
ATOM     89  C   UNL A   1      44.324  33.053  26.219  1.00  0.00     0.198 A 
ATOM     90  C   UNL A   1      45.597  34.468  27.679  1.00  0.00     0.198 A 
ATOM     91  F   UNL A   1      46.322  33.656  29.765  1.00  0.00    -0.203 F 
ATOM     92  F   UNL A   1      43.711  32.846  25.045  1.00  0.00    -0.200 F 
ATOM     93  C   UNL A   1      44.937  34.269  26.475  1.00  0.00     0.200 A 
ATOM     94  F   UNL A   1      46.181  35.645  27.936  1.00  0.00    -0.200 F 
ATOM     95  F   UNL A   1      44.901  35.247  25.560  1.00  0.00    -0.200 F 
ENDBRANCH  61  85
BRANCH  73  96
ATOM     96  C   UNL A   1      49.665  27.119  29.520  1.00  0.00     0.064 A 
ATOM     97  C   UNL A   1      50.911  27.647  29.888  1.00  0.00     0.173 A 
ATOM     98  C   UNL A   1      49.634  26.166  28.491  1.00  0.00     0.173 A 
ATOM     99  F   UNL A   1      50.993  28.572  30.856  1.00  0.00    -0.203 F 
ATOM    100  C   UNL A   1      52.076  27.255  29.234  1.00  0.00     0.198 A 
ATOM    101  C   UNL A   1      50.804  25.753  27.860  1.00  0.00     0.198 A 
ATOM    102  F   UNL A   1      48.468  25.625  28.106  1.00  0.00    -0.203 F 
ATOM    103  F   UNL A   1      53.250  27.808  29.570  1.00  0.00    -0.200 F 
ATOM    104  C   UNL A   1      52.022  26.303  28.226  1.00  0.00     0.200 A 
ATOM    105  F   UNL A   1      50.752  24.823  26.897  1.00  0.00    -0.200 F 
ATOM    106  F   UNL A   1      53.146  25.921  27.602  1.00  0.00    -0.200 F 
ENDBRANCH  73  96
ENDBRANCH  47  48
ENDBRANCH  40  42
ENDBRANCH  39  40
ENDBRANCH  38  39
ENDBRANCH  37  38
ENDBRANCH  36  37
ENDBRANCH  35  36
ENDBRANCH   1  35
TORSDOF 21
ENDMDL
MODEL 2
REMARK VINA RESULT:      -9.1      6.056      9.948
REMARK SMILES CC[C@H](Oc1cccc(/C=C2\SC(=S)N(NC(=O)c3cccc(O)c3)C2=O)c1)C(=O)OCCOCCOC(=O)c1ccc(-c2c3nc(c(-c4c(F)c(F)c(F)c(F)c4F)c4ccc([nH]4)c(-c4c(F)c(F)c(F)c(F)c4F)c4nc(c(-c5c(F)c(F)c(F)c(F)c5F)c5ccc2[nH]5)C=C4)C=C3)cc1
REMARK SMILES IDX 32 1 31 2 29 3 30 4 3 5 2 6 1 7 4 8 5 9 6 10 28 11 7 12 9 13
REMARK SMILES IDX 8 14 10 15 11 16 12 17 26 18 13 19 15 20 27 21 14 22 16 23
REMARK SMILES IDX 17 24 18 26 19 27 20 28 25 29 21 30 23 31 22 32 24 33 33 35
REMARK SMILES IDX 34 36 35 37 36 38 37 39 38 40 39 41 40 42 41 43 102 44 42 45
REMARK SMILES IDX 101 46 43 47 44 48 45 49 95 50 46 51 100 52 94 53 96 54
REMARK SMILES IDX 47 55 99 56 93 57 92 58 48 60 80 61 60 62 79 63 61 64 64 65
REMARK SMILES IDX 78 66 97 67 62 68 63 69 77 71 98 72 65 73 49 74 50 75 58 76
REMARK SMILES IDX 51 77 52 78 56 79 59 80 53 81 54 82 57 83 55 84 81 85 82 86
REMARK SMILES IDX 90 87 83 88 84 89 88 90 91 91 85 92 86 93 89 94 87 95 66 96
REMARK SMILES IDX 67 97 75 98 68 99 69 100 73 101 76 102 70 103 71 104 74 105
REMARK SMILES IDX 72 106
REMARK H PARENT 16 25 24 34 96 59 64 70
REMARK Flexibility Score: inf
ROOT
ATOM      1  C   UNL A   1      32.827  29.563  25.164  1.00  0.00     0.261 C 
ENDROOT
BRANCH   1   2
ATOM      2  O   UNL A   1      31.536  29.544  24.539  1.00  0.00    -0.461 OA
BRANCH   2   3
ATOM      3  C   UNL A   1      31.524  29.454  23.174  1.00  0.00     0.347 C 
ATOM      4  O   UNL A   1      32.422  28.976  22.491  1.00  0.00    -0.248 OA
BRANCH   3   5
ATOM      5  C   UNL A   1      30.294  30.158  22.586  1.00  0.00     0.282 C 
BRANCH   5   6
ATOM      6  C   UNL A   1      29.650  30.832  23.818  1.00  0.00     0.054 C 
ATOM      7  C   UNL A   1      28.580  31.883  23.606  1.00  0.00     0.008 C 
ENDBRANCH   5   6
BRANCH   5   8
ATOM      8  O   UNL A   1      29.501  29.177  21.908  1.00  0.00    -0.479 OA
BRANCH   8   9
ATOM      9  C   UNL A   1      28.699  28.338  22.637  1.00  0.00     0.121 A 
ATOM     10  C   UNL A   1      27.328  28.489  22.821  1.00  0.00     0.046 A 
ATOM     11  C   UNL A   1      29.379  27.309  23.310  1.00  0.00     0.054 A 
ATOM     12  C   UNL A   1      26.672  27.727  23.783  1.00  0.00     0.004 A 
ATOM     13  C   UNL A   1      28.736  26.519  24.273  1.00  0.00    -0.021 A 
ATOM     14  C   UNL A   1      27.374  26.768  24.513  1.00  0.00     0.008 A 
BRANCH  13  15
ATOM     15  C   UNL A   1      29.366  25.477  25.114  1.00  0.00     0.029 C 
ATOM     16  C   UNL A   1      30.628  25.231  25.497  1.00  0.00     0.082 C 
ATOM     17  S   UNL A   1      32.096  26.010  25.078  1.00  0.00    -0.052 SA
ATOM     18  C   UNL A   1      30.914  24.064  26.388  1.00  0.00     0.285 C 
ATOM     19  C   UNL A   1      33.085  24.722  25.752  1.00  0.00     0.168 C 
ATOM     20  N   UNL A   1      32.262  23.755  26.293  1.00  0.00    -0.198 N 
ATOM     21  O   UNL A   1      30.075  23.533  27.099  1.00  0.00    -0.266 OA
ATOM     22  S   UNL A   1      34.753  24.742  25.727  1.00  0.00    -0.050 S 
BRANCH  20  23
ATOM     23  N   UNL A   1      32.812  22.614  26.898  1.00  0.00    -0.255 N 
ATOM     24  C   UNL A   1      33.217  21.448  26.281  1.00  0.00     0.270 C 
ATOM     25  H   UNL A   1      32.921  22.649  27.876  1.00  0.00     0.192 HD
ATOM     26  O   UNL A   1      33.800  20.585  26.933  1.00  0.00    -0.267 OA
BRANCH  24  27
ATOM     27  C   UNL A   1      32.901  21.169  24.864  1.00  0.00     0.045 A 
ATOM     28  C   UNL A   1      32.491  19.865  24.552  1.00  0.00     0.014 A 
ATOM     29  C   UNL A   1      32.969  22.150  23.870  1.00  0.00     0.060 A 
ATOM     30  C   UNL A   1      32.078  19.555  23.258  1.00  0.00     0.005 A 
ATOM     31  C   UNL A   1      32.538  21.826  22.585  1.00  0.00     0.116 A 
ATOM     32  C   UNL A   1      32.087  20.543  22.276  1.00  0.00     0.046 A 
BRANCH  31  33
ATOM     33  O   UNL A   1      32.515  22.751  21.583  1.00  0.00    -0.508 OA
ATOM     34  H   UNL A   1      33.202  23.383  21.512  1.00  0.00     0.293 HD
ENDBRANCH  31  33
ENDBRANCH  24  27
ENDBRANCH  20  23
ENDBRANCH  13  15
ENDBRANCH   8   9
ENDBRANCH   5   8
ENDBRANCH   3   5
ENDBRANCH   2   3
ENDBRANCH   1   2
BRANCH   1  35
ATOM     35  C   UNL A   1      32.819  30.282  26.511  1.00  0.00     0.202 C 
BRANCH  35  36
ATOM     36  O   UNL A   1      31.601  30.910  26.897  1.00  0.00    -0.374 OA
BRANCH  36  37
ATOM     37  C   UNL A   1      31.471  32.310  26.661  1.00  0.00     0.202 C 
BRANCH  37  38
ATOM     38  C   UNL A   1      32.608  33.207  27.163  1.00  0.00     0.261 C 
BRANCH  38  39
ATOM     39  O   UNL A   1      32.168  34.212  28.093  1.00  0.00    -0.460 OA
BRANCH  39  40
ATOM     40  C   UNL A   1      33.158  34.993  28.590  1.00  0.00     0.338 C 
ATOM     41  O   UNL A   1      33.120  36.191  28.806  1.00  0.00    -0.246 OA
BRANCH  40  42
ATOM     42  C   UNL A   1      34.307  34.162  28.995  1.00  0.00     0.060 A 
ATOM     43  C   UNL A   1      34.083  33.144  29.929  1.00  0.00     0.016 A 
ATOM     44  C   UNL A   1      35.600  34.448  28.554  1.00  0.00     0.016 A 
ATOM     45  C   UNL A   1      35.160  32.439  30.465  1.00  0.00     0.010 A 
ATOM     46  C   UNL A   1      36.680  33.742  29.094  1.00  0.00     0.010 A 
ATOM     47  C   UNL A   1      36.468  32.762  30.081  1.00  0.00    -0.014 A 
BRANCH  47  48
ATOM     48  C   UNL A   1      37.617  32.180  30.815  1.00  0.00     0.031 A 
ATOM     49  C   UNL A   1      38.423  31.088  30.168  1.00  0.00     0.074 A 
ATOM     50  C   UNL A   1      37.951  32.633  32.037  1.00  0.00     0.049 A 
ATOM     51  N   UNL A   1      39.443  30.417  30.640  1.00  0.00    -0.248 NA
ATOM     52  C   UNL A   1      38.022  30.697  28.807  1.00  0.00     0.031 C 
ATOM     53  C   UNL A   1      37.268  33.708  32.753  1.00  0.00     0.029 A 
ATOM     54  N   UNL A   1      38.948  32.236  32.893  1.00  0.00    -0.354 N 
ATOM     55  C   UNL A   1      39.801  29.523  29.638  1.00  0.00     0.074 A 
ATOM     56  C   UNL A   1      38.872  29.715  28.546  1.00  0.00     0.031 C 
ATOM     57  C   UNL A   1      37.861  33.881  33.947  1.00  0.00     0.029 A 
ATOM     58  C   UNL A   1      38.943  32.908  34.090  1.00  0.00     0.049 A 
ATOM     59  H   UNL A   1      39.604  31.537  32.670  1.00  0.00     0.167 HD
ATOM     60  C   UNL A   1      40.820  28.630  29.628  1.00  0.00     0.037 A 
ATOM     61  C   UNL A   1      39.712  32.740  35.184  1.00  0.00     0.037 A 
ATOM     62  C   UNL A   1      41.746  28.443  30.713  1.00  0.00     0.049 A 
ATOM     63  C   UNL A   1      40.796  31.692  35.171  1.00  0.00     0.074 A 
ATOM     64  C   UNL A   1      42.829  27.584  30.787  1.00  0.00     0.029 A 
ATOM     65  N   UNL A   1      41.692  29.121  31.922  1.00  0.00    -0.354 N 
ATOM     66  N   UNL A   1      41.151  30.878  34.207  1.00  0.00    -0.248 NA
ATOM     67  C   UNL A   1      41.587  31.543  36.401  1.00  0.00     0.031 C 
ATOM     68  C   UNL A   1      43.397  27.704  32.060  1.00  0.00     0.029 A 
ATOM     69  C   UNL A   1      42.703  28.680  32.759  1.00  0.00     0.049 A 
ATOM     70  H   UNL A   1      41.031  29.815  32.151  1.00  0.00     0.167 HD
ATOM     71  C   UNL A   1      42.224  30.145  34.700  1.00  0.00     0.074 A 
ATOM     72  C   UNL A   1      42.469  30.619  36.046  1.00  0.00     0.031 C 
ATOM     73  C   UNL A   1      42.942  29.169  34.093  1.00  0.00     0.037 A 
BRANCH  60  74
ATOM     74  C   UNL A   1      40.974  27.765  28.410  1.00  0.00     0.064 A 
ATOM     75  C   UNL A   1      40.304  26.539  28.286  1.00  0.00     0.173 A 
ATOM     76  C   UNL A   1      41.767  28.192  27.334  1.00  0.00     0.173 A 
ATOM     77  F   UNL A   1      39.543  26.080  29.291  1.00  0.00    -0.203 F 
ATOM     78  C   UNL A   1      40.441  25.761  27.138  1.00  0.00     0.198 A 
ATOM     79  C   UNL A   1      41.878  27.425  26.177  1.00  0.00     0.198 A 
ATOM     80  F   UNL A   1      42.424  29.360  27.399  1.00  0.00    -0.203 F 
ATOM     81  F   UNL A   1      39.825  24.574  27.059  1.00  0.00    -0.200 F 
ATOM     82  C   UNL A   1      41.221  26.208  26.082  1.00  0.00     0.200 A 
ATOM     83  F   UNL A   1      42.621  27.866  25.152  1.00  0.00    -0.200 F 
ATOM     84  F   UNL A   1      41.342  25.463  24.975  1.00  0.00    -0.200 F 
ENDBRANCH  60  74
BRANCH  61  85
ATOM     85  C   UNL A   1      39.484  33.578  36.389  1.00  0.00     0.064 A 
ATOM     86  C   UNL A   1      40.090  34.836  36.521  1.00  0.00     0.173 A 
ATOM     87  C   UNL A   1      38.677  33.128  37.445  1.00  0.00     0.173 A 
ATOM     88  F   UNL A   1      40.891  35.298  35.550  1.00  0.00    -0.203 F 
ATOM     89  C   UNL A   1      39.911  35.603  37.671  1.00  0.00     0.198 A 
ATOM     90  C   UNL A   1      38.477  33.909  38.581  1.00  0.00     0.198 A 
ATOM     91  F   UNL A   1      38.077  31.931  37.370  1.00  0.00    -0.203 F 
ATOM     92  F   UNL A   1      40.540  36.780  37.792  1.00  0.00    -0.200 F 
ATOM     93  C   UNL A   1      39.101  35.142  38.697  1.00  0.00     0.200 A 
ATOM     94  F   UNL A   1      37.683  33.465  39.564  1.00  0.00    -0.200 F 
ATOM     95  F   UNL A   1      38.928  35.880  39.801  1.00  0.00    -0.200 F 
ENDBRANCH  61  85
BRANCH  73  96
ATOM     96  C   UNL A   1      44.089  28.574  34.859  1.00  0.00     0.064 A 
ATOM     97  C   UNL A   1      43.908  27.505  35.748  1.00  0.00     0.173 A 
ATOM     98  C   UNL A   1      45.393  29.057  34.670  1.00  0.00     0.173 A 
ATOM     99  F   UNL A   1      42.679  27.017  35.975  1.00  0.00    -0.203 F 
ATOM    100  C   UNL A   1      44.986  26.956  36.437  1.00  0.00     0.198 A 
ATOM    101  C   UNL A   1      46.473  28.486  35.338  1.00  0.00     0.198 A 
ATOM    102  F   UNL A   1      45.622  30.074  33.826  1.00  0.00    -0.203 F 
ATOM    103  F   UNL A   1      44.782  25.966  37.318  1.00  0.00    -0.200 F 
ATOM    104  C   UNL A   1      46.268  27.442  36.226  1.00  0.00     0.200 A 
ATOM    105  F   UNL A   1      47.713  28.947  35.122  1.00  0.00    -0.200 F 
ATOM    106  F   UNL A   1      47.306  26.909  36.886  1.00  0.00    -0.200 F 
ENDBRANCH  73  96
ENDBRANCH  47  48
ENDBRANCH  40  42
ENDBRANCH  39  40
ENDBRANCH  38  39
ENDBRANCH  37  38
ENDBRANCH  36  37
ENDBRANCH  35  36
ENDBRANCH   1  35
TORSDOF 21
ENDMDL
MODEL 3
REMARK VINA RESULT:      -9.1      6.025      9.331
REMARK SMILES CC[C@H](Oc1cccc(/C=C2\SC(=S)N(NC(=O)c3cccc(O)c3)C2=O)c1)C(=O)OCCOCCOC(=O)c1ccc(-c2c3nc(c(-c4c(F)c(F)c(F)c(F)c4F)c4ccc([nH]4)c(-c4c(F)c(F)c(F)c(F)c4F)c4nc(c(-c5c(F)c(F)c(F)c(F)c5F)c5ccc2[nH]5)C=C4)C=C3)cc1
REMARK SMILES IDX 32 1 31 2 29 3 30 4 3 5 2 6 1 7 4 8 5 9 6 10 28 11 7 12 9 13
REMARK SMILES IDX 8 14 10 15 11 16 12 17 26 18 13 19 15 20 27 21 14 22 16 23
REMARK SMILES IDX 17 24 18 26 19 27 20 28 25 29 21 30 23 31 22 32 24 33 33 35
REMARK SMILES IDX 34 36 35 37 36 38 37 39 38 40 39 41 40 42 41 43 102 44 42 45
REMARK SMILES IDX 101 46 43 47 44 48 45 49 95 50 46 51 100 52 94 53 96 54
REMARK SMILES IDX 47 55 99 56 93 57 92 58 48 60 80 61 60 62 79 63 61 64 64 65
REMARK SMILES IDX 78 66 97 67 62 68 63 69 77 71 98 72 65 73 49 74 50 75 58 76
REMARK SMILES IDX 51 77 52 78 56 79 59 80 53 81 54 82 57 83 55 84 81 85 82 86
REMARK SMILES IDX 90 87 83 88 84 89 88 90 91 91 85 92 86 93 89 94 87 95 66 96
REMARK SMILES IDX 67 97 75 98 68 99 69 100 73 101 76 102 70 103 71 104 74 105
REMARK SMILES IDX 72 106
REMARK H PARENT 16 25 24 34 96 59 64 70
REMARK Flexibility Score: inf
ROOT
ATOM      1  C   UNL A   1      32.448  29.501  25.556  1.00  0.00     0.261 C 
ENDROOT
BRANCH   1   2
ATOM      2  O   UNL A   1      31.265  29.634  24.756  1.00  0.00    -0.461 OA
BRANCH   2   3
ATOM      3  C   UNL A   1      31.434  29.540  23.402  1.00  0.00     0.347 C 
ATOM      4  O   UNL A   1      32.424  29.079  22.845  1.00  0.00    -0.248 OA
BRANCH   3   5
ATOM      5  C   UNL A   1      30.278  30.216  22.653  1.00  0.00     0.282 C 
BRANCH   5   6
ATOM      6  C   UNL A   1      29.524  30.967  23.773  1.00  0.00     0.054 C 
ATOM      7  C   UNL A   1      28.407  31.920  23.397  1.00  0.00     0.008 C 
ENDBRANCH   5   6
BRANCH   5   8
ATOM      8  O   UNL A   1      29.544  29.201  21.959  1.00  0.00    -0.479 OA
BRANCH   8   9
ATOM      9  C   UNL A   1      28.766  28.327  22.671  1.00  0.00     0.121 A 
ATOM     10  C   UNL A   1      27.390  28.433  22.852  1.00  0.00     0.046 A 
ATOM     11  C   UNL A   1      29.474  27.307  23.329  1.00  0.00     0.054 A 
ATOM     12  C   UNL A   1      26.754  27.635  23.799  1.00  0.00     0.004 A 
ATOM     13  C   UNL A   1      28.852  26.482  24.276  1.00  0.00    -0.021 A 
ATOM     14  C   UNL A   1      27.483  26.685  24.515  1.00  0.00     0.008 A 
BRANCH  13  15
ATOM     15  C   UNL A   1      29.511  25.446  25.102  1.00  0.00     0.029 C 
ATOM     16  C   UNL A   1      30.789  25.176  25.407  1.00  0.00     0.082 C 
ATOM     17  S   UNL A   1      32.245  25.905  24.872  1.00  0.00    -0.052 SA
ATOM     18  C   UNL A   1      31.105  24.024  26.308  1.00  0.00     0.285 C 
ATOM     19  C   UNL A   1      33.244  24.609  25.514  1.00  0.00     0.168 C 
ATOM     20  N   UNL A   1      32.435  23.678  26.133  1.00  0.00    -0.198 N 
ATOM     21  O   UNL A   1      30.302  23.534  27.087  1.00  0.00    -0.266 OA
ATOM     22  S   UNL A   1      34.907  24.585  25.379  1.00  0.00    -0.050 S 
BRANCH  20  23
ATOM     23  N   UNL A   1      32.996  22.539  26.732  1.00  0.00    -0.255 N 
ATOM     24  C   UNL A   1      33.275  21.326  26.133  1.00  0.00     0.270 C 
ATOM     25  H   UNL A   1      33.216  22.612  27.689  1.00  0.00     0.192 HD
ATOM     26  O   UNL A   1      33.886  20.464  26.760  1.00  0.00    -0.267 OA
BRANCH  24  27
ATOM     27  C   UNL A   1      32.790  21.000  24.776  1.00  0.00     0.045 A 
ATOM     28  C   UNL A   1      32.744  22.053  23.851  1.00  0.00     0.014 A 
ATOM     29  C   UNL A   1      32.420  19.705  24.398  1.00  0.00     0.060 A 
ATOM     30  C   UNL A   1      32.395  21.801  22.525  1.00  0.00     0.005 A 
ATOM     31  C   UNL A   1      32.089  19.470  23.066  1.00  0.00     0.116 A 
ATOM     32  C   UNL A   1      32.082  20.503  22.129  1.00  0.00     0.046 A 
BRANCH  31  33
ATOM     33  O   UNL A   1      31.782  18.220  22.615  1.00  0.00    -0.508 OA
ATOM     34  H   UNL A   1      31.686  18.063  21.696  1.00  0.00     0.293 HD
ENDBRANCH  31  33
ENDBRANCH  24  27
ENDBRANCH  20  23
ENDBRANCH  13  15
ENDBRANCH   8   9
ENDBRANCH   5   8
ENDBRANCH   3   5
ENDBRANCH   2   3
ENDBRANCH   1   2
BRANCH   1  35
ATOM     35  C   UNL A   1      32.537  30.555  26.657  1.00  0.00     0.202 C 
BRANCH  35  36
ATOM     36  O   UNL A   1      31.377  31.351  26.879  1.00  0.00    -0.374 OA
BRANCH  36  37
ATOM     37  C   UNL A   1      31.482  32.755  26.659  1.00  0.00     0.202 C 
BRANCH  37  38
ATOM     38  C   UNL A   1      32.735  33.452  27.204  1.00  0.00     0.261 C 
BRANCH  38  39
ATOM     39  O   UNL A   1      32.476  34.243  28.377  1.00  0.00    -0.460 OA
BRANCH  39  40
ATOM     40  C   UNL A   1      33.549  34.925  28.847  1.00  0.00     0.338 C 
ATOM     41  O   UNL A   1      33.610  36.105  29.138  1.00  0.00    -0.246 OA
BRANCH  40  42
ATOM     42  C   UNL A   1      34.664  33.996  29.115  1.00  0.00     0.060 A 
ATOM     43  C   UNL A   1      34.386  32.831  29.840  1.00  0.00     0.016 A 
ATOM     44  C   UNL A   1      35.975  34.314  28.760  1.00  0.00     0.016 A 
ATOM     45  C   UNL A   1      35.428  32.005  30.259  1.00  0.00     0.010 A 
ATOM     46  C   UNL A   1      37.020  33.486  29.182  1.00  0.00     0.010 A 
ATOM     47  C   UNL A   1      36.754  32.349  29.967  1.00  0.00    -0.014 A 
BRANCH  47  48
ATOM     48  C   UNL A   1      37.867  31.605  30.604  1.00  0.00     0.031 A 
ATOM     49  C   UNL A   1      38.229  31.911  32.032  1.00  0.00     0.074 A 
ATOM     50  C   UNL A   1      38.533  30.654  29.927  1.00  0.00     0.049 A 
ATOM     51  N   UNL A   1      39.184  31.407  32.773  1.00  0.00    -0.248 NA
ATOM     52  C   UNL A   1      37.408  32.923  32.714  1.00  0.00     0.031 C 
ATOM     53  C   UNL A   1      38.254  30.245  28.552  1.00  0.00     0.029 A 
ATOM     54  N   UNL A   1      39.591  29.864  30.305  1.00  0.00    -0.354 N 
ATOM     55  C   UNL A   1      39.080  32.044  34.003  1.00  0.00     0.074 A 
ATOM     56  C   UNL A   1      37.993  32.992  33.901  1.00  0.00     0.031 C 
ATOM     57  C   UNL A   1      39.125  29.285  28.197  1.00  0.00     0.029 A 
ATOM     58  C   UNL A   1      40.042  29.035  29.309  1.00  0.00     0.049 A 
ATOM     59  H   UNL A   1      39.988  29.890  31.206  1.00  0.00     0.167 HD
ATOM     60  C   UNL A   1      39.821  31.848  35.121  1.00  0.00     0.037 A 
ATOM     61  C   UNL A   1      41.088  28.187  29.291  1.00  0.00     0.037 A 
ATOM     62  C   UNL A   1      40.901  30.901  35.223  1.00  0.00     0.049 A 
ATOM     63  C   UNL A   1      41.939  28.037  30.527  1.00  0.00     0.074 A 
ATOM     64  C   UNL A   1      41.692  30.609  36.320  1.00  0.00     0.029 A 
ATOM     65  N   UNL A   1      41.347  30.099  34.182  1.00  0.00    -0.354 N 
ATOM     66  N   UNL A   1      41.811  28.615  31.697  1.00  0.00    -0.248 NA
ATOM     67  C   UNL A   1      43.078  27.113  30.438  1.00  0.00     0.031 C 
ATOM     68  C   UNL A   1      42.651  29.668  35.929  1.00  0.00     0.029 A 
ATOM     69  C   UNL A   1      42.422  29.333  34.604  1.00  0.00     0.049 A 
ATOM     70  H   UNL A   1      40.957  30.078  33.279  1.00  0.00     0.167 HD
ATOM     71  C   UNL A   1      42.830  28.103  32.490  1.00  0.00     0.074 A 
ATOM     72  C   UNL A   1      43.561  27.158  31.672  1.00  0.00     0.031 C 
ATOM     73  C   UNL A   1      43.132  28.388  33.781  1.00  0.00     0.037 A 
BRANCH  60  74
ATOM     74  C   UNL A   1      39.506  32.692  36.321  1.00  0.00     0.064 A 
ATOM     75  C   UNL A   1      40.166  33.905  36.565  1.00  0.00     0.173 A 
ATOM     76  C   UNL A   1      38.496  32.304  37.215  1.00  0.00     0.173 A 
ATOM     77  F   UNL A   1      41.147  34.317  35.747  1.00  0.00    -0.203 F 
ATOM     78  C   UNL A   1      39.843  34.688  37.671  1.00  0.00     0.198 A 
ATOM     79  C   UNL A   1      38.156  33.101  38.304  1.00  0.00     0.198 A 
ATOM     80  F   UNL A   1      37.829  31.155  37.024  1.00  0.00    -0.203 F 
ATOM     81  F   UNL A   1      40.515  35.822  37.907  1.00  0.00    -0.200 F 
ATOM     82  C   UNL A   1      38.833  34.289  38.535  1.00  0.00     0.200 A 
ATOM     83  F   UNL A   1      37.170  32.721  39.130  1.00  0.00    -0.200 F 
ATOM     84  F   UNL A   1      38.517  35.048  39.593  1.00  0.00    -0.200 F 
ENDBRANCH  60  74
BRANCH  61  85
ATOM     85  C   UNL A   1      41.400  27.416  28.060  1.00  0.00     0.064 A 
ATOM     86  C   UNL A   1      40.879  26.130  27.860  1.00  0.00     0.173 A 
ATOM     87  C   UNL A   1      42.246  27.938  27.070  1.00  0.00     0.173 A 
ATOM     88  F   UNL A   1      40.087  25.577  28.790  1.00  0.00    -0.203 F 
ATOM     89  C   UNL A   1      41.207  25.389  26.726  1.00  0.00     0.198 A 
ATOM     90  C   UNL A   1      42.550  27.208  25.923  1.00  0.00     0.198 A 
ATOM     91  F   UNL A   1      42.773  29.163  27.213  1.00  0.00    -0.203 F 
ATOM     92  F   UNL A   1      40.734  24.143  26.583  1.00  0.00    -0.200 F 
ATOM     93  C   UNL A   1      42.037  25.930  25.756  1.00  0.00     0.200 A 
ATOM     94  F   UNL A   1      43.341  27.740  24.983  1.00  0.00    -0.200 F 
ATOM     95  F   UNL A   1      42.350  25.218  24.666  1.00  0.00    -0.200 F 
ENDBRANCH  61  85
BRANCH  73  96
ATOM     96  C   UNL A   1      44.276  27.641  34.405  1.00  0.00     0.064 A 
ATOM     97  C   UNL A   1      45.578  28.164  34.423  1.00  0.00     0.173 A 
ATOM     98  C   UNL A   1      44.058  26.403  35.030  1.00  0.00     0.173 A 
ATOM     99  F   UNL A   1      45.842  29.336  33.827  1.00  0.00    -0.203 F 
ATOM    100  C   UNL A   1      46.622  27.463  35.020  1.00  0.00     0.198 A 
ATOM    101  C   UNL A   1      45.098  25.720  35.653  1.00  0.00     0.198 A 
ATOM    102  F   UNL A   1      42.830  25.862  35.047  1.00  0.00    -0.203 F 
ATOM    103  F   UNL A   1      47.867  27.960  34.983  1.00  0.00    -0.200 F 
ATOM    104  C   UNL A   1      46.380  26.247  35.641  1.00  0.00     0.200 A 
ATOM    105  F   UNL A   1      44.860  24.552  36.265  1.00  0.00    -0.200 F 
ATOM    106  F   UNL A   1      47.386  25.577  36.222  1.00  0.00    -0.200 F 
ENDBRANCH  73  96
ENDBRANCH  47  48
ENDBRANCH  40  42
ENDBRANCH  39  40
ENDBRANCH  38  39
ENDBRANCH  37  38
ENDBRANCH  36  37
ENDBRANCH  35  36
ENDBRANCH   1  35
TORSDOF 21
ENDMDL
