MODEL 1
REMARK VINA RESULT:     -12.2      0.000      0.000
REMARK SMILES COc1ccc2c(CC(=O)OCCOCCOC(=O)c3ccc(-c4c5nc(c(-c6c(F)c(F)c(F)c(F)c6F)c6ccc([nH]6)c(-c6c(F)c(F)c(F)c(F)c6F)c6nc(c(-c7c(F)c(F)c(F)c(F)c7F)c7ccc4[nH]7)C=C6)C=C5)cc3)c(C(=O)c3cc(C)ccn3)[nH]c2c1
REMARK SMILES IDX 13 1 12 2 11 3 9 4 10 5 8 6 7 7 3 8 4 9 95 10 5 11 94 12
REMARK SMILES IDX 6 13 93 14 83 15 2 17 1 18 84 19 85 20 86 21 87 22 92 23
REMARK SMILES IDX 88 24 91 25 89 26 90 27 14 28 15 29 16 30 17 31 18 32 19 33
REMARK SMILES IDX 20 34 21 35 82 36 22 37 81 38 23 39 24 40 25 41 75 42 26 43
REMARK SMILES IDX 80 44 74 45 76 46 27 47 79 48 73 49 72 50 28 52 60 53 40 54
REMARK SMILES IDX 59 55 41 56 44 57 58 58 77 59 42 60 43 61 57 63 78 64 45 65
REMARK SMILES IDX 29 66 30 67 38 68 31 69 32 70 36 71 39 72 33 73 34 74 37 75
REMARK SMILES IDX 35 76 61 77 62 78 70 79 63 80 64 81 68 82 71 83 65 84 66 85
REMARK SMILES IDX 69 86 67 87 46 88 47 89 55 90 48 91 49 92 53 93 56 94 50 95
REMARK SMILES IDX 51 96 54 97 52 98
REMARK H PARENT 93 16 76 51 44 62
REMARK Flexibility Score: inf
ROOT
ATOM      1  C   UNL A   1      36.609  23.153  25.214  1.00  0.00     0.202 C 
ENDROOT
BRANCH   1   2
ATOM      2  C   UNL A   1      35.911  23.492  23.887  1.00  0.00     0.261 C 
BRANCH   2   3
ATOM      3  O   UNL A   1      34.952  22.505  23.452  1.00  0.00    -0.463 OA
BRANCH   3   4
ATOM      4  C   UNL A   1      33.784  23.014  22.970  1.00  0.00     0.310 C 
ATOM      5  O   UNL A   1      33.721  23.799  22.024  1.00  0.00    -0.252 OA
BRANCH   4   6
ATOM      6  C   UNL A   1      32.522  22.464  23.604  1.00  0.00     0.161 C 
BRANCH   6   7
ATOM      7  C   UNL A   1      32.648  21.342  24.600  1.00  0.00     0.000 A 
ATOM      8  C   UNL A   1      33.045  17.166  24.191  1.00  0.00     0.120 A 
ATOM      9  C   UNL A   1      32.761  17.853  23.014  1.00  0.00     0.047 A 
ATOM     10  C   UNL A   1      33.069  17.834  25.419  1.00  0.00     0.073 A 
ATOM     11  C   UNL A   1      32.560  19.241  23.031  1.00  0.00     0.014 A 
ATOM     12  C   UNL A   1      32.902  19.226  25.411  1.00  0.00     0.050 A 
ATOM     13  C   UNL A   1      32.665  19.949  24.248  1.00  0.00     0.004 A 
ATOM     14  N   UNL A   1      32.948  20.130  26.443  1.00  0.00    -0.351 N 
ATOM     15  C   UNL A   1      32.960  21.426  25.965  1.00  0.00     0.093 A 
ATOM     16  H   UNL A   1      32.970  19.887  27.397  1.00  0.00     0.167 HD
BRANCH   8  17
ATOM     17  O   UNL A   1      33.273  15.814  24.247  1.00  0.00    -0.497 OA
ATOM     18  C   UNL A   1      34.392  15.448  25.053  1.00  0.00     0.278 C 
ENDBRANCH   8  17
BRANCH  15  19
ATOM     19  C   UNL A   1      33.261  22.612  26.774  1.00  0.00     0.227 C 
ATOM     20  O   UNL A   1      34.107  22.620  27.665  1.00  0.00    -0.285 OA
BRANCH  19  21
ATOM     21  C   UNL A   1      32.558  23.901  26.489  1.00  0.00     0.113 A 
ATOM     22  C   UNL A   1      33.247  25.049  26.124  1.00  0.00     0.036 A 
ATOM     23  N   UNL A   1      31.209  23.858  26.632  1.00  0.00    -0.253 NA
ATOM     24  C   UNL A   1      32.508  26.221  25.919  1.00  0.00    -0.047 A 
ATOM     25  C   UNL A   1      30.520  24.997  26.446  1.00  0.00     0.112 A 
ATOM     26  C   UNL A   1      33.160  27.502  25.496  1.00  0.00     0.044 C 
ATOM     27  C   UNL A   1      31.119  26.191  26.097  1.00  0.00     0.023 A 
ENDBRANCH  19  21
ENDBRANCH  15  19
ENDBRANCH   6   7
ENDBRANCH   4   6
ENDBRANCH   3   4
ENDBRANCH   2   3
ENDBRANCH   1   2
BRANCH   1  28
ATOM     28  O   UNL A   1      36.632  21.787  25.621  1.00  0.00    -0.374 OA
BRANCH  28  29
ATOM     29  C   UNL A   1      37.463  20.899  24.879  1.00  0.00     0.202 C 
BRANCH  29  30
ATOM     30  C   UNL A   1      38.621  20.239  25.632  1.00  0.00     0.261 C 
BRANCH  30  31
ATOM     31  O   UNL A   1      39.798  21.036  25.749  1.00  0.00    -0.460 OA
BRANCH  31  32
ATOM     32  C   UNL A   1      40.405  20.961  26.949  1.00  0.00     0.338 C 
ATOM     33  O   UNL A   1      40.754  19.972  27.576  1.00  0.00    -0.246 OA
BRANCH  32  34
ATOM     34  C   UNL A   1      40.663  22.325  27.406  1.00  0.00     0.060 A 
ATOM     35  C   UNL A   1      39.960  23.372  26.804  1.00  0.00     0.016 A 
ATOM     36  C   UNL A   1      41.658  22.560  28.356  1.00  0.00     0.016 A 
ATOM     37  C   UNL A   1      40.297  24.682  27.121  1.00  0.00     0.010 A 
ATOM     38  C   UNL A   1      41.989  23.873  28.676  1.00  0.00     0.010 A 
ATOM     39  C   UNL A   1      41.337  24.936  28.029  1.00  0.00    -0.014 A 
BRANCH  39  40
ATOM     40  C   UNL A   1      41.830  26.320  28.190  1.00  0.00     0.031 A 
ATOM     41  C   UNL A   1      43.166  26.685  27.612  1.00  0.00     0.074 A 
ATOM     42  C   UNL A   1      41.069  27.236  28.812  1.00  0.00     0.049 A 
ATOM     43  N   UNL A   1      43.782  27.839  27.610  1.00  0.00    -0.248 NA
ATOM     44  C   UNL A   1      43.913  25.604  26.948  1.00  0.00     0.031 C 
ATOM     45  C   UNL A   1      39.752  26.980  29.391  1.00  0.00     0.029 A 
ATOM     46  N   UNL A   1      41.297  28.564  29.055  1.00  0.00    -0.354 N 
ATOM     47  C   UNL A   1      44.981  27.623  26.943  1.00  0.00     0.074 A 
ATOM     48  C   UNL A   1      45.028  26.222  26.589  1.00  0.00     0.031 C 
ATOM     49  C   UNL A   1      39.282  28.121  29.923  1.00  0.00     0.029 A 
ATOM     50  C   UNL A   1      40.278  29.175  29.741  1.00  0.00     0.049 A 
ATOM     51  H   UNL A   1      42.111  29.035  28.767  1.00  0.00     0.167 HD
ATOM     52  C   UNL A   1      45.949  28.522  26.643  1.00  0.00     0.037 A 
ATOM     53  C   UNL A   1      40.172  30.444  30.180  1.00  0.00     0.037 A 
ATOM     54  C   UNL A   1      45.890  29.913  27.006  1.00  0.00     0.049 A 
ATOM     55  C   UNL A   1      41.284  31.411  29.877  1.00  0.00     0.074 A 
ATOM     56  C   UNL A   1      46.802  30.917  26.737  1.00  0.00     0.029 A 
ATOM     57  N   UNL A   1      44.855  30.493  27.727  1.00  0.00    -0.354 N 
ATOM     58  N   UNL A   1      42.397  31.211  29.211  1.00  0.00    -0.248 NA
ATOM     59  C   UNL A   1      41.126  32.782  30.382  1.00  0.00     0.031 C 
ATOM     60  C   UNL A   1      46.342  32.095  27.335  1.00  0.00     0.029 A 
ATOM     61  C   UNL A   1      45.119  31.836  27.936  1.00  0.00     0.049 A 
ATOM     62  H   UNL A   1      44.052  30.020  28.043  1.00  0.00     0.167 HD
ATOM     63  C   UNL A   1      43.060  32.430  29.198  1.00  0.00     0.074 A 
ATOM     64  C   UNL A   1      42.216  33.370  29.908  1.00  0.00     0.031 C 
ATOM     65  C   UNL A   1      44.260  32.747  28.648  1.00  0.00     0.037 A 
BRANCH  52  66
ATOM     66  C   UNL A   1      47.156  28.020  25.909  1.00  0.00     0.064 A 
ATOM     67  C   UNL A   1      47.164  27.884  24.512  1.00  0.00     0.173 A 
ATOM     68  C   UNL A   1      48.328  27.689  26.606  1.00  0.00     0.173 A 
ATOM     69  F   UNL A   1      46.066  28.172  23.798  1.00  0.00    -0.203 F 
ATOM     70  C   UNL A   1      48.293  27.413  23.844  1.00  0.00     0.198 A 
ATOM     71  C   UNL A   1      49.462  27.243  25.933  1.00  0.00     0.198 A 
ATOM     72  F   UNL A   1      48.373  27.802  27.942  1.00  0.00    -0.203 F 
ATOM     73  F   UNL A   1      48.262  27.246  22.515  1.00  0.00    -0.200 F 
ATOM     74  C   UNL A   1      49.442  27.098  24.554  1.00  0.00     0.200 A 
ATOM     75  F   UNL A   1      50.574  26.947  26.620  1.00  0.00    -0.200 F 
ATOM     76  F   UNL A   1      50.526  26.646  23.911  1.00  0.00    -0.200 F 
ENDBRANCH  52  66
BRANCH  53  77
ATOM     77  C   UNL A   1      38.968  30.866  30.940  1.00  0.00     0.064 A 
ATOM     78  C   UNL A   1      37.847  31.394  30.287  1.00  0.00     0.173 A 
ATOM     79  C   UNL A   1      38.913  30.744  32.337  1.00  0.00     0.173 A 
ATOM     80  F   UNL A   1      37.859  31.549  28.955  1.00  0.00    -0.203 F 
ATOM     81  C   UNL A   1      36.720  31.797  31.002  1.00  0.00     0.198 A 
ATOM     82  C   UNL A   1      37.777  31.123  33.048  1.00  0.00     0.198 A 
ATOM     83  F   UNL A   1      39.960  30.244  33.009  1.00  0.00    -0.203 F 
ATOM     84  F   UNL A   1      35.677  32.335  30.357  1.00  0.00    -0.200 F 
ATOM     85  C   UNL A   1      36.684  31.655  32.382  1.00  0.00     0.200 A 
ATOM     86  F   UNL A   1      37.742  30.972  34.379  1.00  0.00    -0.200 F 
ATOM     87  F   UNL A   1      35.599  32.037  33.069  1.00  0.00    -0.200 F 
ENDBRANCH  53  77
BRANCH  65  88
ATOM     88  C   UNL A   1      44.716  34.170  28.779  1.00  0.00     0.064 A 
ATOM     89  C   UNL A   1      45.523  34.586  29.847  1.00  0.00     0.173 A 
ATOM     90  C   UNL A   1      44.376  35.118  27.801  1.00  0.00     0.173 A 
ATOM     91  F   UNL A   1      45.861  33.719  30.814  1.00  0.00    -0.203 F 
ATOM     92  C   UNL A   1      45.956  35.905  29.944  1.00  0.00     0.198 A 
ATOM     93  C   UNL A   1      44.835  36.428  27.886  1.00  0.00     0.198 A 
ATOM     94  F   UNL A   1      43.612  34.767  26.756  1.00  0.00    -0.203 F 
ATOM     95  F   UNL A   1      46.690  36.291  30.996  1.00  0.00    -0.200 F 
ATOM     96  C   UNL A   1      45.618  36.823  28.960  1.00  0.00     0.200 A 
ATOM     97  F   UNL A   1      44.519  37.311  26.928  1.00  0.00    -0.200 F 
ATOM     98  F   UNL A   1      46.043  38.091  29.051  1.00  0.00    -0.200 F 
ENDBRANCH  65  88
ENDBRANCH  39  40
ENDBRANCH  32  34
ENDBRANCH  31  32
ENDBRANCH  30  31
ENDBRANCH  29  30
ENDBRANCH  28  29
ENDBRANCH   1  28
TORSDOF 18
ENDMDL
MODEL 2
REMARK VINA RESULT:     -12.1      4.040      9.361
REMARK SMILES COc1ccc2c(CC(=O)OCCOCCOC(=O)c3ccc(-c4c5nc(c(-c6c(F)c(F)c(F)c(F)c6F)c6ccc([nH]6)c(-c6c(F)c(F)c(F)c(F)c6F)c6nc(c(-c7c(F)c(F)c(F)c(F)c7F)c7ccc4[nH]7)C=C6)C=C5)cc3)c(C(=O)c3cc(C)ccn3)[nH]c2c1
REMARK SMILES IDX 13 1 12 2 11 3 9 4 10 5 8 6 7 7 3 8 4 9 95 10 5 11 94 12
REMARK SMILES IDX 6 13 93 14 83 15 2 17 1 18 84 19 85 20 86 21 87 22 92 23
REMARK SMILES IDX 88 24 91 25 89 26 90 27 14 28 15 29 16 30 17 31 18 32 19 33
REMARK SMILES IDX 20 34 21 35 82 36 22 37 81 38 23 39 24 40 25 41 75 42 26 43
REMARK SMILES IDX 80 44 74 45 76 46 27 47 79 48 73 49 72 50 28 52 60 53 40 54
REMARK SMILES IDX 59 55 41 56 44 57 58 58 77 59 42 60 43 61 57 63 78 64 45 65
REMARK SMILES IDX 29 66 30 67 38 68 31 69 32 70 36 71 39 72 33 73 34 74 37 75
REMARK SMILES IDX 35 76 61 77 62 78 70 79 63 80 64 81 68 82 71 83 65 84 66 85
REMARK SMILES IDX 69 86 67 87 46 88 47 89 55 90 48 91 49 92 53 93 56 94 50 95
REMARK SMILES IDX 51 96 54 97 52 98
REMARK H PARENT 93 16 76 51 44 62
REMARK Flexibility Score: inf
ROOT
ATOM      1  C   UNL A   1      31.625  25.979  26.499  1.00  0.00     0.202 C 
ENDROOT
BRANCH   1   2
ATOM      2  C   UNL A   1      32.921  25.444  25.870  1.00  0.00     0.261 C 
BRANCH   2   3
ATOM      3  O   UNL A   1      33.290  24.119  26.308  1.00  0.00    -0.463 OA
BRANCH   3   4
ATOM      4  C   UNL A   1      32.653  23.103  25.662  1.00  0.00     0.310 C 
ATOM      5  O   UNL A   1      31.529  22.703  25.963  1.00  0.00    -0.252 OA
BRANCH   4   6
ATOM      6  C   UNL A   1      33.372  22.547  24.449  1.00  0.00     0.161 C 
BRANCH   6   7
ATOM      7  C   UNL A   1      34.266  21.349  24.631  1.00  0.00     0.000 A 
ATOM      8  C   UNL A   1      33.589  17.195  24.414  1.00  0.00     0.120 A 
ATOM      9  C   UNL A   1      32.444  17.986  24.370  1.00  0.00     0.047 A 
ATOM     10  C   UNL A   1      34.844  17.769  24.635  1.00  0.00     0.073 A 
ATOM     11  C   UNL A   1      32.538  19.382  24.482  1.00  0.00     0.014 A 
ATOM     12  C   UNL A   1      34.922  19.167  24.708  1.00  0.00     0.050 A 
ATOM     13  C   UNL A   1      33.805  19.988  24.620  1.00  0.00     0.004 A 
ATOM     14  N   UNL A   1      36.014  19.988  24.847  1.00  0.00    -0.351 N 
ATOM     15  C   UNL A   1      35.669  21.309  24.642  1.00  0.00     0.093 A 
ATOM     16  H   UNL A   1      36.923  19.676  25.065  1.00  0.00     0.167 HD
BRANCH   8  17
ATOM     17  O   UNL A   1      33.575  15.829  24.292  1.00  0.00    -0.497 OA
ATOM     18  C   UNL A   1      32.924  15.157  25.370  1.00  0.00     0.278 C 
ENDBRANCH   8  17
BRANCH  15  19
ATOM     19  C   UNL A   1      36.627  22.405  24.464  1.00  0.00     0.227 C 
ATOM     20  O   UNL A   1      36.525  23.250  23.579  1.00  0.00    -0.285 OA
BRANCH  19  21
ATOM     21  C   UNL A   1      37.766  22.556  25.423  1.00  0.00     0.113 A 
ATOM     22  C   UNL A   1      37.925  23.694  26.201  1.00  0.00     0.036 A 
ATOM     23  N   UNL A   1      38.627  21.507  25.455  1.00  0.00    -0.253 NA
ATOM     24  C   UNL A   1      39.045  23.765  27.038  1.00  0.00    -0.047 A 
ATOM     25  C   UNL A   1      39.703  21.602  26.254  1.00  0.00     0.112 A 
ATOM     26  C   UNL A   1      39.287  24.940  27.935  1.00  0.00     0.044 C 
ATOM     27  C   UNL A   1      39.955  22.700  27.052  1.00  0.00     0.023 A 
ENDBRANCH  19  21
ENDBRANCH  15  19
ENDBRANCH   6   7
ENDBRANCH   4   6
ENDBRANCH   3   4
ENDBRANCH   2   3
ENDBRANCH   1   2
BRANCH   1  28
ATOM     28  O   UNL A   1      31.664  27.270  27.102  1.00  0.00    -0.374 OA
BRANCH  28  29
ATOM     29  C   UNL A   1      31.716  28.396  26.231  1.00  0.00     0.202 C 
BRANCH  29  30
ATOM     30  C   UNL A   1      31.991  29.759  26.871  1.00  0.00     0.261 C 
BRANCH  30  31
ATOM     31  O   UNL A   1      33.205  30.385  26.462  1.00  0.00    -0.460 OA
BRANCH  31  32
ATOM     32  C   UNL A   1      33.638  31.358  27.288  1.00  0.00     0.338 C 
ATOM     33  O   UNL A   1      33.042  32.343  27.696  1.00  0.00    -0.246 OA
BRANCH  32  34
ATOM     34  C   UNL A   1      34.995  31.017  27.707  1.00  0.00     0.060 A 
ATOM     35  C   UNL A   1      35.317  29.670  27.890  1.00  0.00     0.016 A 
ATOM     36  C   UNL A   1      35.904  32.035  27.999  1.00  0.00     0.016 A 
ATOM     37  C   UNL A   1      36.555  29.337  28.428  1.00  0.00     0.010 A 
ATOM     38  C   UNL A   1      37.146  31.699  28.532  1.00  0.00     0.010 A 
ATOM     39  C   UNL A   1      37.457  30.352  28.784  1.00  0.00    -0.014 A 
BRANCH  39  40
ATOM     40  C   UNL A   1      38.669  30.000  29.552  1.00  0.00     0.031 A 
ATOM     41  C   UNL A   1      38.818  30.522  30.951  1.00  0.00     0.074 A 
ATOM     42  C   UNL A   1      39.597  29.195  29.010  1.00  0.00     0.049 A 
ATOM     43  N   UNL A   1      39.779  30.319  31.815  1.00  0.00    -0.248 NA
ATOM     44  C   UNL A   1      37.738  31.391  31.447  1.00  0.00     0.031 C 
ATOM     45  C   UNL A   1      39.533  28.626  27.665  1.00  0.00     0.029 A 
ATOM     46  N   UNL A   1      40.772  28.716  29.526  1.00  0.00    -0.354 N 
ATOM     47  C   UNL A   1      39.418  31.030  32.952  1.00  0.00     0.074 A 
ATOM     48  C   UNL A   1      38.172  31.702  32.659  1.00  0.00     0.031 C 
ATOM     49  C   UNL A   1      40.623  27.868  27.461  1.00  0.00     0.029 A 
ATOM     50  C   UNL A   1      41.469  27.921  28.652  1.00  0.00     0.049 A 
ATOM     51  H   UNL A   1      41.085  28.921  30.436  1.00  0.00     0.167 HD
ATOM     52  C   UNL A   1      40.068  31.102  34.138  1.00  0.00     0.037 A 
ATOM     53  C   UNL A   1      42.663  27.316  28.800  1.00  0.00     0.037 A 
ATOM     54  C   UNL A   1      41.310  30.431  34.414  1.00  0.00     0.049 A 
ATOM     55  C   UNL A   1      43.387  27.452  30.111  1.00  0.00     0.074 A 
ATOM     56  C   UNL A   1      42.045  30.417  35.585  1.00  0.00     0.029 A 
ATOM     57  N   UNL A   1      42.004  29.657  33.494  1.00  0.00    -0.354 N 
ATOM     58  N   UNL A   1      43.022  28.093  31.197  1.00  0.00    -0.248 NA
ATOM     59  C   UNL A   1      44.689  26.779  30.222  1.00  0.00     0.031 C 
ATOM     60  C   UNL A   1      43.208  29.672  35.360  1.00  0.00     0.029 A 
ATOM     61  C   UNL A   1      43.174  29.182  34.063  1.00  0.00     0.049 A 
ATOM     62  H   UNL A   1      41.710  29.473  32.573  1.00  0.00     0.167 HD
ATOM     63  C   UNL A   1      44.033  27.883  32.124  1.00  0.00     0.074 A 
ATOM     64  C   UNL A   1      45.021  27.041  31.478  1.00  0.00     0.031 C 
ATOM     65  C   UNL A   1      44.139  28.346  33.395  1.00  0.00     0.037 A 
BRANCH  52  66
ATOM     66  C   UNL A   1      39.455  31.951  35.212  1.00  0.00     0.064 A 
ATOM     67  C   UNL A   1      39.703  33.330  35.291  1.00  0.00     0.173 A 
ATOM     68  C   UNL A   1      38.592  31.385  36.162  1.00  0.00     0.173 A 
ATOM     69  F   UNL A   1      40.531  33.919  34.417  1.00  0.00    -0.203 F 
ATOM     70  C   UNL A   1      39.129  34.106  36.297  1.00  0.00     0.198 A 
ATOM     71  C   UNL A   1      38.000  32.167  37.151  1.00  0.00     0.198 A 
ATOM     72  F   UNL A   1      38.321  30.072  36.131  1.00  0.00    -0.203 F 
ATOM     73  F   UNL A   1      39.417  35.411  36.382  1.00  0.00    -0.200 F 
ATOM     74  C   UNL A   1      38.274  33.524  37.222  1.00  0.00     0.200 A 
ATOM     75  F   UNL A   1      37.167  31.605  38.038  1.00  0.00    -0.200 F 
ATOM     76  F   UNL A   1      37.721  34.271  38.188  1.00  0.00    -0.200 F 
ENDBRANCH  52  66
BRANCH  53  77
ATOM     77  C   UNL A   1      43.234  26.524  27.680  1.00  0.00     0.064 A 
ATOM     78  C   UNL A   1      43.974  27.139  26.662  1.00  0.00     0.173 A 
ATOM     79  C   UNL A   1      43.055  25.135  27.610  1.00  0.00     0.173 A 
ATOM     80  F   UNL A   1      44.155  28.468  26.675  1.00  0.00    -0.203 F 
ATOM     81  C   UNL A   1      44.503  26.397  25.608  1.00  0.00     0.198 A 
ATOM     82  C   UNL A   1      43.606  24.390  26.569  1.00  0.00     0.198 A 
ATOM     83  F   UNL A   1      42.354  24.498  28.559  1.00  0.00    -0.203 F 
ATOM     84  F   UNL A   1      45.174  27.015  24.626  1.00  0.00    -0.200 F 
ATOM     85  C   UNL A   1      44.324  25.021  25.566  1.00  0.00     0.200 A 
ATOM     86  F   UNL A   1      43.440  23.060  26.540  1.00  0.00    -0.200 F 
ATOM     87  F   UNL A   1      44.837  24.307  24.555  1.00  0.00    -0.200 F 
ENDBRANCH  53  77
BRANCH  65  88
ATOM     88  C   UNL A   1      45.353  27.932  34.173  1.00  0.00     0.064 A 
ATOM     89  C   UNL A   1      46.518  28.712  34.181  1.00  0.00     0.173 A 
ATOM     90  C   UNL A   1      45.335  26.765  34.952  1.00  0.00     0.173 A 
ATOM     91  F   UNL A   1      46.588  29.828  33.440  1.00  0.00    -0.203 F 
ATOM     92  C   UNL A   1      47.630  28.327  34.925  1.00  0.00     0.198 A 
ATOM     93  C   UNL A   1      46.437  26.399  35.717  1.00  0.00     0.198 A 
ATOM     94  F   UNL A   1      44.240  25.990  34.982  1.00  0.00    -0.203 F 
ATOM     95  F   UNL A   1      48.748  29.064  34.884  1.00  0.00    -0.200 F 
ATOM     96  C   UNL A   1      47.586  27.175  35.697  1.00  0.00     0.200 A 
ATOM     97  F   UNL A   1      46.389  25.293  36.472  1.00  0.00    -0.200 F 
ATOM     98  F   UNL A   1      48.655  26.810  36.419  1.00  0.00    -0.200 F 
ENDBRANCH  65  88
ENDBRANCH  39  40
ENDBRANCH  32  34
ENDBRANCH  31  32
ENDBRANCH  30  31
ENDBRANCH  29  30
ENDBRANCH  28  29
ENDBRANCH   1  28
TORSDOF 18
ENDMDL
MODEL 3
REMARK VINA RESULT:     -12.1      4.962      8.901
REMARK SMILES COc1ccc2c(CC(=O)OCCOCCOC(=O)c3ccc(-c4c5nc(c(-c6c(F)c(F)c(F)c(F)c6F)c6ccc([nH]6)c(-c6c(F)c(F)c(F)c(F)c6F)c6nc(c(-c7c(F)c(F)c(F)c(F)c7F)c7ccc4[nH]7)C=C6)C=C5)cc3)c(C(=O)c3cc(C)ccn3)[nH]c2c1
REMARK SMILES IDX 13 1 12 2 11 3 9 4 10 5 8 6 7 7 3 8 4 9 95 10 5 11 94 12
REMARK SMILES IDX 6 13 93 14 83 15 2 17 1 18 84 19 85 20 86 21 87 22 92 23
REMARK SMILES IDX 88 24 91 25 89 26 90 27 14 28 15 29 16 30 17 31 18 32 19 33
REMARK SMILES IDX 20 34 21 35 82 36 22 37 81 38 23 39 24 40 25 41 75 42 26 43
REMARK SMILES IDX 80 44 74 45 76 46 27 47 79 48 73 49 72 50 28 52 60 53 40 54
REMARK SMILES IDX 59 55 41 56 44 57 58 58 77 59 42 60 43 61 57 63 78 64 45 65
REMARK SMILES IDX 29 66 30 67 38 68 31 69 32 70 36 71 39 72 33 73 34 74 37 75
REMARK SMILES IDX 35 76 61 77 62 78 70 79 63 80 64 81 68 82 71 83 65 84 66 85
REMARK SMILES IDX 69 86 67 87 46 88 47 89 55 90 48 91 49 92 53 93 56 94 50 95
REMARK SMILES IDX 51 96 54 97 52 98
REMARK H PARENT 93 16 76 51 44 62
REMARK Flexibility Score: inf
ROOT
ATOM      1  C   UNL A   1      33.186  30.997  27.277  1.00  0.00     0.202 C 
ENDROOT
BRANCH   1   2
ATOM      2  C   UNL A   1      33.819  29.707  26.730  1.00  0.00     0.261 C 
BRANCH   2   3
ATOM      3  O   UNL A   1      33.693  28.567  27.606  1.00  0.00    -0.463 OA
BRANCH   3   4
ATOM      4  C   UNL A   1      32.514  27.892  27.503  1.00  0.00     0.310 C 
ATOM      5  O   UNL A   1      31.503  28.185  28.140  1.00  0.00    -0.252 OA
BRANCH   4   6
ATOM      6  C   UNL A   1      32.476  26.800  26.452  1.00  0.00     0.161 C 
BRANCH   6   7
ATOM      7  C   UNL A   1      31.202  26.592  25.677  1.00  0.00     0.000 A 
ATOM      8  C   UNL A   1      29.255  28.838  22.689  1.00  0.00     0.120 A 
ATOM      9  C   UNL A   1      30.334  29.473  23.300  1.00  0.00     0.047 A 
ATOM     10  C   UNL A   1      28.807  27.595  23.144  1.00  0.00     0.073 A 
ATOM     11  C   UNL A   1      31.032  28.844  24.342  1.00  0.00     0.014 A 
ATOM     12  C   UNL A   1      29.540  26.967  24.162  1.00  0.00     0.050 A 
ATOM     13  C   UNL A   1      30.650  27.551  24.760  1.00  0.00     0.004 A 
ATOM     14  N   UNL A   1      29.372  25.735  24.744  1.00  0.00    -0.351 N 
ATOM     15  C   UNL A   1      30.451  25.415  25.544  1.00  0.00     0.093 A 
ATOM     16  H   UNL A   1      28.586  25.157  24.610  1.00  0.00     0.167 HD
BRANCH   8  17
ATOM     17  O   UNL A   1      28.540  29.383  21.652  1.00  0.00    -0.497 OA
ATOM     18  C   UNL A   1      28.609  30.807  21.586  1.00  0.00     0.278 C 
ENDBRANCH   8  17
BRANCH  15  19
ATOM     19  C   UNL A   1      30.711  24.084  26.101  1.00  0.00     0.227 C 
ATOM     20  O   UNL A   1      30.178  23.668  27.127  1.00  0.00    -0.285 OA
BRANCH  19  21
ATOM     21  C   UNL A   1      31.627  23.145  25.381  1.00  0.00     0.113 A 
ATOM     22  C   UNL A   1      32.667  23.602  24.583  1.00  0.00     0.036 A 
ATOM     23  N   UNL A   1      31.349  21.829  25.558  1.00  0.00    -0.253 NA
ATOM     24  C   UNL A   1      33.446  22.650  23.913  1.00  0.00    -0.047 A 
ATOM     25  C   UNL A   1      32.098  20.932  24.893  1.00  0.00     0.112 A 
ATOM     26  C   UNL A   1      34.607  23.045  23.051  1.00  0.00     0.044 C 
ATOM     27  C   UNL A   1      33.143  21.291  24.065  1.00  0.00     0.023 A 
ENDBRANCH  19  21
ENDBRANCH  15  19
ENDBRANCH   6   7
ENDBRANCH   4   6
ENDBRANCH   3   4
ENDBRANCH   2   3
ENDBRANCH   1   2
BRANCH   1  28
ATOM     28  O   UNL A   1      31.861  31.317  26.856  1.00  0.00    -0.374 OA
BRANCH  28  29
ATOM     29  C   UNL A   1      31.541  32.696  26.704  1.00  0.00     0.202 C 
BRANCH  29  30
ATOM     30  C   UNL A   1      32.598  33.709  27.151  1.00  0.00     0.261 C 
BRANCH  30  31
ATOM     31  O   UNL A   1      32.263  34.456  28.319  1.00  0.00    -0.460 OA
BRANCH  31  32
ATOM     32  C   UNL A   1      33.256  35.237  28.786  1.00  0.00     0.338 C 
ATOM     33  O   UNL A   1      33.288  36.452  28.908  1.00  0.00    -0.246 OA
BRANCH  32  34
ATOM     34  C   UNL A   1      34.347  34.365  29.213  1.00  0.00     0.060 A 
ATOM     35  C   UNL A   1      34.073  33.366  30.150  1.00  0.00     0.016 A 
ATOM     36  C   UNL A   1      35.643  34.602  28.753  1.00  0.00     0.016 A 
ATOM     37  C   UNL A   1      35.123  32.624  30.676  1.00  0.00     0.010 A 
ATOM     38  C   UNL A   1      36.694  33.854  29.277  1.00  0.00     0.010 A 
ATOM     39  C   UNL A   1      36.440  32.892  30.269  1.00  0.00    -0.014 A 
BRANCH  39  40
ATOM     40  C   UNL A   1      37.560  32.255  30.991  1.00  0.00     0.031 A 
ATOM     41  C   UNL A   1      38.323  31.151  30.317  1.00  0.00     0.074 A 
ATOM     42  C   UNL A   1      37.906  32.691  32.213  1.00  0.00     0.049 A 
ATOM     43  N   UNL A   1      39.354  30.472  30.748  1.00  0.00    -0.248 NA
ATOM     44  C   UNL A   1      37.861  30.758  28.976  1.00  0.00     0.031 C 
ATOM     45  C   UNL A   1      37.236  33.766  32.942  1.00  0.00     0.029 A 
ATOM     46  N   UNL A   1      38.907  32.282  33.054  1.00  0.00    -0.354 N 
ATOM     47  C   UNL A   1      39.665  29.577  29.732  1.00  0.00     0.074 A 
ATOM     48  C   UNL A   1      38.693  29.770  28.680  1.00  0.00     0.031 C 
ATOM     49  C   UNL A   1      37.849  33.937  34.125  1.00  0.00     0.029 A 
ATOM     50  C   UNL A   1      38.936  32.967  34.242  1.00  0.00     0.049 A 
ATOM     51  H   UNL A   1      39.545  31.568  32.827  1.00  0.00     0.167 HD
ATOM     52  C   UNL A   1      40.683  28.685  29.682  1.00  0.00     0.037 A 
ATOM     53  C   UNL A   1      39.746  32.815  35.307  1.00  0.00     0.037 A 
ATOM     54  C   UNL A   1      41.641  28.502  30.739  1.00  0.00     0.049 A 
ATOM     55  C   UNL A   1      40.838  31.781  35.245  1.00  0.00     0.074 A 
ATOM     56  C   UNL A   1      42.724  27.643  30.788  1.00  0.00     0.029 A 
ATOM     57  N   UNL A   1      41.623  29.193  31.943  1.00  0.00    -0.354 N 
ATOM     58  N   UNL A   1      41.152  30.965  34.266  1.00  0.00    -0.248 NA
ATOM     59  C   UNL A   1      41.691  31.648  36.433  1.00  0.00     0.031 C 
ATOM     60  C   UNL A   1      43.333  27.780  32.039  1.00  0.00     0.029 A 
ATOM     61  C   UNL A   1      42.660  28.760  32.753  1.00  0.00     0.049 A 
ATOM     62  H   UNL A   1      40.969  29.888  32.186  1.00  0.00     0.167 HD
ATOM     63  C   UNL A   1      42.249  30.240  34.709  1.00  0.00     0.074 A 
ATOM     64  C   UNL A   1      42.557  30.724  36.040  1.00  0.00     0.031 C 
ATOM     65  C   UNL A   1      42.941  29.260  34.074  1.00  0.00     0.037 A 
BRANCH  52  66
ATOM     66  C   UNL A   1      40.793  27.830  28.455  1.00  0.00     0.064 A 
ATOM     67  C   UNL A   1      40.142  26.590  28.361  1.00  0.00     0.173 A 
ATOM     68  C   UNL A   1      41.541  28.262  27.350  1.00  0.00     0.173 A 
ATOM     69  F   UNL A   1      39.426  26.123  29.394  1.00  0.00    -0.203 F 
ATOM     70  C   UNL A   1      40.256  25.804  27.216  1.00  0.00     0.198 A 
ATOM     71  C   UNL A   1      41.632  27.487  26.197  1.00  0.00     0.198 A 
ATOM     72  F   UNL A   1      42.182  29.440  27.387  1.00  0.00    -0.203 F 
ATOM     73  F   UNL A   1      39.665  24.603  27.167  1.00  0.00    -0.200 F 
ATOM     74  C   UNL A   1      40.997  26.256  26.133  1.00  0.00     0.200 A 
ATOM     75  F   UNL A   1      42.341  27.928  25.148  1.00  0.00    -0.200 F 
ATOM     76  F   UNL A   1      41.105  25.501  25.032  1.00  0.00    -0.200 F 
ENDBRANCH  52  66
BRANCH  53  77
ATOM     77  C   UNL A   1      39.556  33.666  36.509  1.00  0.00     0.064 A 
ATOM     78  C   UNL A   1      40.148  34.932  36.601  1.00  0.00     0.173 A 
ATOM     79  C   UNL A   1      38.772  33.231  37.588  1.00  0.00     0.173 A 
ATOM     80  F   UNL A   1      40.923  35.383  35.604  1.00  0.00    -0.203 F 
ATOM     81  C   UNL A   1      39.976  35.727  37.733  1.00  0.00     0.198 A 
ATOM     82  C   UNL A   1      38.579  34.037  38.708  1.00  0.00     0.198 A 
ATOM     83  F   UNL A   1      38.183  32.027  37.549  1.00  0.00    -0.203 F 
ATOM     84  F   UNL A   1      40.585  36.917  37.813  1.00  0.00    -0.200 F 
ATOM     85  C   UNL A   1      39.185  35.281  38.783  1.00  0.00     0.200 A 
ATOM     86  F   UNL A   1      37.805  33.607  39.714  1.00  0.00    -0.200 F 
ATOM     87  F   UNL A   1      39.016  36.047  39.869  1.00  0.00    -0.200 F 
ENDBRANCH  53  77
BRANCH  65  88
ATOM     88  C   UNL A   1      44.107  28.665  34.806  1.00  0.00     0.064 A 
ATOM     89  C   UNL A   1      43.977  27.491  35.561  1.00  0.00     0.173 A 
ATOM     90  C   UNL A   1      45.378  29.253  34.715  1.00  0.00     0.173 A 
ATOM     91  F   UNL A   1      42.779  26.901  35.689  1.00  0.00    -0.203 F 
ATOM     92  C   UNL A   1      45.073  26.938  36.217  1.00  0.00     0.198 A 
ATOM     93  C   UNL A   1      46.477  28.682  35.348  1.00  0.00     0.198 A 
ATOM     94  F   UNL A   1      45.555  30.373  33.999  1.00  0.00    -0.203 F 
ATOM     95  F   UNL A   1      44.917  25.840  36.968  1.00  0.00    -0.200 F 
ATOM     96  C   UNL A   1      46.323  27.530  36.104  1.00  0.00     0.200 A 
ATOM     97  F   UNL A   1      47.686  29.247  35.228  1.00  0.00    -0.200 F 
ATOM     98  F   UNL A   1      47.379  26.991  36.730  1.00  0.00    -0.200 F 
ENDBRANCH  65  88
ENDBRANCH  39  40
ENDBRANCH  32  34
ENDBRANCH  31  32
ENDBRANCH  30  31
ENDBRANCH  29  30
ENDBRANCH  28  29
ENDBRANCH   1  28
TORSDOF 18
ENDMDL
