MODEL 1
REMARK VINA RESULT:     -11.9      0.000      0.000
REMARK SMILES C[C@H]1CC[C@@H](C2(C(=O)OCCOCCOC(=O)c3ccc(-c4c5nc(c(-c6c(F)c(F)c(F)c(F)c6F)c6ccc([nH]6)c(-c6c(F)c(F)c(F)c(F)c6F)c6nc(c(-c7c(F)c(F)c(F)c(F)c7F)c7ccc4[nH]7)C=C6)C=C5)cc3)CCCCC2)C[C@@H]1C
REMARK SMILES IDX 13 1 12 2 11 3 10 4 9 5 7 6 8 7 6 8 81 9 85 10 82 11 84 12
REMARK SMILES IDX 83 13 5 14 1 15 2 16 3 17 87 18 4 19 86 20 88 21 14 22 15 23
REMARK SMILES IDX 16 24 17 25 18 26 19 27 80 28 20 29 79 30 21 31 22 32 23 33
REMARK SMILES IDX 73 34 24 35 78 36 72 37 74 38 25 39 77 40 71 41 70 42 26 44
REMARK SMILES IDX 58 45 38 46 57 47 39 48 42 49 56 50 75 51 40 52 41 53 55 55
REMARK SMILES IDX 76 56 43 57 27 58 28 59 36 60 29 61 30 62 34 63 37 64 31 65
REMARK SMILES IDX 32 66 35 67 33 68 59 69 60 70 68 71 61 72 62 73 66 74 69 75
REMARK SMILES IDX 63 76 64 77 67 78 65 79 44 80 45 81 53 82 46 83 47 84 51 85
REMARK SMILES IDX 54 86 48 87 49 88 52 89 50 90
REMARK H PARENT 74 43 42 54
REMARK Flexibility Score: inf
ROOT
ATOM      1  C   UNL A   1      31.724  29.595  25.135  1.00  0.00     0.202 C 
ENDROOT
BRANCH   1   2
ATOM      2  O   UNL A   1      32.824  29.394  24.256  1.00  0.00    -0.374 OA
BRANCH   2   3
ATOM      3  C   UNL A   1      33.715  28.314  24.538  1.00  0.00     0.202 C 
BRANCH   3   4
ATOM      4  C   UNL A   1      33.375  26.893  24.080  1.00  0.00     0.261 C 
BRANCH   4   5
ATOM      5  O   UNL A   1      34.311  25.910  24.573  1.00  0.00    -0.463 OA
BRANCH   5   6
ATOM      6  C   UNL A   1      34.522  24.881  23.706  1.00  0.00     0.312 C 
ATOM      7  O   UNL A   1      34.249  25.007  22.528  1.00  0.00    -0.252 OA
BRANCH   6   8
ATOM      8  C   UNL A   1      35.090  23.598  24.350  1.00  0.00     0.071 C 
ATOM      9  C   UNL A   1      35.908  24.077  25.583  1.00  0.00     0.019 C 
ATOM     10  C   UNL A   1      36.113  22.953  23.356  1.00  0.00     0.019 C 
ATOM     11  C   UNL A   1      36.758  22.977  26.224  1.00  0.00     0.001 C 
ATOM     12  C   UNL A   1      36.956  21.835  23.966  1.00  0.00     0.001 C 
ATOM     13  C   UNL A   1      37.687  22.305  25.218  1.00  0.00     0.000 C 
BRANCH   8  14
ATOM     14  C   UNL A   1      33.965  22.536  24.811  1.00  0.00     0.007 C 
ATOM     15  C   UNL A   1      30.313  24.323  23.326  1.00  0.00     0.008 C 
ATOM     16  C   UNL A   1      31.072  23.212  24.082  1.00  0.00    -0.011 C 
ATOM     17  C   UNL A   1      32.080  22.595  23.107  1.00  0.00     0.004 C 
ATOM     18  C   UNL A   1      31.691  23.753  25.395  1.00  0.00    -0.011 C 
ATOM     19  C   UNL A   1      33.203  21.784  23.709  1.00  0.00     0.005 C 
ATOM     20  C   UNL A   1      32.918  22.957  25.884  1.00  0.00     0.008 C 
ATOM     21  C   UNL A   1      30.633  23.919  26.487  1.00  0.00     0.008 C 
ENDBRANCH   8  14
ENDBRANCH   6   8
ENDBRANCH   5   6
ENDBRANCH   4   5
ENDBRANCH   3   4
ENDBRANCH   2   3
ENDBRANCH   1   2
BRANCH   1  22
ATOM     22  C   UNL A   1      31.776  30.698  26.193  1.00  0.00     0.261 C 
BRANCH  22  23
ATOM     23  O   UNL A   1      32.818  30.460  27.128  1.00  0.00    -0.460 OA
BRANCH  23  24
ATOM     24  C   UNL A   1      33.475  31.596  27.451  1.00  0.00     0.338 C 
ATOM     25  O   UNL A   1      33.014  32.715  27.601  1.00  0.00    -0.246 OA
BRANCH  24  26
ATOM     26  C   UNL A   1      34.840  31.230  27.838  1.00  0.00     0.060 A 
ATOM     27  C   UNL A   1      35.097  29.861  27.986  1.00  0.00     0.016 A 
ATOM     28  C   UNL A   1      35.848  32.186  27.999  1.00  0.00     0.016 A 
ATOM     29  C   UNL A   1      36.345  29.445  28.408  1.00  0.00     0.010 A 
ATOM     30  C   UNL A   1      37.098  31.771  28.441  1.00  0.00     0.010 A 
ATOM     31  C   UNL A   1      37.310  30.410  28.716  1.00  0.00    -0.014 A 
BRANCH  31  32
ATOM     32  C   UNL A   1      38.388  30.014  29.636  1.00  0.00     0.031 A 
ATOM     33  C   UNL A   1      39.418  29.057  29.105  1.00  0.00     0.074 A 
ATOM     34  C   UNL A   1      38.483  30.565  30.854  1.00  0.00     0.049 A 
ATOM     35  N   UNL A   1      40.470  28.557  29.691  1.00  0.00    -0.248 NA
ATOM     36  C   UNL A   1      39.235  28.601  27.713  1.00  0.00     0.031 C 
ATOM     37  C   UNL A   1      37.560  31.553  31.409  1.00  0.00     0.029 A 
ATOM     38  N   UNL A   1      39.414  30.374  31.837  1.00  0.00    -0.354 N 
ATOM     39  C   UNL A   1      41.062  27.724  28.749  1.00  0.00     0.074 A 
ATOM     40  C   UNL A   1      40.241  27.757  27.563  1.00  0.00     0.031 C 
ATOM     41  C   UNL A   1      37.972  31.882  32.644  1.00  0.00     0.029 A 
ATOM     42  C   UNL A   1      39.165  31.103  32.970  1.00  0.00     0.049 A 
ATOM     43  H   UNL A   1      40.187  29.772  31.739  1.00  0.00     0.167 HD
ATOM     44  C   UNL A   1      42.200  27.006  28.868  1.00  0.00     0.037 A 
ATOM     45  C   UNL A   1      39.830  31.112  34.139  1.00  0.00     0.037 A 
ATOM     46  C   UNL A   1      43.002  26.999  30.060  1.00  0.00     0.049 A 
ATOM     47  C   UNL A   1      41.056  30.245  34.269  1.00  0.00     0.074 A 
ATOM     48  C   UNL A   1      44.176  26.317  30.308  1.00  0.00     0.029 A 
ATOM     49  N   UNL A   1      42.700  27.719  31.209  1.00  0.00    -0.354 N 
ATOM     50  N   UNL A   1      41.619  29.463  33.376  1.00  0.00    -0.248 NA
ATOM     51  C   UNL A   1      41.745  30.270  35.564  1.00  0.00     0.031 C 
ATOM     52  C   UNL A   1      44.553  26.575  31.630  1.00  0.00     0.029 A 
ATOM     53  C   UNL A   1      43.653  27.476  32.181  1.00  0.00     0.049 A 
ATOM     54  H   UNL A   1      41.922  28.313  31.316  1.00  0.00     0.167 HD
ATOM     55  C   UNL A   1      42.749  28.936  33.987  1.00  0.00     0.074 A 
ATOM     56  C   UNL A   1      42.793  29.496  35.323  1.00  0.00     0.031 C 
ATOM     57  C   UNL A   1      43.671  28.071  33.494  1.00  0.00     0.037 A 
BRANCH  44  58
ATOM     58  C   UNL A   1      42.606  26.145  27.709  1.00  0.00     0.064 A 
ATOM     59  C   UNL A   1      42.056  24.871  27.494  1.00  0.00     0.173 A 
ATOM     60  C   UNL A   1      43.560  26.609  26.790  1.00  0.00     0.173 A 
ATOM     61  F   UNL A   1      41.161  24.368  28.357  1.00  0.00    -0.203 F 
ATOM     62  C   UNL A   1      42.461  24.088  26.415  1.00  0.00     0.198 A 
ATOM     63  C   UNL A   1      43.937  25.837  25.694  1.00  0.00     0.198 A 
ATOM     64  F   UNL A   1      44.125  27.814  26.952  1.00  0.00    -0.203 F 
ATOM     65  F   UNL A   1      41.960  22.855  26.259  1.00  0.00    -0.200 F 
ATOM     66  C   UNL A   1      43.394  24.575  25.512  1.00  0.00     0.200 A 
ATOM     67  F   UNL A   1      44.833  26.313  24.818  1.00  0.00    -0.200 F 
ATOM     68  F   UNL A   1      43.775  23.824  24.469  1.00  0.00    -0.200 F 
ENDBRANCH  44  58
BRANCH  45  69
ATOM     69  C   UNL A   1      39.351  31.954  35.265  1.00  0.00     0.064 A 
ATOM     70  C   UNL A   1      38.526  31.427  36.267  1.00  0.00     0.173 A 
ATOM     71  C   UNL A   1      39.697  33.311  35.355  1.00  0.00     0.173 A 
ATOM     72  F   UNL A   1      38.154  30.139  36.219  1.00  0.00    -0.203 F 
ATOM     73  C   UNL A   1      38.042  32.229  37.298  1.00  0.00     0.198 A 
ATOM     74  C   UNL A   1      39.238  34.105  36.404  1.00  0.00     0.198 A 
ATOM     75  F   UNL A   1      40.489  33.867  34.426  1.00  0.00    -0.203 F 
ATOM     76  F   UNL A   1      37.211  31.710  38.213  1.00  0.00    -0.200 F 
ATOM     77  C   UNL A   1      38.402  33.566  37.369  1.00  0.00     0.200 A 
ATOM     78  F   UNL A   1      39.603  35.392  36.477  1.00  0.00    -0.200 F 
ATOM     79  F   UNL A   1      37.936  34.336  38.362  1.00  0.00    -0.200 F 
ENDBRANCH  45  69
BRANCH  57  80
ATOM     80  C   UNL A   1      44.834  27.734  34.381  1.00  0.00     0.064 A 
ATOM     81  C   UNL A   1      46.002  28.510  34.400  1.00  0.00     0.173 A 
ATOM     82  C   UNL A   1      44.755  26.638  35.254  1.00  0.00     0.173 A 
ATOM     83  F   UNL A   1      46.128  29.561  33.577  1.00  0.00    -0.203 F 
ATOM     84  C   UNL A   1      47.063  28.178  35.236  1.00  0.00     0.198 A 
ATOM     85  C   UNL A   1      45.803  26.333  36.114  1.00  0.00     0.198 A 
ATOM     86  F   UNL A   1      43.654  25.873  35.282  1.00  0.00    -0.203 F 
ATOM     87  F   UNL A   1      48.194  28.897  35.195  1.00  0.00    -0.200 F 
ATOM     88  C   UNL A   1      46.960  27.096  36.097  1.00  0.00     0.200 A 
ATOM     89  F   UNL A   1      45.694  25.299  36.960  1.00  0.00    -0.200 F 
ATOM     90  F   UNL A   1      47.982  26.782  36.905  1.00  0.00    -0.200 F 
ENDBRANCH  57  80
ENDBRANCH  31  32
ENDBRANCH  24  26
ENDBRANCH  23  24
ENDBRANCH  22  23
ENDBRANCH   1  22
TORSDOF 15
ENDMDL
MODEL 2
REMARK VINA RESULT:     -11.9      4.138      9.578
REMARK SMILES C[C@H]1CC[C@@H](C2(C(=O)OCCOCCOC(=O)c3ccc(-c4c5nc(c(-c6c(F)c(F)c(F)c(F)c6F)c6ccc([nH]6)c(-c6c(F)c(F)c(F)c(F)c6F)c6nc(c(-c7c(F)c(F)c(F)c(F)c7F)c7ccc4[nH]7)C=C6)C=C5)cc3)CCCCC2)C[C@@H]1C
REMARK SMILES IDX 13 1 12 2 11 3 10 4 9 5 7 6 8 7 6 8 81 9 85 10 82 11 84 12
REMARK SMILES IDX 83 13 5 14 1 15 2 16 3 17 87 18 4 19 86 20 88 21 14 22 15 23
REMARK SMILES IDX 16 24 17 25 18 26 19 27 80 28 20 29 79 30 21 31 22 32 23 33
REMARK SMILES IDX 73 34 24 35 78 36 72 37 74 38 25 39 77 40 71 41 70 42 26 44
REMARK SMILES IDX 58 45 38 46 57 47 39 48 42 49 56 50 75 51 40 52 41 53 55 55
REMARK SMILES IDX 76 56 43 57 27 58 28 59 36 60 29 61 30 62 34 63 37 64 31 65
REMARK SMILES IDX 32 66 35 67 33 68 59 69 60 70 68 71 61 72 62 73 66 74 69 75
REMARK SMILES IDX 63 76 64 77 67 78 65 79 44 80 45 81 53 82 46 83 47 84 51 85
REMARK SMILES IDX 54 86 48 87 49 88 52 89 50 90
REMARK H PARENT 74 43 42 54
REMARK Flexibility Score: inf
ROOT
ATOM      1  C   UNL A   1      35.853  21.250  24.838  1.00  0.00     0.202 C 
ENDROOT
BRANCH   1   2
ATOM      2  O   UNL A   1      34.921  21.445  25.894  1.00  0.00    -0.374 OA
BRANCH   2   3
ATOM      3  C   UNL A   1      34.724  22.776  26.373  1.00  0.00     0.202 C 
BRANCH   3   4
ATOM      4  C   UNL A   1      33.411  23.512  26.089  1.00  0.00     0.261 C 
BRANCH   4   5
ATOM      5  O   UNL A   1      33.555  24.948  26.140  1.00  0.00    -0.463 OA
BRANCH   5   6
ATOM      6  C   UNL A   1      32.401  25.597  26.455  1.00  0.00     0.312 C 
ATOM      7  O   UNL A   1      31.464  24.985  26.931  1.00  0.00    -0.252 OA
BRANCH   6   8
ATOM      8  C   UNL A   1      32.398  27.108  26.137  1.00  0.00     0.071 C 
ATOM      9  C   UNL A   1      33.886  27.555  26.227  1.00  0.00     0.019 C 
ATOM     10  C   UNL A   1      31.635  27.857  27.280  1.00  0.00     0.019 C 
ATOM     11  C   UNL A   1      34.077  29.073  26.183  1.00  0.00     0.001 C 
ATOM     12  C   UNL A   1      31.791  29.376  27.243  1.00  0.00     0.001 C 
ATOM     13  C   UNL A   1      33.258  29.789  27.252  1.00  0.00     0.000 C 
BRANCH   8  14
ATOM     14  C   UNL A   1      31.796  27.477  24.684  1.00  0.00     0.007 C 
ATOM     15  C   UNL A   1      30.653  23.604  23.125  1.00  0.00     0.008 C 
ATOM     16  C   UNL A   1      30.796  25.136  22.989  1.00  0.00    -0.011 C 
ATOM     17  C   UNL A   1      29.992  25.777  24.125  1.00  0.00     0.004 C 
ATOM     18  C   UNL A   1      32.286  25.554  22.936  1.00  0.00    -0.011 C 
ATOM     19  C   UNL A   1      30.301  27.219  24.449  1.00  0.00     0.005 C 
ATOM     20  C   UNL A   1      32.549  26.999  23.407  1.00  0.00     0.008 C 
ATOM     21  C   UNL A   1      32.900  25.270  21.564  1.00  0.00     0.008 C 
ENDBRANCH   8  14
ENDBRANCH   6   8
ENDBRANCH   5   6
ENDBRANCH   4   5
ENDBRANCH   3   4
ENDBRANCH   2   3
ENDBRANCH   1   2
BRANCH   1  22
ATOM     22  C   UNL A   1      37.256  20.719  25.138  1.00  0.00     0.261 C 
BRANCH  22  23
ATOM     23  O   UNL A   1      38.185  21.783  25.283  1.00  0.00    -0.460 OA
BRANCH  23  24
ATOM     24  C   UNL A   1      39.221  21.442  26.081  1.00  0.00     0.338 C 
ATOM     25  O   UNL A   1      39.815  20.378  26.129  1.00  0.00    -0.246 OA
BRANCH  24  26
ATOM     26  C   UNL A   1      39.697  22.660  26.743  1.00  0.00     0.060 A 
ATOM     27  C   UNL A   1      39.012  23.842  26.434  1.00  0.00     0.016 A 
ATOM     28  C   UNL A   1      40.742  22.640  27.672  1.00  0.00     0.016 A 
ATOM     29  C   UNL A   1      39.444  25.038  26.973  1.00  0.00     0.010 A 
ATOM     30  C   UNL A   1      41.188  23.844  28.201  1.00  0.00     0.010 A 
ATOM     31  C   UNL A   1      40.583  25.041  27.785  1.00  0.00    -0.014 A 
BRANCH  31  32
ATOM     32  C   UNL A   1      41.322  26.309  27.902  1.00  0.00     0.031 A 
ATOM     33  C   UNL A   1      40.640  27.427  28.640  1.00  0.00     0.074 A 
ATOM     34  C   UNL A   1      42.579  26.410  27.451  1.00  0.00     0.049 A 
ATOM     35  N   UNL A   1      41.064  28.633  28.898  1.00  0.00    -0.248 NA
ATOM     36  C   UNL A   1      39.289  27.142  29.163  1.00  0.00     0.031 C 
ATOM     37  C   UNL A   1      43.328  25.344  26.788  1.00  0.00     0.029 A 
ATOM     38  N   UNL A   1      43.448  27.465  27.494  1.00  0.00    -0.354 N 
ATOM     39  C   UNL A   1      40.033  29.249  29.598  1.00  0.00     0.074 A 
ATOM     40  C   UNL A   1      38.950  28.302  29.698  1.00  0.00     0.031 C 
ATOM     41  C   UNL A   1      44.553  25.803  26.482  1.00  0.00     0.029 A 
ATOM     42  C   UNL A   1      44.654  27.200  26.900  1.00  0.00     0.049 A 
ATOM     43  H   UNL A   1      43.229  28.329  27.911  1.00  0.00     0.167 HD
ATOM     44  C   UNL A   1      40.005  30.496  30.116  1.00  0.00     0.037 A 
ATOM     45  C   UNL A   1      45.706  28.016  26.708  1.00  0.00     0.037 A 
ATOM     46  C   UNL A   1      41.104  31.416  30.007  1.00  0.00     0.049 A 
ATOM     47  C   UNL A   1      45.620  29.426  27.235  1.00  0.00     0.074 A 
ATOM     48  C   UNL A   1      41.203  32.705  30.489  1.00  0.00     0.029 A 
ATOM     49  N   UNL A   1      42.300  31.130  29.361  1.00  0.00    -0.354 N 
ATOM     50  N   UNL A   1      44.648  30.006  27.900  1.00  0.00    -0.248 NA
ATOM     51  C   UNL A   1      46.780  30.290  26.992  1.00  0.00     0.031 C 
ATOM     52  C   UNL A   1      42.437  33.223  30.082  1.00  0.00     0.029 A 
ATOM     53  C   UNL A   1      43.135  32.231  29.409  1.00  0.00     0.049 A 
ATOM     54  H   UNL A   1      42.520  30.272  28.931  1.00  0.00     0.167 HD
ATOM     55  C   UNL A   1      45.095  31.288  28.192  1.00  0.00     0.074 A 
ATOM     56  C   UNL A   1      46.429  31.394  27.636  1.00  0.00     0.031 C 
ATOM     57  C   UNL A   1      44.467  32.288  28.860  1.00  0.00     0.037 A 
BRANCH  44  58
ATOM     58  C   UNL A   1      38.744  30.942  30.796  1.00  0.00     0.064 A 
ATOM     59  C   UNL A   1      37.641  31.432  30.079  1.00  0.00     0.173 A 
ATOM     60  C   UNL A   1      38.636  30.867  32.193  1.00  0.00     0.173 A 
ATOM     61  F   UNL A   1      37.702  31.550  28.744  1.00  0.00    -0.203 F 
ATOM     62  C   UNL A   1      36.487  31.850  30.737  1.00  0.00     0.198 A 
ATOM     63  C   UNL A   1      37.468  31.254  32.845  1.00  0.00     0.198 A 
ATOM     64  F   UNL A   1      39.662  30.415  32.928  1.00  0.00    -0.203 F 
ATOM     65  F   UNL A   1      35.466  32.363  30.036  1.00  0.00    -0.200 F 
ATOM     66  C   UNL A   1      36.398  31.752  32.118  1.00  0.00     0.200 A 
ATOM     67  F   UNL A   1      37.381  31.150  34.178  1.00  0.00    -0.200 F 
ATOM     68  F   UNL A   1      35.283  32.145  32.749  1.00  0.00    -0.200 F 
ENDBRANCH  44  58
BRANCH  45  69
ATOM     69  C   UNL A   1      46.910  27.528  25.988  1.00  0.00     0.064 A 
ATOM     70  C   UNL A   1      47.978  26.941  26.678  1.00  0.00     0.173 A 
ATOM     71  C   UNL A   1      47.025  27.653  24.595  1.00  0.00     0.173 A 
ATOM     72  F   UNL A   1      47.925  26.812  28.012  1.00  0.00    -0.203 F 
ATOM     73  C   UNL A   1      49.127  26.523  26.007  1.00  0.00     0.198 A 
ATOM     74  C   UNL A   1      48.160  27.206  23.922  1.00  0.00     0.198 A 
ATOM     75  F   UNL A   1      46.030  28.203  23.884  1.00  0.00    -0.203 F 
ATOM     76  F   UNL A   1      50.155  26.014  26.700  1.00  0.00    -0.200 F 
ATOM     77  C   UNL A   1      49.215  26.651  24.630  1.00  0.00     0.200 A 
ATOM     78  F   UNL A   1      48.233  27.318  22.589  1.00  0.00    -0.200 F 
ATOM     79  F   UNL A   1      50.319  26.249  23.986  1.00  0.00    -0.200 F 
ENDBRANCH  45  69
BRANCH  57  80
ATOM     80  C   UNL A   1      45.243  33.554  29.080  1.00  0.00     0.064 A 
ATOM     81  C   UNL A   1      46.077  33.729  30.193  1.00  0.00     0.173 A 
ATOM     82  C   UNL A   1      45.178  34.589  28.134  1.00  0.00     0.173 A 
ATOM     83  F   UNL A   1      46.163  32.772  31.130  1.00  0.00    -0.203 F 
ATOM     84  C   UNL A   1      46.789  34.912  30.370  1.00  0.00     0.198 A 
ATOM     85  C   UNL A   1      45.921  35.753  28.296  1.00  0.00     0.198 A 
ATOM     86  F   UNL A   1      44.405  34.464  27.045  1.00  0.00    -0.203 F 
ATOM     87  F   UNL A   1      47.532  35.083  31.473  1.00  0.00    -0.200 F 
ATOM     88  C   UNL A   1      46.717  35.918  29.419  1.00  0.00     0.200 A 
ATOM     89  F   UNL A   1      45.866  36.716  27.365  1.00  0.00    -0.200 F 
ATOM     90  F   UNL A   1      47.409  37.053  29.589  1.00  0.00    -0.200 F 
ENDBRANCH  57  80
ENDBRANCH  31  32
ENDBRANCH  24  26
ENDBRANCH  23  24
ENDBRANCH  22  23
ENDBRANCH   1  22
TORSDOF 15
ENDMDL
MODEL 3
REMARK VINA RESULT:     -11.9      0.295      1.983
REMARK SMILES C[C@H]1CC[C@@H](C2(C(=O)OCCOCCOC(=O)c3ccc(-c4c5nc(c(-c6c(F)c(F)c(F)c(F)c6F)c6ccc([nH]6)c(-c6c(F)c(F)c(F)c(F)c6F)c6nc(c(-c7c(F)c(F)c(F)c(F)c7F)c7ccc4[nH]7)C=C6)C=C5)cc3)CCCCC2)C[C@@H]1C
REMARK SMILES IDX 13 1 12 2 11 3 10 4 9 5 7 6 8 7 6 8 81 9 85 10 82 11 84 12
REMARK SMILES IDX 83 13 5 14 1 15 2 16 3 17 87 18 4 19 86 20 88 21 14 22 15 23
REMARK SMILES IDX 16 24 17 25 18 26 19 27 80 28 20 29 79 30 21 31 22 32 23 33
REMARK SMILES IDX 73 34 24 35 78 36 72 37 74 38 25 39 77 40 71 41 70 42 26 44
REMARK SMILES IDX 58 45 38 46 57 47 39 48 42 49 56 50 75 51 40 52 41 53 55 55
REMARK SMILES IDX 76 56 43 57 27 58 28 59 36 60 29 61 30 62 34 63 37 64 31 65
REMARK SMILES IDX 32 66 35 67 33 68 59 69 60 70 68 71 61 72 62 73 66 74 69 75
REMARK SMILES IDX 63 76 64 77 67 78 65 79 44 80 45 81 53 82 46 83 47 84 51 85
REMARK SMILES IDX 54 86 48 87 49 88 52 89 50 90
REMARK H PARENT 74 43 42 54
REMARK Flexibility Score: inf
ROOT
ATOM      1  C   UNL A   1      31.475  29.925  25.372  1.00  0.00     0.202 C 
ENDROOT
BRANCH   1   2
ATOM      2  O   UNL A   1      32.203  28.707  25.457  1.00  0.00    -0.374 OA
BRANCH   2   3
ATOM      3  C   UNL A   1      33.304  28.523  24.566  1.00  0.00     0.202 C 
BRANCH   3   4
ATOM      4  C   UNL A   1      33.384  27.273  23.685  1.00  0.00     0.261 C 
BRANCH   4   5
ATOM      5  O   UNL A   1      34.034  26.166  24.347  1.00  0.00    -0.463 OA
BRANCH   5   6
ATOM      6  C   UNL A   1      34.346  25.141  23.508  1.00  0.00     0.312 C 
ATOM      7  O   UNL A   1      34.151  25.248  22.312  1.00  0.00    -0.252 OA
BRANCH   6   8
ATOM      8  C   UNL A   1      34.919  23.886  24.201  1.00  0.00     0.071 C 
ATOM      9  C   UNL A   1      35.608  24.404  25.496  1.00  0.00     0.019 C 
ATOM     10  C   UNL A   1      36.051  23.290  23.298  1.00  0.00     0.019 C 
ATOM     11  C   UNL A   1      36.453  23.346  26.210  1.00  0.00     0.001 C 
ATOM     12  C   UNL A   1      36.892  22.215  23.981  1.00  0.00     0.001 C 
ATOM     13  C   UNL A   1      37.494  22.719  25.288  1.00  0.00     0.000 C 
BRANCH   8  14
ATOM     14  C   UNL A   1      33.811  22.771  24.571  1.00  0.00     0.007 C 
ATOM     15  C   UNL A   1      30.109  24.704  23.432  1.00  0.00     0.008 C 
ATOM     16  C   UNL A   1      30.895  23.515  24.025  1.00  0.00    -0.011 C 
ATOM     17  C   UNL A   1      31.869  23.022  22.951  1.00  0.00     0.004 C 
ATOM     18  C   UNL A   1      31.557  23.900  25.371  1.00  0.00    -0.011 C 
ATOM     19  C   UNL A   1      33.013  22.151  23.415  1.00  0.00     0.005 C 
ATOM     20  C   UNL A   1      32.801  23.058  25.722  1.00  0.00     0.008 C 
ATOM     21  C   UNL A   1      30.537  23.931  26.511  1.00  0.00     0.008 C 
ENDBRANCH   8  14
ENDBRANCH   6   8
ENDBRANCH   5   6
ENDBRANCH   4   5
ENDBRANCH   3   4
ENDBRANCH   2   3
ENDBRANCH   1   2
BRANCH   1  22
ATOM     22  C   UNL A   1      31.703  31.031  26.404  1.00  0.00     0.261 C 
BRANCH  22  23
ATOM     23  O   UNL A   1      32.836  30.750  27.212  1.00  0.00    -0.460 OA
BRANCH  23  24
ATOM     24  C   UNL A   1      33.532  31.869  27.513  1.00  0.00     0.338 C 
ATOM     25  O   UNL A   1      33.109  33.006  27.641  1.00  0.00    -0.246 OA
BRANCH  24  26
ATOM     26  C   UNL A   1      34.884  31.464  27.907  1.00  0.00     0.060 A 
ATOM     27  C   UNL A   1      35.102  30.088  28.055  1.00  0.00     0.016 A 
ATOM     28  C   UNL A   1      35.917  32.392  28.076  1.00  0.00     0.016 A 
ATOM     29  C   UNL A   1      36.335  29.638  28.484  1.00  0.00     0.010 A 
ATOM     30  C   UNL A   1      37.152  31.942  28.524  1.00  0.00     0.010 A 
ATOM     31  C   UNL A   1      37.325  30.576  28.799  1.00  0.00    -0.014 A 
BRANCH  31  32
ATOM     32  C   UNL A   1      38.386  30.148  29.725  1.00  0.00     0.031 A 
ATOM     33  C   UNL A   1      39.405  29.180  29.191  1.00  0.00     0.074 A 
ATOM     34  C   UNL A   1      38.478  30.682  30.950  1.00  0.00     0.049 A 
ATOM     35  N   UNL A   1      40.442  28.654  29.782  1.00  0.00    -0.248 NA
ATOM     36  C   UNL A   1      39.228  28.746  27.791  1.00  0.00     0.031 C 
ATOM     37  C   UNL A   1      37.566  31.678  31.509  1.00  0.00     0.029 A 
ATOM     38  N   UNL A   1      39.394  30.461  31.941  1.00  0.00    -0.354 N 
ATOM     39  C   UNL A   1      41.029  27.824  28.834  1.00  0.00     0.074 A 
ATOM     40  C   UNL A   1      40.221  27.887  27.641  1.00  0.00     0.031 C 
ATOM     41  C   UNL A   1      37.971  31.984  32.753  1.00  0.00     0.029 A 
ATOM     42  C   UNL A   1      39.146  31.180  33.080  1.00  0.00     0.049 A 
ATOM     43  H   UNL A   1      40.158  29.847  31.843  1.00  0.00     0.167 HD
ATOM     44  C   UNL A   1      42.153  27.084  28.956  1.00  0.00     0.037 A 
ATOM     45  C   UNL A   1      39.798  31.161  34.257  1.00  0.00     0.037 A 
ATOM     46  C   UNL A   1      42.942  27.048  30.156  1.00  0.00     0.049 A 
ATOM     47  C   UNL A   1      41.009  30.272  34.387  1.00  0.00     0.074 A 
ATOM     48  C   UNL A   1      44.101  26.342  30.407  1.00  0.00     0.029 A 
ATOM     49  N   UNL A   1      42.640  27.758  31.311  1.00  0.00    -0.354 N 
ATOM     50  N   UNL A   1      41.567  29.492  33.490  1.00  0.00    -0.248 NA
ATOM     51  C   UNL A   1      41.684  30.268  35.690  1.00  0.00     0.031 C 
ATOM     52  C   UNL A   1      44.468  26.576  31.737  1.00  0.00     0.029 A 
ATOM     53  C   UNL A   1      43.578  27.485  32.289  1.00  0.00     0.049 A 
ATOM     54  H   UNL A   1      41.872  28.364  31.418  1.00  0.00     0.167 HD
ATOM     55  C   UNL A   1      42.681  28.937  34.106  1.00  0.00     0.074 A 
ATOM     56  C   UNL A   1      42.721  29.478  35.450  1.00  0.00     0.031 C 
ATOM     57  C   UNL A   1      43.593  28.063  33.610  1.00  0.00     0.037 A 
BRANCH  44  58
ATOM     58  C   UNL A   1      42.556  26.232  27.790  1.00  0.00     0.064 A 
ATOM     59  C   UNL A   1      43.489  26.665  26.834  1.00  0.00     0.173 A 
ATOM     60  C   UNL A   1      42.005  24.950  27.632  1.00  0.00     0.173 A 
ATOM     61  F   UNL A   1      44.026  27.891  26.922  1.00  0.00    -0.203 F 
ATOM     62  C   UNL A   1      43.837  25.857  25.753  1.00  0.00     0.198 A 
ATOM     63  C   UNL A   1      42.381  24.133  26.569  1.00  0.00     0.198 A 
ATOM     64  F   UNL A   1      41.103  24.489  28.511  1.00  0.00    -0.203 F 
ATOM     65  F   UNL A   1      44.689  26.312  24.826  1.00  0.00    -0.200 F 
ATOM     66  C   UNL A   1      43.290  24.588  25.628  1.00  0.00     0.200 A 
ATOM     67  F   UNL A   1      41.857  22.904  26.455  1.00  0.00    -0.200 F 
ATOM     68  F   UNL A   1      43.633  23.808  24.593  1.00  0.00    -0.200 F 
ENDBRANCH  44  58
BRANCH  45  69
ATOM     69  C   UNL A   1      39.323  31.997  35.389  1.00  0.00     0.064 A 
ATOM     70  C   UNL A   1      39.706  33.339  35.510  1.00  0.00     0.173 A 
ATOM     71  C   UNL A   1      38.487  31.467  36.383  1.00  0.00     0.173 A 
ATOM     72  F   UNL A   1      40.517  33.890  34.595  1.00  0.00    -0.203 F 
ATOM     73  C   UNL A   1      39.295  34.110  36.597  1.00  0.00     0.198 A 
ATOM     74  C   UNL A   1      38.051  32.247  37.451  1.00  0.00     0.198 A 
ATOM     75  F   UNL A   1      38.085  30.189  36.313  1.00  0.00    -0.203 F 
ATOM     76  F   UNL A   1      39.721  35.376  36.715  1.00  0.00    -0.200 F 
ATOM     77  C   UNL A   1      38.464  33.566  37.563  1.00  0.00     0.200 A 
ATOM     78  F   UNL A   1      37.234  31.721  38.374  1.00  0.00    -0.200 F 
ATOM     79  F   UNL A   1      38.070  34.308  38.607  1.00  0.00    -0.200 F 
ENDBRANCH  45  69
BRANCH  57  80
ATOM     80  C   UNL A   1      44.741  27.694  34.505  1.00  0.00     0.064 A 
ATOM     81  C   UNL A   1      44.692  26.578  35.353  1.00  0.00     0.173 A 
ATOM     82  C   UNL A   1      45.922  28.451  34.476  1.00  0.00     0.173 A 
ATOM     83  F   UNL A   1      43.581  25.830  35.421  1.00  0.00    -0.203 F 
ATOM     84  C   UNL A   1      45.773  26.257  36.168  1.00  0.00     0.198 A 
ATOM     85  C   UNL A   1      47.013  28.103  35.265  1.00  0.00     0.198 A 
ATOM     86  F   UNL A   1      46.023  29.520  33.672  1.00  0.00    -0.203 F 
ATOM     87  F   UNL A   1      45.683  25.222  37.016  1.00  0.00    -0.200 F 
ATOM     88  C   UNL A   1      46.933  27.014  36.118  1.00  0.00     0.200 A 
ATOM     89  F   UNL A   1      48.141  28.824  35.200  1.00  0.00    -0.200 F 
ATOM     90  F   UNL A   1      47.975  26.698  36.900  1.00  0.00    -0.200 F 
ENDBRANCH  57  80
ENDBRANCH  31  32
ENDBRANCH  24  26
ENDBRANCH  23  24
ENDBRANCH  22  23
ENDBRANCH   1  22
TORSDOF 15
ENDMDL
