MODEL 1
REMARK VINA RESULT:      -9.3      0.000      0.000
REMARK SMILES N#CCC[NH2+]C1(C(=O)OCCOCCOC(=O)c2ccc(-c3c4nc(c(-c5c(F)c(F)c(F)c(F)c5F)c5ccc([nH]5)c(-c5c(F)c(F)c(F)c(F)c5F)c5nc(c(-c6c(F)c(F)c(F)c(F)c6F)c6ccc3[nH]6)C=C5)C=C4)cc2)CC1
REMARK SMILES IDX 11 1 10 2 9 3 7 4 8 5 6 6 81 7 82 8 5 9 4 12 3 13 2 14 1 15
REMARK SMILES IDX 12 16 13 17 14 18 15 19 16 20 17 21 18 22 19 23 80 24 20 25
REMARK SMILES IDX 79 26 21 27 22 28 23 29 73 30 24 31 78 32 72 33 74 34 25 35
REMARK SMILES IDX 77 36 71 37 70 38 26 40 58 41 38 42 57 43 39 44 42 45 56 46
REMARK SMILES IDX 75 47 40 48 41 49 55 51 76 52 43 53 27 54 28 55 36 56 29 57
REMARK SMILES IDX 30 58 34 59 37 60 31 61 32 62 35 63 33 64 59 65 60 66 68 67
REMARK SMILES IDX 61 68 62 69 66 70 69 71 63 72 64 73 67 74 65 75 44 76 45 77
REMARK SMILES IDX 53 78 46 79 47 80 51 81 54 82 48 83 49 84 52 85 50 86
REMARK H PARENT 5 10 5 11 74 39 42 50
REMARK Flexibility Score: inf
ROOT
ATOM      1  C   UNL A   1      37.041  22.045  25.187  1.00  0.00     0.202 C 
ENDROOT
BRANCH   1   2
ATOM      2  C   UNL A   1      35.932  22.902  24.561  1.00  0.00     0.261 C 
BRANCH   2   3
ATOM      3  O   UNL A   1      34.756  22.130  24.302  1.00  0.00    -0.459 OA
BRANCH   3   4
ATOM      4  C   UNL A   1      33.649  22.521  24.990  1.00  0.00     0.368 C 
ATOM      5  O   UNL A   1      32.766  23.260  24.572  1.00  0.00    -0.245 OA
BRANCH   4   6
ATOM      6  C   UNL A   1      33.548  21.832  26.337  1.00  0.00     0.194 C 
ATOM      7  C   UNL A   1      32.633  22.410  27.387  1.00  0.00     0.088 C 
ATOM      8  C   UNL A   1      34.117  22.536  27.558  1.00  0.00     0.088 C 
BRANCH   6   9
ATOM      9  N   UNL A   1      33.770  20.356  26.277  1.00  0.00    -0.331 N 
ATOM     10  H   UNL A   1      34.734  20.190  25.990  1.00  0.00     0.347 HD
ATOM     11  H   UNL A   1      33.564  19.993  27.208  1.00  0.00     0.347 HD
BRANCH   9  12
ATOM     12  C   UNL A   1      32.884  19.644  25.346  1.00  0.00     0.276 C 
BRANCH  12  13
ATOM     13  C   UNL A   1      33.625  18.500  24.642  1.00  0.00     0.181 C 
BRANCH  13  14
ATOM     14  C   UNL A   1      33.205  17.173  25.253  1.00  0.00     0.068 C 
ATOM     15  N   UNL A   1      32.855  16.072  25.759  1.00  0.00    -0.198 NA
ENDBRANCH  13  14
ENDBRANCH  12  13
ENDBRANCH   9  12
ENDBRANCH   6   9
ENDBRANCH   4   6
ENDBRANCH   3   4
ENDBRANCH   2   3
ENDBRANCH   1   2
BRANCH   1  16
ATOM     16  O   UNL A   1      36.849  20.635  25.250  1.00  0.00    -0.374 OA
BRANCH  16  17
ATOM     17  C   UNL A   1      37.902  19.784  24.795  1.00  0.00     0.202 C 
BRANCH  17  18
ATOM     18  C   UNL A   1      39.043  19.424  25.758  1.00  0.00     0.261 C 
BRANCH  18  19
ATOM     19  O   UNL A   1      40.076  20.422  25.836  1.00  0.00    -0.460 OA
BRANCH  19  20
ATOM     20  C   UNL A   1      40.719  20.481  27.028  1.00  0.00     0.338 C 
ATOM     21  O   UNL A   1      41.179  19.557  27.674  1.00  0.00    -0.246 OA
BRANCH  20  22
ATOM     22  C   UNL A   1      40.963  21.888  27.390  1.00  0.00     0.060 A 
ATOM     23  C   UNL A   1      40.344  22.883  26.622  1.00  0.00     0.016 A 
ATOM     24  C   UNL A   1      41.864  22.225  28.399  1.00  0.00     0.016 A 
ATOM     25  C   UNL A   1      40.639  24.225  26.849  1.00  0.00     0.010 A 
ATOM     26  C   UNL A   1      42.170  23.572  28.616  1.00  0.00     0.010 A 
ATOM     27  C   UNL A   1      41.578  24.575  27.827  1.00  0.00    -0.014 A 
BRANCH  27  28
ATOM     28  C   UNL A   1      42.039  25.980  27.936  1.00  0.00     0.031 A 
ATOM     29  C   UNL A   1      43.377  26.356  27.362  1.00  0.00     0.074 A 
ATOM     30  C   UNL A   1      41.264  26.913  28.520  1.00  0.00     0.049 A 
ATOM     31  N   UNL A   1      44.014  27.497  27.418  1.00  0.00    -0.248 NA
ATOM     32  C   UNL A   1      44.092  25.302  26.625  1.00  0.00     0.031 C 
ATOM     33  C   UNL A   1      39.926  26.680  29.062  1.00  0.00     0.029 A 
ATOM     34  N   UNL A   1      41.499  28.243  28.761  1.00  0.00    -0.354 N 
ATOM     35  C   UNL A   1      45.201  27.300  26.723  1.00  0.00     0.074 A 
ATOM     36  C   UNL A   1      45.215  25.920  26.290  1.00  0.00     0.031 C 
ATOM     37  C   UNL A   1      39.464  27.827  29.586  1.00  0.00     0.029 A 
ATOM     38  C   UNL A   1      40.488  28.861  29.457  1.00  0.00     0.049 A 
ATOM     39  H   UNL A   1      42.314  28.709  28.465  1.00  0.00     0.167 HD
ATOM     40  C   UNL A   1      46.182  28.196  26.457  1.00  0.00     0.037 A 
ATOM     41  C   UNL A   1      40.418  30.110  29.957  1.00  0.00     0.037 A 
ATOM     42  C   UNL A   1      46.167  29.566  26.898  1.00  0.00     0.049 A 
ATOM     43  C   UNL A   1      41.579  31.052  29.745  1.00  0.00     0.074 A 
ATOM     44  C   UNL A   1      47.120  30.548  26.697  1.00  0.00     0.029 A 
ATOM     45  N   UNL A   1      45.143  30.146  27.633  1.00  0.00    -0.354 N 
ATOM     46  N   UNL A   1      42.693  30.862  29.080  1.00  0.00    -0.248 NA
ATOM     47  C   UNL A   1      41.469  32.386  30.355  1.00  0.00     0.031 C 
ATOM     48  C   UNL A   1      46.696  31.710  27.351  1.00  0.00     0.029 A 
ATOM     49  C   UNL A   1      45.451  31.468  27.909  1.00  0.00     0.049 A 
ATOM     50  H   UNL A   1      44.320  29.687  27.915  1.00  0.00     0.167 HD
ATOM     51  C   UNL A   1      43.393  32.060  29.156  1.00  0.00     0.074 A 
ATOM     52  C   UNL A   1      42.572  32.976  29.920  1.00  0.00     0.031 C 
ATOM     53  C   UNL A   1      44.608  32.375  28.645  1.00  0.00     0.037 A 
BRANCH  40  54
ATOM     54  C   UNL A   1      47.361  27.722  25.658  1.00  0.00     0.064 A 
ATOM     55  C   UNL A   1      47.350  27.740  24.255  1.00  0.00     0.173 A 
ATOM     56  C   UNL A   1      48.536  27.303  26.299  1.00  0.00     0.173 A 
ATOM     57  F   UNL A   1      46.246  28.120  23.593  1.00  0.00    -0.203 F 
ATOM     58  C   UNL A   1      48.465  27.337  23.524  1.00  0.00     0.198 A 
ATOM     59  C   UNL A   1      49.659  26.931  25.566  1.00  0.00     0.198 A 
ATOM     60  F   UNL A   1      48.602  27.272  27.638  1.00  0.00    -0.203 F 
ATOM     61  F   UNL A   1      48.418  27.326  22.185  1.00  0.00    -0.200 F 
ATOM     62  C   UNL A   1      49.622  26.943  24.180  1.00  0.00     0.200 A 
ATOM     63  F   UNL A   1      50.782  26.564  26.201  1.00  0.00    -0.200 F 
ATOM     64  F   UNL A   1      50.699  26.571  23.475  1.00  0.00    -0.200 F 
ENDBRANCH  40  54
BRANCH  41  65
ATOM     65  C   UNL A   1      39.228  30.548  30.737  1.00  0.00     0.064 A 
ATOM     66  C   UNL A   1      39.135  30.300  32.114  1.00  0.00     0.173 A 
ATOM     67  C   UNL A   1      38.133  31.160  30.112  1.00  0.00     0.173 A 
ATOM     68  F   UNL A   1      40.146  29.694  32.755  1.00  0.00    -0.203 F 
ATOM     69  C   UNL A   1      37.978  30.610  32.827  1.00  0.00     0.198 A 
ATOM     70  C   UNL A   1      36.990  31.504  30.833  1.00  0.00     0.198 A 
ATOM     71  F   UNL A   1      38.166  31.421  28.797  1.00  0.00    -0.203 F 
ATOM     72  F   UNL A   1      37.889  30.292  34.126  1.00  0.00    -0.200 F 
ATOM     73  C   UNL A   1      36.907  31.214  32.186  1.00  0.00     0.200 A 
ATOM     74  F   UNL A   1      35.963  32.101  30.211  1.00  0.00    -0.200 F 
ATOM     75  F   UNL A   1      35.791  31.502  32.868  1.00  0.00    -0.200 F 
ENDBRANCH  41  65
BRANCH  53  76
ATOM     76  C   UNL A   1      45.100  33.782  28.838  1.00  0.00     0.064 A 
ATOM     77  C   UNL A   1      45.914  34.140  29.923  1.00  0.00     0.173 A 
ATOM     78  C   UNL A   1      44.785  34.776  27.898  1.00  0.00     0.173 A 
ATOM     79  F   UNL A   1      46.232  33.232  30.857  1.00  0.00    -0.203 F 
ATOM     80  C   UNL A   1      46.371  35.448  30.074  1.00  0.00     0.198 A 
ATOM     81  C   UNL A   1      45.272  36.072  28.033  1.00  0.00     0.198 A 
ATOM     82  F   UNL A   1      44.017  34.485  26.837  1.00  0.00    -0.203 F 
ATOM     83  F   UNL A   1      47.103  35.779  31.146  1.00  0.00    -0.200 F 
ATOM     84  C   UNL A   1      46.057  36.410  29.125  1.00  0.00     0.200 A 
ATOM     85  F   UNL A   1      44.982  36.996  27.106  1.00  0.00    -0.200 F 
ATOM     86  F   UNL A   1      46.507  37.664  29.267  1.00  0.00    -0.200 F 
ENDBRANCH  53  76
ENDBRANCH  27  28
ENDBRANCH  20  22
ENDBRANCH  19  20
ENDBRANCH  18  19
ENDBRANCH  17  18
ENDBRANCH  16  17
ENDBRANCH   1  16
TORSDOF 18
ENDMDL
MODEL 2
REMARK VINA RESULT:      -9.1      6.565     11.886
REMARK SMILES N#CCC[NH2+]C1(C(=O)OCCOCCOC(=O)c2ccc(-c3c4nc(c(-c5c(F)c(F)c(F)c(F)c5F)c5ccc([nH]5)c(-c5c(F)c(F)c(F)c(F)c5F)c5nc(c(-c6c(F)c(F)c(F)c(F)c6F)c6ccc3[nH]6)C=C5)C=C4)cc2)CC1
REMARK SMILES IDX 11 1 10 2 9 3 7 4 8 5 6 6 81 7 82 8 5 9 4 12 3 13 2 14 1 15
REMARK SMILES IDX 12 16 13 17 14 18 15 19 16 20 17 21 18 22 19 23 80 24 20 25
REMARK SMILES IDX 79 26 21 27 22 28 23 29 73 30 24 31 78 32 72 33 74 34 25 35
REMARK SMILES IDX 77 36 71 37 70 38 26 40 58 41 38 42 57 43 39 44 42 45 56 46
REMARK SMILES IDX 75 47 40 48 41 49 55 51 76 52 43 53 27 54 28 55 36 56 29 57
REMARK SMILES IDX 30 58 34 59 37 60 31 61 32 62 35 63 33 64 59 65 60 66 68 67
REMARK SMILES IDX 61 68 62 69 66 70 69 71 63 72 64 73 67 74 65 75 44 76 45 77
REMARK SMILES IDX 53 78 46 79 47 80 51 81 54 82 48 83 49 84 52 85 50 86
REMARK H PARENT 5 10 5 11 74 39 42 50
REMARK Flexibility Score: inf
ROOT
ATOM      1  C   UNL A   1      34.759  32.926  28.059  1.00  0.00     0.202 C 
ENDROOT
BRANCH   1   2
ATOM      2  C   UNL A   1      34.430  31.435  28.216  1.00  0.00     0.261 C 
BRANCH   2   3
ATOM      3  O   UNL A   1      34.286  30.794  26.946  1.00  0.00    -0.459 OA
BRANCH   3   4
ATOM      4  C   UNL A   1      33.023  30.383  26.650  1.00  0.00     0.368 C 
ATOM      5  O   UNL A   1      32.003  31.053  26.768  1.00  0.00    -0.245 OA
BRANCH   4   6
ATOM      6  C   UNL A   1      33.008  29.003  26.025  1.00  0.00     0.194 C 
ATOM      7  C   UNL A   1      31.720  28.219  26.011  1.00  0.00     0.088 C 
ATOM      8  C   UNL A   1      32.826  27.796  26.931  1.00  0.00     0.088 C 
BRANCH   6   9
ATOM      9  N   UNL A   1      33.990  28.835  24.911  1.00  0.00    -0.331 N 
ATOM     10  H   UNL A   1      34.768  29.474  25.073  1.00  0.00     0.347 HD
ATOM     11  H   UNL A   1      34.272  27.855  24.916  1.00  0.00     0.347 HD
BRANCH   9  12
ATOM     12  C   UNL A   1      33.445  29.106  23.574  1.00  0.00     0.276 C 
BRANCH  12  13
ATOM     13  C   UNL A   1      33.588  27.882  22.660  1.00  0.00     0.181 C 
BRANCH  13  14
ATOM     14  C   UNL A   1      32.231  27.222  22.480  1.00  0.00     0.068 C 
ATOM     15  N   UNL A   1      31.104  26.675  22.332  1.00  0.00    -0.198 NA
ENDBRANCH  13  14
ENDBRANCH  12  13
ENDBRANCH   9  12
ENDBRANCH   6   9
ENDBRANCH   4   6
ENDBRANCH   3   4
ENDBRANCH   2   3
ENDBRANCH   1   2
BRANCH   1  16
ATOM     16  O   UNL A   1      33.695  33.866  28.168  1.00  0.00    -0.374 OA
BRANCH  16  17
ATOM     17  C   UNL A   1      34.013  35.219  28.501  1.00  0.00     0.202 C 
BRANCH  17  18
ATOM     18  C   UNL A   1      33.066  36.005  29.421  1.00  0.00     0.261 C 
BRANCH  18  19
ATOM     19  O   UNL A   1      32.476  35.211  30.465  1.00  0.00    -0.460 OA
BRANCH  19  20
ATOM     20  C   UNL A   1      32.675  35.687  31.719  1.00  0.00     0.338 C 
ATOM     21  O   UNL A   1      31.969  36.458  32.345  1.00  0.00    -0.246 OA
BRANCH  20  22
ATOM     22  C   UNL A   1      33.815  34.991  32.338  1.00  0.00     0.060 A 
ATOM     23  C   UNL A   1      35.078  35.591  32.255  1.00  0.00     0.016 A 
ATOM     24  C   UNL A   1      33.666  33.723  32.899  1.00  0.00     0.016 A 
ATOM     25  C   UNL A   1      36.205  34.916  32.718  1.00  0.00     0.010 A 
ATOM     26  C   UNL A   1      34.800  33.040  33.351  1.00  0.00     0.010 A 
ATOM     27  C   UNL A   1      36.076  33.623  33.240  1.00  0.00    -0.014 A 
BRANCH  27  28
ATOM     28  C   UNL A   1      37.289  32.828  33.549  1.00  0.00     0.031 A 
ATOM     29  C   UNL A   1      38.030  33.095  34.830  1.00  0.00     0.074 A 
ATOM     30  C   UNL A   1      37.709  31.866  32.708  1.00  0.00     0.049 A 
ATOM     31  N   UNL A   1      39.155  32.584  35.260  1.00  0.00    -0.248 NA
ATOM     32  C   UNL A   1      37.420  34.069  35.748  1.00  0.00     0.031 C 
ATOM     33  C   UNL A   1      37.042  31.479  31.466  1.00  0.00     0.029 A 
ATOM     34  N   UNL A   1      38.807  31.045  32.771  1.00  0.00    -0.354 N 
ATOM     35  C   UNL A   1      39.384  33.171  36.499  1.00  0.00     0.074 A 
ATOM     36  C   UNL A   1      38.307  34.106  36.732  1.00  0.00     0.031 C 
ATOM     37  C   UNL A   1      37.753  30.505  30.875  1.00  0.00     0.029 A 
ATOM     38  C   UNL A   1      38.947  30.231  31.672  1.00  0.00     0.049 A 
ATOM     39  H   UNL A   1      39.435  31.041  33.529  1.00  0.00     0.167 HD
ATOM     40  C   UNL A   1      40.397  32.936  37.368  1.00  0.00     0.037 A 
ATOM     41  C   UNL A   1      39.943  29.388  31.340  1.00  0.00     0.037 A 
ATOM     42  C   UNL A   1      41.472  32.011  37.127  1.00  0.00     0.049 A 
ATOM     43  C   UNL A   1      41.118  29.234  32.276  1.00  0.00     0.074 A 
ATOM     44  C   UNL A   1      42.555  31.715  37.936  1.00  0.00     0.029 A 
ATOM     45  N   UNL A   1      41.600  31.231  35.987  1.00  0.00    -0.354 N 
ATOM     46  N   UNL A   1      41.325  29.785  33.448  1.00  0.00    -0.248 NA
ATOM     47  C   UNL A   1      42.199  28.337  31.840  1.00  0.00     0.031 C 
ATOM     48  C   UNL A   1      43.364  30.792  37.264  1.00  0.00     0.029 A 
ATOM     49  C   UNL A   1      42.754  30.468  36.063  1.00  0.00     0.049 A 
ATOM     50  H   UNL A   1      40.964  31.220  35.235  1.00  0.00     0.167 HD
ATOM     51  C   UNL A   1      42.533  29.271  33.904  1.00  0.00     0.074 A 
ATOM     52  C   UNL A   1      43.006  28.352  32.890  1.00  0.00     0.031 C 
ATOM     53  C   UNL A   1      43.195  29.536  35.057  1.00  0.00     0.037 A 
BRANCH  40  54
ATOM     54  C   UNL A   1      40.396  33.699  38.661  1.00  0.00     0.064 A 
ATOM     55  C   UNL A   1      41.169  34.859  38.828  1.00  0.00     0.173 A 
ATOM     56  C   UNL A   1      39.571  33.302  39.723  1.00  0.00     0.173 A 
ATOM     57  F   UNL A   1      41.985  35.274  37.846  1.00  0.00    -0.203 F 
ATOM     58  C   UNL A   1      41.128  35.582  40.017  1.00  0.00     0.198 A 
ATOM     59  C   UNL A   1      39.510  34.045  40.899  1.00  0.00     0.198 A 
ATOM     60  F   UNL A   1      38.809  32.205  39.615  1.00  0.00    -0.203 F 
ATOM     61  F   UNL A   1      41.904  36.665  40.168  1.00  0.00    -0.200 F 
ATOM     62  C   UNL A   1      40.292  35.180  41.048  1.00  0.00     0.200 A 
ATOM     63  F   UNL A   1      38.689  33.665  41.890  1.00  0.00    -0.200 F 
ATOM     64  F   UNL A   1      40.243  35.887  42.186  1.00  0.00    -0.200 F 
ENDBRANCH  40  54
BRANCH  41  65
ATOM     65  C   UNL A   1      39.905  28.640  30.054  1.00  0.00     0.064 A 
ATOM     66  C   UNL A   1      39.350  27.354  29.980  1.00  0.00     0.173 A 
ATOM     67  C   UNL A   1      40.484  29.165  28.889  1.00  0.00     0.173 A 
ATOM     68  F   UNL A   1      38.807  26.796  31.072  1.00  0.00    -0.203 F 
ATOM     69  C   UNL A   1      39.411  26.608  28.805  1.00  0.00     0.198 A 
ATOM     70  C   UNL A   1      40.511  28.432  27.703  1.00  0.00     0.198 A 
ATOM     71  F   UNL A   1      41.031  30.389  28.901  1.00  0.00    -0.203 F 
ATOM     72  F   UNL A   1      38.940  25.353  28.785  1.00  0.00    -0.200 F 
ATOM     73  C   UNL A   1      39.989  27.148  27.667  1.00  0.00     0.200 A 
ATOM     74  F   UNL A   1      41.058  28.965  26.602  1.00  0.00    -0.200 F 
ATOM     75  F   UNL A   1      40.058  26.427  26.540  1.00  0.00    -0.200 F 
ENDBRANCH  41  65
BRANCH  53  76
ATOM     76  C   UNL A   1      44.469  28.783  35.316  1.00  0.00     0.064 A 
ATOM     77  C   UNL A   1      45.720  29.290  34.934  1.00  0.00     0.173 A 
ATOM     78  C   UNL A   1      44.439  27.555  35.995  1.00  0.00     0.173 A 
ATOM     79  F   UNL A   1      45.803  30.452  34.269  1.00  0.00    -0.203 F 
ATOM     80  C   UNL A   1      46.890  28.581  35.197  1.00  0.00     0.198 A 
ATOM     81  C   UNL A   1      45.613  26.867  36.288  1.00  0.00     0.198 A 
ATOM     82  F   UNL A   1      43.269  27.029  36.390  1.00  0.00    -0.203 F 
ATOM     83  F   UNL A   1      48.069  29.059  34.776  1.00  0.00    -0.200 F 
ATOM     84  C   UNL A   1      46.836  27.375  35.881  1.00  0.00     0.200 A 
ATOM     85  F   UNL A   1      45.559  25.711  36.964  1.00  0.00    -0.200 F 
ATOM     86  F   UNL A   1      47.965  26.702  36.143  1.00  0.00    -0.200 F 
ENDBRANCH  53  76
ENDBRANCH  27  28
ENDBRANCH  20  22
ENDBRANCH  19  20
ENDBRANCH  18  19
ENDBRANCH  17  18
ENDBRANCH  16  17
ENDBRANCH   1  16
TORSDOF 18
ENDMDL
MODEL 3
REMARK VINA RESULT:      -9.1      5.243     10.852
REMARK SMILES N#CCC[NH2+]C1(C(=O)OCCOCCOC(=O)c2ccc(-c3c4nc(c(-c5c(F)c(F)c(F)c(F)c5F)c5ccc([nH]5)c(-c5c(F)c(F)c(F)c(F)c5F)c5nc(c(-c6c(F)c(F)c(F)c(F)c6F)c6ccc3[nH]6)C=C5)C=C4)cc2)CC1
REMARK SMILES IDX 11 1 10 2 9 3 7 4 8 5 6 6 81 7 82 8 5 9 4 12 3 13 2 14 1 15
REMARK SMILES IDX 12 16 13 17 14 18 15 19 16 20 17 21 18 22 19 23 80 24 20 25
REMARK SMILES IDX 79 26 21 27 22 28 23 29 73 30 24 31 78 32 72 33 74 34 25 35
REMARK SMILES IDX 77 36 71 37 70 38 26 40 58 41 38 42 57 43 39 44 42 45 56 46
REMARK SMILES IDX 75 47 40 48 41 49 55 51 76 52 43 53 27 54 28 55 36 56 29 57
REMARK SMILES IDX 30 58 34 59 37 60 31 61 32 62 35 63 33 64 59 65 60 66 68 67
REMARK SMILES IDX 61 68 62 69 66 70 69 71 63 72 64 73 67 74 65 75 44 76 45 77
REMARK SMILES IDX 53 78 46 79 47 80 51 81 54 82 48 83 49 84 52 85 50 86
REMARK H PARENT 5 10 5 11 74 39 42 50
REMARK Flexibility Score: inf
ROOT
ATOM      1  C   UNL A   1      32.492  29.563  25.986  1.00  0.00     0.202 C 
ENDROOT
BRANCH   1   2
ATOM      2  C   UNL A   1      31.551  28.351  25.942  1.00  0.00     0.261 C 
BRANCH   2   3
ATOM      3  O   UNL A   1      32.164  27.235  25.291  1.00  0.00    -0.459 OA
BRANCH   3   4
ATOM      4  C   UNL A   1      31.659  26.020  25.639  1.00  0.00     0.368 C 
ATOM      5  O   UNL A   1      31.460  25.624  26.781  1.00  0.00    -0.245 OA
BRANCH   4   6
ATOM      6  C   UNL A   1      31.237  25.214  24.426  1.00  0.00     0.194 C 
ATOM      7  C   UNL A   1      31.055  23.724  24.565  1.00  0.00     0.088 C 
ATOM      8  C   UNL A   1      32.238  24.250  23.809  1.00  0.00     0.088 C 
BRANCH   6   9
ATOM      9  N   UNL A   1      30.392  25.978  23.459  1.00  0.00    -0.331 N 
ATOM     10  H   UNL A   1      30.864  26.856  23.247  1.00  0.00     0.347 HD
ATOM     11  H   UNL A   1      30.276  25.381  22.639  1.00  0.00     0.347 HD
BRANCH   9  12
ATOM     12  C   UNL A   1      29.041  26.288  23.944  1.00  0.00     0.276 C 
BRANCH  12  13
ATOM     13  C   UNL A   1      28.572  27.659  23.439  1.00  0.00     0.181 C 
BRANCH  13  14
ATOM     14  C   UNL A   1      29.707  28.336  22.687  1.00  0.00     0.068 C 
ATOM     15  N   UNL A   1      30.648  28.898  22.064  1.00  0.00    -0.198 NA
ENDBRANCH  13  14
ENDBRANCH  12  13
ENDBRANCH   9  12
ENDBRANCH   6   9
ENDBRANCH   4   6
ENDBRANCH   3   4
ENDBRANCH   2   3
ENDBRANCH   1   2
BRANCH   1  16
ATOM     16  O   UNL A   1      31.946  30.850  25.720  1.00  0.00    -0.374 OA
BRANCH  16  17
ATOM     17  C   UNL A   1      31.603  31.686  26.827  1.00  0.00     0.202 C 
BRANCH  17  18
ATOM     18  C   UNL A   1      32.176  33.110  26.895  1.00  0.00     0.261 C 
BRANCH  18  19
ATOM     19  O   UNL A   1      32.879  33.396  28.118  1.00  0.00    -0.460 OA
BRANCH  19  20
ATOM     20  C   UNL A   1      34.031  34.093  27.960  1.00  0.00     0.338 C 
ATOM     21  O   UNL A   1      34.158  35.271  27.675  1.00  0.00    -0.246 OA
BRANCH  20  22
ATOM     22  C   UNL A   1      35.174  33.257  28.363  1.00  0.00     0.060 A 
ATOM     23  C   UNL A   1      34.913  31.956  28.813  1.00  0.00     0.016 A 
ATOM     24  C   UNL A   1      36.468  33.775  28.397  1.00  0.00     0.016 A 
ATOM     25  C   UNL A   1      35.947  31.172  29.318  1.00  0.00     0.010 A 
ATOM     26  C   UNL A   1      37.503  32.991  28.917  1.00  0.00     0.010 A 
ATOM     27  C   UNL A   1      37.242  31.696  29.402  1.00  0.00    -0.014 A 
BRANCH  27  28
ATOM     28  C   UNL A   1      38.299  30.941  30.117  1.00  0.00     0.031 A 
ATOM     29  C   UNL A   1      38.553  31.238  31.569  1.00  0.00     0.074 A 
ATOM     30  C   UNL A   1      39.006  29.986  29.485  1.00  0.00     0.049 A 
ATOM     31  N   UNL A   1      39.478  30.764  32.364  1.00  0.00    -0.248 NA
ATOM     32  C   UNL A   1      37.641  32.198  32.209  1.00  0.00     0.031 C 
ATOM     33  C   UNL A   1      38.811  29.571  28.096  1.00  0.00     0.029 A 
ATOM     34  N   UNL A   1      40.039  29.200  29.930  1.00  0.00    -0.354 N 
ATOM     35  C   UNL A   1      39.257  31.365  33.597  1.00  0.00     0.074 A 
ATOM     36  C   UNL A   1      38.139  32.269  33.435  1.00  0.00     0.031 C 
ATOM     37  C   UNL A   1      39.708  28.616  27.798  1.00  0.00     0.029 A 
ATOM     38  C   UNL A   1      40.565  28.384  28.958  1.00  0.00     0.049 A 
ATOM     39  H   UNL A   1      40.372  29.220  30.856  1.00  0.00     0.167 HD
ATOM     40  C   UNL A   1      39.919  31.167  34.763  1.00  0.00     0.037 A 
ATOM     41  C   UNL A   1      41.637  27.569  28.998  1.00  0.00     0.037 A 
ATOM     42  C   UNL A   1      41.037  30.273  34.916  1.00  0.00     0.049 A 
ATOM     43  C   UNL A   1      42.427  27.457  30.280  1.00  0.00     0.074 A 
ATOM     44  C   UNL A   1      41.787  30.016  36.050  1.00  0.00     0.029 A 
ATOM     45  N   UNL A   1      41.565  29.491  33.900  1.00  0.00    -0.354 N 
ATOM     46  N   UNL A   1      42.209  28.021  31.443  1.00  0.00    -0.248 NA
ATOM     47  C   UNL A   1      43.616  26.592  30.251  1.00  0.00     0.031 C 
ATOM     48  C   UNL A   1      42.800  29.114  35.708  1.00  0.00     0.029 A 
ATOM     49  C   UNL A   1      42.644  28.765  34.377  1.00  0.00     0.049 A 
ATOM     50  H   UNL A   1      41.224  29.456  32.977  1.00  0.00     0.167 HD
ATOM     51  C   UNL A   1      43.203  27.548  32.291  1.00  0.00     0.074 A 
ATOM     52  C   UNL A   1      44.017  26.638  31.513  1.00  0.00     0.031 C 
ATOM     53  C   UNL A   1      43.426  27.841  33.595  1.00  0.00     0.037 A 
BRANCH  40  54
ATOM     54  C   UNL A   1      39.458  31.938  35.966  1.00  0.00     0.064 A 
ATOM     55  C   UNL A   1      39.992  33.198  36.277  1.00  0.00     0.173 A 
ATOM     56  C   UNL A   1      38.432  31.440  36.782  1.00  0.00     0.173 A 
ATOM     57  F   UNL A   1      40.984  33.713  35.535  1.00  0.00    -0.203 F 
ATOM     58  C   UNL A   1      39.527  33.922  37.372  1.00  0.00     0.198 A 
ATOM     59  C   UNL A   1      37.948  32.180  37.858  1.00  0.00     0.198 A 
ATOM     60  F   UNL A   1      37.883  30.243  36.526  1.00  0.00    -0.203 F 
ATOM     61  F   UNL A   1      40.078  35.106  37.673  1.00  0.00    -0.200 F 
ATOM     62  C   UNL A   1      38.500  33.418  38.156  1.00  0.00     0.200 A 
ATOM     63  F   UNL A   1      36.945  31.699  38.605  1.00  0.00    -0.200 F 
ATOM     64  F   UNL A   1      38.043  34.123  39.199  1.00  0.00    -0.200 F 
ENDBRANCH  40  54
BRANCH  41  65
ATOM     65  C   UNL A   1      42.060  26.813  27.787  1.00  0.00     0.064 A 
ATOM     66  C   UNL A   1      41.647  25.488  27.582  1.00  0.00     0.173 A 
ATOM     67  C   UNL A   1      42.937  27.373  26.848  1.00  0.00     0.173 A 
ATOM     68  F   UNL A   1      40.828  24.898  28.464  1.00  0.00    -0.203 F 
ATOM     69  C   UNL A   1      42.128  24.741  26.507  1.00  0.00     0.198 A 
ATOM     70  C   UNL A   1      43.388  26.637  25.753  1.00  0.00     0.198 A 
ATOM     71  F   UNL A   1      43.365  28.635  26.994  1.00  0.00    -0.203 F 
ATOM     72  F   UNL A   1      41.776  23.454  26.379  1.00  0.00    -0.200 F 
ATOM     73  C   UNL A   1      42.996  25.317  25.593  1.00  0.00     0.200 A 
ATOM     74  F   UNL A   1      44.216  27.203  24.864  1.00  0.00    -0.200 F 
ATOM     75  F   UNL A   1      43.467  24.596  24.566  1.00  0.00    -0.200 F 
ENDBRANCH  41  65
BRANCH  53  76
ATOM     76  C   UNL A   1      44.556  27.128  34.284  1.00  0.00     0.064 A 
ATOM     77  C   UNL A   1      45.842  27.683  34.365  1.00  0.00     0.173 A 
ATOM     78  C   UNL A   1      44.335  25.891  34.909  1.00  0.00     0.173 A 
ATOM     79  F   UNL A   1      46.109  28.856  33.772  1.00  0.00    -0.203 F 
ATOM     80  C   UNL A   1      46.871  27.011  35.021  1.00  0.00     0.198 A 
ATOM     81  C   UNL A   1      45.357  25.240  35.594  1.00  0.00     0.198 A 
ATOM     82  F   UNL A   1      43.122  25.320  34.869  1.00  0.00    -0.203 F 
ATOM     83  F   UNL A   1      48.104  27.536  35.040  1.00  0.00    -0.200 F 
ATOM     84  C   UNL A   1      46.625  25.796  35.642  1.00  0.00     0.200 A 
ATOM     85  F   UNL A   1      45.113  24.074  36.208  1.00  0.00    -0.200 F 
ATOM     86  F   UNL A   1      47.615  25.158  36.283  1.00  0.00    -0.200 F 
ENDBRANCH  53  76
ENDBRANCH  27  28
ENDBRANCH  20  22
ENDBRANCH  19  20
ENDBRANCH  18  19
ENDBRANCH  17  18
ENDBRANCH  16  17
ENDBRANCH   1  16
TORSDOF 18
ENDMDL
