MODEL 1
REMARK VINA RESULT:     -11.2      0.000      0.000
REMARK SMILES C[C@@H](CNc1cccc(F)c1C(=O)OCCOCCOC(=O)c1ccc(-c2c3nc(c(-c4c(F)c(F)c(F)c(F)c4F)c4ccc([nH]4)c(-c4c(F)c(F)c(F)c(F)c4F)c4nc(c(-c5c(F)c(F)c(F)c(F)c5F)c5ccc2[nH]5)C=C4)C=C3)cc1)[NH+]1CCCCC1
REMARK SMILES IDX 16 1 15 2 14 3 12 4 13 5 11 6 5 7 6 8 7 9 9 10 8 11 10 12
REMARK SMILES IDX 4 13 3 15 2 16 1 17 86 18 87 19 91 20 88 22 90 23 89 24
REMARK SMILES IDX 17 25 18 26 19 27 20 28 21 29 22 30 23 31 24 32 85 33 25 34
REMARK SMILES IDX 84 35 26 36 27 37 28 38 78 39 29 40 83 41 77 42 79 43 30 44
REMARK SMILES IDX 82 45 76 46 75 47 31 49 63 50 43 51 62 52 44 53 47 54 61 55
REMARK SMILES IDX 80 56 45 57 46 58 60 60 81 61 48 62 32 63 33 64 41 65 34 66
REMARK SMILES IDX 35 67 39 68 42 69 36 70 37 71 40 72 38 73 64 74 65 75 73 76
REMARK SMILES IDX 66 77 67 78 71 79 74 80 68 81 69 82 72 83 70 84 49 85 50 86
REMARK SMILES IDX 58 87 51 88 52 89 56 90 59 91 53 92 54 93 57 94 55 95
REMARK H PARENT 4 14 86 21 79 48 47 59
REMARK Flexibility Score: inf
ROOT
ATOM      1  C   UNL A   1      32.473  29.613  27.007  1.00  0.00     0.202 C 
ENDROOT
BRANCH   1   2
ATOM      2  C   UNL A   1      33.432  28.487  26.602  1.00  0.00     0.261 C 
BRANCH   2   3
ATOM      3  O   UNL A   1      32.771  27.286  26.179  1.00  0.00    -0.460 OA
BRANCH   3   4
ATOM      4  C   UNL A   1      32.648  27.217  24.831  1.00  0.00     0.343 C 
ATOM      5  O   UNL A   1      33.567  26.912  24.085  1.00  0.00    -0.246 OA
BRANCH   4   6
ATOM      6  C   UNL A   1      31.245  27.324  24.362  1.00  0.00     0.118 A 
ATOM      7  C   UNL A   1      30.354  26.245  24.606  1.00  0.00     0.052 A 
ATOM      8  C   UNL A   1      29.041  26.342  24.119  1.00  0.00     0.027 A 
ATOM      9  C   UNL A   1      28.621  27.457  23.391  1.00  0.00     0.005 A 
ATOM     10  C   UNL A   1      30.814  28.433  23.633  1.00  0.00     0.139 A 
ATOM     11  C   UNL A   1      29.510  28.500  23.145  1.00  0.00     0.040 A 
ATOM     12  F   UNL A   1      31.645  29.443  23.341  1.00  0.00    -0.206 F 
BRANCH   7  13
ATOM     13  N   UNL A   1      30.777  25.083  25.266  1.00  0.00    -0.378 N 
ATOM     14  H   UNL A   1      30.819  25.069  26.249  1.00  0.00     0.160 HD
BRANCH  13  15
ATOM     15  C   UNL A   1      31.156  23.887  24.504  1.00  0.00     0.177 C 
BRANCH  15  16
ATOM     16  C   UNL A   1      31.064  22.559  25.351  1.00  0.00     0.200 C 
ATOM     17  C   UNL A   1      30.562  22.926  26.769  1.00  0.00     0.077 C 
BRANCH  16  18
ATOM     18  N   UNL A   1      32.290  21.725  25.460  1.00  0.00    -0.331 N 
ATOM     19  C   UNL A   1      32.308  20.590  24.521  1.00  0.00     0.262 C 
ATOM     20  C   UNL A   1      33.564  22.443  25.371  1.00  0.00     0.262 C 
ATOM     21  H   UNL A   1      32.219  21.376  26.415  1.00  0.00     0.348 HD
ATOM     22  C   UNL A   1      33.446  19.612  24.838  1.00  0.00     0.062 C 
ATOM     23  C   UNL A   1      34.704  21.533  25.832  1.00  0.00     0.062 C 
ATOM     24  C   UNL A   1      34.801  20.306  24.942  1.00  0.00     0.012 C 
ENDBRANCH  16  18
ENDBRANCH  15  16
ENDBRANCH  13  15
ENDBRANCH   7  13
ENDBRANCH   4   6
ENDBRANCH   3   4
ENDBRANCH   2   3
ENDBRANCH   1   2
BRANCH   1  25
ATOM     25  O   UNL A   1      32.187  30.670  26.097  1.00  0.00    -0.374 OA
BRANCH  25  26
ATOM     26  C   UNL A   1      31.382  31.766  26.525  1.00  0.00     0.202 C 
BRANCH  26  27
ATOM     27  C   UNL A   1      32.060  33.089  26.900  1.00  0.00     0.261 C 
BRANCH  27  28
ATOM     28  O   UNL A   1      32.913  32.976  28.049  1.00  0.00    -0.460 OA
BRANCH  28  29
ATOM     29  C   UNL A   1      33.984  33.801  28.030  1.00  0.00     0.338 C 
ATOM     30  O   UNL A   1      33.983  35.024  27.954  1.00  0.00    -0.246 OA
BRANCH  29  31
ATOM     31  C   UNL A   1      35.212  33.039  28.311  1.00  0.00     0.060 A 
ATOM     32  C   UNL A   1      35.072  31.675  28.601  1.00  0.00     0.016 A 
ATOM     33  C   UNL A   1      36.461  33.660  28.369  1.00  0.00     0.016 A 
ATOM     34  C   UNL A   1      36.174  30.938  29.015  1.00  0.00     0.010 A 
ATOM     35  C   UNL A   1      37.564  32.922  28.802  1.00  0.00     0.010 A 
ATOM     36  C   UNL A   1      37.413  31.572  29.169  1.00  0.00    -0.014 A 
BRANCH  36  37
ATOM     37  C   UNL A   1      38.494  30.870  29.894  1.00  0.00     0.031 A 
ATOM     38  C   UNL A   1      38.715  31.197  31.343  1.00  0.00     0.074 A 
ATOM     39  C   UNL A   1      39.222  29.918  29.290  1.00  0.00     0.049 A 
ATOM     40  N   UNL A   1      39.602  30.718  32.178  1.00  0.00    -0.248 NA
ATOM     41  C   UNL A   1      37.811  32.198  31.932  1.00  0.00     0.031 C 
ATOM     42  C   UNL A   1      39.048  29.476  27.909  1.00  0.00     0.029 A 
ATOM     43  N   UNL A   1      40.248  29.147  29.769  1.00  0.00    -0.354 N 
ATOM     44  C   UNL A   1      39.358  31.353  33.388  1.00  0.00     0.074 A 
ATOM     45  C   UNL A   1      38.269  32.281  33.172  1.00  0.00     0.031 C 
ATOM     46  C   UNL A   1      39.936  28.501  27.652  1.00  0.00     0.029 A 
ATOM     47  C   UNL A   1      40.760  28.278  28.840  1.00  0.00     0.049 A 
ATOM     48  H   UNL A   1      40.587  29.210  30.691  1.00  0.00     0.167 HD
ATOM     49  C   UNL A   1      39.979  31.168  34.576  1.00  0.00     0.037 A 
ATOM     50  C   UNL A   1      41.784  27.408  28.939  1.00  0.00     0.037 A 
ATOM     51  C   UNL A   1      41.070  30.252  34.780  1.00  0.00     0.049 A 
ATOM     52  C   UNL A   1      42.529  27.291  30.241  1.00  0.00     0.074 A 
ATOM     53  C   UNL A   1      41.781  30.001  35.939  1.00  0.00     0.029 A 
ATOM     54  N   UNL A   1      41.609  29.438  33.793  1.00  0.00    -0.354 N 
ATOM     55  N   UNL A   1      42.306  27.904  31.379  1.00  0.00    -0.248 NA
ATOM     56  C   UNL A   1      43.669  26.365  30.273  1.00  0.00     0.031 C 
ATOM     57  C   UNL A   1      42.780  29.069  35.642  1.00  0.00     0.029 A 
ATOM     58  C   UNL A   1      42.660  28.700  34.312  1.00  0.00     0.049 A 
ATOM     59  H   UNL A   1      41.293  29.394  32.862  1.00  0.00     0.167 HD
ATOM     60  C   UNL A   1      43.258  27.423  32.267  1.00  0.00     0.074 A 
ATOM     61  C   UNL A   1      44.059  26.462  31.537  1.00  0.00     0.031 C 
ATOM     62  C   UNL A   1      43.446  27.746  33.570  1.00  0.00     0.037 A 
BRANCH  49  63
ATOM     63  C   UNL A   1      39.504  31.989  35.737  1.00  0.00     0.064 A 
ATOM     64  C   UNL A   1      40.063  33.250  35.994  1.00  0.00     0.173 A 
ATOM     65  C   UNL A   1      38.512  31.520  36.611  1.00  0.00     0.173 A 
ATOM     66  F   UNL A   1      41.016  33.744  35.190  1.00  0.00    -0.203 F 
ATOM     67  C   UNL A   1      39.646  34.009  37.085  1.00  0.00     0.198 A 
ATOM     68  C   UNL A   1      38.077  32.294  37.684  1.00  0.00     0.198 A 
ATOM     69  F   UNL A   1      37.934  30.327  36.400  1.00  0.00    -0.203 F 
ATOM     70  F   UNL A   1      40.209  35.202  37.322  1.00  0.00    -0.200 F 
ATOM     71  C   UNL A   1      38.649  33.534  37.924  1.00  0.00     0.200 A 
ATOM     72  F   UNL A   1      37.095  31.845  38.478  1.00  0.00    -0.200 F 
ATOM     73  F   UNL A   1      38.236  34.276  38.961  1.00  0.00    -0.200 F 
ENDBRANCH  49  63
BRANCH  50  74
ATOM     74  C   UNL A   1      42.140  26.571  27.766  1.00  0.00     0.064 A 
ATOM     75  C   UNL A   1      41.534  25.325  27.549  1.00  0.00     0.173 A 
ATOM     76  C   UNL A   1      43.134  26.981  26.868  1.00  0.00     0.173 A 
ATOM     77  F   UNL A   1      40.577  24.890  28.381  1.00  0.00    -0.203 F 
ATOM     78  C   UNL A   1      41.930  24.509  26.492  1.00  0.00     0.198 A 
ATOM     79  C   UNL A   1      43.513  26.174  25.798  1.00  0.00     0.198 A 
ATOM     80  F   UNL A   1      43.725  28.175  27.023  1.00  0.00    -0.203 F 
ATOM     81  F   UNL A   1      41.361  23.306  26.327  1.00  0.00    -0.200 F 
ATOM     82  C   UNL A   1      42.919  24.933  25.618  1.00  0.00     0.200 A 
ATOM     83  F   UNL A   1      44.455  26.595  24.944  1.00  0.00    -0.200 F 
ATOM     84  F   UNL A   1      43.299  24.147  24.601  1.00  0.00    -0.200 F 
ENDBRANCH  50  74
BRANCH  62  85
ATOM     85  C   UNL A   1      44.547  27.044  34.311  1.00  0.00     0.064 A 
ATOM     86  C   UNL A   1      44.276  25.875  35.040  1.00  0.00     0.173 A 
ATOM     87  C   UNL A   1      45.843  27.573  34.373  1.00  0.00     0.173 A 
ATOM     88  F   UNL A   1      43.049  25.334  35.020  1.00  0.00    -0.203 F 
ATOM     89  C   UNL A   1      45.260  25.271  35.817  1.00  0.00     0.198 A 
ATOM     90  C   UNL A   1      46.833  26.951  35.130  1.00  0.00     0.198 A 
ATOM     91  F   UNL A   1      46.153  28.682  33.684  1.00  0.00    -0.203 F 
ATOM     92  F   UNL A   1      44.970  24.177  36.533  1.00  0.00    -0.200 F 
ATOM     93  C   UNL A   1      46.538  25.808  35.860  1.00  0.00     0.200 A 
ATOM     94  F   UNL A   1      48.073  27.458  35.154  1.00  0.00    -0.200 F 
ATOM     95  F   UNL A   1      47.487  25.223  36.604  1.00  0.00    -0.200 F 
ENDBRANCH  62  85
ENDBRANCH  36  37
ENDBRANCH  29  31
ENDBRANCH  28  29
ENDBRANCH  27  28
ENDBRANCH  26  27
ENDBRANCH  25  26
ENDBRANCH   1  25
TORSDOF 18
ENDMDL
MODEL 2
REMARK VINA RESULT:     -11.1      1.407      3.406
REMARK SMILES C[C@@H](CNc1cccc(F)c1C(=O)OCCOCCOC(=O)c1ccc(-c2c3nc(c(-c4c(F)c(F)c(F)c(F)c4F)c4ccc([nH]4)c(-c4c(F)c(F)c(F)c(F)c4F)c4nc(c(-c5c(F)c(F)c(F)c(F)c5F)c5ccc2[nH]5)C=C4)C=C3)cc1)[NH+]1CCCCC1
REMARK SMILES IDX 16 1 15 2 14 3 12 4 13 5 11 6 5 7 6 8 7 9 9 10 8 11 10 12
REMARK SMILES IDX 4 13 3 15 2 16 1 17 86 18 87 19 91 20 88 22 90 23 89 24
REMARK SMILES IDX 17 25 18 26 19 27 20 28 21 29 22 30 23 31 24 32 85 33 25 34
REMARK SMILES IDX 84 35 26 36 27 37 28 38 78 39 29 40 83 41 77 42 79 43 30 44
REMARK SMILES IDX 82 45 76 46 75 47 31 49 63 50 43 51 62 52 44 53 47 54 61 55
REMARK SMILES IDX 80 56 45 57 46 58 60 60 81 61 48 62 32 63 33 64 41 65 34 66
REMARK SMILES IDX 35 67 39 68 42 69 36 70 37 71 40 72 38 73 64 74 65 75 73 76
REMARK SMILES IDX 66 77 67 78 71 79 74 80 68 81 69 82 72 83 70 84 49 85 50 86
REMARK SMILES IDX 58 87 51 88 52 89 56 90 59 91 53 92 54 93 57 94 55 95
REMARK H PARENT 4 14 86 21 79 48 47 59
REMARK Flexibility Score: inf
ROOT
ATOM      1  C   UNL A   1      32.248  29.362  27.099  1.00  0.00     0.202 C 
ENDROOT
BRANCH   1   2
ATOM      2  C   UNL A   1      33.293  28.241  27.067  1.00  0.00     0.261 C 
BRANCH   2   3
ATOM      3  O   UNL A   1      33.288  27.478  25.852  1.00  0.00    -0.460 OA
BRANCH   3   4
ATOM      4  C   UNL A   1      32.818  26.220  26.039  1.00  0.00     0.343 C 
ATOM      5  O   UNL A   1      31.852  25.960  26.742  1.00  0.00    -0.246 OA
BRANCH   4   6
ATOM      6  C   UNL A   1      33.439  25.219  25.138  1.00  0.00     0.118 A 
ATOM      7  C   UNL A   1      33.462  25.473  23.740  1.00  0.00     0.052 A 
ATOM      8  C   UNL A   1      34.014  24.498  22.894  1.00  0.00     0.027 A 
ATOM      9  C   UNL A   1      34.508  23.296  23.405  1.00  0.00     0.005 A 
ATOM     10  C   UNL A   1      33.934  24.014  25.635  1.00  0.00     0.139 A 
ATOM     11  C   UNL A   1      34.464  23.053  24.775  1.00  0.00     0.040 A 
ATOM     12  F   UNL A   1      33.879  23.722  26.943  1.00  0.00    -0.206 F 
BRANCH   7  13
ATOM     13  N   UNL A   1      32.901  26.639  23.199  1.00  0.00    -0.378 N 
ATOM     14  H   UNL A   1      33.422  27.474  23.198  1.00  0.00     0.160 HD
BRANCH  13  15
ATOM     15  C   UNL A   1      31.545  26.624  22.636  1.00  0.00     0.177 C 
BRANCH  15  16
ATOM     16  C   UNL A   1      30.457  27.187  23.631  1.00  0.00     0.200 C 
ATOM     17  C   UNL A   1      29.570  26.006  24.094  1.00  0.00     0.077 C 
BRANCH  16  18
ATOM     18  N   UNL A   1      29.593  28.297  23.149  1.00  0.00    -0.331 N 
ATOM     19  C   UNL A   1      28.163  28.087  23.431  1.00  0.00     0.262 C 
ATOM     20  C   UNL A   1      29.977  29.643  23.585  1.00  0.00     0.262 C 
ATOM     21  H   UNL A   1      29.751  28.261  22.143  1.00  0.00     0.348 HD
ATOM     22  C   UNL A   1      27.287  29.109  22.697  1.00  0.00     0.062 C 
ATOM     23  C   UNL A   1      29.227  30.688  22.756  1.00  0.00     0.062 C 
ATOM     24  C   UNL A   1      27.726  30.548  22.951  1.00  0.00     0.012 C 
ENDBRANCH  16  18
ENDBRANCH  15  16
ENDBRANCH  13  15
ENDBRANCH   7  13
ENDBRANCH   4   6
ENDBRANCH   3   4
ENDBRANCH   2   3
ENDBRANCH   1   2
BRANCH   1  25
ATOM     25  O   UNL A   1      32.564  30.649  26.579  1.00  0.00    -0.374 OA
BRANCH  25  26
ATOM     26  C   UNL A   1      31.546  31.645  26.504  1.00  0.00     0.202 C 
BRANCH  26  27
ATOM     27  C   UNL A   1      31.785  33.008  27.164  1.00  0.00     0.261 C 
BRANCH  27  28
ATOM     28  O   UNL A   1      33.141  33.462  27.038  1.00  0.00    -0.460 OA
BRANCH  28  29
ATOM     29  C   UNL A   1      33.702  33.869  28.200  1.00  0.00     0.338 C 
ATOM     30  O   UNL A   1      33.223  34.630  29.032  1.00  0.00    -0.246 OA
BRANCH  29  31
ATOM     31  C   UNL A   1      34.938  33.114  28.454  1.00  0.00     0.060 A 
ATOM     32  C   UNL A   1      34.810  31.754  28.770  1.00  0.00     0.016 A 
ATOM     33  C   UNL A   1      36.188  33.737  28.465  1.00  0.00     0.016 A 
ATOM     34  C   UNL A   1      35.926  31.025  29.162  1.00  0.00     0.010 A 
ATOM     35  C   UNL A   1      37.305  33.008  28.876  1.00  0.00     0.010 A 
ATOM     36  C   UNL A   1      37.168  31.664  29.268  1.00  0.00    -0.014 A 
BRANCH  36  37
ATOM     37  C   UNL A   1      38.271  30.974  29.970  1.00  0.00     0.031 A 
ATOM     38  C   UNL A   1      38.515  31.300  31.416  1.00  0.00     0.074 A 
ATOM     39  C   UNL A   1      39.001  30.034  29.350  1.00  0.00     0.049 A 
ATOM     40  N   UNL A   1      39.423  30.830  32.233  1.00  0.00    -0.248 NA
ATOM     41  C   UNL A   1      37.608  32.287  32.025  1.00  0.00     0.031 C 
ATOM     42  C   UNL A   1      38.808  29.594  27.971  1.00  0.00     0.029 A 
ATOM     43  N   UNL A   1      40.047  29.276  29.808  1.00  0.00    -0.354 N 
ATOM     44  C   UNL A   1      39.193  31.459  33.449  1.00  0.00     0.074 A 
ATOM     45  C   UNL A   1      38.088  32.372  33.257  1.00  0.00     0.031 C 
ATOM     46  C   UNL A   1      39.705  28.632  27.694  1.00  0.00     0.029 A 
ATOM     47  C   UNL A   1      40.553  28.417  28.866  1.00  0.00     0.049 A 
ATOM     48  H   UNL A   1      40.402  29.341  30.724  1.00  0.00     0.167 HD
ATOM     49  C   UNL A   1      39.839  31.278  34.625  1.00  0.00     0.037 A 
ATOM     50  C   UNL A   1      41.591  27.561  28.944  1.00  0.00     0.037 A 
ATOM     51  C   UNL A   1      40.946  30.377  34.806  1.00  0.00     0.049 A 
ATOM     52  C   UNL A   1      42.362  27.451  30.231  1.00  0.00     0.074 A 
ATOM     53  C   UNL A   1      41.681  30.132  35.951  1.00  0.00     0.029 A 
ATOM     54  N   UNL A   1      41.478  29.574  33.807  1.00  0.00    -0.354 N 
ATOM     55  N   UNL A   1      42.151  28.057  31.375  1.00  0.00    -0.248 NA
ATOM     56  C   UNL A   1      43.515  26.540  30.239  1.00  0.00     0.031 C 
ATOM     57  C   UNL A   1      42.688  29.215  35.633  1.00  0.00     0.029 A 
ATOM     58  C   UNL A   1      42.548  28.849  34.304  1.00  0.00     0.049 A 
ATOM     59  H   UNL A   1      41.145  29.528  32.881  1.00  0.00     0.167 HD
ATOM     60  C   UNL A   1      43.126  27.586  32.244  1.00  0.00     0.074 A 
ATOM     61  C   UNL A   1      43.927  26.639  31.496  1.00  0.00     0.031 C 
ATOM     62  C   UNL A   1      43.334  27.908  33.544  1.00  0.00     0.037 A 
BRANCH  49  63
ATOM     63  C   UNL A   1      39.374  32.089  35.798  1.00  0.00     0.064 A 
ATOM     64  C   UNL A   1      38.403  31.583  36.675  1.00  0.00     0.173 A 
ATOM     65  C   UNL A   1      39.874  33.377  36.045  1.00  0.00     0.173 A 
ATOM     66  F   UNL A   1      37.892  30.357  36.483  1.00  0.00    -0.203 F 
ATOM     67  C   UNL A   1      37.946  32.338  37.752  1.00  0.00     0.198 A 
ATOM     68  C   UNL A   1      39.437  34.118  37.139  1.00  0.00     0.198 A 
ATOM     69  F   UNL A   1      40.817  33.900  35.246  1.00  0.00    -0.203 F 
ATOM     70  F   UNL A   1      37.003  31.842  38.564  1.00  0.00    -0.200 F 
ATOM     71  C   UNL A   1      38.469  33.601  37.987  1.00  0.00     0.200 A 
ATOM     72  F   UNL A   1      39.961  35.327  37.381  1.00  0.00    -0.200 F 
ATOM     73  F   UNL A   1      38.043  34.318  39.037  1.00  0.00    -0.200 F 
ENDBRANCH  49  63
BRANCH  50  74
ATOM     74  C   UNL A   1      41.937  26.733  27.762  1.00  0.00     0.064 A 
ATOM     75  C   UNL A   1      41.337  25.483  27.547  1.00  0.00     0.173 A 
ATOM     76  C   UNL A   1      42.914  27.156  26.851  1.00  0.00     0.173 A 
ATOM     77  F   UNL A   1      40.395  25.036  28.390  1.00  0.00    -0.203 F 
ATOM     78  C   UNL A   1      41.724  24.675  26.480  1.00  0.00     0.198 A 
ATOM     79  C   UNL A   1      43.285  26.356  25.773  1.00  0.00     0.198 A 
ATOM     80  F   UNL A   1      43.498  28.353  27.004  1.00  0.00    -0.203 F 
ATOM     81  F   UNL A   1      41.163  23.469  26.317  1.00  0.00    -0.200 F 
ATOM     82  C   UNL A   1      42.698  25.112  25.594  1.00  0.00     0.200 A 
ATOM     83  F   UNL A   1      44.211  26.789  24.907  1.00  0.00    -0.200 F 
ATOM     84  F   UNL A   1      43.069  24.334  24.568  1.00  0.00    -0.200 F 
ENDBRANCH  50  74
BRANCH  62  85
ATOM     85  C   UNL A   1      44.458  27.219  34.263  1.00  0.00     0.064 A 
ATOM     86  C   UNL A   1      44.225  26.023  34.959  1.00  0.00     0.173 A 
ATOM     87  C   UNL A   1      45.737  27.785  34.336  1.00  0.00     0.173 A 
ATOM     88  F   UNL A   1      43.014  25.446  34.927  1.00  0.00    -0.203 F 
ATOM     89  C   UNL A   1      45.229  25.427  35.716  1.00  0.00     0.198 A 
ATOM     90  C   UNL A   1      46.748  27.172  35.073  1.00  0.00     0.198 A 
ATOM     91  F   UNL A   1      46.012  28.922  33.678  1.00  0.00    -0.203 F 
ATOM     92  F   UNL A   1      44.974  24.305  36.402  1.00  0.00    -0.200 F 
ATOM     93  C   UNL A   1      46.490  26.001  35.770  1.00  0.00     0.200 A 
ATOM     94  F   UNL A   1      47.973  27.716  35.108  1.00  0.00    -0.200 F 
ATOM     95  F   UNL A   1      47.459  25.424  36.495  1.00  0.00    -0.200 F 
ENDBRANCH  62  85
ENDBRANCH  36  37
ENDBRANCH  29  31
ENDBRANCH  28  29
ENDBRANCH  27  28
ENDBRANCH  26  27
ENDBRANCH  25  26
ENDBRANCH   1  25
TORSDOF 18
ENDMDL
MODEL 3
REMARK VINA RESULT:     -11.1      2.153      4.022
REMARK SMILES C[C@@H](CNc1cccc(F)c1C(=O)OCCOCCOC(=O)c1ccc(-c2c3nc(c(-c4c(F)c(F)c(F)c(F)c4F)c4ccc([nH]4)c(-c4c(F)c(F)c(F)c(F)c4F)c4nc(c(-c5c(F)c(F)c(F)c(F)c5F)c5ccc2[nH]5)C=C4)C=C3)cc1)[NH+]1CCCCC1
REMARK SMILES IDX 16 1 15 2 14 3 12 4 13 5 11 6 5 7 6 8 7 9 9 10 8 11 10 12
REMARK SMILES IDX 4 13 3 15 2 16 1 17 86 18 87 19 91 20 88 22 90 23 89 24
REMARK SMILES IDX 17 25 18 26 19 27 20 28 21 29 22 30 23 31 24 32 85 33 25 34
REMARK SMILES IDX 84 35 26 36 27 37 28 38 78 39 29 40 83 41 77 42 79 43 30 44
REMARK SMILES IDX 82 45 76 46 75 47 31 49 63 50 43 51 62 52 44 53 47 54 61 55
REMARK SMILES IDX 80 56 45 57 46 58 60 60 81 61 48 62 32 63 33 64 41 65 34 66
REMARK SMILES IDX 35 67 39 68 42 69 36 70 37 71 40 72 38 73 64 74 65 75 73 76
REMARK SMILES IDX 66 77 67 78 71 79 74 80 68 81 69 82 72 83 70 84 49 85 50 86
REMARK SMILES IDX 58 87 51 88 52 89 56 90 59 91 53 92 54 93 57 94 55 95
REMARK H PARENT 4 14 86 21 79 48 47 59
REMARK Flexibility Score: inf
ROOT
ATOM      1  C   UNL A   1      33.883  30.424  27.234  1.00  0.00     0.202 C 
ENDROOT
BRANCH   1   2
ATOM      2  C   UNL A   1      34.425  28.991  27.291  1.00  0.00     0.261 C 
BRANCH   2   3
ATOM      3  O   UNL A   1      34.355  28.294  26.039  1.00  0.00    -0.460 OA
BRANCH   3   4
ATOM      4  C   UNL A   1      33.441  27.293  26.060  1.00  0.00     0.343 C 
ATOM      5  O   UNL A   1      32.491  27.264  26.830  1.00  0.00    -0.246 OA
BRANCH   4   6
ATOM      6  C   UNL A   1      33.570  26.354  24.920  1.00  0.00     0.118 A 
ATOM      7  C   UNL A   1      33.361  26.841  23.602  1.00  0.00     0.052 A 
ATOM      8  C   UNL A   1      33.444  25.932  22.535  1.00  0.00     0.027 A 
ATOM      9  C   UNL A   1      33.699  24.578  22.758  1.00  0.00     0.005 A 
ATOM     10  C   UNL A   1      33.823  24.998  25.130  1.00  0.00     0.139 A 
ATOM     11  C   UNL A   1      33.885  24.111  24.057  1.00  0.00     0.040 A 
ATOM     12  F   UNL A   1      33.972  24.499  26.365  1.00  0.00    -0.206 F 
BRANCH   7  13
ATOM     13  N   UNL A   1      33.027  28.181  23.362  1.00  0.00    -0.378 N 
ATOM     14  H   UNL A   1      33.612  28.897  23.699  1.00  0.00     0.160 HD
BRANCH  13  15
ATOM     15  C   UNL A   1      31.812  28.525  22.612  1.00  0.00     0.177 C 
BRANCH  15  16
ATOM     16  C   UNL A   1      30.561  28.769  23.542  1.00  0.00     0.200 C 
ATOM     17  C   UNL A   1      29.928  27.395  23.871  1.00  0.00     0.077 C 
BRANCH  16  18
ATOM     18  N   UNL A   1      29.507  29.695  23.049  1.00  0.00    -0.331 N 
ATOM     19  C   UNL A   1      29.359  30.904  23.876  1.00  0.00     0.262 C 
ATOM     20  C   UNL A   1      29.605  30.085  21.640  1.00  0.00     0.262 C 
ATOM     21  H   UNL A   1      28.670  29.119  23.133  1.00  0.00     0.348 HD
ATOM     22  C   UNL A   1      28.102  31.697  23.498  1.00  0.00     0.062 C 
ATOM     23  C   UNL A   1      28.298  30.744  21.193  1.00  0.00     0.062 C 
ATOM     24  C   UNL A   1      28.029  32.000  22.004  1.00  0.00     0.012 C 
ENDBRANCH  16  18
ENDBRANCH  15  16
ENDBRANCH  13  15
ENDBRANCH   7  13
ENDBRANCH   4   6
ENDBRANCH   3   4
ENDBRANCH   2   3
ENDBRANCH   1   2
BRANCH   1  25
ATOM     25  O   UNL A   1      32.497  30.656  27.007  1.00  0.00    -0.374 OA
BRANCH  25  26
ATOM     26  C   UNL A   1      32.021  31.993  26.876  1.00  0.00     0.202 C 
BRANCH  26  27
ATOM     27  C   UNL A   1      32.882  33.147  27.402  1.00  0.00     0.261 C 
BRANCH  27  28
ATOM     28  O   UNL A   1      32.211  33.943  28.391  1.00  0.00    -0.460 OA
BRANCH  28  29
ATOM     29  C   UNL A   1      32.902  35.034  28.791  1.00  0.00     0.338 C 
ATOM     30  O   UNL A   1      32.568  36.208  28.688  1.00  0.00    -0.246 OA
BRANCH  29  31
ATOM     31  C   UNL A   1      34.081  34.625  29.571  1.00  0.00     0.060 A 
ATOM     32  C   UNL A   1      35.322  34.637  28.920  1.00  0.00     0.016 A 
ATOM     33  C   UNL A   1      33.965  34.163  30.884  1.00  0.00     0.016 A 
ATOM     34  C   UNL A   1      36.445  34.125  29.557  1.00  0.00     0.010 A 
ATOM     35  C   UNL A   1      35.091  33.632  31.516  1.00  0.00     0.010 A 
ATOM     36  C   UNL A   1      36.322  33.572  30.838  1.00  0.00    -0.014 A 
BRANCH  36  37
ATOM     37  C   UNL A   1      37.434  32.762  31.379  1.00  0.00     0.031 A 
ATOM     38  C   UNL A   1      37.939  33.070  32.760  1.00  0.00     0.074 A 
ATOM     39  C   UNL A   1      37.943  31.736  30.679  1.00  0.00     0.049 A 
ATOM     40  N   UNL A   1      38.903  32.503  33.439  1.00  0.00    -0.248 NA
ATOM     41  C   UNL A   1      37.259  34.163  33.475  1.00  0.00     0.031 C 
ATOM     42  C   UNL A   1      37.486  31.309  29.360  1.00  0.00     0.029 A 
ATOM     43  N   UNL A   1      38.953  30.863  30.990  1.00  0.00    -0.354 N 
ATOM     44  C   UNL A   1      38.942  33.166  34.658  1.00  0.00     0.074 A 
ATOM     45  C   UNL A   1      37.934  34.202  34.614  1.00  0.00     0.031 C 
ATOM     46  C   UNL A   1      38.210  30.245  28.974  1.00  0.00     0.029 A 
ATOM     47  C   UNL A   1      39.201  29.941  30.005  1.00  0.00     0.049 A 
ATOM     48  H   UNL A   1      39.453  30.894  31.837  1.00  0.00     0.167 HD
ATOM     49  C   UNL A   1      39.739  32.920  35.724  1.00  0.00     0.037 A 
ATOM     50  C   UNL A   1      40.133  28.969  29.945  1.00  0.00     0.037 A 
ATOM     51  C   UNL A   1      40.749  31.895  35.756  1.00  0.00     0.049 A 
ATOM     52  C   UNL A   1      41.078  28.780  31.099  1.00  0.00     0.074 A 
ATOM     53  C   UNL A   1      41.622  31.575  36.779  1.00  0.00     0.029 A 
ATOM     54  N   UNL A   1      41.020  31.026  34.709  1.00  0.00    -0.354 N 
ATOM     55  N   UNL A   1      41.121  29.417  32.245  1.00  0.00    -0.248 NA
ATOM     56  C   UNL A   1      42.104  27.738  30.954  1.00  0.00     0.031 C 
ATOM     57  C   UNL A   1      42.453  30.543  36.334  1.00  0.00     0.029 A 
ATOM     58  C   UNL A   1      42.064  30.183  35.054  1.00  0.00     0.049 A 
ATOM     59  H   UNL A   1      40.543  31.011  33.848  1.00  0.00     0.167 HD
ATOM     60  C   UNL A   1      42.160  28.842  32.965  1.00  0.00     0.074 A 
ATOM     61  C   UNL A   1      42.717  27.799  32.129  1.00  0.00     0.031 C 
ATOM     62  C   UNL A   1      42.606  29.148  34.208  1.00  0.00     0.037 A 
BRANCH  49  63
ATOM     63  C   UNL A   1      39.563  33.791  36.931  1.00  0.00     0.064 A 
ATOM     64  C   UNL A   1      40.232  35.021  37.028  1.00  0.00     0.173 A 
ATOM     65  C   UNL A   1      38.748  33.401  38.006  1.00  0.00     0.173 A 
ATOM     66  F   UNL A   1      41.023  35.440  36.030  1.00  0.00    -0.203 F 
ATOM     67  C   UNL A   1      40.094  35.825  38.157  1.00  0.00     0.198 A 
ATOM     68  C   UNL A   1      38.590  34.221  39.120  1.00  0.00     0.198 A 
ATOM     69  F   UNL A   1      38.073  32.242  37.956  1.00  0.00    -0.203 F 
ATOM     70  F   UNL A   1      40.759  36.986  38.234  1.00  0.00    -0.200 F 
ATOM     71  C   UNL A   1      39.268  35.429  39.197  1.00  0.00     0.200 A 
ATOM     72  F   UNL A   1      37.770  33.849  40.113  1.00  0.00    -0.200 F 
ATOM     73  F   UNL A   1      39.121  36.214  40.273  1.00  0.00    -0.200 F 
ENDBRANCH  49  63
BRANCH  50  74
ATOM     74  C   UNL A   1      40.189  28.094  28.747  1.00  0.00     0.064 A 
ATOM     75  C   UNL A   1      39.587  26.827  28.740  1.00  0.00     0.173 A 
ATOM     76  C   UNL A   1      40.894  28.491  27.603  1.00  0.00     0.173 A 
ATOM     77  F   UNL A   1      38.900  26.405  29.811  1.00  0.00    -0.203 F 
ATOM     78  C   UNL A   1      39.712  25.979  27.642  1.00  0.00     0.198 A 
ATOM     79  C   UNL A   1      40.999  27.650  26.497  1.00  0.00     0.198 A 
ATOM     80  F   UNL A   1      41.467  29.703  27.556  1.00  0.00    -0.203 F 
ATOM     81  F   UNL A   1      39.159  24.759  27.674  1.00  0.00    -0.200 F 
ATOM     82  C   UNL A   1      40.419  26.391  26.522  1.00  0.00     0.200 A 
ATOM     83  F   UNL A   1      41.666  28.058  25.409  1.00  0.00    -0.200 F 
ATOM     84  F   UNL A   1      40.538  25.574  25.466  1.00  0.00    -0.200 F 
ENDBRANCH  50  74
BRANCH  62  85
ATOM     85  C   UNL A   1      43.740  28.337  34.762  1.00  0.00     0.064 A 
ATOM     86  C   UNL A   1      43.484  27.160  35.481  1.00  0.00     0.173 A 
ATOM     87  C   UNL A   1      45.070  28.769  34.658  1.00  0.00     0.173 A 
ATOM     88  F   UNL A   1      42.228  26.709  35.617  1.00  0.00    -0.203 F 
ATOM     89  C   UNL A   1      44.516  26.453  36.091  1.00  0.00     0.198 A 
ATOM     90  C   UNL A   1      46.104  28.045  35.246  1.00  0.00     0.198 A 
ATOM     91  F   UNL A   1      45.366  29.882  33.970  1.00  0.00    -0.203 F 
ATOM     92  F   UNL A   1      44.244  25.352  36.803  1.00  0.00    -0.200 F 
ATOM     93  C   UNL A   1      45.825  26.895  35.971  1.00  0.00     0.200 A 
ATOM     94  F   UNL A   1      47.371  28.460  35.112  1.00  0.00    -0.200 F 
ATOM     95  F   UNL A   1      46.821  26.211  36.553  1.00  0.00    -0.200 F 
ENDBRANCH  62  85
ENDBRANCH  36  37
ENDBRANCH  29  31
ENDBRANCH  28  29
ENDBRANCH  27  28
ENDBRANCH  26  27
ENDBRANCH  25  26
ENDBRANCH   1  25
TORSDOF 18
ENDMDL
