MODEL 1
REMARK VINA RESULT:     -11.2      0.000      0.000
REMARK SMILES COc1cc([C@H]2C[C@@H](C(=O)OCCOCCOC(=O)c3ccc(-c4c5nc(c(-c6c(F)c(F)c(F)c(F)c6F)c6ccc([nH]6)c(-c6c(F)c(F)c(F)c(F)c6F)c6nc(c(-c7c(F)c(F)c(F)c(F)c7F)c7ccc4[nH]7)C=C6)C=C5)cc3)C2)ccc1Br
REMARK SMILES IDX 14 1 13 2 12 3 11 4 9 5 10 6 8 7 6 8 7 9 83 10 5 11 3 12
REMARK SMILES IDX 4 13 86 14 85 15 87 16 84 17 2 18 1 19 15 20 16 21 17 22
REMARK SMILES IDX 18 23 19 24 20 25 21 26 82 27 22 28 81 29 23 30 24 31 25 32
REMARK SMILES IDX 75 33 26 34 80 35 74 36 76 37 27 38 79 39 73 40 72 41 28 43
REMARK SMILES IDX 60 44 40 45 59 46 41 47 44 48 58 49 77 50 42 51 43 52 57 54
REMARK SMILES IDX 78 55 45 56 29 57 30 58 38 59 31 60 32 61 36 62 39 63 33 64
REMARK SMILES IDX 34 65 37 66 35 67 61 68 62 69 70 70 63 71 64 72 68 73 71 74
REMARK SMILES IDX 65 75 66 76 69 77 67 78 46 79 47 80 55 81 48 82 49 83 53 84
REMARK SMILES IDX 56 85 50 86 51 87 54 88 52 89
REMARK H PARENT 76 42 44 53
REMARK Flexibility Score: inf
ROOT
ATOM      1  O   UNL A   1      42.794  19.962  26.036  1.00  0.00    -0.374 OA
ENDROOT
BRANCH   1   2
ATOM      2  C   UNL A   1      41.412  19.609  26.123  1.00  0.00     0.202 C 
BRANCH   2   3
ATOM      3  C   UNL A   1      40.472  20.736  26.556  1.00  0.00     0.261 C 
BRANCH   3   4
ATOM      4  O   UNL A   1      39.222  20.642  25.851  1.00  0.00    -0.463 OA
BRANCH   4   5
ATOM      5  C   UNL A   1      38.537  21.812  25.676  1.00  0.00     0.309 C 
ATOM      6  O   UNL A   1      38.898  22.885  26.154  1.00  0.00    -0.252 OA
BRANCH   5   7
ATOM      7  C   UNL A   1      37.301  21.648  24.765  1.00  0.00     0.100 C 
ATOM      8  C   UNL A   1      35.380  22.364  24.107  1.00  0.00     0.021 C 
ATOM      9  C   UNL A   1      36.830  22.903  23.992  1.00  0.00     0.023 C 
ATOM     10  C   UNL A   1      35.866  21.579  25.355  1.00  0.00     0.023 C 
BRANCH   8  11
ATOM     11  C   UNL A   1      34.197  23.408  24.261  1.00  0.00    -0.041 A 
ATOM     12  C   UNL A   1      32.810  25.219  23.335  1.00  0.00     0.133 A 
ATOM     13  C   UNL A   1      33.844  24.281  23.211  1.00  0.00     0.051 A 
ATOM     14  C   UNL A   1      32.062  25.280  24.510  1.00  0.00     0.060 A 
ATOM     15  C   UNL A   1      32.389  24.438  25.571  1.00  0.00     0.020 A 
ATOM     16  Br  UNL A   1      30.577  26.439  24.717  1.00  0.00    -0.047 Br
ATOM     17  C   UNL A   1      33.441  23.525  25.445  1.00  0.00     0.005 A 
BRANCH  12  18
ATOM     18  O   UNL A   1      32.533  25.986  22.233  1.00  0.00    -0.496 OA
ATOM     19  C   UNL A   1      33.403  27.116  22.162  1.00  0.00     0.278 C 
ENDBRANCH  12  18
ENDBRANCH   8  11
ENDBRANCH   5   7
ENDBRANCH   4   5
ENDBRANCH   3   4
ENDBRANCH   2   3
ENDBRANCH   1   2
BRANCH   1  20
ATOM     20  C   UNL A   1      43.125  21.343  26.188  1.00  0.00     0.202 C 
BRANCH  20  21
ATOM     21  C   UNL A   1      43.747  22.024  24.963  1.00  0.00     0.261 C 
BRANCH  21  22
ATOM     22  O   UNL A   1      43.134  23.296  24.683  1.00  0.00    -0.460 OA
BRANCH  22  23
ATOM     23  C   UNL A   1      43.887  24.372  25.007  1.00  0.00     0.338 C 
ATOM     24  O   UNL A   1      44.964  24.698  24.527  1.00  0.00    -0.246 OA
BRANCH  23  25
ATOM     25  C   UNL A   1      43.156  25.246  25.943  1.00  0.00     0.060 A 
ATOM     26  C   UNL A   1      43.653  26.541  26.137  1.00  0.00     0.016 A 
ATOM     27  C   UNL A   1      42.061  24.789  26.681  1.00  0.00     0.016 A 
ATOM     28  C   UNL A   1      43.091  27.368  27.107  1.00  0.00     0.010 A 
ATOM     29  C   UNL A   1      41.504  25.618  27.662  1.00  0.00     0.010 A 
ATOM     30  C   UNL A   1      42.039  26.896  27.903  1.00  0.00    -0.014 A 
BRANCH  30  31
ATOM     31  C   UNL A   1      41.596  27.693  29.073  1.00  0.00     0.031 A 
ATOM     32  C   UNL A   1      42.350  27.571  30.368  1.00  0.00     0.074 A 
ATOM     33  C   UNL A   1      40.555  28.537  28.976  1.00  0.00     0.049 A 
ATOM     34  N   UNL A   1      42.124  28.154  31.519  1.00  0.00    -0.248 NA
ATOM     35  C   UNL A   1      43.514  26.673  30.368  1.00  0.00     0.031 C 
ATOM     36  C   UNL A   1      39.767  28.768  27.767  1.00  0.00     0.029 A 
ATOM     37  N   UNL A   1      39.979  29.354  29.915  1.00  0.00    -0.354 N 
ATOM     38  C   UNL A   1      43.110  27.689  32.377  1.00  0.00     0.074 A 
ATOM     39  C   UNL A   1      43.924  26.757  31.625  1.00  0.00     0.031 C 
ATOM     40  C   UNL A   1      38.800  29.658  28.042  1.00  0.00     0.029 A 
ATOM     41  C   UNL A   1      38.884  30.039  29.451  1.00  0.00     0.049 A 
ATOM     42  H   UNL A   1      40.319  29.441  30.836  1.00  0.00     0.167 HD
ATOM     43  C   UNL A   1      43.323  28.015  33.674  1.00  0.00     0.037 A 
ATOM     44  C   UNL A   1      38.036  30.863  30.096  1.00  0.00     0.037 A 
ATOM     45  C   UNL A   1      42.520  28.948  34.421  1.00  0.00     0.049 A 
ATOM     46  C   UNL A   1      38.266  31.174  31.552  1.00  0.00     0.074 A 
ATOM     47  C   UNL A   1      42.675  29.363  35.733  1.00  0.00     0.029 A 
ATOM     48  N   UNL A   1      41.406  29.605  33.922  1.00  0.00    -0.354 N 
ATOM     49  N   UNL A   1      39.216  30.750  32.349  1.00  0.00    -0.248 NA
ATOM     50  C   UNL A   1      37.307  32.083  32.197  1.00  0.00     0.031 C 
ATOM     51  C   UNL A   1      41.628  30.237  36.040  1.00  0.00     0.029 A 
ATOM     52  C   UNL A   1      40.850  30.404  34.907  1.00  0.00     0.049 A 
ATOM     53  H   UNL A   1      41.062  29.517  33.004  1.00  0.00     0.167 HD
ATOM     54  C   UNL A   1      38.984  31.354  33.577  1.00  0.00     0.074 A 
ATOM     55  C   UNL A   1      37.810  32.186  33.419  1.00  0.00     0.031 C 
ATOM     56  C   UNL A   1      39.681  31.230  34.733  1.00  0.00     0.037 A 
BRANCH  43  57
ATOM     57  C   UNL A   1      44.462  27.343  34.383  1.00  0.00     0.064 A 
ATOM     58  C   UNL A   1      45.737  27.923  34.440  1.00  0.00     0.173 A 
ATOM     59  C   UNL A   1      44.260  26.127  35.052  1.00  0.00     0.173 A 
ATOM     60  F   UNL A   1      45.983  29.078  33.804  1.00  0.00    -0.203 F 
ATOM     61  C   UNL A   1      46.775  27.300  35.130  1.00  0.00     0.198 A 
ATOM     62  C   UNL A   1      45.293  25.520  35.761  1.00  0.00     0.198 A 
ATOM     63  F   UNL A   1      43.056  25.534  35.030  1.00  0.00    -0.203 F 
ATOM     64  F   UNL A   1      47.995  27.854  35.144  1.00  0.00    -0.200 F 
ATOM     65  C   UNL A   1      46.550  26.104  35.796  1.00  0.00     0.200 A 
ATOM     66  F   UNL A   1      45.070  24.370  36.413  1.00  0.00    -0.200 F 
ATOM     67  F   UNL A   1      47.546  25.512  36.468  1.00  0.00    -0.200 F 
ENDBRANCH  43  57
BRANCH  44  68
ATOM     68  C   UNL A   1      36.880  31.447  29.368  1.00  0.00     0.064 A 
ATOM     69  C   UNL A   1      35.781  30.660  29.004  1.00  0.00     0.173 A 
ATOM     70  C   UNL A   1      36.857  32.805  29.020  1.00  0.00     0.173 A 
ATOM     71  F   UNL A   1      35.770  29.350  29.293  1.00  0.00    -0.203 F 
ATOM     72  C   UNL A   1      34.704  31.207  28.308  1.00  0.00     0.198 A 
ATOM     73  C   UNL A   1      35.769  33.357  28.347  1.00  0.00     0.198 A 
ATOM     74  F   UNL A   1      37.888  33.599  29.345  1.00  0.00    -0.203 F 
ATOM     75  F   UNL A   1      33.681  30.426  27.938  1.00  0.00    -0.200 F 
ATOM     76  C   UNL A   1      34.697  32.557  27.987  1.00  0.00     0.200 A 
ATOM     77  F   UNL A   1      35.762  34.663  28.049  1.00  0.00    -0.200 F 
ATOM     78  F   UNL A   1      33.659  33.084  27.324  1.00  0.00    -0.200 F 
ENDBRANCH  44  68
BRANCH  56  79
ATOM     79  C   UNL A   1      39.214  32.032  35.913  1.00  0.00     0.064 A 
ATOM     80  C   UNL A   1      39.633  33.355  36.115  1.00  0.00     0.173 A 
ATOM     81  C   UNL A   1      38.297  31.486  36.824  1.00  0.00     0.173 A 
ATOM     82  F   UNL A   1      40.520  33.916  35.278  1.00  0.00    -0.203 F 
ATOM     83  C   UNL A   1      39.166  34.096  37.197  1.00  0.00     0.198 A 
ATOM     84  C   UNL A   1      37.811  32.239  37.890  1.00  0.00     0.198 A 
ATOM     85  F   UNL A   1      37.860  30.227  36.672  1.00  0.00    -0.203 F 
ATOM     86  F   UNL A   1      39.610  35.346  37.392  1.00  0.00    -0.200 F 
ATOM     87  C   UNL A   1      38.251  33.541  38.078  1.00  0.00     0.200 A 
ATOM     88  F   UNL A   1      36.918  31.706  38.734  1.00  0.00    -0.200 F 
ATOM     89  F   UNL A   1      37.796  34.259  39.114  1.00  0.00    -0.200 F 
ENDBRANCH  56  79
ENDBRANCH  30  31
ENDBRANCH  23  25
ENDBRANCH  22  23
ENDBRANCH  21  22
ENDBRANCH  20  21
ENDBRANCH   1  20
TORSDOF 16
ENDMDL
MODEL 2
REMARK VINA RESULT:     -11.1      3.256      8.941
REMARK SMILES COc1cc([C@H]2C[C@@H](C(=O)OCCOCCOC(=O)c3ccc(-c4c5nc(c(-c6c(F)c(F)c(F)c(F)c6F)c6ccc([nH]6)c(-c6c(F)c(F)c(F)c(F)c6F)c6nc(c(-c7c(F)c(F)c(F)c(F)c7F)c7ccc4[nH]7)C=C6)C=C5)cc3)C2)ccc1Br
REMARK SMILES IDX 14 1 13 2 12 3 11 4 9 5 10 6 8 7 6 8 7 9 83 10 5 11 3 12
REMARK SMILES IDX 4 13 86 14 85 15 87 16 84 17 2 18 1 19 15 20 16 21 17 22
REMARK SMILES IDX 18 23 19 24 20 25 21 26 82 27 22 28 81 29 23 30 24 31 25 32
REMARK SMILES IDX 75 33 26 34 80 35 74 36 76 37 27 38 79 39 73 40 72 41 28 43
REMARK SMILES IDX 60 44 40 45 59 46 41 47 44 48 58 49 77 50 42 51 43 52 57 54
REMARK SMILES IDX 78 55 45 56 29 57 30 58 38 59 31 60 32 61 36 62 39 63 33 64
REMARK SMILES IDX 34 65 37 66 35 67 61 68 62 69 70 70 63 71 64 72 68 73 71 74
REMARK SMILES IDX 65 75 66 76 69 77 67 78 46 79 47 80 55 81 48 82 49 83 53 84
REMARK SMILES IDX 56 85 50 86 51 87 54 88 52 89
REMARK H PARENT 76 42 44 53
REMARK Flexibility Score: inf
ROOT
ATOM      1  O   UNL A   1      30.730  29.673  24.250  1.00  0.00    -0.374 OA
ENDROOT
BRANCH   1   2
ATOM      2  C   UNL A   1      31.024  28.953  23.052  1.00  0.00     0.202 C 
BRANCH   2   3
ATOM      3  C   UNL A   1      30.153  27.721  22.794  1.00  0.00     0.261 C 
BRANCH   3   4
ATOM      4  O   UNL A   1      30.795  26.541  23.306  1.00  0.00    -0.463 OA
BRANCH   4   5
ATOM      5  C   UNL A   1      30.462  26.175  24.580  1.00  0.00     0.309 C 
ATOM      6  O   UNL A   1      29.308  25.953  24.941  1.00  0.00    -0.252 OA
BRANCH   5   7
ATOM      7  C   UNL A   1      31.695  26.014  25.496  1.00  0.00     0.100 C 
ATOM      8  C   UNL A   1      33.495  24.950  26.005  1.00  0.00     0.021 C 
ATOM      9  C   UNL A   1      33.064  25.827  24.800  1.00  0.00     0.023 C 
ATOM     10  C   UNL A   1      31.983  24.680  26.235  1.00  0.00     0.023 C 
BRANCH   8  11
ATOM     11  C   UNL A   1      34.469  23.727  25.738  1.00  0.00    -0.041 A 
ATOM     12  C   UNL A   1      34.817  21.340  25.249  1.00  0.00     0.133 A 
ATOM     13  C   UNL A   1      33.971  22.434  25.475  1.00  0.00     0.051 A 
ATOM     14  C   UNL A   1      36.199  21.519  25.235  1.00  0.00     0.060 A 
ATOM     15  C   UNL A   1      36.725  22.781  25.500  1.00  0.00     0.020 A 
ATOM     16  Br  UNL A   1      37.407  20.117  24.827  1.00  0.00    -0.047 Br
ATOM     17  C   UNL A   1      35.872  23.860  25.751  1.00  0.00     0.005 A 
BRANCH  12  18
ATOM     18  O   UNL A   1      34.216  20.140  24.966  1.00  0.00    -0.496 OA
ATOM     19  C   UNL A   1      32.793  20.259  24.991  1.00  0.00     0.278 C 
ENDBRANCH  12  18
ENDBRANCH   8  11
ENDBRANCH   5   7
ENDBRANCH   4   5
ENDBRANCH   3   4
ENDBRANCH   2   3
ENDBRANCH   1   2
BRANCH   1  20
ATOM     20  C   UNL A   1      31.745  29.709  25.255  1.00  0.00     0.202 C 
BRANCH  20  21
ATOM     21  C   UNL A   1      31.779  30.967  26.130  1.00  0.00     0.261 C 
BRANCH  21  22
ATOM     22  O   UNL A   1      32.636  30.805  27.275  1.00  0.00    -0.460 OA
BRANCH  22  23
ATOM     23  C   UNL A   1      33.443  31.860  27.534  1.00  0.00     0.338 C 
ATOM     24  O   UNL A   1      33.135  33.043  27.559  1.00  0.00    -0.246 OA
BRANCH  23  25
ATOM     25  C   UNL A   1      34.775  31.392  27.962  1.00  0.00     0.060 A 
ATOM     26  C   UNL A   1      34.920  30.026  28.236  1.00  0.00     0.016 A 
ATOM     27  C   UNL A   1      35.836  32.275  28.176  1.00  0.00     0.016 A 
ATOM     28  C   UNL A   1      36.111  29.544  28.775  1.00  0.00     0.010 A 
ATOM     29  C   UNL A   1      37.028  31.790  28.727  1.00  0.00     0.010 A 
ATOM     30  C   UNL A   1      37.157  30.430  29.061  1.00  0.00    -0.014 A 
BRANCH  30  31
ATOM     31  C   UNL A   1      38.329  29.950  29.834  1.00  0.00     0.031 A 
ATOM     32  C   UNL A   1      38.533  30.445  31.238  1.00  0.00     0.074 A 
ATOM     33  C   UNL A   1      39.185  29.059  29.302  1.00  0.00     0.049 A 
ATOM     34  N   UNL A   1      39.496  30.176  32.083  1.00  0.00    -0.248 NA
ATOM     35  C   UNL A   1      37.514  31.368  31.762  1.00  0.00     0.031 C 
ATOM     36  C   UNL A   1      39.076  28.480  27.966  1.00  0.00     0.029 A 
ATOM     37  N   UNL A   1      40.319  28.492  29.826  1.00  0.00    -0.354 N 
ATOM     38  C   UNL A   1      39.203  30.899  33.231  1.00  0.00     0.074 A 
ATOM     39  C   UNL A   1      37.987  31.639  32.970  1.00  0.00     0.031 C 
ATOM     40  C   UNL A   1      40.111  27.647  27.767  1.00  0.00     0.029 A 
ATOM     41  C   UNL A   1      40.968  27.656  28.952  1.00  0.00     0.049 A 
ATOM     42  H   UNL A   1      40.637  28.668  30.742  1.00  0.00     0.167 HD
ATOM     43  C   UNL A   1      39.885  30.938  34.401  1.00  0.00     0.037 A 
ATOM     44  C   UNL A   1      42.131  26.990  29.087  1.00  0.00     0.037 A 
ATOM     45  C   UNL A   1      41.090  30.197  34.665  1.00  0.00     0.049 A 
ATOM     46  C   UNL A   1      42.896  27.086  30.382  1.00  0.00     0.074 A 
ATOM     47  C   UNL A   1      41.837  30.150  35.830  1.00  0.00     0.029 A 
ATOM     48  N   UNL A   1      41.729  29.377  33.748  1.00  0.00    -0.354 N 
ATOM     49  N   UNL A   1      42.599  27.752  31.471  1.00  0.00    -0.248 NA
ATOM     50  C   UNL A   1      44.156  26.333  30.467  1.00  0.00     0.031 C 
ATOM     51  C   UNL A   1      42.952  29.338  35.602  1.00  0.00     0.029 A 
ATOM     52  C   UNL A   1      42.874  28.840  34.312  1.00  0.00     0.049 A 
ATOM     53  H   UNL A   1      41.415  29.203  32.831  1.00  0.00     0.167 HD
ATOM     54  C   UNL A   1      43.618  27.482  32.374  1.00  0.00     0.074 A 
ATOM     55  C   UNL A   1      44.537  26.581  31.711  1.00  0.00     0.031 C 
ATOM     56  C   UNL A   1      43.778  27.941  33.640  1.00  0.00     0.037 A 
BRANCH  43  57
ATOM     57  C   UNL A   1      39.355  31.828  35.485  1.00  0.00     0.064 A 
ATOM     58  C   UNL A   1      38.483  31.347  36.472  1.00  0.00     0.173 A 
ATOM     59  C   UNL A   1      39.764  33.167  35.565  1.00  0.00     0.173 A 
ATOM     60  F   UNL A   1      38.052  30.077  36.431  1.00  0.00    -0.203 F 
ATOM     61  C   UNL A   1      38.025  32.180  37.491  1.00  0.00     0.198 A 
ATOM     62  C   UNL A   1      39.325  33.990  36.598  1.00  0.00     0.198 A 
ATOM     63  F   UNL A   1      40.600  33.675  34.647  1.00  0.00    -0.203 F 
ATOM     64  F   UNL A   1      37.165  31.709  38.404  1.00  0.00    -0.200 F 
ATOM     65  C   UNL A   1      38.453  33.498  37.557  1.00  0.00     0.200 A 
ATOM     66  F   UNL A   1      39.747  35.260  36.667  1.00  0.00    -0.200 F 
ATOM     67  F   UNL A   1      38.021  34.294  38.544  1.00  0.00    -0.200 F 
ENDBRANCH  43  57
BRANCH  44  68
ATOM     68  C   UNL A   1      42.651  26.179  27.957  1.00  0.00     0.064 A 
ATOM     69  C   UNL A   1      42.317  24.826  27.821  1.00  0.00     0.173 A 
ATOM     70  C   UNL A   1      43.495  26.745  26.990  1.00  0.00     0.173 A 
ATOM     71  F   UNL A   1      41.533  24.235  28.735  1.00  0.00    -0.203 F 
ATOM     72  C   UNL A   1      42.818  24.064  26.767  1.00  0.00     0.198 A 
ATOM     73  C   UNL A   1      43.975  25.989  25.923  1.00  0.00     0.198 A 
ATOM     74  F   UNL A   1      43.845  28.037  27.077  1.00  0.00    -0.203 F 
ATOM     75  F   UNL A   1      42.514  22.762  26.680  1.00  0.00    -0.200 F 
ATOM     76  C   UNL A   1      43.641  24.649  25.815  1.00  0.00     0.200 A 
ATOM     77  F   UNL A   1      44.760  26.561  25.000  1.00  0.00    -0.200 F 
ATOM     78  F   UNL A   1      44.116  23.917  24.798  1.00  0.00    -0.200 F 
ENDBRANCH  44  68
BRANCH  56  79
ATOM     79  C   UNL A   1      44.975  27.457  34.406  1.00  0.00     0.064 A 
ATOM     80  C   UNL A   1      44.934  26.278  35.164  1.00  0.00     0.173 A 
ATOM     81  C   UNL A   1      46.191  28.154  34.338  1.00  0.00     0.173 A 
ATOM     82  F   UNL A   1      43.791  25.584  35.271  1.00  0.00    -0.203 F 
ATOM     83  C   UNL A   1      46.062  25.825  35.843  1.00  0.00     0.198 A 
ATOM     84  C   UNL A   1      47.324  27.684  34.996  1.00  0.00     0.198 A 
ATOM     85  F   UNL A   1      46.284  29.283  33.620  1.00  0.00    -0.203 F 
ATOM     86  F   UNL A   1      45.990  24.717  36.594  1.00  0.00    -0.200 F 
ATOM     87  C   UNL A   1      47.257  26.523  35.753  1.00  0.00     0.200 A 
ATOM     88  F   UNL A   1      48.481  28.352  34.898  1.00  0.00    -0.200 F 
ATOM     89  F   UNL A   1      48.344  26.081  36.400  1.00  0.00    -0.200 F 
ENDBRANCH  56  79
ENDBRANCH  30  31
ENDBRANCH  23  25
ENDBRANCH  22  23
ENDBRANCH  21  22
ENDBRANCH  20  21
ENDBRANCH   1  20
TORSDOF 16
ENDMDL
MODEL 3
REMARK VINA RESULT:     -11.0      5.281     11.430
REMARK SMILES COc1cc([C@H]2C[C@@H](C(=O)OCCOCCOC(=O)c3ccc(-c4c5nc(c(-c6c(F)c(F)c(F)c(F)c6F)c6ccc([nH]6)c(-c6c(F)c(F)c(F)c(F)c6F)c6nc(c(-c7c(F)c(F)c(F)c(F)c7F)c7ccc4[nH]7)C=C6)C=C5)cc3)C2)ccc1Br
REMARK SMILES IDX 14 1 13 2 12 3 11 4 9 5 10 6 8 7 6 8 7 9 83 10 5 11 3 12
REMARK SMILES IDX 4 13 86 14 85 15 87 16 84 17 2 18 1 19 15 20 16 21 17 22
REMARK SMILES IDX 18 23 19 24 20 25 21 26 82 27 22 28 81 29 23 30 24 31 25 32
REMARK SMILES IDX 75 33 26 34 80 35 74 36 76 37 27 38 79 39 73 40 72 41 28 43
REMARK SMILES IDX 60 44 40 45 59 46 41 47 44 48 58 49 77 50 42 51 43 52 57 54
REMARK SMILES IDX 78 55 45 56 29 57 30 58 38 59 31 60 32 61 36 62 39 63 33 64
REMARK SMILES IDX 34 65 37 66 35 67 61 68 62 69 70 70 63 71 64 72 68 73 71 74
REMARK SMILES IDX 65 75 66 76 69 77 67 78 46 79 47 80 55 81 48 82 49 83 53 84
REMARK SMILES IDX 56 85 50 86 51 87 54 88 52 89
REMARK H PARENT 76 42 44 53
REMARK Flexibility Score: inf
ROOT
ATOM      1  O   UNL A   1      32.528  34.762  28.373  1.00  0.00    -0.374 OA
ENDROOT
BRANCH   1   2
ATOM      2  C   UNL A   1      33.425  35.543  29.163  1.00  0.00     0.202 C 
BRANCH   2   3
ATOM      3  C   UNL A   1      32.997  35.768  30.616  1.00  0.00     0.261 C 
BRANCH   3   4
ATOM      4  O   UNL A   1      34.004  35.273  31.515  1.00  0.00    -0.463 OA
BRANCH   4   5
ATOM      5  C   UNL A   1      34.270  36.046  32.610  1.00  0.00     0.309 C 
ATOM      6  O   UNL A   1      33.965  37.234  32.690  1.00  0.00    -0.252 OA
BRANCH   5   7
ATOM      7  C   UNL A   1      34.939  35.252  33.753  1.00  0.00     0.100 C 
ATOM      8  C   UNL A   1      36.187  33.617  34.387  1.00  0.00     0.021 C 
ATOM      9  C   UNL A   1      36.442  34.924  33.591  1.00  0.00     0.023 C 
ATOM     10  C   UNL A   1      34.711  33.725  33.917  1.00  0.00     0.023 C 
BRANCH   8  11
ATOM     11  C   UNL A   1      37.028  32.327  34.006  1.00  0.00    -0.041 A 
ATOM     12  C   UNL A   1      38.967  30.855  34.372  1.00  0.00     0.133 A 
ATOM     13  C   UNL A   1      38.205  31.984  34.703  1.00  0.00     0.051 A 
ATOM     14  C   UNL A   1      38.544  30.004  33.352  1.00  0.00     0.060 A 
ATOM     15  C   UNL A   1      37.390  30.317  32.638  1.00  0.00     0.020 A 
ATOM     16  Br  UNL A   1      39.454  28.399  32.918  1.00  0.00    -0.047 Br
ATOM     17  C   UNL A   1      36.653  31.461  32.959  1.00  0.00     0.005 A 
BRANCH  12  18
ATOM     18  O   UNL A   1      40.070  30.603  35.146  1.00  0.00    -0.496 OA
ATOM     19  C   UNL A   1      40.264  31.633  36.116  1.00  0.00     0.278 C 
ENDBRANCH  12  18
ENDBRANCH   8  11
ENDBRANCH   5   7
ENDBRANCH   4   5
ENDBRANCH   3   4
ENDBRANCH   2   3
ENDBRANCH   1   2
BRANCH   1  20
ATOM     20  C   UNL A   1      33.027  33.533  27.843  1.00  0.00     0.202 C 
BRANCH  20  21
ATOM     21  C   UNL A   1      34.437  33.131  28.293  1.00  0.00     0.261 C 
BRANCH  21  22
ATOM     22  O   UNL A   1      34.444  31.869  28.984  1.00  0.00    -0.460 OA
BRANCH  22  23
ATOM     23  C   UNL A   1      34.491  30.781  28.180  1.00  0.00     0.338 C 
ATOM     24  O   UNL A   1      33.646  30.415  27.376  1.00  0.00    -0.246 OA
BRANCH  23  25
ATOM     25  C   UNL A   1      35.815  30.137  28.267  1.00  0.00     0.060 A 
ATOM     26  C   UNL A   1      36.126  29.464  29.455  1.00  0.00     0.016 A 
ATOM     27  C   UNL A   1      36.766  30.259  27.251  1.00  0.00     0.016 A 
ATOM     28  C   UNL A   1      37.407  28.953  29.655  1.00  0.00     0.010 A 
ATOM     29  C   UNL A   1      38.055  29.753  27.457  1.00  0.00     0.010 A 
ATOM     30  C   UNL A   1      38.390  29.130  28.672  1.00  0.00    -0.014 A 
BRANCH  30  31
ATOM     31  C   UNL A   1      39.799  28.783  28.981  1.00  0.00     0.031 A 
ATOM     32  C   UNL A   1      40.643  29.764  29.746  1.00  0.00     0.074 A 
ATOM     33  C   UNL A   1      40.312  27.597  28.611  1.00  0.00     0.049 A 
ATOM     34  N   UNL A   1      41.900  29.677  30.103  1.00  0.00    -0.248 NA
ATOM     35  C   UNL A   1      39.984  31.009  30.167  1.00  0.00     0.031 C 
ATOM     36  C   UNL A   1      39.584  26.551  27.896  1.00  0.00     0.029 A 
ATOM     37  N   UNL A   1      41.569  27.077  28.784  1.00  0.00    -0.354 N 
ATOM     38  C   UNL A   1      42.182  30.855  30.781  1.00  0.00     0.074 A 
ATOM     39  C   UNL A   1      40.974  31.653  30.767  1.00  0.00     0.031 C 
ATOM     40  C   UNL A   1      40.413  25.517  27.678  1.00  0.00     0.029 A 
ATOM     41  C   UNL A   1      41.735  25.839  28.214  1.00  0.00     0.049 A 
ATOM     42  H   UNL A   1      42.286  27.547  29.270  1.00  0.00     0.167 HD
ATOM     43  C   UNL A   1      43.341  31.234  31.369  1.00  0.00     0.037 A 
ATOM     44  C   UNL A   1      42.833  25.066  28.120  1.00  0.00     0.037 A 
ATOM     45  C   UNL A   1      44.540  30.438  31.391  1.00  0.00     0.049 A 
ATOM     46  C   UNL A   1      44.125  25.530  28.741  1.00  0.00     0.074 A 
ATOM     47  C   UNL A   1      45.757  30.727  31.986  1.00  0.00     0.029 A 
ATOM     48  N   UNL A   1      44.676  29.198  30.785  1.00  0.00    -0.354 N 
ATOM     49  N   UNL A   1      44.375  26.634  29.402  1.00  0.00    -0.248 NA
ATOM     50  C   UNL A   1      45.286  24.638  28.606  1.00  0.00     0.031 C 
ATOM     51  C   UNL A   1      46.641  29.682  31.700  1.00  0.00     0.029 A 
ATOM     52  C   UNL A   1      45.962  28.720  30.970  1.00  0.00     0.049 A 
ATOM     53  H   UNL A   1      43.962  28.729  30.295  1.00  0.00     0.167 HD
ATOM     54  C   UNL A   1      45.709  26.559  29.780  1.00  0.00     0.074 A 
ATOM     55  C   UNL A   1      46.214  25.295  29.286  1.00  0.00     0.031 C 
ATOM     56  C   UNL A   1      46.450  27.458  30.474  1.00  0.00     0.037 A 
BRANCH  43  57
ATOM     57  C   UNL A   1      43.380  32.583  32.024  1.00  0.00     0.064 A 
ATOM     58  C   UNL A   1      43.613  33.752  31.287  1.00  0.00     0.173 A 
ATOM     59  C   UNL A   1      43.134  32.709  33.399  1.00  0.00     0.173 A 
ATOM     60  F   UNL A   1      43.867  33.682  29.971  1.00  0.00    -0.203 F 
ATOM     61  C   UNL A   1      43.613  35.000  31.906  1.00  0.00     0.198 A 
ATOM     62  C   UNL A   1      43.111  33.960  34.010  1.00  0.00     0.198 A 
ATOM     63  F   UNL A   1      42.903  31.620  34.148  1.00  0.00    -0.203 F 
ATOM     64  F   UNL A   1      43.871  36.102  31.189  1.00  0.00    -0.200 F 
ATOM     65  C   UNL A   1      43.355  35.103  33.265  1.00  0.00     0.200 A 
ATOM     66  F   UNL A   1      42.851  34.058  35.321  1.00  0.00    -0.200 F 
ATOM     67  F   UNL A   1      43.345  36.305  33.857  1.00  0.00    -0.200 F 
ENDBRANCH  43  57
BRANCH  44  68
ATOM     68  C   UNL A   1      42.761  23.770  27.397  1.00  0.00     0.064 A 
ATOM     69  C   UNL A   1      42.313  22.607  28.036  1.00  0.00     0.173 A 
ATOM     70  C   UNL A   1      43.143  23.672  26.051  1.00  0.00     0.173 A 
ATOM     71  F   UNL A   1      41.960  22.647  29.329  1.00  0.00    -0.203 F 
ATOM     72  C   UNL A   1      42.259  21.390  27.358  1.00  0.00     0.198 A 
ATOM     73  C   UNL A   1      43.066  22.460  25.368  1.00  0.00     0.198 A 
ATOM     74  F   UNL A   1      43.582  24.757  25.396  1.00  0.00    -0.203 F 
ATOM     75  F   UNL A   1      41.862  20.284  28.002  1.00  0.00    -0.200 F 
ATOM     76  C   UNL A   1      42.630  21.320  26.023  1.00  0.00     0.200 A 
ATOM     77  F   UNL A   1      43.414  22.399  24.076  1.00  0.00    -0.200 F 
ATOM     78  F   UNL A   1      42.572  20.151  25.371  1.00  0.00    -0.200 F 
ENDBRANCH  44  68
BRANCH  56  79
ATOM     79  C   UNL A   1      47.877  27.100  30.768  1.00  0.00     0.064 A 
ATOM     80  C   UNL A   1      48.228  26.343  31.895  1.00  0.00     0.173 A 
ATOM     81  C   UNL A   1      48.900  27.475  29.883  1.00  0.00     0.173 A 
ATOM     82  F   UNL A   1      47.288  25.972  32.777  1.00  0.00    -0.203 F 
ATOM     83  C   UNL A   1      49.553  25.991  32.136  1.00  0.00     0.198 A 
ATOM     84  C   UNL A   1      50.220  27.099  30.114  1.00  0.00     0.198 A 
ATOM     85  F   UNL A   1      48.616  28.194  28.787  1.00  0.00    -0.203 F 
ATOM     86  F   UNL A   1      49.871  25.301  33.241  1.00  0.00    -0.200 F 
ATOM     87  C   UNL A   1      50.546  26.363  31.243  1.00  0.00     0.200 A 
ATOM     88  F   UNL A   1      51.177  27.448  29.243  1.00  0.00    -0.200 F 
ATOM     89  F   UNL A   1      51.820  26.017  31.473  1.00  0.00    -0.200 F 
ENDBRANCH  56  79
ENDBRANCH  30  31
ENDBRANCH  23  25
ENDBRANCH  22  23
ENDBRANCH  21  22
ENDBRANCH  20  21
ENDBRANCH   1  20
TORSDOF 16
ENDMDL
