MODEL 1
REMARK VINA RESULT:     -12.0      0.000      0.000
REMARK SMILES O=C(OCCOCCOC(=O)c1cc(-c2cncnc2)cc(S(=O)(=O)N2CCCC2)c1)c1ccc(-c2c3nc(c(-c4c(F)c(F)c(F)c(F)c4F)c4ccc([nH]4)c(-c4c(F)c(F)c(F)c(F)c4F)c4nc(c(-c5c(F)c(F)c(F)c(F)c5F)c5ccc2[nH]5)C=C4)C=C3)cc1
REMARK SMILES IDX 6 1 5 2 4 3 3 4 2 5 1 6 32 7 33 8 94 9 34 10 93 11 35 12
REMARK SMILES IDX 36 13 37 14 87 15 38 16 92 17 86 18 88 19 39 20 91 21 85 22
REMARK SMILES IDX 84 23 40 25 72 26 52 27 71 28 53 29 56 30 70 31 89 32 54 33
REMARK SMILES IDX 55 34 69 36 90 37 57 38 41 39 42 40 50 41 43 42 44 43 48 44
REMARK SMILES IDX 51 45 45 46 46 47 49 48 47 49 73 50 74 51 82 52 75 53 76 54
REMARK SMILES IDX 80 55 83 56 77 57 78 58 81 59 79 60 58 61 59 62 67 63 60 64
REMARK SMILES IDX 61 65 65 66 68 67 62 68 63 69 66 70 64 71 7 72 8 73 9 74
REMARK SMILES IDX 10 75 11 76 12 77 13 78 31 79 14 80 22 81 21 82 15 83 16 84
REMARK SMILES IDX 20 85 17 86 19 87 18 88 23 89 24 90 25 91 26 92 27 93 30 94
REMARK SMILES IDX 28 95 29 96
REMARK H PARENT 88 24 56 35
REMARK Flexibility Score: inf
ROOT
ATOM      1  O   UNL A   1      31.183  27.271  25.845  1.00  0.00    -0.374 OA
ENDROOT
BRANCH   1   2
ATOM      2  C   UNL A   1      32.214  28.231  25.625  1.00  0.00     0.202 C 
BRANCH   2   3
ATOM      3  C   UNL A   1      31.920  29.585  26.269  1.00  0.00     0.261 C 
BRANCH   3   4
ATOM      4  O   UNL A   1      33.055  30.454  26.121  1.00  0.00    -0.460 OA
BRANCH   4   5
ATOM      5  C   UNL A   1      33.588  31.275  27.054  1.00  0.00     0.338 C 
ATOM      6  O   UNL A   1      33.065  32.370  27.251  1.00  0.00    -0.246 OA
BRANCH   5   7
ATOM      7  C   UNL A   1      34.779  30.918  27.878  1.00  0.00     0.060 A 
ATOM      8  C   UNL A   1      35.021  29.652  28.411  1.00  0.00     0.016 A 
ATOM      9  C   UNL A   1      35.772  31.895  28.030  1.00  0.00     0.016 A 
ATOM     10  C   UNL A   1      36.188  29.340  29.066  1.00  0.00     0.010 A 
ATOM     11  C   UNL A   1      36.965  31.597  28.695  1.00  0.00     0.010 A 
ATOM     12  C   UNL A   1      37.165  30.310  29.206  1.00  0.00    -0.014 A 
BRANCH  12  13
ATOM     13  C   UNL A   1      38.300  29.940  30.051  1.00  0.00     0.031 A 
ATOM     14  C   UNL A   1      39.364  29.099  29.434  1.00  0.00     0.074 A 
ATOM     15  C   UNL A   1      38.447  30.541  31.243  1.00  0.00     0.049 A 
ATOM     16  N   UNL A   1      40.440  28.601  29.972  1.00  0.00    -0.248 NA
ATOM     17  C   UNL A   1      39.204  28.791  28.001  1.00  0.00     0.031 C 
ATOM     18  C   UNL A   1      37.531  31.542  31.804  1.00  0.00     0.029 A 
ATOM     19  N   UNL A   1      39.438  30.439  32.177  1.00  0.00    -0.354 N 
ATOM     20  C   UNL A   1      41.059  27.883  28.960  1.00  0.00     0.074 A 
ATOM     21  C   UNL A   1      40.250  28.015  27.771  1.00  0.00     0.031 C 
ATOM     22  C   UNL A   1      38.012  31.964  32.983  1.00  0.00     0.029 A 
ATOM     23  C   UNL A   1      39.213  31.203  33.293  1.00  0.00     0.049 A 
ATOM     24  H   UNL A   1      40.235  29.873  32.059  1.00  0.00     0.167 HD
ATOM     25  C   UNL A   1      42.200  27.167  29.045  1.00  0.00     0.037 A 
ATOM     26  C   UNL A   1      39.888  31.225  34.457  1.00  0.00     0.037 A 
ATOM     27  C   UNL A   1      42.965  27.078  30.258  1.00  0.00     0.049 A 
ATOM     28  C   UNL A   1      41.081  30.312  34.570  1.00  0.00     0.074 A 
ATOM     29  C   UNL A   1      44.092  26.328  30.524  1.00  0.00     0.029 A 
ATOM     30  N   UNL A   1      42.660  27.779  31.422  1.00  0.00    -0.354 N 
ATOM     31  N   UNL A   1      41.618  29.537  33.655  1.00  0.00    -0.248 NA
ATOM     32  C   UNL A   1      41.750  30.259  35.872  1.00  0.00     0.031 C 
ATOM     33  C   UNL A   1      44.435  26.531  31.865  1.00  0.00     0.029 A 
ATOM     34  C   UNL A   1      43.565  27.462  32.417  1.00  0.00     0.049 A 
ATOM     35  H   UNL A   1      41.911  28.409  31.521  1.00  0.00     0.167 HD
ATOM     36  C   UNL A   1      42.700  28.920  34.260  1.00  0.00     0.074 A 
ATOM     37  C   UNL A   1      42.752  29.429  35.619  1.00  0.00     0.031 C 
ATOM     38  C   UNL A   1      43.573  28.013  33.751  1.00  0.00     0.037 A 
BRANCH  25  39
ATOM     39  C   UNL A   1      42.593  26.364  27.842  1.00  0.00     0.064 A 
ATOM     40  C   UNL A   1      42.142  25.051  27.633  1.00  0.00     0.173 A 
ATOM     41  C   UNL A   1      43.495  26.900  26.911  1.00  0.00     0.173 A 
ATOM     42  F   UNL A   1      41.310  24.475  28.514  1.00  0.00    -0.203 F 
ATOM     43  C   UNL A   1      42.608  24.296  26.559  1.00  0.00     0.198 A 
ATOM     44  C   UNL A   1      43.933  26.155  25.820  1.00  0.00     0.198 A 
ATOM     45  F   UNL A   1      43.972  28.143  27.072  1.00  0.00    -0.203 F 
ATOM     46  F   UNL A   1      42.221  23.019  26.421  1.00  0.00    -0.200 F 
ATOM     47  C   UNL A   1      43.499  24.850  25.651  1.00  0.00     0.200 A 
ATOM     48  F   UNL A   1      44.795  26.693  24.946  1.00  0.00    -0.200 F 
ATOM     49  F   UNL A   1      43.954  24.119  24.625  1.00  0.00    -0.200 F 
ENDBRANCH  25  39
BRANCH  26  50
ATOM     50  C   UNL A   1      39.413  32.054  35.596  1.00  0.00     0.064 A 
ATOM     51  C   UNL A   1      39.866  33.366  35.784  1.00  0.00     0.173 A 
ATOM     52  C   UNL A   1      38.504  31.543  36.539  1.00  0.00     0.173 A 
ATOM     53  F   UNL A   1      40.748  33.899  34.926  1.00  0.00    -0.203 F 
ATOM     54  C   UNL A   1      39.451  34.124  36.879  1.00  0.00     0.198 A 
ATOM     55  C   UNL A   1      38.062  32.313  37.612  1.00  0.00     0.198 A 
ATOM     56  F   UNL A   1      38.034  30.293  36.412  1.00  0.00    -0.203 F 
ATOM     57  F   UNL A   1      39.944  35.356  37.063  1.00  0.00    -0.200 F 
ATOM     58  C   UNL A   1      38.545  33.599  37.789  1.00  0.00     0.200 A 
ATOM     59  F   UNL A   1      37.173  31.805  38.477  1.00  0.00    -0.200 F 
ATOM     60  F   UNL A   1      38.146  34.328  38.841  1.00  0.00    -0.200 F 
ENDBRANCH  26  50
BRANCH  38  61
ATOM     61  C   UNL A   1      44.677  27.563  34.658  1.00  0.00     0.064 A 
ATOM     62  C   UNL A   1      45.887  28.264  34.752  1.00  0.00     0.173 A 
ATOM     63  C   UNL A   1      44.492  26.445  35.485  1.00  0.00     0.173 A 
ATOM     64  F   UNL A   1      46.114  29.330  33.968  1.00  0.00    -0.203 F 
ATOM     65  C   UNL A   1      46.885  27.845  35.625  1.00  0.00     0.198 A 
ATOM     66  C   UNL A   1      45.475  26.054  36.385  1.00  0.00     0.198 A 
ATOM     67  F   UNL A   1      43.346  25.750  35.436  1.00  0.00    -0.203 F 
ATOM     68  F   UNL A   1      48.056  28.496  35.662  1.00  0.00    -0.200 F 
ATOM     69  C   UNL A   1      46.674  26.748  36.447  1.00  0.00     0.200 A 
ATOM     70  F   UNL A   1      45.261  25.007  37.193  1.00  0.00    -0.200 F 
ATOM     71  F   UNL A   1      47.630  26.356  37.300  1.00  0.00    -0.200 F 
ENDBRANCH  38  61
ENDBRANCH  12  13
ENDBRANCH   5   7
ENDBRANCH   4   5
ENDBRANCH   3   4
ENDBRANCH   2   3
ENDBRANCH   1   2
BRANCH   1  72
ATOM     72  C   UNL A   1      31.567  25.908  26.026  1.00  0.00     0.202 C 
BRANCH  72  73
ATOM     73  C   UNL A   1      30.385  25.042  25.616  1.00  0.00     0.261 C 
BRANCH  73  74
ATOM     74  O   UNL A   1      30.929  23.919  24.919  1.00  0.00    -0.460 OA
BRANCH  74  75
ATOM     75  C   UNL A   1      30.945  22.732  25.577  1.00  0.00     0.338 C 
ATOM     76  O   UNL A   1      30.143  22.318  26.397  1.00  0.00    -0.246 OA
BRANCH  75  77
ATOM     77  C   UNL A   1      32.099  21.960  25.066  1.00  0.00     0.062 A 
ATOM     78  C   UNL A   1      32.178  20.578  25.197  1.00  0.00     0.024 A 
ATOM     79  C   UNL A   1      33.150  22.645  24.480  1.00  0.00     0.037 A 
ATOM     80  C   UNL A   1      33.350  19.900  24.814  1.00  0.00    -0.013 A 
ATOM     81  C   UNL A   1      34.376  22.045  24.306  1.00  0.00     0.084 A 
ATOM     82  C   UNL A   1      34.484  20.657  24.447  1.00  0.00     0.030 A 
BRANCH  80  83
ATOM     83  C   UNL A   1      33.362  18.441  24.851  1.00  0.00     0.018 A 
ATOM     84  C   UNL A   1      32.613  17.704  25.749  1.00  0.00     0.123 A 
ATOM     85  C   UNL A   1      34.058  17.674  23.929  1.00  0.00     0.123 A 
ATOM     86  N   UNL A   1      32.542  16.355  25.750  1.00  0.00    -0.244 NA
ATOM     87  N   UNL A   1      34.026  16.325  23.878  1.00  0.00    -0.244 NA
ATOM     88  C   UNL A   1      33.258  15.730  24.803  1.00  0.00     0.221 A 
ENDBRANCH  80  83
BRANCH  81  89
ATOM     89  S   UNL A   1      35.807  23.103  24.154  1.00  0.00     0.243 S 
ATOM     90  O   UNL A   1      36.479  22.665  22.949  1.00  0.00    -0.207 OA
ATOM     91  O   UNL A   1      35.331  24.456  24.325  1.00  0.00    -0.207 OA
BRANCH  89  92
ATOM     92  N   UNL A   1      36.826  22.733  25.460  1.00  0.00    -0.198 NA
ATOM     93  C   UNL A   1      37.277  23.750  26.425  1.00  0.00     0.102 C 
ATOM     94  C   UNL A   1      37.800  21.630  25.398  1.00  0.00     0.102 C 
ATOM     95  C   UNL A   1      38.789  23.586  26.502  1.00  0.00     0.018 C 
ATOM     96  C   UNL A   1      39.079  22.159  26.053  1.00  0.00     0.018 C 
ENDBRANCH  89  92
ENDBRANCH  81  89
ENDBRANCH  75  77
ENDBRANCH  74  75
ENDBRANCH  73  74
ENDBRANCH  72  73
ENDBRANCH   1  72
TORSDOF 17
ENDMDL
MODEL 2
REMARK VINA RESULT:     -11.9      2.985      5.466
REMARK SMILES O=C(OCCOCCOC(=O)c1cc(-c2cncnc2)cc(S(=O)(=O)N2CCCC2)c1)c1ccc(-c2c3nc(c(-c4c(F)c(F)c(F)c(F)c4F)c4ccc([nH]4)c(-c4c(F)c(F)c(F)c(F)c4F)c4nc(c(-c5c(F)c(F)c(F)c(F)c5F)c5ccc2[nH]5)C=C4)C=C3)cc1
REMARK SMILES IDX 6 1 5 2 4 3 3 4 2 5 1 6 32 7 33 8 94 9 34 10 93 11 35 12
REMARK SMILES IDX 36 13 37 14 87 15 38 16 92 17 86 18 88 19 39 20 91 21 85 22
REMARK SMILES IDX 84 23 40 25 72 26 52 27 71 28 53 29 56 30 70 31 89 32 54 33
REMARK SMILES IDX 55 34 69 36 90 37 57 38 41 39 42 40 50 41 43 42 44 43 48 44
REMARK SMILES IDX 51 45 45 46 46 47 49 48 47 49 73 50 74 51 82 52 75 53 76 54
REMARK SMILES IDX 80 55 83 56 77 57 78 58 81 59 79 60 58 61 59 62 67 63 60 64
REMARK SMILES IDX 61 65 65 66 68 67 62 68 63 69 66 70 64 71 7 72 8 73 9 74
REMARK SMILES IDX 10 75 11 76 12 77 13 78 31 79 14 80 22 81 21 82 15 83 16 84
REMARK SMILES IDX 20 85 17 86 19 87 18 88 23 89 24 90 25 91 26 92 27 93 30 94
REMARK SMILES IDX 28 95 29 96
REMARK H PARENT 88 24 56 35
REMARK Flexibility Score: inf
ROOT
ATOM      1  O   UNL A   1      31.724  30.873  26.898  1.00  0.00    -0.374 OA
ENDROOT
BRANCH   1   2
ATOM      2  C   UNL A   1      31.420  32.262  26.786  1.00  0.00     0.202 C 
BRANCH   2   3
ATOM      3  C   UNL A   1      32.624  33.163  27.053  1.00  0.00     0.261 C 
BRANCH   3   4
ATOM      4  O   UNL A   1      32.241  34.249  27.913  1.00  0.00    -0.460 OA
BRANCH   4   5
ATOM      5  C   UNL A   1      33.000  34.864  28.847  1.00  0.00     0.338 C 
ATOM      6  O   UNL A   1      32.715  36.011  29.185  1.00  0.00    -0.246 OA
BRANCH   5   7
ATOM      7  C   UNL A   1      34.169  34.217  29.511  1.00  0.00     0.060 A 
ATOM      8  C   UNL A   1      34.076  33.214  30.476  1.00  0.00     0.016 A 
ATOM      9  C   UNL A   1      35.446  34.566  29.049  1.00  0.00     0.016 A 
ATOM     10  C   UNL A   1      35.182  32.568  30.975  1.00  0.00     0.010 A 
ATOM     11  C   UNL A   1      36.582  33.921  29.546  1.00  0.00     0.010 A 
ATOM     12  C   UNL A   1      36.437  32.916  30.508  1.00  0.00    -0.014 A 
BRANCH  12  13
ATOM     13  C   UNL A   1      37.561  32.292  31.205  1.00  0.00     0.031 A 
ATOM     14  C   UNL A   1      38.360  31.288  30.449  1.00  0.00     0.074 A 
ATOM     15  C   UNL A   1      37.956  32.798  32.386  1.00  0.00     0.049 A 
ATOM     16  N   UNL A   1      39.367  30.564  30.846  1.00  0.00    -0.248 NA
ATOM     17  C   UNL A   1      37.985  31.083  29.038  1.00  0.00     0.031 C 
ATOM     18  C   UNL A   1      37.326  33.933  33.072  1.00  0.00     0.029 A 
ATOM     19  N   UNL A   1      39.003  32.461  33.194  1.00  0.00    -0.354 N 
ATOM     20  C   UNL A   1      39.715  29.786  29.753  1.00  0.00     0.074 A 
ATOM     21  C   UNL A   1      38.822  30.127  28.670  1.00  0.00     0.031 C 
ATOM     22  C   UNL A   1      38.009  34.199  34.196  1.00  0.00     0.029 A 
ATOM     23  C   UNL A   1      39.060  33.203  34.346  1.00  0.00     0.049 A 
ATOM     24  H   UNL A   1      39.653  31.755  32.972  1.00  0.00     0.167 HD
ATOM     25  C   UNL A   1      40.692  28.856  29.688  1.00  0.00     0.037 A 
ATOM     26  C   UNL A   1      39.850  33.039  35.423  1.00  0.00     0.037 A 
ATOM     27  C   UNL A   1      41.552  28.564  30.801  1.00  0.00     0.049 A 
ATOM     28  C   UNL A   1      40.841  31.906  35.375  1.00  0.00     0.074 A 
ATOM     29  C   UNL A   1      42.528  27.596  30.915  1.00  0.00     0.029 A 
ATOM     30  N   UNL A   1      41.524  29.258  32.008  1.00  0.00    -0.354 N 
ATOM     31  N   UNL A   1      41.107  31.083  34.387  1.00  0.00    -0.248 NA
ATOM     32  C   UNL A   1      41.625  31.663  36.588  1.00  0.00     0.031 C 
ATOM     33  C   UNL A   1      43.050  27.667  32.212  1.00  0.00     0.029 A 
ATOM     34  C   UNL A   1      42.451  28.724  32.883  1.00  0.00     0.049 A 
ATOM     35  H   UNL A   1      40.931  30.018  32.208  1.00  0.00     0.167 HD
ATOM     36  C   UNL A   1      42.104  30.238  34.846  1.00  0.00     0.074 A 
ATOM     37  C   UNL A   1      42.407  30.665  36.201  1.00  0.00     0.031 C 
ATOM     38  C   UNL A   1      42.716  29.202  34.219  1.00  0.00     0.037 A 
BRANCH  25  39
ATOM     39  C   UNL A   1      40.780  28.047  28.430  1.00  0.00     0.064 A 
ATOM     40  C   UNL A   1      40.120  26.818  28.277  1.00  0.00     0.173 A 
ATOM     41  C   UNL A   1      41.600  28.482  27.377  1.00  0.00     0.173 A 
ATOM     42  F   UNL A   1      39.355  26.334  29.268  1.00  0.00    -0.203 F 
ATOM     43  C   UNL A   1      40.306  26.041  27.134  1.00  0.00     0.198 A 
ATOM     44  C   UNL A   1      41.759  27.720  26.224  1.00  0.00     0.198 A 
ATOM     45  F   UNL A   1      42.269  29.641  27.478  1.00  0.00    -0.203 F 
ATOM     46  F   UNL A   1      39.725  24.837  27.042  1.00  0.00    -0.200 F 
ATOM     47  C   UNL A   1      41.121  26.495  26.107  1.00  0.00     0.200 A 
ATOM     48  F   UNL A   1      42.547  28.162  25.235  1.00  0.00    -0.200 F 
ATOM     49  F   UNL A   1      41.307  25.743  25.015  1.00  0.00    -0.200 F 
ENDBRANCH  25  39
BRANCH  26  50
ATOM     50  C   UNL A   1      39.679  33.893  36.628  1.00  0.00     0.064 A 
ATOM     51  C   UNL A   1      38.878  33.486  37.704  1.00  0.00     0.173 A 
ATOM     52  C   UNL A   1      40.299  35.150  36.724  1.00  0.00     0.173 A 
ATOM     53  F   UNL A   1      38.247  32.304  37.659  1.00  0.00    -0.203 F 
ATOM     54  C   UNL A   1      38.685  34.310  38.813  1.00  0.00     0.198 A 
ATOM     55  C   UNL A   1      40.135  35.957  37.848  1.00  0.00     0.198 A 
ATOM     56  F   UNL A   1      41.078  35.595  35.726  1.00  0.00    -0.203 F 
ATOM     57  F   UNL A   1      37.870  33.918  39.802  1.00  0.00    -0.200 F 
ATOM     58  C   UNL A   1      39.318  35.542  38.887  1.00  0.00     0.200 A 
ATOM     59  F   UNL A   1      40.764  37.139  37.919  1.00  0.00    -0.200 F 
ATOM     60  F   UNL A   1      39.133  36.333  39.953  1.00  0.00    -0.200 F 
ENDBRANCH  26  50
BRANCH  38  61
ATOM     61  C   UNL A   1      43.801  28.503  34.980  1.00  0.00     0.064 A 
ATOM     62  C   UNL A   1      43.538  27.388  35.786  1.00  0.00     0.173 A 
ATOM     63  C   UNL A   1      45.132  28.929  34.850  1.00  0.00     0.173 A 
ATOM     64  F   UNL A   1      42.278  26.957  35.953  1.00  0.00    -0.203 F 
ATOM     65  C   UNL A   1      44.567  26.738  36.458  1.00  0.00     0.198 A 
ATOM     66  C   UNL A   1      46.162  28.252  35.489  1.00  0.00     0.198 A 
ATOM     67  F   UNL A   1      45.432  29.987  34.081  1.00  0.00    -0.203 F 
ATOM     68  F   UNL A   1      44.288  25.706  37.266  1.00  0.00    -0.200 F 
ATOM     69  C   UNL A   1      45.878  27.163  36.300  1.00  0.00     0.200 A 
ATOM     70  F   UNL A   1      47.430  28.651  35.320  1.00  0.00    -0.200 F 
ATOM     71  F   UNL A   1      46.870  26.523  36.934  1.00  0.00    -0.200 F 
ENDBRANCH  38  61
ENDBRANCH  12  13
ENDBRANCH   5   7
ENDBRANCH   4   5
ENDBRANCH   3   4
ENDBRANCH   2   3
ENDBRANCH   1   2
BRANCH   1  72
ATOM     72  C   UNL A   1      33.098  30.486  26.872  1.00  0.00     0.202 C 
BRANCH  72  73
ATOM     73  C   UNL A   1      33.226  29.197  27.670  1.00  0.00     0.261 C 
BRANCH  73  74
ATOM     74  O   UNL A   1      33.161  28.127  26.724  1.00  0.00    -0.460 OA
BRANCH  74  75
ATOM     75  C   UNL A   1      31.932  27.629  26.438  1.00  0.00     0.338 C 
ATOM     76  O   UNL A   1      31.142  27.097  27.200  1.00  0.00    -0.246 OA
BRANCH  75  77
ATOM     77  C   UNL A   1      31.664  27.911  25.010  1.00  0.00     0.062 A 
ATOM     78  C   UNL A   1      30.707  28.837  24.609  1.00  0.00     0.024 A 
ATOM     79  C   UNL A   1      32.357  27.195  24.050  1.00  0.00     0.037 A 
ATOM     80  C   UNL A   1      30.394  28.979  23.244  1.00  0.00    -0.013 A 
ATOM     81  C   UNL A   1      31.920  27.154  22.746  1.00  0.00     0.084 A 
ATOM     82  C   UNL A   1      30.947  28.066  22.321  1.00  0.00     0.030 A 
BRANCH  80  83
ATOM     83  C   UNL A   1      29.474  30.039  22.842  1.00  0.00     0.018 A 
ATOM     84  C   UNL A   1      29.182  31.127  23.642  1.00  0.00     0.123 A 
ATOM     85  C   UNL A   1      28.888  30.084  21.586  1.00  0.00     0.123 A 
ATOM     86  N   UNL A   1      28.401  32.161  23.260  1.00  0.00    -0.244 NA
ATOM     87  N   UNL A   1      28.101  31.089  21.146  1.00  0.00    -0.244 NA
ATOM     88  C   UNL A   1      27.897  32.088  22.017  1.00  0.00     0.221 A 
ENDBRANCH  80  83
BRANCH  81  89
ATOM     89  S   UNL A   1      32.439  25.775  21.736  1.00  0.00     0.243 S 
ATOM     90  O   UNL A   1      31.655  25.873  20.523  1.00  0.00    -0.207 OA
ATOM     91  O   UNL A   1      33.884  25.802  21.725  1.00  0.00    -0.207 OA
BRANCH  89  92
ATOM     92  N   UNL A   1      31.943  24.367  22.542  1.00  0.00    -0.198 NA
ATOM     93  C   UNL A   1      30.623  24.245  23.185  1.00  0.00     0.102 C 
ATOM     94  C   UNL A   1      32.906  23.464  23.194  1.00  0.00     0.102 C 
ATOM     95  C   UNL A   1      30.909  23.743  24.593  1.00  0.00     0.018 C 
ATOM     96  C   UNL A   1      32.268  23.056  24.526  1.00  0.00     0.018 C 
ENDBRANCH  89  92
ENDBRANCH  81  89
ENDBRANCH  75  77
ENDBRANCH  74  75
ENDBRANCH  73  74
ENDBRANCH  72  73
ENDBRANCH   1  72
TORSDOF 17
ENDMDL
MODEL 3
REMARK VINA RESULT:     -11.9      2.689      7.857
REMARK SMILES O=C(OCCOCCOC(=O)c1cc(-c2cncnc2)cc(S(=O)(=O)N2CCCC2)c1)c1ccc(-c2c3nc(c(-c4c(F)c(F)c(F)c(F)c4F)c4ccc([nH]4)c(-c4c(F)c(F)c(F)c(F)c4F)c4nc(c(-c5c(F)c(F)c(F)c(F)c5F)c5ccc2[nH]5)C=C4)C=C3)cc1
REMARK SMILES IDX 6 1 5 2 4 3 3 4 2 5 1 6 32 7 33 8 94 9 34 10 93 11 35 12
REMARK SMILES IDX 36 13 37 14 87 15 38 16 92 17 86 18 88 19 39 20 91 21 85 22
REMARK SMILES IDX 84 23 40 25 72 26 52 27 71 28 53 29 56 30 70 31 89 32 54 33
REMARK SMILES IDX 55 34 69 36 90 37 57 38 41 39 42 40 50 41 43 42 44 43 48 44
REMARK SMILES IDX 51 45 45 46 46 47 49 48 47 49 73 50 74 51 82 52 75 53 76 54
REMARK SMILES IDX 80 55 83 56 77 57 78 58 81 59 79 60 58 61 59 62 67 63 60 64
REMARK SMILES IDX 61 65 65 66 68 67 62 68 63 69 66 70 64 71 7 72 8 73 9 74
REMARK SMILES IDX 10 75 11 76 12 77 13 78 31 79 14 80 22 81 21 82 15 83 16 84
REMARK SMILES IDX 20 85 17 86 19 87 18 88 23 89 24 90 25 91 26 92 27 93 30 94
REMARK SMILES IDX 28 95 29 96
REMARK H PARENT 88 24 56 35
REMARK Flexibility Score: inf
ROOT
ATOM      1  O   UNL A   1      41.397  20.077  25.522  1.00  0.00    -0.374 OA
ENDROOT
BRANCH   1   2
ATOM      2  C   UNL A   1      42.503  20.477  26.329  1.00  0.00     0.202 C 
BRANCH   2   3
ATOM      3  C   UNL A   1      43.517  21.334  25.573  1.00  0.00     0.261 C 
BRANCH   3   4
ATOM      4  O   UNL A   1      42.884  22.533  25.095  1.00  0.00    -0.460 OA
BRANCH   4   5
ATOM      5  C   UNL A   1      43.339  23.802  25.207  1.00  0.00     0.338 C 
ATOM      6  O   UNL A   1      44.140  24.222  24.374  1.00  0.00    -0.246 OA
BRANCH   5   7
ATOM      7  C   UNL A   1      42.906  24.737  26.285  1.00  0.00     0.060 A 
ATOM      8  C   UNL A   1      43.362  26.047  26.427  1.00  0.00     0.016 A 
ATOM      9  C   UNL A   1      41.890  24.299  27.146  1.00  0.00     0.016 A 
ATOM     10  C   UNL A   1      42.849  26.908  27.368  1.00  0.00     0.010 A 
ATOM     11  C   UNL A   1      41.357  25.160  28.110  1.00  0.00     0.010 A 
ATOM     12  C   UNL A   1      41.842  26.468  28.209  1.00  0.00    -0.014 A 
BRANCH  12  13
ATOM     13  C   UNL A   1      41.468  27.394  29.277  1.00  0.00     0.031 A 
ATOM     14  C   UNL A   1      42.399  27.510  30.435  1.00  0.00     0.074 A 
ATOM     15  C   UNL A   1      40.448  28.244  29.075  1.00  0.00     0.049 A 
ATOM     16  N   UNL A   1      42.282  28.215  31.523  1.00  0.00    -0.248 NA
ATOM     17  C   UNL A   1      43.651  26.735  30.347  1.00  0.00     0.031 C 
ATOM     18  C   UNL A   1      39.633  28.311  27.856  1.00  0.00     0.029 A 
ATOM     19  N   UNL A   1      39.952  29.243  29.862  1.00  0.00    -0.354 N 
ATOM     20  C   UNL A   1      43.416  27.935  32.268  1.00  0.00     0.074 A 
ATOM     21  C   UNL A   1      44.219  27.004  31.511  1.00  0.00     0.031 C 
ATOM     22  C   UNL A   1      38.742  29.306  27.979  1.00  0.00     0.029 A 
ATOM     23  C   UNL A   1      38.870  29.881  29.311  1.00  0.00     0.049 A 
ATOM     24  H   UNL A   1      40.332  29.482  30.738  1.00  0.00     0.167 HD
ATOM     25  C   UNL A   1      43.731  28.415  33.490  1.00  0.00     0.037 A 
ATOM     26  C   UNL A   1      38.047  30.790  29.865  1.00  0.00     0.037 A 
ATOM     27  C   UNL A   1      42.891  29.344  34.193  1.00  0.00     0.049 A 
ATOM     28  C   UNL A   1      38.347  31.206  31.281  1.00  0.00     0.074 A 
ATOM     29  C   UNL A   1      43.033  29.854  35.467  1.00  0.00     0.029 A 
ATOM     30  N   UNL A   1      41.733  29.902  33.658  1.00  0.00    -0.354 N 
ATOM     31  N   UNL A   1      39.358  30.863  32.046  1.00  0.00    -0.248 NA
ATOM     32  C   UNL A   1      37.390  32.113  31.919  1.00  0.00     0.031 C 
ATOM     33  C   UNL A   1      41.930  30.676  35.724  1.00  0.00     0.029 A 
ATOM     34  C   UNL A   1      41.137  30.735  34.586  1.00  0.00     0.049 A 
ATOM     35  H   UNL A   1      41.390  29.730  32.752  1.00  0.00     0.167 HD
ATOM     36  C   UNL A   1      39.176  31.529  33.247  1.00  0.00     0.074 A 
ATOM     37  C   UNL A   1      37.961  32.311  33.099  1.00  0.00     0.031 C 
ATOM     38  C   UNL A   1      39.931  31.500  34.375  1.00  0.00     0.037 A 
BRANCH  25  39
ATOM     39  C   UNL A   1      44.954  27.852  34.149  1.00  0.00     0.064 A 
ATOM     40  C   UNL A   1      44.920  26.686  34.930  1.00  0.00     0.173 A 
ATOM     41  C   UNL A   1      46.176  28.534  34.050  1.00  0.00     0.173 A 
ATOM     42  F   UNL A   1      43.768  26.015  35.093  1.00  0.00    -0.203 F 
ATOM     43  C   UNL A   1      46.052  26.246  35.613  1.00  0.00     0.198 A 
ATOM     44  C   UNL A   1      47.314  28.075  34.706  1.00  0.00     0.198 A 
ATOM     45  F   UNL A   1      46.262  29.664  33.331  1.00  0.00    -0.203 F 
ATOM     46  F   UNL A   1      45.977  25.173  36.413  1.00  0.00    -0.200 F 
ATOM     47  C   UNL A   1      47.249  26.939  35.497  1.00  0.00     0.200 A 
ATOM     48  F   UNL A   1      48.468  28.747  34.592  1.00  0.00    -0.200 F 
ATOM     49  F   UNL A   1      48.334  26.521  36.163  1.00  0.00    -0.200 F 
ENDBRANCH  25  39
BRANCH  26  50
ATOM     50  C   UNL A   1      36.854  31.284  29.129  1.00  0.00     0.064 A 
ATOM     51  C   UNL A   1      36.766  32.610  28.684  1.00  0.00     0.173 A 
ATOM     52  C   UNL A   1      35.758  30.442  28.869  1.00  0.00     0.173 A 
ATOM     53  F   UNL A   1      37.775  33.462  28.919  1.00  0.00    -0.203 F 
ATOM     54  C   UNL A   1      35.626  33.079  28.032  1.00  0.00     0.198 A 
ATOM     55  C   UNL A   1      34.634  30.903  28.187  1.00  0.00     0.198 A 
ATOM     56  F   UNL A   1      35.782  29.162  29.271  1.00  0.00    -0.203 F 
ATOM     57  F   UNL A   1      35.549  34.367  27.667  1.00  0.00    -0.200 F 
ATOM     58  C   UNL A   1      34.563  32.225  27.780  1.00  0.00     0.200 A 
ATOM     59  F   UNL A   1      33.619  30.066  27.932  1.00  0.00    -0.200 F 
ATOM     60  F   UNL A   1      33.468  32.677  27.154  1.00  0.00    -0.200 F 
ENDBRANCH  26  50
BRANCH  38  61
ATOM     61  C   UNL A   1      39.484  32.378  35.504  1.00  0.00     0.064 A 
ATOM     62  C   UNL A   1      38.693  31.889  36.552  1.00  0.00     0.173 A 
ATOM     63  C   UNL A   1      39.907  33.714  35.560  1.00  0.00     0.173 A 
ATOM     64  F   UNL A   1      38.252  30.621  36.531  1.00  0.00    -0.203 F 
ATOM     65  C   UNL A   1      38.318  32.716  37.604  1.00  0.00     0.198 A 
ATOM     66  C   UNL A   1      39.565  34.526  36.633  1.00  0.00     0.198 A 
ATOM     67  F   UNL A   1      40.674  34.223  34.583  1.00  0.00    -0.203 F 
ATOM     68  F   UNL A   1      37.517  32.244  38.570  1.00  0.00    -0.200 F 
ATOM     69  C   UNL A   1      38.763  34.029  37.650  1.00  0.00     0.200 A 
ATOM     70  F   UNL A   1      40.012  35.787  36.686  1.00  0.00    -0.200 F 
ATOM     71  F   UNL A   1      38.415  34.818  38.675  1.00  0.00    -0.200 F 
ENDBRANCH  38  61
ENDBRANCH  12  13
ENDBRANCH   5   7
ENDBRANCH   4   5
ENDBRANCH   3   4
ENDBRANCH   2   3
ENDBRANCH   1   2
BRANCH   1  72
ATOM     72  C   UNL A   1      40.110  20.019  26.135  1.00  0.00     0.202 C 
BRANCH  72  73
ATOM     73  C   UNL A   1      39.545  21.432  26.147  1.00  0.00     0.261 C 
BRANCH  73  74
ATOM     74  O   UNL A   1      38.233  21.349  25.587  1.00  0.00    -0.460 OA
BRANCH  74  75
ATOM     75  C   UNL A   1      37.530  22.505  25.485  1.00  0.00     0.338 C 
ATOM     76  O   UNL A   1      37.952  23.647  25.550  1.00  0.00    -0.246 OA
BRANCH  75  77
ATOM     77  C   UNL A   1      36.124  22.142  25.198  1.00  0.00     0.062 A 
ATOM     78  C   UNL A   1      35.702  20.819  25.139  1.00  0.00     0.024 A 
ATOM     79  C   UNL A   1      35.218  23.155  24.936  1.00  0.00     0.037 A 
ATOM     80  C   UNL A   1      34.388  20.517  24.735  1.00  0.00    -0.013 A 
ATOM     81  C   UNL A   1      34.011  22.885  24.332  1.00  0.00     0.084 A 
ATOM     82  C   UNL A   1      33.570  21.560  24.247  1.00  0.00     0.030 A 
BRANCH  80  83
ATOM     83  C   UNL A   1      33.935  19.131  24.796  1.00  0.00     0.018 A 
ATOM     84  C   UNL A   1      32.620  18.776  25.026  1.00  0.00     0.123 A 
ATOM     85  C   UNL A   1      34.776  18.058  24.539  1.00  0.00     0.123 A 
ATOM     86  N   UNL A   1      32.162  17.505  25.005  1.00  0.00    -0.244 NA
ATOM     87  N   UNL A   1      34.378  16.768  24.502  1.00  0.00    -0.244 NA
ATOM     88  C   UNL A   1      33.075  16.558  24.739  1.00  0.00     0.221 A 
ENDBRANCH  80  83
BRANCH  81  89
ATOM     89  S   UNL A   1      33.194  24.218  23.469  1.00  0.00     0.243 S 
ATOM     90  O   UNL A   1      34.244  24.907  22.748  1.00  0.00    -0.207 OA
ATOM     91  O   UNL A   1      32.056  23.632  22.800  1.00  0.00    -0.207 OA
BRANCH  89  92
ATOM     92  N   UNL A   1      32.618  25.286  24.655  1.00  0.00    -0.198 NA
ATOM     93  C   UNL A   1      31.913  24.822  25.863  1.00  0.00     0.102 C 
ATOM     94  C   UNL A   1      32.207  26.662  24.329  1.00  0.00     0.102 C 
ATOM     95  C   UNL A   1      30.640  25.655  25.928  1.00  0.00     0.018 C 
ATOM     96  C   UNL A   1      30.927  26.921  25.129  1.00  0.00     0.018 C 
ENDBRANCH  89  92
ENDBRANCH  81  89
ENDBRANCH  75  77
ENDBRANCH  74  75
ENDBRANCH  73  74
ENDBRANCH  72  73
ENDBRANCH   1  72
TORSDOF 17
ENDMDL
