MODEL 1
REMARK VINA RESULT:     -11.6      0.000      0.000
REMARK SMILES CCCC[C@@H](NS(=O)(=O)c1cc2c3c(c1)c(C)cc(=O)n3CC2)C(=O)OCCOCCOC(=O)c1ccc(-c2c3nc(c(-c4c(F)c(F)c(F)c(F)c4F)c4ccc([nH]4)c(-c4c(F)c(F)c(F)c(F)c4F)c4nc(c(-c5c(F)c(F)c(F)c(F)c5F)c5ccc2[nH]5)C=C4)C=C3)cc1
REMARK SMILES IDX 28 1 27 2 26 3 24 4 25 5 5 6 4 7 3 8 2 9 1 10 6 11 7 13 8 14
REMARK SMILES IDX 9 15 10 16 11 17 15 18 12 19 14 20 13 21 23 22 16 23 21 24
REMARK SMILES IDX 22 25 17 26 18 27 19 28 20 29 29 30 30 31 31 32 32 33 33 34
REMARK SMILES IDX 34 35 35 36 36 37 97 38 37 39 96 40 38 41 39 42 40 43 90 44
REMARK SMILES IDX 41 45 95 46 89 47 91 48 42 49 94 50 88 51 87 52 43 54 75 55
REMARK SMILES IDX 55 56 74 57 56 58 59 59 73 60 92 61 57 62 58 63 72 65 93 66
REMARK SMILES IDX 60 67 44 68 45 69 53 70 46 71 47 72 51 73 54 74 48 75 49 76
REMARK SMILES IDX 52 77 50 78 76 79 77 80 85 81 78 82 79 83 83 84 86 85 80 86
REMARK SMILES IDX 81 87 84 88 82 89 61 90 62 91 70 92 63 93 64 94 68 95 71 96
REMARK SMILES IDX 65 97 66 98 69 99 67 100
REMARK H PARENT 6 12 91 53 59 64
REMARK Flexibility Score: inf
ROOT
ATOM      1  C   UNL A   1      33.039  29.708  26.665  1.00  0.00     0.202 C 
ENDROOT
BRANCH   1   2
ATOM      2  C   UNL A   1      34.180  28.994  25.936  1.00  0.00     0.261 C 
BRANCH   2   3
ATOM      3  O   UNL A   1      33.868  27.928  25.046  1.00  0.00    -0.462 OA
BRANCH   3   4
ATOM      4  C   UNL A   1      33.935  28.238  23.717  1.00  0.00     0.324 C 
ATOM      5  O   UNL A   1      34.820  28.894  23.186  1.00  0.00    -0.250 OA
BRANCH   4   6
ATOM      6  C   UNL A   1      32.739  27.709  22.955  1.00  0.00     0.179 C 
BRANCH   6   7
ATOM      7  C   UNL A   1      31.711  28.847  22.800  1.00  0.00     0.032 C 
BRANCH   7   8
ATOM      8  C   UNL A   1      30.456  28.752  23.676  1.00  0.00     0.002 C 
BRANCH   8   9
ATOM      9  C   UNL A   1      30.218  27.416  24.389  1.00  0.00    -0.003 C 
ATOM     10  C   UNL A   1      29.027  26.623  23.868  1.00  0.00     0.004 C 
ENDBRANCH   8   9
ENDBRANCH   7   8
ENDBRANCH   6   7
BRANCH   6  11
ATOM     11  N   UNL A   1      33.198  27.167  21.647  1.00  0.00    -0.197 NA
ATOM     12  H   UNL A   1      34.199  26.989  21.727  1.00  0.00     0.142 HD
BRANCH  11  13
ATOM     13  S   UNL A   1      32.476  25.735  21.069  1.00  0.00     0.241 S 
ATOM     14  O   UNL A   1      31.071  26.002  20.881  1.00  0.00    -0.207 OA
ATOM     15  O   UNL A   1      33.315  25.309  19.966  1.00  0.00    -0.207 OA
BRANCH  13  16
ATOM     16  C   UNL A   1      32.675  24.523  22.368  1.00  0.00     0.083 A 
ATOM     17  C   UNL A   1      31.540  24.116  23.100  1.00  0.00     0.027 A 
ATOM     18  C   UNL A   1      33.964  24.023  22.671  1.00  0.00     0.032 A 
ATOM     19  C   UNL A   1      31.745  23.386  24.256  1.00  0.00    -0.020 A 
ATOM     20  C   UNL A   1      34.148  23.198  23.787  1.00  0.00     0.003 A 
ATOM     21  C   UNL A   1      33.024  22.953  24.562  1.00  0.00     0.055 A 
ATOM     22  C   UNL A   1      30.816  23.128  25.409  1.00  0.00     0.060 C 
ATOM     23  C   UNL A   1      35.417  22.627  24.281  1.00  0.00    -0.036 A 
ATOM     24  N   UNL A   1      33.071  22.382  25.824  1.00  0.00    -0.308 N 
ATOM     25  C   UNL A   1      31.751  22.464  26.450  1.00  0.00     0.131 C 
ATOM     26  C   UNL A   1      36.630  22.687  23.408  1.00  0.00     0.045 C 
ATOM     27  C   UNL A   1      35.437  22.037  25.496  1.00  0.00     0.075 A 
ATOM     28  C   UNL A   1      34.235  21.939  26.386  1.00  0.00     0.251 A 
ATOM     29  O   UNL A   1      34.341  21.499  27.525  1.00  0.00    -0.269 OA
ENDBRANCH  13  16
ENDBRANCH  11  13
ENDBRANCH   6  11
ENDBRANCH   4   6
ENDBRANCH   3   4
ENDBRANCH   2   3
ENDBRANCH   1   2
BRANCH   1  30
ATOM     30  O   UNL A   1      32.240  30.662  25.991  1.00  0.00    -0.374 OA
BRANCH  30  31
ATOM     31  C   UNL A   1      31.483  31.591  26.766  1.00  0.00     0.202 C 
BRANCH  31  32
ATOM     32  C   UNL A   1      31.980  33.034  26.837  1.00  0.00     0.261 C 
BRANCH  32  33
ATOM     33  O   UNL A   1      32.554  33.328  28.124  1.00  0.00    -0.460 OA
BRANCH  33  34
ATOM     34  C   UNL A   1      33.649  34.124  28.096  1.00  0.00     0.338 C 
ATOM     35  O   UNL A   1      33.687  35.339  28.016  1.00  0.00    -0.246 OA
BRANCH  34  36
ATOM     36  C   UNL A   1      34.833  33.307  28.415  1.00  0.00     0.060 A 
ATOM     37  C   UNL A   1      34.633  32.025  28.948  1.00  0.00     0.016 A 
ATOM     38  C   UNL A   1      36.119  33.823  28.253  1.00  0.00     0.016 A 
ATOM     39  C   UNL A   1      35.724  31.263  29.349  1.00  0.00     0.010 A 
ATOM     40  C   UNL A   1      37.210  33.070  28.685  1.00  0.00     0.010 A 
ATOM     41  C   UNL A   1      37.012  31.805  29.265  1.00  0.00    -0.014 A 
BRANCH  41  42
ATOM     42  C   UNL A   1      38.120  31.127  29.970  1.00  0.00     0.031 A 
ATOM     43  C   UNL A   1      38.361  31.475  31.412  1.00  0.00     0.074 A 
ATOM     44  C   UNL A   1      38.855  30.186  29.354  1.00  0.00     0.049 A 
ATOM     45  N   UNL A   1      39.260  31.005  32.238  1.00  0.00    -0.248 NA
ATOM     46  C   UNL A   1      37.465  32.482  32.006  1.00  0.00     0.031 C 
ATOM     47  C   UNL A   1      38.665  29.737  27.976  1.00  0.00     0.029 A 
ATOM     48  N   UNL A   1      39.904  29.432  29.814  1.00  0.00    -0.354 N 
ATOM     49  C   UNL A   1      39.022  31.642  33.448  1.00  0.00     0.074 A 
ATOM     50  C   UNL A   1      37.934  32.569  33.243  1.00  0.00     0.031 C 
ATOM     51  C   UNL A   1      39.569  28.780  27.704  1.00  0.00     0.029 A 
ATOM     52  C   UNL A   1      40.415  28.569  28.877  1.00  0.00     0.049 A 
ATOM     53  H   UNL A   1      40.258  29.505  30.730  1.00  0.00     0.167 HD
ATOM     54  C   UNL A   1      39.643  31.445  34.633  1.00  0.00     0.037 A 
ATOM     55  C   UNL A   1      41.452  27.713  28.966  1.00  0.00     0.037 A 
ATOM     56  C   UNL A   1      40.730  30.526  34.828  1.00  0.00     0.049 A 
ATOM     57  C   UNL A   1      42.206  27.607  30.269  1.00  0.00     0.074 A 
ATOM     58  C   UNL A   1      41.439  30.267  35.985  1.00  0.00     0.029 A 
ATOM     59  N   UNL A   1      41.263  29.715  33.836  1.00  0.00    -0.354 N 
ATOM     60  N   UNL A   1      41.962  28.195  31.415  1.00  0.00    -0.248 NA
ATOM     61  C   UNL A   1      43.379  26.719  30.292  1.00  0.00     0.031 C 
ATOM     62  C   UNL A   1      42.434  29.335  35.685  1.00  0.00     0.029 A 
ATOM     63  C   UNL A   1      42.308  28.971  34.353  1.00  0.00     0.049 A 
ATOM     64  H   UNL A   1      40.945  29.675  32.906  1.00  0.00     0.167 HD
ATOM     65  C   UNL A   1      42.920  27.717  32.301  1.00  0.00     0.074 A 
ATOM     66  C   UNL A   1      43.747  26.789  31.563  1.00  0.00     0.031 C 
ATOM     67  C   UNL A   1      43.097  28.023  33.609  1.00  0.00     0.037 A 
BRANCH  54  68
ATOM     68  C   UNL A   1      39.162  32.221  35.822  1.00  0.00     0.064 A 
ATOM     69  C   UNL A   1      38.270  31.654  36.743  1.00  0.00     0.173 A 
ATOM     70  C   UNL A   1      39.677  33.495  36.102  1.00  0.00     0.173 A 
ATOM     71  F   UNL A   1      37.739  30.443  36.513  1.00  0.00    -0.203 F 
ATOM     72  C   UNL A   1      37.911  32.335  37.903  1.00  0.00     0.198 A 
ATOM     73  C   UNL A   1      39.338  34.161  37.275  1.00  0.00     0.198 A 
ATOM     74  F   UNL A   1      40.537  34.078  35.252  1.00  0.00    -0.203 F 
ATOM     75  F   UNL A   1      37.044  31.782  38.762  1.00  0.00    -0.200 F 
ATOM     76  C   UNL A   1      38.457  33.580  38.176  1.00  0.00     0.200 A 
ATOM     77  F   UNL A   1      39.878  35.358  37.545  1.00  0.00    -0.200 F 
ATOM     78  F   UNL A   1      38.136  34.221  39.308  1.00  0.00    -0.200 F 
ENDBRANCH  54  68
BRANCH  55  79
ATOM     79  C   UNL A   1      41.831  26.871  27.800  1.00  0.00     0.064 A 
ATOM     80  C   UNL A   1      41.244  25.613  27.602  1.00  0.00     0.173 A 
ATOM     81  C   UNL A   1      42.798  27.289  26.874  1.00  0.00     0.173 A 
ATOM     82  F   UNL A   1      40.329  25.158  28.470  1.00  0.00    -0.203 F 
ATOM     83  C   UNL A   1      41.625  24.799  26.537  1.00  0.00     0.198 A 
ATOM     84  C   UNL A   1      43.155  26.487  25.791  1.00  0.00     0.198 A 
ATOM     85  F   UNL A   1      43.392  28.483  27.015  1.00  0.00    -0.203 F 
ATOM     86  F   UNL A   1      41.081  23.581  26.401  1.00  0.00    -0.200 F 
ATOM     87  C   UNL A   1      42.576  25.239  25.629  1.00  0.00     0.200 A 
ATOM     88  F   UNL A   1      44.064  26.923  24.908  1.00  0.00    -0.200 F 
ATOM     89  F   UNL A   1      42.938  24.457  24.604  1.00  0.00    -0.200 F 
ENDBRANCH  55  79
BRANCH  67  90
ATOM     90  C   UNL A   1      44.195  27.328  34.360  1.00  0.00     0.064 A 
ATOM     91  C   UNL A   1      45.442  27.936  34.558  1.00  0.00     0.173 A 
ATOM     92  C   UNL A   1      43.945  26.107  35.008  1.00  0.00     0.173 A 
ATOM     93  F   UNL A   1      45.731  29.098  33.952  1.00  0.00    -0.203 F 
ATOM     94  C   UNL A   1      46.398  27.349  35.382  1.00  0.00     0.198 A 
ATOM     95  C   UNL A   1      44.891  25.539  35.854  1.00  0.00     0.198 A 
ATOM     96  F   UNL A   1      42.761  25.493  34.860  1.00  0.00    -0.203 F 
ATOM     97  F   UNL A   1      47.589  27.940  35.547  1.00  0.00    -0.200 F 
ATOM     98  C   UNL A   1      46.117  26.161  36.041  1.00  0.00     0.200 A 
ATOM     99  F   UNL A   1      44.609  24.405  36.509  1.00  0.00    -0.200 F 
ATOM    100  F   UNL A   1      47.025  25.619  36.864  1.00  0.00    -0.200 F 
ENDBRANCH  67  90
ENDBRANCH  41  42
ENDBRANCH  34  36
ENDBRANCH  33  34
ENDBRANCH  32  33
ENDBRANCH  31  32
ENDBRANCH  30  31
ENDBRANCH   1  30
TORSDOF 20
ENDMDL
MODEL 2
REMARK VINA RESULT:     -11.5      4.557     10.313
REMARK SMILES CCCC[C@@H](NS(=O)(=O)c1cc2c3c(c1)c(C)cc(=O)n3CC2)C(=O)OCCOCCOC(=O)c1ccc(-c2c3nc(c(-c4c(F)c(F)c(F)c(F)c4F)c4ccc([nH]4)c(-c4c(F)c(F)c(F)c(F)c4F)c4nc(c(-c5c(F)c(F)c(F)c(F)c5F)c5ccc2[nH]5)C=C4)C=C3)cc1
REMARK SMILES IDX 28 1 27 2 26 3 24 4 25 5 5 6 4 7 3 8 2 9 1 10 6 11 7 13 8 14
REMARK SMILES IDX 9 15 10 16 11 17 15 18 12 19 14 20 13 21 23 22 16 23 21 24
REMARK SMILES IDX 22 25 17 26 18 27 19 28 20 29 29 30 30 31 31 32 32 33 33 34
REMARK SMILES IDX 34 35 35 36 36 37 97 38 37 39 96 40 38 41 39 42 40 43 90 44
REMARK SMILES IDX 41 45 95 46 89 47 91 48 42 49 94 50 88 51 87 52 43 54 75 55
REMARK SMILES IDX 55 56 74 57 56 58 59 59 73 60 92 61 57 62 58 63 72 65 93 66
REMARK SMILES IDX 60 67 44 68 45 69 53 70 46 71 47 72 51 73 54 74 48 75 49 76
REMARK SMILES IDX 52 77 50 78 76 79 77 80 85 81 78 82 79 83 83 84 86 85 80 86
REMARK SMILES IDX 81 87 84 88 82 89 61 90 62 91 70 92 63 93 64 94 68 95 71 96
REMARK SMILES IDX 65 97 66 98 69 99 67 100
REMARK H PARENT 6 12 91 53 59 64
REMARK Flexibility Score: inf
ROOT
ATOM      1  C   UNL A   1      36.068  20.705  25.027  1.00  0.00     0.202 C 
ENDROOT
BRANCH   1   2
ATOM      2  C   UNL A   1      34.831  21.325  25.680  1.00  0.00     0.261 C 
BRANCH   2   3
ATOM      3  O   UNL A   1      33.793  20.467  26.142  1.00  0.00    -0.462 OA
BRANCH   3   4
ATOM      4  C   UNL A   1      32.682  20.415  25.349  1.00  0.00     0.324 C 
ATOM      5  O   UNL A   1      32.193  19.397  24.879  1.00  0.00    -0.250 OA
BRANCH   4   6
ATOM      6  C   UNL A   1      32.130  21.795  25.064  1.00  0.00     0.179 C 
BRANCH   6   7
ATOM      7  C   UNL A   1      31.944  21.946  23.540  1.00  0.00     0.032 C 
BRANCH   7   8
ATOM      8  C   UNL A   1      32.048  23.370  22.982  1.00  0.00     0.002 C 
BRANCH   8   9
ATOM      9  C   UNL A   1      33.385  24.090  23.187  1.00  0.00    -0.003 C 
ATOM     10  C   UNL A   1      33.487  25.445  22.500  1.00  0.00     0.004 C 
ENDBRANCH   8   9
ENDBRANCH   7   8
ENDBRANCH   6   7
BRANCH   6  11
ATOM     11  N   UNL A   1      30.860  21.975  25.818  1.00  0.00    -0.197 NA
ATOM     12  H   UNL A   1      30.623  21.073  26.233  1.00  0.00     0.142 HD
BRANCH  11  13
ATOM     13  S   UNL A   1      30.822  23.131  27.071  1.00  0.00     0.241 S 
ATOM     14  O   UNL A   1      29.606  22.922  27.818  1.00  0.00    -0.207 OA
ATOM     15  O   UNL A   1      32.121  23.038  27.707  1.00  0.00    -0.207 OA
BRANCH  13  16
ATOM     16  C   UNL A   1      30.752  24.727  26.267  1.00  0.00     0.083 A 
ATOM     17  C   UNL A   1      29.563  25.109  25.613  1.00  0.00     0.027 A 
ATOM     18  C   UNL A   1      31.896  25.562  26.263  1.00  0.00     0.032 A 
ATOM     19  C   UNL A   1      29.608  26.216  24.786  1.00  0.00    -0.020 A 
ATOM     20  C   UNL A   1      31.897  26.738  25.504  1.00  0.00     0.003 A 
ATOM     21  C   UNL A   1      30.756  26.988  24.756  1.00  0.00     0.055 A 
ATOM     22  C   UNL A   1      28.659  26.649  23.704  1.00  0.00     0.060 C 
ATOM     23  C   UNL A   1      33.007  27.698  25.341  1.00  0.00    -0.036 A 
ATOM     24  N   UNL A   1      30.686  27.952  23.763  1.00  0.00    -0.308 N 
ATOM     25  C   UNL A   1      29.428  27.811  23.029  1.00  0.00     0.131 C 
ATOM     26  C   UNL A   1      34.191  27.602  26.251  1.00  0.00     0.045 C 
ATOM     27  C   UNL A   1      32.906  28.658  24.396  1.00  0.00     0.075 A 
ATOM     28  C   UNL A   1      31.724  28.797  23.484  1.00  0.00     0.251 A 
ATOM     29  O   UNL A   1      31.739  29.611  22.569  1.00  0.00    -0.269 OA
ENDBRANCH  13  16
ENDBRANCH  11  13
ENDBRANCH   6  11
ENDBRANCH   4   6
ENDBRANCH   3   4
ENDBRANCH   2   3
ENDBRANCH   1   2
BRANCH   1  30
ATOM     30  O   UNL A   1      37.199  21.502  24.726  1.00  0.00    -0.374 OA
BRANCH  30  31
ATOM     31  C   UNL A   1      38.388  21.320  25.493  1.00  0.00     0.202 C 
BRANCH  31  32
ATOM     32  C   UNL A   1      39.117  19.982  25.373  1.00  0.00     0.261 C 
BRANCH  32  33
ATOM     33  O   UNL A   1      39.972  19.748  26.507  1.00  0.00    -0.460 OA
BRANCH  33  34
ATOM     34  C   UNL A   1      41.286  19.596  26.214  1.00  0.00     0.338 C 
ATOM     35  O   UNL A   1      41.819  18.665  25.637  1.00  0.00    -0.246 OA
BRANCH  34  36
ATOM     36  C   UNL A   1      41.980  20.864  26.497  1.00  0.00     0.060 A 
ATOM     37  C   UNL A   1      42.217  21.210  27.837  1.00  0.00     0.016 A 
ATOM     38  C   UNL A   1      42.333  21.730  25.462  1.00  0.00     0.016 A 
ATOM     39  C   UNL A   1      42.783  22.440  28.146  1.00  0.00     0.010 A 
ATOM     40  C   UNL A   1      42.872  22.977  25.776  1.00  0.00     0.010 A 
ATOM     41  C   UNL A   1      43.065  23.347  27.118  1.00  0.00    -0.014 A 
BRANCH  41  42
ATOM     42  C   UNL A   1      43.370  24.751  27.467  1.00  0.00     0.031 A 
ATOM     43  C   UNL A   1      44.763  25.257  27.219  1.00  0.00     0.074 A 
ATOM     44  C   UNL A   1      42.413  25.566  27.940  1.00  0.00     0.049 A 
ATOM     45  N   UNL A   1      45.261  26.448  27.429  1.00  0.00    -0.248 NA
ATOM     46  C   UNL A   1      45.723  24.295  26.648  1.00  0.00     0.031 C 
ATOM     47  C   UNL A   1      41.019  25.188  28.164  1.00  0.00     0.029 A 
ATOM     48  N   UNL A   1      42.468  26.885  28.310  1.00  0.00    -0.354 N 
ATOM     49  C   UNL A   1      46.579  26.381  26.999  1.00  0.00     0.074 A 
ATOM     50  C   UNL A   1      46.825  25.026  26.564  1.00  0.00     0.031 C 
ATOM     51  C   UNL A   1      40.349  26.257  28.630  1.00  0.00     0.029 A 
ATOM     52  C   UNL A   1      41.272  27.382  28.761  1.00  0.00     0.049 A 
ATOM     53  H   UNL A   1      43.290  27.425  28.256  1.00  0.00     0.167 HD
ATOM     54  C   UNL A   1      47.494  27.377  26.947  1.00  0.00     0.037 A 
ATOM     55  C   UNL A   1      40.967  28.609  29.230  1.00  0.00     0.037 A 
ATOM     56  C   UNL A   1      47.244  28.721  27.388  1.00  0.00     0.049 A 
ATOM     57  C   UNL A   1      42.044  29.665  29.276  1.00  0.00     0.074 A 
ATOM     58  C   UNL A   1      48.109  29.798  27.395  1.00  0.00     0.029 A 
ATOM     59  N   UNL A   1      46.035  29.169  27.902  1.00  0.00    -0.354 N 
ATOM     60  N   UNL A   1      43.282  29.602  28.847  1.00  0.00    -0.248 NA
ATOM     61  C   UNL A   1      41.684  30.961  29.870  1.00  0.00     0.031 C 
ATOM     62  C   UNL A   1      47.443  30.887  27.956  1.00  0.00     0.029 A 
ATOM     63  C   UNL A   1      46.142  30.504  28.249  1.00  0.00     0.049 A 
ATOM     64  H   UNL A   1      45.224  28.621  28.003  1.00  0.00     0.167 HD
ATOM     65  C   UNL A   1      43.831  30.857  29.079  1.00  0.00     0.074 A 
ATOM     66  C   UNL A   1      42.793  31.663  29.683  1.00  0.00     0.031 C 
ATOM     67  C   UNL A   1      45.084  31.300  28.815  1.00  0.00     0.037 A 
BRANCH  54  68
ATOM     68  C   UNL A   1      48.847  27.066  26.382  1.00  0.00     0.064 A 
ATOM     69  C   UNL A   1      49.868  26.551  27.193  1.00  0.00     0.173 A 
ATOM     70  C   UNL A   1      49.093  27.182  25.007  1.00  0.00     0.173 A 
ATOM     71  F   UNL A   1      49.686  26.434  28.517  1.00  0.00    -0.203 F 
ATOM     72  C   UNL A   1      51.087  26.160  26.646  1.00  0.00     0.198 A 
ATOM     73  C   UNL A   1      50.301  26.765  24.459  1.00  0.00     0.198 A 
ATOM     74  F   UNL A   1      48.145  27.667  24.189  1.00  0.00    -0.203 F 
ATOM     75  F   UNL A   1      52.056  25.685  27.441  1.00  0.00    -0.200 F 
ATOM     76  C   UNL A   1      51.297  26.253  25.278  1.00  0.00     0.200 A 
ATOM     77  F   UNL A   1      50.497  26.841  23.135  1.00  0.00    -0.200 F 
ATOM     78  F   UNL A   1      52.458  25.847  24.747  1.00  0.00    -0.200 F 
ENDBRANCH  54  68
BRANCH  55  79
ATOM     79  C   UNL A   1      39.583  28.919  29.676  1.00  0.00     0.064 A 
ATOM     80  C   UNL A   1      38.651  29.477  28.789  1.00  0.00     0.173 A 
ATOM     81  C   UNL A   1      39.165  28.687  30.995  1.00  0.00     0.173 A 
ATOM     82  F   UNL A   1      39.007  29.738  27.522  1.00  0.00    -0.203 F 
ATOM     83  C   UNL A   1      37.365  29.812  29.209  1.00  0.00     0.198 A 
ATOM     84  C   UNL A   1      37.868  28.993  31.405  1.00  0.00     0.198 A 
ATOM     85  F   UNL A   1      40.014  28.155  31.886  1.00  0.00    -0.203 F 
ATOM     86  F   UNL A   1      36.513  30.389  28.351  1.00  0.00    -0.200 F 
ATOM     87  C   UNL A   1      36.973  29.564  30.515  1.00  0.00     0.200 A 
ATOM     88  F   UNL A   1      37.489  28.737  32.665  1.00  0.00    -0.200 F 
ATOM     89  F   UNL A   1      35.735  29.882  30.917  1.00  0.00    -0.200 F 
ENDBRANCH  55  79
BRANCH  67  90
ATOM     90  C   UNL A   1      45.414  32.730  29.130  1.00  0.00     0.064 A 
ATOM     91  C   UNL A   1      46.033  33.087  30.335  1.00  0.00     0.173 A 
ATOM     92  C   UNL A   1      45.240  33.726  28.155  1.00  0.00     0.173 A 
ATOM     93  F   UNL A   1      46.212  32.173  31.300  1.00  0.00    -0.203 F 
ATOM     94  C   UNL A   1      46.471  34.391  30.552  1.00  0.00     0.198 A 
ATOM     95  C   UNL A   1      45.706  35.020  28.364  1.00  0.00     0.198 A 
ATOM     96  F   UNL A   1      44.665  33.429  26.980  1.00  0.00    -0.203 F 
ATOM     97  F   UNL A   1      47.048  34.716  31.716  1.00  0.00    -0.200 F 
ATOM     98  C   UNL A   1      46.322  35.351  29.561  1.00  0.00     0.200 A 
ATOM     99  F   UNL A   1      45.584  35.940  27.397  1.00  0.00    -0.200 F 
ATOM    100  F   UNL A   1      46.780  36.595  29.758  1.00  0.00    -0.200 F 
ENDBRANCH  67  90
ENDBRANCH  41  42
ENDBRANCH  34  36
ENDBRANCH  33  34
ENDBRANCH  32  33
ENDBRANCH  31  32
ENDBRANCH  30  31
ENDBRANCH   1  30
TORSDOF 20
ENDMDL
MODEL 3
REMARK VINA RESULT:     -11.3      4.606     10.309
REMARK SMILES CCCC[C@@H](NS(=O)(=O)c1cc2c3c(c1)c(C)cc(=O)n3CC2)C(=O)OCCOCCOC(=O)c1ccc(-c2c3nc(c(-c4c(F)c(F)c(F)c(F)c4F)c4ccc([nH]4)c(-c4c(F)c(F)c(F)c(F)c4F)c4nc(c(-c5c(F)c(F)c(F)c(F)c5F)c5ccc2[nH]5)C=C4)C=C3)cc1
REMARK SMILES IDX 28 1 27 2 26 3 24 4 25 5 5 6 4 7 3 8 2 9 1 10 6 11 7 13 8 14
REMARK SMILES IDX 9 15 10 16 11 17 15 18 12 19 14 20 13 21 23 22 16 23 21 24
REMARK SMILES IDX 22 25 17 26 18 27 19 28 20 29 29 30 30 31 31 32 32 33 33 34
REMARK SMILES IDX 34 35 35 36 36 37 97 38 37 39 96 40 38 41 39 42 40 43 90 44
REMARK SMILES IDX 41 45 95 46 89 47 91 48 42 49 94 50 88 51 87 52 43 54 75 55
REMARK SMILES IDX 55 56 74 57 56 58 59 59 73 60 92 61 57 62 58 63 72 65 93 66
REMARK SMILES IDX 60 67 44 68 45 69 53 70 46 71 47 72 51 73 54 74 48 75 49 76
REMARK SMILES IDX 52 77 50 78 76 79 77 80 85 81 78 82 79 83 83 84 86 85 80 86
REMARK SMILES IDX 81 87 84 88 82 89 61 90 62 91 70 92 63 93 64 94 68 95 71 96
REMARK SMILES IDX 65 97 66 98 69 99 67 100
REMARK H PARENT 6 12 91 53 59 64
REMARK Flexibility Score: inf
ROOT
ATOM      1  C   UNL A   1      37.007  22.416  24.818  1.00  0.00     0.202 C 
ENDROOT
BRANCH   1   2
ATOM      2  C   UNL A   1      35.737  22.688  25.627  1.00  0.00     0.261 C 
BRANCH   2   3
ATOM      3  O   UNL A   1      34.971  21.584  26.098  1.00  0.00    -0.462 OA
BRANCH   3   4
ATOM      4  C   UNL A   1      34.063  21.082  25.210  1.00  0.00     0.324 C 
ATOM      5  O   UNL A   1      34.134  19.991  24.662  1.00  0.00    -0.250 OA
BRANCH   4   6
ATOM      6  C   UNL A   1      32.949  22.068  24.927  1.00  0.00     0.179 C 
BRANCH   6   7
ATOM      7  C   UNL A   1      32.525  21.922  23.452  1.00  0.00     0.032 C 
BRANCH   7   8
ATOM      8  C   UNL A   1      33.241  22.832  22.447  1.00  0.00     0.002 C 
BRANCH   8   9
ATOM      9  C   UNL A   1      33.342  24.316  22.816  1.00  0.00    -0.003 C 
ATOM     10  C   UNL A   1      32.510  25.244  21.942  1.00  0.00     0.004 C 
ENDBRANCH   8   9
ENDBRANCH   7   8
ENDBRANCH   6   7
BRANCH   6  11
ATOM     11  N   UNL A   1      31.829  21.818  25.874  1.00  0.00    -0.197 NA
ATOM     12  H   UNL A   1      32.042  20.956  26.377  1.00  0.00     0.142 HD
BRANCH  11  13
ATOM     13  S   UNL A   1      31.480  23.009  27.043  1.00  0.00     0.241 S 
ATOM     14  O   UNL A   1      30.100  22.846  27.431  1.00  0.00    -0.207 OA
ATOM     15  O   UNL A   1      32.551  22.908  28.015  1.00  0.00    -0.207 OA
BRANCH  13  16
ATOM     16  C   UNL A   1      31.676  24.583  26.218  1.00  0.00     0.083 A 
ATOM     17  C   UNL A   1      32.869  25.310  26.410  1.00  0.00     0.027 A 
ATOM     18  C   UNL A   1      30.622  25.095  25.422  1.00  0.00     0.032 A 
ATOM     19  C   UNL A   1      32.901  26.624  25.983  1.00  0.00    -0.020 A 
ATOM     20  C   UNL A   1      30.707  26.393  24.905  1.00  0.00     0.003 A 
ATOM     21  C   UNL A   1      31.835  27.121  25.253  1.00  0.00     0.055 A 
ATOM     22  C   UNL A   1      33.842  27.735  26.354  1.00  0.00     0.060 C 
ATOM     23  C   UNL A   1      29.693  27.106  24.102  1.00  0.00    -0.036 A 
ATOM     24  N   UNL A   1      31.960  28.487  25.049  1.00  0.00    -0.308 N 
ATOM     25  C   UNL A   1      33.166  28.975  25.718  1.00  0.00     0.131 C 
ATOM     26  C   UNL A   1      28.544  26.335  23.531  1.00  0.00     0.045 C 
ATOM     27  C   UNL A   1      29.851  28.428  23.878  1.00  0.00     0.075 A 
ATOM     28  C   UNL A   1      31.001  29.225  24.414  1.00  0.00     0.251 A 
ATOM     29  O   UNL A   1      31.030  30.442  24.278  1.00  0.00    -0.269 OA
ENDBRANCH  13  16
ENDBRANCH  11  13
ENDBRANCH   6  11
ENDBRANCH   4   6
ENDBRANCH   3   4
ENDBRANCH   2   3
ENDBRANCH   1   2
BRANCH   1  30
ATOM     30  O   UNL A   1      37.989  21.518  25.300  1.00  0.00    -0.374 OA
BRANCH  30  31
ATOM     31  C   UNL A   1      37.874  20.135  24.968  1.00  0.00     0.202 C 
BRANCH  31  32
ATOM     32  C   UNL A   1      39.011  19.203  25.385  1.00  0.00     0.261 C 
BRANCH  32  33
ATOM     33  O   UNL A   1      39.855  19.818  26.376  1.00  0.00    -0.460 OA
BRANCH  33  34
ATOM     34  C   UNL A   1      41.184  19.623  26.199  1.00  0.00     0.338 C 
ATOM     35  O   UNL A   1      41.739  18.644  25.735  1.00  0.00    -0.246 OA
BRANCH  34  36
ATOM     36  C   UNL A   1      41.883  20.896  26.445  1.00  0.00     0.060 A 
ATOM     37  C   UNL A   1      42.218  21.228  27.767  1.00  0.00     0.016 A 
ATOM     38  C   UNL A   1      42.144  21.779  25.398  1.00  0.00     0.016 A 
ATOM     39  C   UNL A   1      42.792  22.462  28.049  1.00  0.00     0.010 A 
ATOM     40  C   UNL A   1      42.690  23.029  25.686  1.00  0.00     0.010 A 
ATOM     41  C   UNL A   1      42.983  23.385  27.014  1.00  0.00    -0.014 A 
BRANCH  41  42
ATOM     42  C   UNL A   1      43.296  24.788  27.357  1.00  0.00     0.031 A 
ATOM     43  C   UNL A   1      44.700  25.276  27.134  1.00  0.00     0.074 A 
ATOM     44  C   UNL A   1      42.339  25.619  27.803  1.00  0.00     0.049 A 
ATOM     45  N   UNL A   1      45.208  26.463  27.345  1.00  0.00    -0.248 NA
ATOM     46  C   UNL A   1      45.660  24.298  26.592  1.00  0.00     0.031 C 
ATOM     47  C   UNL A   1      40.937  25.259  28.001  1.00  0.00     0.029 A 
ATOM     48  N   UNL A   1      42.403  26.940  28.163  1.00  0.00    -0.354 N 
ATOM     49  C   UNL A   1      46.534  26.377  26.944  1.00  0.00     0.074 A 
ATOM     50  C   UNL A   1      46.773  25.015  26.526  1.00  0.00     0.031 C 
ATOM     51  C   UNL A   1      40.270  26.339  28.444  1.00  0.00     0.029 A 
ATOM     52  C   UNL A   1      41.203  27.455  28.585  1.00  0.00     0.049 A 
ATOM     53  H   UNL A   1      43.232  27.470  28.122  1.00  0.00     0.167 HD
ATOM     54  C   UNL A   1      47.461  27.361  26.903  1.00  0.00     0.037 A 
ATOM     55  C   UNL A   1      40.903  28.689  29.036  1.00  0.00     0.037 A 
ATOM     56  C   UNL A   1      47.217  28.712  27.327  1.00  0.00     0.049 A 
ATOM     57  C   UNL A   1      41.991  29.733  29.096  1.00  0.00     0.074 A 
ATOM     58  C   UNL A   1      48.095  29.779  27.342  1.00  0.00     0.029 A 
ATOM     59  N   UNL A   1      46.004  29.179  27.811  1.00  0.00    -0.354 N 
ATOM     60  N   UNL A   1      43.237  29.652  28.694  1.00  0.00    -0.248 NA
ATOM     61  C   UNL A   1      41.634  31.039  29.672  1.00  0.00     0.031 C 
ATOM     62  C   UNL A   1      47.430  30.881  27.881  1.00  0.00     0.029 A 
ATOM     63  C   UNL A   1      46.120  30.516  28.149  1.00  0.00     0.049 A 
ATOM     64  H   UNL A   1      45.185  28.641  27.900  1.00  0.00     0.167 HD
ATOM     65  C   UNL A   1      43.795  30.903  28.927  1.00  0.00     0.074 A 
ATOM     66  C   UNL A   1      42.755  31.726  29.502  1.00  0.00     0.031 C 
ATOM     67  C   UNL A   1      45.059  31.329  28.686  1.00  0.00     0.037 A 
BRANCH  54  68
ATOM     68  C   UNL A   1      48.822  27.030  26.369  1.00  0.00     0.064 A 
ATOM     69  C   UNL A   1      49.815  26.496  27.202  1.00  0.00     0.173 A 
ATOM     70  C   UNL A   1      49.102  27.145  25.000  1.00  0.00     0.173 A 
ATOM     71  F   UNL A   1      49.600  26.379  28.522  1.00  0.00    -0.203 F 
ATOM     72  C   UNL A   1      51.040  26.087  26.683  1.00  0.00     0.198 A 
ATOM     73  C   UNL A   1      50.316  26.710  24.480  1.00  0.00     0.198 A 
ATOM     74  F   UNL A   1      48.182  27.648  24.162  1.00  0.00    -0.203 F 
ATOM     75  F   UNL A   1      51.982  25.594  27.499  1.00  0.00    -0.200 F 
ATOM     76  C   UNL A   1      51.284  26.179  25.321  1.00  0.00     0.200 A 
ATOM     77  F   UNL A   1      50.545  26.786  23.161  1.00  0.00    -0.200 F 
ATOM     78  F   UNL A   1      52.451  25.756  24.817  1.00  0.00    -0.200 F 
ENDBRANCH  54  68
BRANCH  55  79
ATOM     79  C   UNL A   1      39.513  29.019  29.450  1.00  0.00     0.064 A 
ATOM     80  C   UNL A   1      39.099  28.843  30.778  1.00  0.00     0.173 A 
ATOM     81  C   UNL A   1      38.565  29.496  28.532  1.00  0.00     0.173 A 
ATOM     82  F   UNL A   1      39.961  28.371  31.690  1.00  0.00    -0.203 F 
ATOM     83  C   UNL A   1      37.787  29.108  31.166  1.00  0.00     0.198 A 
ATOM     84  C   UNL A   1      37.262  29.791  28.929  1.00  0.00     0.198 A 
ATOM     85  F   UNL A   1      38.907  29.683  27.249  1.00  0.00    -0.203 F 
ATOM     86  F   UNL A   1      37.408  28.884  32.432  1.00  0.00    -0.200 F 
ATOM     87  C   UNL A   1      36.871  29.588  30.243  1.00  0.00     0.200 A 
ATOM     88  F   UNL A   1      36.385  30.269  28.035  1.00  0.00    -0.200 F 
ATOM     89  F   UNL A   1      35.611  29.847  30.617  1.00  0.00    -0.200 F 
ENDBRANCH  55  79
BRANCH  67  90
ATOM     90  C   UNL A   1      45.399  32.757  28.996  1.00  0.00     0.064 A 
ATOM     91  C   UNL A   1      45.155  33.783  28.073  1.00  0.00     0.173 A 
ATOM     92  C   UNL A   1      45.838  33.115  30.281  1.00  0.00     0.173 A 
ATOM     93  F   UNL A   1      44.744  33.490  26.830  1.00  0.00    -0.203 F 
ATOM     94  C   UNL A   1      45.333  35.117  28.427  1.00  0.00     0.198 A 
ATOM     95  C   UNL A   1      45.986  34.450  30.640  1.00  0.00     0.198 A 
ATOM     96  F   UNL A   1      46.073  32.169  31.203  1.00  0.00    -0.203 F 
ATOM     97  F   UNL A   1      45.107  36.083  27.526  1.00  0.00    -0.200 F 
ATOM     98  C   UNL A   1      45.732  35.450  29.714  1.00  0.00     0.200 A 
ATOM     99  F   UNL A   1      46.348  34.772  31.890  1.00  0.00    -0.200 F 
ATOM    100  F   UNL A   1      45.865  36.737  30.063  1.00  0.00    -0.200 F 
ENDBRANCH  67  90
ENDBRANCH  41  42
ENDBRANCH  34  36
ENDBRANCH  33  34
ENDBRANCH  32  33
ENDBRANCH  31  32
ENDBRANCH  30  31
ENDBRANCH   1  30
TORSDOF 20
ENDMDL
