MODEL 1
REMARK VINA RESULT:     -11.8      0.000      0.000
REMARK SMILES CC(C)C[C@H](NC(=O)[C@H]1N2C(=O)c3ccccc3[C@@H]2SC1(C)C)C(=O)N[C@@H](C)C(=O)OCCOCCOC(=O)c1ccc(-c2c3nc(c(-c4c(F)c(F)c(F)c(F)c4F)c4ccc([nH]4)c(-c4c(F)c(F)c(F)c(F)c4F)c4nc(c(-c5c(F)c(F)c(F)c(F)c5F)c5ccc2[nH]5)C=C4)C=C3)cc1
REMARK SMILES IDX 33 1 32 2 31 3 29 4 30 5 27 6 28 7 26 8 24 9 25 10 5 12 4 13
REMARK SMILES IDX 2 14 1 15 3 16 6 17 7 18 8 20 9 21 10 22 21 23 11 24 19 25
REMARK SMILES IDX 20 26 22 27 23 28 12 29 13 30 18 31 14 32 17 33 15 34 16 35
REMARK SMILES IDX 34 36 35 37 36 38 37 39 38 40 39 41 40 42 41 43 102 44 42 45
REMARK SMILES IDX 101 46 43 47 44 48 45 49 95 50 46 51 100 52 94 53 96 54
REMARK SMILES IDX 47 55 99 56 93 57 92 58 48 60 80 61 60 62 79 63 61 64 64 65
REMARK SMILES IDX 78 66 97 67 62 68 63 69 77 71 98 72 65 73 49 74 50 75 58 76
REMARK SMILES IDX 51 77 52 78 56 79 59 80 53 81 54 82 57 83 55 84 81 85 82 86
REMARK SMILES IDX 90 87 83 88 84 89 88 90 91 91 85 92 86 93 89 94 87 95 66 96
REMARK SMILES IDX 67 97 75 98 68 99 69 100 73 101 76 102 70 103 71 104 74 105
REMARK SMILES IDX 72 106
REMARK H PARENT 26 11 6 19 96 59 64 70
REMARK Flexibility Score: inf
ROOT
ATOM      1  C   UNL A   1      34.980  33.231  28.657  1.00  0.00     0.202 C 
ENDROOT
BRANCH   1   2
ATOM      2  C   UNL A   1      34.841  31.725  28.901  1.00  0.00     0.261 C 
BRANCH   2   3
ATOM      3  O   UNL A   1      34.386  31.052  27.706  1.00  0.00    -0.462 OA
BRANCH   3   4
ATOM      4  C   UNL A   1      35.063  29.914  27.391  1.00  0.00     0.328 C 
ATOM      5  O   UNL A   1      36.286  29.835  27.343  1.00  0.00    -0.250 OA
BRANCH   4   6
ATOM      6  C   UNL A   1      34.149  28.730  27.003  1.00  0.00     0.189 C 
ATOM      7  C   UNL A   1      33.948  28.796  25.495  1.00  0.00     0.043 C 
BRANCH   6   8
ATOM      8  N   UNL A   1      32.858  28.578  27.674  1.00  0.00    -0.341 N 
ATOM      9  C   UNL A   1      31.733  27.882  27.329  1.00  0.00     0.243 C 
ATOM     10  O   UNL A   1      30.762  28.052  28.078  1.00  0.00    -0.273 OA
ATOM     11  H   UNL A   1      32.787  29.062  28.528  1.00  0.00     0.164 HD
BRANCH   9  12
ATOM     12  C   UNL A   1      31.653  26.779  26.197  1.00  0.00     0.171 C 
BRANCH  12  13
ATOM     13  C   UNL A   1      30.628  27.067  25.087  1.00  0.00     0.038 C 
BRANCH  13  14
ATOM     14  C   UNL A   1      31.064  27.833  23.841  1.00  0.00    -0.015 C 
ATOM     15  C   UNL A   1      30.904  27.099  22.520  1.00  0.00     0.007 C 
ATOM     16  C   UNL A   1      30.341  29.188  23.762  1.00  0.00     0.007 C 
ENDBRANCH  13  14
ENDBRANCH  12  13
BRANCH  12  17
ATOM     17  N   UNL A   1      31.607  25.401  26.743  1.00  0.00    -0.342 N 
ATOM     18  C   UNL A   1      32.207  24.195  26.509  1.00  0.00     0.244 C 
ATOM     19  H   UNL A   1      30.962  25.336  27.483  1.00  0.00     0.164 HD
ATOM     20  O   UNL A   1      31.887  23.298  27.299  1.00  0.00    -0.273 OA
BRANCH  18  21
ATOM     21  C   UNL A   1      33.154  23.895  25.315  1.00  0.00     0.191 C 
ATOM     22  N   UNL A   1      34.163  22.910  25.706  1.00  0.00    -0.309 N 
ATOM     23  C   UNL A   1      32.485  23.285  24.038  1.00  0.00     0.042 C 
ATOM     24  C   UNL A   1      35.526  23.113  25.703  1.00  0.00     0.256 C 
ATOM     25  C   UNL A   1      33.799  21.524  25.560  1.00  0.00     0.176 C 
ATOM     26  S   UNL A   1      32.677  21.454  24.163  1.00  0.00    -0.123 SA
ATOM     27  C   UNL A   1      30.988  23.487  23.869  1.00  0.00     0.026 C 
ATOM     28  C   UNL A   1      33.222  23.735  22.767  1.00  0.00     0.026 C 
ATOM     29  O   UNL A   1      36.124  24.170  25.746  1.00  0.00    -0.269 OA
ATOM     30  C   UNL A   1      36.139  21.792  25.465  1.00  0.00     0.046 A 
ATOM     31  C   UNL A   1      35.109  20.862  25.312  1.00  0.00    -0.002 A 
ATOM     32  C   UNL A   1      37.464  21.465  25.251  1.00  0.00     0.014 A 
ATOM     33  C   UNL A   1      35.383  19.559  24.931  1.00  0.00     0.007 A 
ATOM     34  C   UNL A   1      37.747  20.151  24.865  1.00  0.00     0.001 A 
ATOM     35  C   UNL A   1      36.715  19.210  24.699  1.00  0.00     0.000 A 
ENDBRANCH  18  21
ENDBRANCH  12  17
ENDBRANCH   9  12
ENDBRANCH   6   8
ENDBRANCH   4   6
ENDBRANCH   3   4
ENDBRANCH   2   3
ENDBRANCH   1   2
BRANCH   1  36
ATOM     36  O   UNL A   1      33.749  33.921  28.448  1.00  0.00    -0.374 OA
BRANCH  36  37
ATOM     37  C   UNL A   1      33.814  35.342  28.501  1.00  0.00     0.202 C 
BRANCH  37  38
ATOM     38  C   UNL A   1      32.906  36.009  29.535  1.00  0.00     0.261 C 
BRANCH  38  39
ATOM     39  O   UNL A   1      32.605  35.078  30.564  1.00  0.00    -0.460 OA
BRANCH  39  40
ATOM     40  C   UNL A   1      32.987  35.451  31.797  1.00  0.00     0.338 C 
ATOM     41  O   UNL A   1      32.358  36.075  32.634  1.00  0.00    -0.246 OA
BRANCH  40  42
ATOM     42  C   UNL A   1      34.234  34.727  32.042  1.00  0.00     0.060 A 
ATOM     43  C   UNL A   1      35.473  35.323  31.780  1.00  0.00     0.016 A 
ATOM     44  C   UNL A   1      34.125  33.390  32.428  1.00  0.00     0.016 A 
ATOM     45  C   UNL A   1      36.625  34.570  31.936  1.00  0.00     0.010 A 
ATOM     46  C   UNL A   1      35.276  32.643  32.601  1.00  0.00     0.010 A 
ATOM     47  C   UNL A   1      36.525  33.242  32.383  1.00  0.00    -0.014 A 
BRANCH  47  48
ATOM     48  C   UNL A   1      37.735  32.529  32.814  1.00  0.00     0.031 A 
ATOM     49  C   UNL A   1      38.339  31.458  31.976  1.00  0.00     0.074 A 
ATOM     50  C   UNL A   1      38.228  32.858  34.020  1.00  0.00     0.049 A 
ATOM     51  N   UNL A   1      39.399  30.734  32.216  1.00  0.00    -0.248 NA
ATOM     52  C   UNL A   1      37.660  31.147  30.711  1.00  0.00     0.031 C 
ATOM     53  C   UNL A   1      37.660  33.880  34.903  1.00  0.00     0.029 A 
ATOM     54  N   UNL A   1      39.306  32.381  34.707  1.00  0.00    -0.354 N 
ATOM     55  C   UNL A   1      39.529  29.892  31.125  1.00  0.00     0.074 A 
ATOM     56  C   UNL A   1      38.404  30.150  30.251  1.00  0.00     0.031 C 
ATOM     57  C   UNL A   1      38.425  33.988  35.996  1.00  0.00     0.029 A 
ATOM     58  C   UNL A   1      39.502  33.010  35.910  1.00  0.00     0.049 A 
ATOM     59  H   UNL A   1      39.886  31.659  34.373  1.00  0.00     0.167 HD
ATOM     60  C   UNL A   1      40.521  29.003  30.878  1.00  0.00     0.037 A 
ATOM     61  C   UNL A   1      40.452  32.816  36.839  1.00  0.00     0.037 A 
ATOM     62  C   UNL A   1      41.604  28.749  31.794  1.00  0.00     0.049 A 
ATOM     63  C   UNL A   1      41.496  31.773  36.574  1.00  0.00     0.074 A 
ATOM     64  C   UNL A   1      42.664  27.874  31.658  1.00  0.00     0.029 A 
ATOM     65  N   UNL A   1      41.752  29.365  33.033  1.00  0.00    -0.354 N 
ATOM     66  N   UNL A   1      41.649  31.010  35.518  1.00  0.00    -0.248 NA
ATOM     67  C   UNL A   1      42.495  31.562  37.625  1.00  0.00     0.031 C 
ATOM     68  C   UNL A   1      43.420  27.918  32.834  1.00  0.00     0.029 A 
ATOM     69  C   UNL A   1      42.870  28.867  33.683  1.00  0.00     0.049 A 
ATOM     70  H   UNL A   1      41.150  30.056  33.395  1.00  0.00     0.167 HD
ATOM     71  C   UNL A   1      42.772  30.237  35.765  1.00  0.00     0.074 A 
ATOM     72  C   UNL A   1      43.270  30.640  37.068  1.00  0.00     0.031 C 
ATOM     73  C   UNL A   1      43.336  29.279  34.988  1.00  0.00     0.037 A 
BRANCH  60  74
ATOM     74  C   UNL A   1      40.462  28.249  29.581  1.00  0.00     0.064 A 
ATOM     75  C   UNL A   1      39.672  27.096  29.440  1.00  0.00     0.173 A 
ATOM     76  C   UNL A   1      41.192  28.680  28.463  1.00  0.00     0.173 A 
ATOM     77  F   UNL A   1      38.963  26.630  30.479  1.00  0.00    -0.203 F 
ATOM     78  C   UNL A   1      39.647  26.384  28.243  1.00  0.00     0.198 A 
ATOM     79  C   UNL A   1      41.137  27.985  27.257  1.00  0.00     0.198 A 
ATOM     80  F   UNL A   1      41.962  29.775  28.538  1.00  0.00    -0.203 F 
ATOM     81  F   UNL A   1      38.936  25.251  28.156  1.00  0.00    -0.200 F 
ATOM     82  C   UNL A   1      40.375  26.831  27.151  1.00  0.00     0.200 A 
ATOM     83  F   UNL A   1      41.831  28.425  26.199  1.00  0.00    -0.200 F 
ATOM     84  F   UNL A   1      40.350  26.144  26.002  1.00  0.00    -0.200 F 
ENDBRANCH  60  74
BRANCH  61  85
ATOM     85  C   UNL A   1      40.470  33.682  38.040  1.00  0.00     0.064 A 
ATOM     86  C   UNL A   1      41.231  34.858  38.053  1.00  0.00     0.173 A 
ATOM     87  C   UNL A   1      39.651  33.419  39.150  1.00  0.00     0.173 A 
ATOM     88  F   UNL A   1      42.030  35.148  37.016  1.00  0.00    -0.203 F 
ATOM     89  C   UNL A   1      41.169  35.742  39.128  1.00  0.00     0.198 A 
ATOM     90  C   UNL A   1      39.570  34.318  40.211  1.00  0.00     0.198 A 
ATOM     91  F   UNL A   1      38.889  32.316  39.175  1.00  0.00    -0.203 F 
ATOM     92  F   UNL A   1      41.913  36.857  39.117  1.00  0.00    -0.200 F 
ATOM     93  C   UNL A   1      40.330  35.478  40.199  1.00  0.00     0.200 A 
ATOM     94  F   UNL A   1      38.737  34.072  41.232  1.00  0.00    -0.200 F 
ATOM     95  F   UNL A   1      40.247  36.345  41.217  1.00  0.00    -0.200 F 
ENDBRANCH  61  85
BRANCH  73  96
ATOM     96  C   UNL A   1      44.562  28.602  35.525  1.00  0.00     0.064 A 
ATOM     97  C   UNL A   1      45.850  29.059  35.209  1.00  0.00     0.173 A 
ATOM     98  C   UNL A   1      44.447  27.526  36.420  1.00  0.00     0.173 A 
ATOM     99  F   UNL A   1      46.014  30.072  34.345  1.00  0.00    -0.203 F 
ATOM    100  C   UNL A   1      46.978  28.454  35.757  1.00  0.00     0.198 A 
ATOM    101  C   UNL A   1      45.575  26.948  36.993  1.00  0.00     0.198 A 
ATOM    102  F   UNL A   1      43.237  27.055  36.758  1.00  0.00    -0.203 F 
ATOM    103  F   UNL A   1      48.200  28.881  35.410  1.00  0.00    -0.200 F 
ATOM    104  C   UNL A   1      46.839  27.409  36.659  1.00  0.00     0.200 A 
ATOM    105  F   UNL A   1      45.437  25.950  37.877  1.00  0.00    -0.200 F 
ATOM    106  F   UNL A   1      47.924  26.843  37.202  1.00  0.00    -0.200 F 
ENDBRANCH  73  96
ENDBRANCH  47  48
ENDBRANCH  40  42
ENDBRANCH  39  40
ENDBRANCH  38  39
ENDBRANCH  37  38
ENDBRANCH  36  37
ENDBRANCH   1  36
TORSDOF 20
ENDMDL
MODEL 2
REMARK VINA RESULT:     -11.8      0.460      6.798
REMARK SMILES CC(C)C[C@H](NC(=O)[C@H]1N2C(=O)c3ccccc3[C@@H]2SC1(C)C)C(=O)N[C@@H](C)C(=O)OCCOCCOC(=O)c1ccc(-c2c3nc(c(-c4c(F)c(F)c(F)c(F)c4F)c4ccc([nH]4)c(-c4c(F)c(F)c(F)c(F)c4F)c4nc(c(-c5c(F)c(F)c(F)c(F)c5F)c5ccc2[nH]5)C=C4)C=C3)cc1
REMARK SMILES IDX 33 1 32 2 31 3 29 4 30 5 27 6 28 7 26 8 24 9 25 10 5 12 4 13
REMARK SMILES IDX 2 14 1 15 3 16 6 17 7 18 8 20 9 21 10 22 21 23 11 24 19 25
REMARK SMILES IDX 20 26 22 27 23 28 12 29 13 30 18 31 14 32 17 33 15 34 16 35
REMARK SMILES IDX 34 36 35 37 36 38 37 39 38 40 39 41 40 42 41 43 102 44 42 45
REMARK SMILES IDX 101 46 43 47 44 48 45 49 95 50 46 51 100 52 94 53 96 54
REMARK SMILES IDX 47 55 99 56 93 57 92 58 48 60 80 61 60 62 79 63 61 64 64 65
REMARK SMILES IDX 78 66 97 67 62 68 63 69 77 71 98 72 65 73 49 74 50 75 58 76
REMARK SMILES IDX 51 77 52 78 56 79 59 80 53 81 54 82 57 83 55 84 81 85 82 86
REMARK SMILES IDX 90 87 83 88 84 89 88 90 91 91 85 92 86 93 89 94 87 95 66 96
REMARK SMILES IDX 67 97 75 98 68 99 69 100 73 101 76 102 70 103 71 104 74 105
REMARK SMILES IDX 72 106
REMARK H PARENT 26 11 6 19 96 59 64 70
REMARK Flexibility Score: inf
ROOT
ATOM      1  C   UNL A   1      34.923  33.745  28.482  1.00  0.00     0.202 C 
ENDROOT
BRANCH   1   2
ATOM      2  C   UNL A   1      34.600  32.268  28.726  1.00  0.00     0.261 C 
BRANCH   2   3
ATOM      3  O   UNL A   1      34.434  31.566  27.474  1.00  0.00    -0.462 OA
BRANCH   3   4
ATOM      4  C   UNL A   1      34.781  30.250  27.499  1.00  0.00     0.328 C 
ATOM      5  O   UNL A   1      35.842  29.829  27.948  1.00  0.00    -0.250 OA
BRANCH   4   6
ATOM      6  C   UNL A   1      33.750  29.319  26.822  1.00  0.00     0.189 C 
ATOM      7  C   UNL A   1      33.285  30.016  25.551  1.00  0.00     0.043 C 
BRANCH   6   8
ATOM      8  N   UNL A   1      32.596  28.856  27.591  1.00  0.00    -0.341 N 
ATOM      9  C   UNL A   1      31.644  27.912  27.320  1.00  0.00     0.243 C 
ATOM     10  O   UNL A   1      30.728  27.839  28.150  1.00  0.00    -0.273 OA
ATOM     11  H   UNL A   1      32.484  29.303  28.461  1.00  0.00     0.164 HD
BRANCH   9  12
ATOM     12  C   UNL A   1      31.733  26.832  26.168  1.00  0.00     0.171 C 
BRANCH  12  13
ATOM     13  C   UNL A   1      30.900  27.152  24.917  1.00  0.00     0.038 C 
BRANCH  13  14
ATOM     14  C   UNL A   1      31.609  27.489  23.608  1.00  0.00    -0.015 C 
ATOM     15  C   UNL A   1      33.086  27.135  23.543  1.00  0.00     0.007 C 
ATOM     16  C   UNL A   1      30.879  26.843  22.418  1.00  0.00     0.007 C 
ENDBRANCH  13  14
ENDBRANCH  12  13
BRANCH  12  17
ATOM     17  N   UNL A   1      31.587  25.445  26.673  1.00  0.00    -0.342 N 
ATOM     18  C   UNL A   1      32.110  24.209  26.414  1.00  0.00     0.244 C 
ATOM     19  H   UNL A   1      30.927  25.401  27.402  1.00  0.00     0.164 HD
ATOM     20  O   UNL A   1      31.718  23.313  27.173  1.00  0.00    -0.273 OA
BRANCH  18  21
ATOM     21  C   UNL A   1      33.055  23.879  25.225  1.00  0.00     0.191 C 
ATOM     22  N   UNL A   1      34.065  22.905  25.639  1.00  0.00    -0.309 N 
ATOM     23  C   UNL A   1      32.384  23.237  23.965  1.00  0.00     0.042 C 
ATOM     24  C   UNL A   1      35.429  23.109  25.628  1.00  0.00     0.256 C 
ATOM     25  C   UNL A   1      33.703  21.516  25.529  1.00  0.00     0.176 C 
ATOM     26  S   UNL A   1      32.578  21.410  24.136  1.00  0.00    -0.123 SA
ATOM     27  C   UNL A   1      30.886  23.434  23.795  1.00  0.00     0.026 C 
ATOM     28  C   UNL A   1      33.119  23.657  22.682  1.00  0.00     0.026 C 
ATOM     29  O   UNL A   1      36.026  24.167  25.644  1.00  0.00    -0.269 OA
ATOM     30  C   UNL A   1      36.042  21.783  25.422  1.00  0.00     0.046 A 
ATOM     31  C   UNL A   1      35.013  20.849  25.294  1.00  0.00    -0.002 A 
ATOM     32  C   UNL A   1      37.367  21.452  25.214  1.00  0.00     0.014 A 
ATOM     33  C   UNL A   1      35.287  19.537  24.945  1.00  0.00     0.007 A 
ATOM     34  C   UNL A   1      37.651  20.130  24.860  1.00  0.00     0.001 A 
ATOM     35  C   UNL A   1      36.619  19.183  24.719  1.00  0.00     0.000 A 
ENDBRANCH  18  21
ENDBRANCH  12  17
ENDBRANCH   9  12
ENDBRANCH   6   8
ENDBRANCH   4   6
ENDBRANCH   3   4
ENDBRANCH   2   3
ENDBRANCH   1   2
BRANCH   1  36
ATOM     36  O   UNL A   1      33.794  34.563  28.179  1.00  0.00    -0.374 OA
BRANCH  36  37
ATOM     37  C   UNL A   1      33.869  35.916  28.618  1.00  0.00     0.202 C 
BRANCH  37  38
ATOM     38  C   UNL A   1      32.872  36.315  29.707  1.00  0.00     0.261 C 
BRANCH  38  39
ATOM     39  O   UNL A   1      32.635  35.203  30.557  1.00  0.00    -0.460 OA
BRANCH  39  40
ATOM     40  C   UNL A   1      32.899  35.416  31.857  1.00  0.00     0.338 C 
ATOM     41  O   UNL A   1      32.173  35.889  32.714  1.00  0.00    -0.246 OA
BRANCH  40  42
ATOM     42  C   UNL A   1      34.160  34.719  32.107  1.00  0.00     0.060 A 
ATOM     43  C   UNL A   1      35.382  35.400  32.039  1.00  0.00     0.016 A 
ATOM     44  C   UNL A   1      34.096  33.337  32.293  1.00  0.00     0.016 A 
ATOM     45  C   UNL A   1      36.557  34.683  32.190  1.00  0.00     0.010 A 
ATOM     46  C   UNL A   1      35.269  32.624  32.461  1.00  0.00     0.010 A 
ATOM     47  C   UNL A   1      36.496  33.302  32.438  1.00  0.00    -0.014 A 
BRANCH  47  48
ATOM     48  C   UNL A   1      37.705  32.588  32.869  1.00  0.00     0.031 A 
ATOM     49  C   UNL A   1      38.373  32.911  34.159  1.00  0.00     0.074 A 
ATOM     50  C   UNL A   1      38.199  31.675  32.016  1.00  0.00     0.049 A 
ATOM     51  N   UNL A   1      39.445  32.377  34.679  1.00  0.00    -0.248 NA
ATOM     52  C   UNL A   1      37.771  33.982  34.965  1.00  0.00     0.031 C 
ATOM     53  C   UNL A   1      37.604  31.336  30.721  1.00  0.00     0.029 A 
ATOM     54  N   UNL A   1      39.295  30.867  32.105  1.00  0.00    -0.354 N 
ATOM     55  C   UNL A   1      39.639  33.031  35.884  1.00  0.00     0.074 A 
ATOM     56  C   UNL A   1      38.611  34.045  35.989  1.00  0.00     0.031 C 
ATOM     57  C   UNL A   1      38.316  30.354  30.156  1.00  0.00     0.029 A 
ATOM     58  C   UNL A   1      39.441  30.034  31.026  1.00  0.00     0.049 A 
ATOM     59  H   UNL A   1      39.919  30.881  32.867  1.00  0.00     0.167 HD
ATOM     60  C   UNL A   1      40.585  32.778  36.820  1.00  0.00     0.037 A 
ATOM     61  C   UNL A   1      40.382  29.110  30.773  1.00  0.00     0.037 A 
ATOM     62  C   UNL A   1      41.615  31.784  36.658  1.00  0.00     0.049 A 
ATOM     63  C   UNL A   1      41.460  28.902  31.793  1.00  0.00     0.074 A 
ATOM     64  C   UNL A   1      42.628  31.437  37.533  1.00  0.00     0.029 A 
ATOM     65  N   UNL A   1      41.772  30.985  35.530  1.00  0.00    -0.354 N 
ATOM     66  N   UNL A   1      41.617  29.485  32.957  1.00  0.00    -0.248 NA
ATOM     67  C   UNL A   1      42.492  27.914  31.467  1.00  0.00     0.031 C 
ATOM     68  C   UNL A   1      43.428  30.472  36.913  1.00  0.00     0.029 A 
ATOM     69  C   UNL A   1      42.882  30.167  35.675  1.00  0.00     0.049 A 
ATOM     70  H   UNL A   1      41.180  30.997  34.743  1.00  0.00     0.167 HD
ATOM     71  C   UNL A   1      42.755  28.925  33.516  1.00  0.00     0.074 A 
ATOM     72  C   UNL A   1      43.236  27.940  32.564  1.00  0.00     0.031 C 
ATOM     73  C   UNL A   1      43.347  29.203  34.704  1.00  0.00     0.037 A 
BRANCH  60  74
ATOM     74  C   UNL A   1      40.542  33.595  38.079  1.00  0.00     0.064 A 
ATOM     75  C   UNL A   1      39.673  33.271  39.133  1.00  0.00     0.173 A 
ATOM     76  C   UNL A   1      41.379  34.709  38.244  1.00  0.00     0.173 A 
ATOM     77  F   UNL A   1      38.840  32.225  39.026  1.00  0.00    -0.203 F 
ATOM     78  C   UNL A   1      39.616  34.052  40.285  1.00  0.00     0.198 A 
ATOM     79  C   UNL A   1      41.344  35.468  39.412  1.00  0.00     0.198 A 
ATOM     80  F   UNL A   1      42.231  35.066  37.272  1.00  0.00    -0.203 F 
ATOM     81  F   UNL A   1      38.731  33.758  41.248  1.00  0.00    -0.200 F 
ATOM     82  C   UNL A   1      40.455  35.146  40.427  1.00  0.00     0.200 A 
ATOM     83  F   UNL A   1      42.165  36.518  39.552  1.00  0.00    -0.200 F 
ATOM     84  F   UNL A   1      40.398  35.897  41.534  1.00  0.00    -0.200 F 
ENDBRANCH  60  74
BRANCH  61  85
ATOM     85  C   UNL A   1      40.275  28.294  29.541  1.00  0.00     0.064 A 
ATOM     86  C   UNL A   1      40.990  28.651  28.391  1.00  0.00     0.173 A 
ATOM     87  C   UNL A   1      39.554  27.089  29.516  1.00  0.00     0.173 A 
ATOM     88  F   UNL A   1      41.690  29.794  28.368  1.00  0.00    -0.203 F 
ATOM     89  C   UNL A   1      40.993  27.834  27.264  1.00  0.00     0.198 A 
ATOM     90  C   UNL A   1      39.580  26.260  28.398  1.00  0.00     0.198 A 
ATOM     91  F   UNL A   1      38.870  26.694  30.601  1.00  0.00    -0.203 F 
ATOM     92  F   UNL A   1      41.680  28.203  26.174  1.00  0.00    -0.200 F 
ATOM     93  C   UNL A   1      40.298  26.633  27.272  1.00  0.00     0.200 A 
ATOM     94  F   UNL A   1      38.930  25.088  28.420  1.00  0.00    -0.200 F 
ATOM     95  F   UNL A   1      40.328  25.833  26.198  1.00  0.00    -0.200 F 
ENDBRANCH  61  85
BRANCH  73  96
ATOM     96  C   UNL A   1      44.585  28.426  35.045  1.00  0.00     0.064 A 
ATOM     97  C   UNL A   1      45.863  28.911  34.734  1.00  0.00     0.173 A 
ATOM     98  C   UNL A   1      44.493  27.217  35.752  1.00  0.00     0.173 A 
ATOM     99  F   UNL A   1      46.003  30.053  34.043  1.00  0.00    -0.203 F 
ATOM    100  C   UNL A   1      47.005  28.206  35.104  1.00  0.00     0.198 A 
ATOM    101  C   UNL A   1      45.638  26.534  36.153  1.00  0.00     0.198 A 
ATOM    102  F   UNL A   1      43.294  26.713  36.079  1.00  0.00    -0.203 F 
ATOM    103  F   UNL A   1      48.215  28.667  34.760  1.00  0.00    -0.200 F 
ATOM    104  C   UNL A   1      46.891  27.026  35.824  1.00  0.00     0.200 A 
ATOM    105  F   UNL A   1      45.526  25.403  36.864  1.00  0.00    -0.200 F 
ATOM    106  F   UNL A   1      47.992  26.361  36.199  1.00  0.00    -0.200 F 
ENDBRANCH  73  96
ENDBRANCH  47  48
ENDBRANCH  40  42
ENDBRANCH  39  40
ENDBRANCH  38  39
ENDBRANCH  37  38
ENDBRANCH  36  37
ENDBRANCH   1  36
TORSDOF 20
ENDMDL
MODEL 3
REMARK VINA RESULT:     -11.3      4.784      8.736
REMARK SMILES CC(C)C[C@H](NC(=O)[C@H]1N2C(=O)c3ccccc3[C@@H]2SC1(C)C)C(=O)N[C@@H](C)C(=O)OCCOCCOC(=O)c1ccc(-c2c3nc(c(-c4c(F)c(F)c(F)c(F)c4F)c4ccc([nH]4)c(-c4c(F)c(F)c(F)c(F)c4F)c4nc(c(-c5c(F)c(F)c(F)c(F)c5F)c5ccc2[nH]5)C=C4)C=C3)cc1
REMARK SMILES IDX 33 1 32 2 31 3 29 4 30 5 27 6 28 7 26 8 24 9 25 10 5 12 4 13
REMARK SMILES IDX 2 14 1 15 3 16 6 17 7 18 8 20 9 21 10 22 21 23 11 24 19 25
REMARK SMILES IDX 20 26 22 27 23 28 12 29 13 30 18 31 14 32 17 33 15 34 16 35
REMARK SMILES IDX 34 36 35 37 36 38 37 39 38 40 39 41 40 42 41 43 102 44 42 45
REMARK SMILES IDX 101 46 43 47 44 48 45 49 95 50 46 51 100 52 94 53 96 54
REMARK SMILES IDX 47 55 99 56 93 57 92 58 48 60 80 61 60 62 79 63 61 64 64 65
REMARK SMILES IDX 78 66 97 67 62 68 63 69 77 71 98 72 65 73 49 74 50 75 58 76
REMARK SMILES IDX 51 77 52 78 56 79 59 80 53 81 54 82 57 83 55 84 81 85 82 86
REMARK SMILES IDX 90 87 83 88 84 89 88 90 91 91 85 92 86 93 89 94 87 95 66 96
REMARK SMILES IDX 67 97 75 98 68 99 69 100 73 101 76 102 70 103 71 104 74 105
REMARK SMILES IDX 72 106
REMARK H PARENT 26 11 6 19 96 59 64 70
REMARK Flexibility Score: inf
ROOT
ATOM      1  C   UNL A   1      36.866  29.981  30.815  1.00  0.00     0.202 C 
ENDROOT
BRANCH   1   2
ATOM      2  C   UNL A   1      36.731  30.307  29.324  1.00  0.00     0.261 C 
BRANCH   2   3
ATOM      3  O   UNL A   1      35.903  29.328  28.658  1.00  0.00    -0.462 OA
BRANCH   3   4
ATOM      4  C   UNL A   1      35.052  29.833  27.724  1.00  0.00     0.328 C 
ATOM      5  O   UNL A   1      34.990  31.020  27.422  1.00  0.00    -0.250 OA
BRANCH   4   6
ATOM      6  C   UNL A   1      34.084  28.785  27.129  1.00  0.00     0.189 C 
ATOM      7  C   UNL A   1      33.944  29.097  25.646  1.00  0.00     0.043 C 
BRANCH   6   8
ATOM      8  N   UNL A   1      32.763  28.613  27.733  1.00  0.00    -0.341 N 
ATOM      9  C   UNL A   1      31.664  27.909  27.325  1.00  0.00     0.243 C 
ATOM     10  O   UNL A   1      30.654  28.062  28.025  1.00  0.00    -0.273 OA
ATOM     11  H   UNL A   1      32.644  29.088  28.587  1.00  0.00     0.164 HD
BRANCH   9  12
ATOM     12  C   UNL A   1      31.652  26.818  26.180  1.00  0.00     0.171 C 
BRANCH  12  13
ATOM     13  C   UNL A   1      30.697  27.117  25.013  1.00  0.00     0.038 C 
BRANCH  13  14
ATOM     14  C   UNL A   1      31.218  27.865  23.788  1.00  0.00    -0.015 C 
ATOM     15  C   UNL A   1      31.020  27.169  22.451  1.00  0.00     0.007 C 
ATOM     16  C   UNL A   1      30.613  29.276  23.722  1.00  0.00     0.007 C 
ENDBRANCH  13  14
ENDBRANCH  12  13
BRANCH  12  17
ATOM     17  N   UNL A   1      31.572  25.434  26.709  1.00  0.00    -0.342 N 
ATOM     18  C   UNL A   1      32.151  24.220  26.468  1.00  0.00     0.244 C 
ATOM     19  H   UNL A   1      30.917  25.373  27.441  1.00  0.00     0.164 HD
ATOM     20  O   UNL A   1      31.803  23.320  27.243  1.00  0.00    -0.273 OA
BRANCH  18  21
ATOM     21  C   UNL A   1      33.106  23.914  25.282  1.00  0.00     0.191 C 
ATOM     22  N   UNL A   1      34.094  22.909  25.676  1.00  0.00    -0.309 N 
ATOM     23  C   UNL A   1      32.442  23.326  23.992  1.00  0.00     0.042 C 
ATOM     24  C   UNL A   1      35.461  23.090  25.689  1.00  0.00     0.256 C 
ATOM     25  C   UNL A   1      33.710  21.531  25.514  1.00  0.00     0.176 C 
ATOM     26  S   UNL A   1      32.603  21.491  24.104  1.00  0.00    -0.123 SA
ATOM     27  C   UNL A   1      30.950  23.554  23.809  1.00  0.00     0.026 C 
ATOM     28  C   UNL A   1      33.201  23.775  22.734  1.00  0.00     0.026 C 
ATOM     29  O   UNL A   1      36.075  24.137  25.749  1.00  0.00    -0.269 OA
ATOM     30  C   UNL A   1      36.055  21.761  25.447  1.00  0.00     0.046 A 
ATOM     31  C   UNL A   1      35.012  20.850  25.274  1.00  0.00    -0.002 A 
ATOM     32  C   UNL A   1      37.377  21.415  25.245  1.00  0.00     0.014 A 
ATOM     33  C   UNL A   1      35.269  19.546  24.885  1.00  0.00     0.007 A 
ATOM     34  C   UNL A   1      37.643  20.100  24.851  1.00  0.00     0.001 A 
ATOM     35  C   UNL A   1      36.597  19.177  24.665  1.00  0.00     0.000 A 
ENDBRANCH  18  21
ENDBRANCH  12  17
ENDBRANCH   9  12
ENDBRANCH   6   8
ENDBRANCH   4   6
ENDBRANCH   3   4
ENDBRANCH   2   3
ENDBRANCH   1   2
BRANCH   1  36
ATOM     36  O   UNL A   1      35.890  30.596  31.654  1.00  0.00    -0.374 OA
BRANCH  36  37
ATOM     37  C   UNL A   1      35.284  31.778  31.141  1.00  0.00     0.202 C 
BRANCH  37  38
ATOM     38  C   UNL A   1      35.268  32.979  32.088  1.00  0.00     0.261 C 
BRANCH  38  39
ATOM     39  O   UNL A   1      36.382  32.900  32.965  1.00  0.00    -0.460 OA
BRANCH  39  40
ATOM     40  C   UNL A   1      37.314  33.851  32.784  1.00  0.00     0.338 C 
ATOM     41  O   UNL A   1      37.402  34.943  33.318  1.00  0.00    -0.246 OA
BRANCH  40  42
ATOM     42  C   UNL A   1      38.366  33.205  32.000  1.00  0.00     0.060 A 
ATOM     43  C   UNL A   1      38.459  33.408  30.618  1.00  0.00     0.016 A 
ATOM     44  C   UNL A   1      39.187  32.294  32.668  1.00  0.00     0.016 A 
ATOM     45  C   UNL A   1      39.412  32.704  29.900  1.00  0.00     0.010 A 
ATOM     46  C   UNL A   1      40.149  31.604  31.954  1.00  0.00     0.010 A 
ATOM     47  C   UNL A   1      40.279  31.832  30.576  1.00  0.00    -0.014 A 
BRANCH  47  48
ATOM     48  C   UNL A   1      41.458  31.297  29.881  1.00  0.00     0.031 A 
ATOM     49  C   UNL A   1      42.656  32.143  29.630  1.00  0.00     0.074 A 
ATOM     50  C   UNL A   1      41.371  30.030  29.441  1.00  0.00     0.049 A 
ATOM     51  N   UNL A   1      43.770  31.823  29.029  1.00  0.00    -0.248 NA
ATOM     52  C   UNL A   1      42.593  33.533  30.101  1.00  0.00     0.031 C 
ATOM     53  C   UNL A   1      40.208  29.159  29.630  1.00  0.00     0.029 A 
ATOM     54  N   UNL A   1      42.264  29.257  28.757  1.00  0.00    -0.354 N 
ATOM     55  C   UNL A   1      44.553  32.964  29.064  1.00  0.00     0.074 A 
ATOM     56  C   UNL A   1      43.762  34.004  29.689  1.00  0.00     0.031 C 
ATOM     57  C   UNL A   1      40.477  27.953  29.117  1.00  0.00     0.029 A 
ATOM     58  C   UNL A   1      41.807  27.985  28.522  1.00  0.00     0.049 A 
ATOM     59  H   UNL A   1      43.146  29.578  28.463  1.00  0.00     0.167 HD
ATOM     60  C   UNL A   1      45.827  33.108  28.629  1.00  0.00     0.037 A 
ATOM     61  C   UNL A   1      42.404  26.959  27.895  1.00  0.00     0.037 A 
ATOM     62  C   UNL A   1      46.566  32.056  27.977  1.00  0.00     0.049 A 
ATOM     63  C   UNL A   1      43.787  27.167  27.357  1.00  0.00     0.074 A 
ATOM     64  C   UNL A   1      47.859  32.080  27.491  1.00  0.00     0.029 A 
ATOM     65  N   UNL A   1      46.061  30.788  27.704  1.00  0.00    -0.354 N 
ATOM     66  N   UNL A   1      44.549  28.232  27.433  1.00  0.00    -0.248 NA
ATOM     67  C   UNL A   1      44.393  26.039  26.645  1.00  0.00     0.031 C 
ATOM     68  C   UNL A   1      48.117  30.851  26.875  1.00  0.00     0.029 A 
ATOM     69  C   UNL A   1      47.008  30.032  27.030  1.00  0.00     0.049 A 
ATOM     70  H   UNL A   1      45.163  30.472  27.954  1.00  0.00     0.167 HD
ATOM     71  C   UNL A   1      45.734  27.902  26.796  1.00  0.00     0.074 A 
ATOM     72  C   UNL A   1      45.592  26.525  26.355  1.00  0.00     0.031 C 
ATOM     73  C   UNL A   1      46.835  28.666  26.591  1.00  0.00     0.037 A 
BRANCH  60  74
ATOM     74  C   UNL A   1      46.480  34.443  28.839  1.00  0.00     0.064 A 
ATOM     75  C   UNL A   1      47.191  34.733  30.016  1.00  0.00     0.173 A 
ATOM     76  C   UNL A   1      46.405  35.445  27.860  1.00  0.00     0.173 A 
ATOM     77  F   UNL A   1      47.284  33.818  30.992  1.00  0.00    -0.203 F 
ATOM     78  C   UNL A   1      47.767  35.984  30.218  1.00  0.00     0.198 A 
ATOM     79  C   UNL A   1      47.012  36.684  28.051  1.00  0.00     0.198 A 
ATOM     80  F   UNL A   1      45.741  35.225  26.716  1.00  0.00    -0.203 F 
ATOM     81  F   UNL A   1      48.383  36.256  31.377  1.00  0.00    -0.200 F 
ATOM     82  C   UNL A   1      47.682  36.957  29.235  1.00  0.00     0.200 A 
ATOM     83  F   UNL A   1      46.940  37.619  27.094  1.00  0.00    -0.200 F 
ATOM     84  F   UNL A   1      48.236  38.161  29.431  1.00  0.00    -0.200 F 
ENDBRANCH  60  74
BRANCH  61  85
ATOM     85  C   UNL A   1      41.705  25.654  27.826  1.00  0.00     0.064 A 
ATOM     86  C   UNL A   1      40.669  25.455  26.904  1.00  0.00     0.173 A 
ATOM     87  C   UNL A   1      42.122  24.553  28.590  1.00  0.00     0.173 A 
ATOM     88  F   UNL A   1      40.236  26.479  26.154  1.00  0.00    -0.203 F 
ATOM     89  C   UNL A   1      40.080  24.203  26.744  1.00  0.00     0.198 A 
ATOM     90  C   UNL A   1      41.550  23.296  28.410  1.00  0.00     0.198 A 
ATOM     91  F   UNL A   1      43.123  24.690  29.472  1.00  0.00    -0.203 F 
ATOM     92  F   UNL A   1      39.087  24.041  25.860  1.00  0.00    -0.200 F 
ATOM     93  C   UNL A   1      40.529  23.123  27.489  1.00  0.00     0.200 A 
ATOM     94  F   UNL A   1      42.005  22.249  29.112  1.00  0.00    -0.200 F 
ATOM     95  F   UNL A   1      39.983  21.912  27.312  1.00  0.00    -0.200 F 
ENDBRANCH  61  85
BRANCH  73  96
ATOM     96  C   UNL A   1      47.980  28.029  25.860  1.00  0.00     0.064 A 
ATOM     97  C   UNL A   1      49.112  27.556  26.539  1.00  0.00     0.173 A 
ATOM     98  C   UNL A   1      47.913  27.829  24.472  1.00  0.00     0.173 A 
ATOM     99  F   UNL A   1      49.230  27.740  27.863  1.00  0.00    -0.203 F 
ATOM    100  C   UNL A   1      50.142  26.919  25.854  1.00  0.00     0.198 A 
ATOM    101  C   UNL A   1      48.929  27.159  23.797  1.00  0.00     0.198 A 
ATOM    102  F   UNL A   1      46.850  28.258  23.776  1.00  0.00    -0.203 F 
ATOM    103  F   UNL A   1      51.233  26.511  26.518  1.00  0.00    -0.200 F 
ATOM    104  C   UNL A   1      50.044  26.709  24.487  1.00  0.00     0.200 A 
ATOM    105  F   UNL A   1      48.824  26.942  22.478  1.00  0.00    -0.200 F 
ATOM    106  F   UNL A   1      51.027  26.077  23.833  1.00  0.00    -0.200 F 
ENDBRANCH  73  96
ENDBRANCH  47  48
ENDBRANCH  40  42
ENDBRANCH  39  40
ENDBRANCH  38  39
ENDBRANCH  37  38
ENDBRANCH  36  37
ENDBRANCH   1  36
TORSDOF 20
ENDMDL
