MODEL 1
REMARK VINA RESULT:     -12.0      0.000      0.000
REMARK SMILES O=Cc1ccc2c(c1)C=C(C(=O)OCCOCCOC(=O)c1ccc(-c3c4nc(c(-c5c(F)c(F)c(F)c(F)c5F)c5ccc([nH]5)c(-c5c(F)c(F)c(F)c(F)c5F)c5nc(c(-c6c(F)c(F)c(F)c(F)c6F)c6ccc3[nH]6)C=C5)C=C4)cc1)[C@H](C(F)(F)F)O2
REMARK SMILES IDX 17 1 16 2 15 3 14 4 13 5 11 6 12 7 10 8 3 9 4 10 8 11 5 12
REMARK SMILES IDX 7 13 6 14 9 15 90 16 85 17 2 18 1 19 86 20 87 21 88 22 89 23
REMARK SMILES IDX 18 24 19 25 20 26 21 27 22 28 23 29 84 30 24 31 83 32 25 33
REMARK SMILES IDX 26 34 27 35 77 36 28 37 82 38 76 39 78 40 29 41 81 42 75 43
REMARK SMILES IDX 74 44 30 46 62 47 42 48 61 49 43 50 46 51 60 52 79 53 44 54
REMARK SMILES IDX 45 55 59 57 80 58 47 59 31 60 32 61 40 62 33 63 34 64 38 65
REMARK SMILES IDX 41 66 35 67 36 68 39 69 37 70 63 71 64 72 72 73 65 74 66 75
REMARK SMILES IDX 70 76 73 77 67 78 68 79 71 80 69 81 48 82 49 83 57 84 50 85
REMARK SMILES IDX 51 86 55 87 58 88 52 89 53 90 56 91 54 92
REMARK H PARENT 78 45 46 56
REMARK Flexibility Score: inf
ROOT
ATOM      1  C   UNL A   1      31.899  29.341  24.750  1.00  0.00     0.202 C 
ENDROOT
BRANCH   1   2
ATOM      2  O   UNL A   1      30.885  29.175  23.760  1.00  0.00    -0.374 OA
BRANCH   2   3
ATOM      3  C   UNL A   1      30.536  27.849  23.372  1.00  0.00     0.202 C 
BRANCH   3   4
ATOM      4  C   UNL A   1      31.462  27.158  22.367  1.00  0.00     0.261 C 
BRANCH   4   5
ATOM      5  O   UNL A   1      31.423  25.729  22.510  1.00  0.00    -0.460 OA
BRANCH   5   6
ATOM      6  C   UNL A   1      32.619  25.110  22.360  1.00  0.00     0.338 C 
ATOM      7  O   UNL A   1      33.583  25.533  21.744  1.00  0.00    -0.246 OA
BRANCH   6   8
ATOM      8  C   UNL A   1      32.658  23.861  23.136  1.00  0.00     0.087 C 
ATOM      9  C   UNL A   1      32.728  19.066  23.531  1.00  0.00     0.015 A 
ATOM     10  C   UNL A   1      33.418  19.180  24.744  1.00  0.00     0.015 A 
ATOM     11  C   UNL A   1      32.357  20.208  22.809  1.00  0.00     0.023 A 
ATOM     12  C   UNL A   1      33.735  20.441  25.243  1.00  0.00     0.048 A 
ATOM     13  C   UNL A   1      32.684  21.474  23.305  1.00  0.00     0.018 A 
ATOM     14  C   UNL A   1      33.358  21.578  24.532  1.00  0.00     0.128 A 
ATOM     15  C   UNL A   1      32.458  22.685  22.518  1.00  0.00     0.027 C 
ATOM     16  O   UNL A   1      33.748  22.782  25.056  1.00  0.00    -0.475 OA
ATOM     17  C   UNL A   1      32.954  23.918  24.620  1.00  0.00     0.316 C 
BRANCH   9  18
ATOM     18  C   UNL A   1      32.417  17.729  22.988  1.00  0.00     0.260 C 
ATOM     19  O   UNL A   1      33.291  16.970  22.591  1.00  0.00    -0.298 OA
ENDBRANCH   9  18
BRANCH  17  20
ATOM     20  C   UNL A   1      33.581  25.202  25.193  1.00  0.00     0.430 C 
ATOM     21  F   UNL A   1      32.677  26.209  25.231  1.00  0.00    -0.167 F 
ATOM     22  F   UNL A   1      33.964  24.997  26.481  1.00  0.00    -0.167 F 
ATOM     23  F   UNL A   1      34.672  25.611  24.516  1.00  0.00    -0.167 F 
ENDBRANCH  17  20
ENDBRANCH   6   8
ENDBRANCH   5   6
ENDBRANCH   4   5
ENDBRANCH   3   4
ENDBRANCH   2   3
ENDBRANCH   1   2
BRANCH   1  24
ATOM     24  C   UNL A   1      31.694  30.454  25.786  1.00  0.00     0.261 C 
BRANCH  24  25
ATOM     25  O   UNL A   1      32.567  30.314  26.921  1.00  0.00    -0.460 OA
BRANCH  25  26
ATOM     26  C   UNL A   1      33.214  31.449  27.280  1.00  0.00     0.338 C 
ATOM     27  O   UNL A   1      32.746  32.574  27.372  1.00  0.00    -0.246 OA
BRANCH  26  28
ATOM     28  C   UNL A   1      34.577  31.128  27.732  1.00  0.00     0.060 A 
ATOM     29  C   UNL A   1      34.864  29.790  28.039  1.00  0.00     0.016 A 
ATOM     30  C   UNL A   1      35.528  32.127  27.944  1.00  0.00     0.016 A 
ATOM     31  C   UNL A   1      36.089  29.452  28.610  1.00  0.00     0.010 A 
ATOM     32  C   UNL A   1      36.752  31.789  28.527  1.00  0.00     0.010 A 
ATOM     33  C   UNL A   1      37.021  30.457  28.897  1.00  0.00    -0.014 A 
BRANCH  33  34
ATOM     34  C   UNL A   1      38.198  30.151  29.742  1.00  0.00     0.031 A 
ATOM     35  C   UNL A   1      39.244  29.213  29.210  1.00  0.00     0.074 A 
ATOM     36  C   UNL A   1      38.337  30.702  30.960  1.00  0.00     0.049 A 
ATOM     37  N   UNL A   1      40.310  28.733  29.797  1.00  0.00    -0.248 NA
ATOM     38  C   UNL A   1      39.059  28.751  27.825  1.00  0.00     0.031 C 
ATOM     39  C   UNL A   1      37.417  31.665  31.560  1.00  0.00     0.029 A 
ATOM     40  N   UNL A   1      39.306  30.519  31.913  1.00  0.00    -0.354 N 
ATOM     41  C   UNL A   1      40.912  27.903  28.862  1.00  0.00     0.074 A 
ATOM     42  C   UNL A   1      40.081  27.923  27.677  1.00  0.00     0.031 C 
ATOM     43  C   UNL A   1      37.858  31.977  32.791  1.00  0.00     0.029 A 
ATOM     44  C   UNL A   1      39.069  31.209  33.075  1.00  0.00     0.049 A 
ATOM     45  H   UNL A   1      40.095  29.946  31.777  1.00  0.00     0.167 HD
ATOM     46  C   UNL A   1      42.060  27.191  28.979  1.00  0.00     0.037 A 
ATOM     47  C   UNL A   1      39.742  31.197  34.242  1.00  0.00     0.037 A 
ATOM     48  C   UNL A   1      42.883  27.177  30.159  1.00  0.00     0.049 A 
ATOM     49  C   UNL A   1      40.973  30.340  34.376  1.00  0.00     0.074 A 
ATOM     50  C   UNL A   1      44.071  26.502  30.377  1.00  0.00     0.029 A 
ATOM     51  N   UNL A   1      42.595  27.867  31.329  1.00  0.00    -0.354 N 
ATOM     52  N   UNL A   1      41.545  29.566  33.486  1.00  0.00    -0.248 NA
ATOM     53  C   UNL A   1      41.652  30.355  35.680  1.00  0.00     0.031 C 
ATOM     54  C   UNL A   1      44.475  26.744  31.694  1.00  0.00     0.029 A 
ATOM     55  C   UNL A   1      43.570  27.614  32.279  1.00  0.00     0.049 A 
ATOM     56  H   UNL A   1      41.813  28.451  31.461  1.00  0.00     0.167 HD
ATOM     57  C   UNL A   1      42.665  29.030  34.107  1.00  0.00     0.074 A 
ATOM     58  C   UNL A   1      42.696  29.571  35.451  1.00  0.00     0.031 C 
ATOM     59  C   UNL A   1      43.590  28.171  33.608  1.00  0.00     0.037 A 
BRANCH  46  60
ATOM     60  C   UNL A   1      42.468  26.344  27.809  1.00  0.00     0.064 A 
ATOM     61  C   UNL A   1      43.393  26.794  26.856  1.00  0.00     0.173 A 
ATOM     62  C   UNL A   1      41.929  25.059  27.645  1.00  0.00     0.173 A 
ATOM     63  F   UNL A   1      43.925  28.022  26.958  1.00  0.00    -0.203 F 
ATOM     64  C   UNL A   1      43.739  26.003  25.763  1.00  0.00     0.198 A 
ATOM     65  C   UNL A   1      42.301  24.257  26.568  1.00  0.00     0.198 A 
ATOM     66  F   UNL A   1      41.042  24.579  28.529  1.00  0.00    -0.203 F 
ATOM     67  F   UNL A   1      44.582  26.476  24.835  1.00  0.00    -0.200 F 
ATOM     68  C   UNL A   1      43.197  24.733  25.623  1.00  0.00     0.200 A 
ATOM     69  F   UNL A   1      41.783  23.028  26.440  1.00  0.00    -0.200 F 
ATOM     70  F   UNL A   1      43.530  23.973  24.572  1.00  0.00    -0.200 F 
ENDBRANCH  46  60
BRANCH  47  71
ATOM     71  C   UNL A   1      39.259  32.024  35.379  1.00  0.00     0.064 A 
ATOM     72  C   UNL A   1      39.611  33.375  35.488  1.00  0.00     0.173 A 
ATOM     73  C   UNL A   1      38.440  31.478  36.379  1.00  0.00     0.173 A 
ATOM     74  F   UNL A   1      40.413  33.934  34.570  1.00  0.00    -0.203 F 
ATOM     75  C   UNL A   1      39.170  34.149  36.560  1.00  0.00     0.198 A 
ATOM     76  C   UNL A   1      37.977  32.259  37.435  1.00  0.00     0.198 A 
ATOM     77  F   UNL A   1      38.076  30.189  36.320  1.00  0.00    -0.203 F 
ATOM     78  F   UNL A   1      39.550  35.429  36.660  1.00  0.00    -0.200 F 
ATOM     79  C   UNL A   1      38.348  33.593  37.528  1.00  0.00     0.200 A 
ATOM     80  F   UNL A   1      37.173  31.721  38.362  1.00  0.00    -0.200 F 
ATOM     81  F   UNL A   1      37.917  34.339  38.554  1.00  0.00    -0.200 F 
ENDBRANCH  47  71
BRANCH  59  82
ATOM     82  C   UNL A   1      44.741  27.799  34.499  1.00  0.00     0.064 A 
ATOM     83  C   UNL A   1      44.705  26.659  35.315  1.00  0.00     0.173 A 
ATOM     84  C   UNL A   1      45.914  28.568  34.495  1.00  0.00     0.173 A 
ATOM     85  F   UNL A   1      43.600  25.899  35.366  1.00  0.00    -0.203 F 
ATOM     86  C   UNL A   1      45.795  26.316  36.110  1.00  0.00     0.198 A 
ATOM     87  C   UNL A   1      47.013  28.205  35.268  1.00  0.00     0.198 A 
ATOM     88  F   UNL A   1      46.002  29.664  33.726  1.00  0.00    -0.203 F 
ATOM     89  F   UNL A   1      45.724  25.246  36.916  1.00  0.00    -0.200 F 
ATOM     90  C   UNL A   1      46.951  27.083  36.081  1.00  0.00     0.200 A 
ATOM     91  F   UNL A   1      48.133  28.939  35.226  1.00  0.00    -0.200 F 
ATOM     92  F   UNL A   1      48.001  26.744  36.839  1.00  0.00    -0.200 F 
ENDBRANCH  59  82
ENDBRANCH  33  34
ENDBRANCH  26  28
ENDBRANCH  25  26
ENDBRANCH  24  25
ENDBRANCH   1  24
TORSDOF 16
ENDMDL
MODEL 2
REMARK VINA RESULT:     -12.0      1.021      1.977
REMARK SMILES O=Cc1ccc2c(c1)C=C(C(=O)OCCOCCOC(=O)c1ccc(-c3c4nc(c(-c5c(F)c(F)c(F)c(F)c5F)c5ccc([nH]5)c(-c5c(F)c(F)c(F)c(F)c5F)c5nc(c(-c6c(F)c(F)c(F)c(F)c6F)c6ccc3[nH]6)C=C5)C=C4)cc1)[C@H](C(F)(F)F)O2
REMARK SMILES IDX 17 1 16 2 15 3 14 4 13 5 11 6 12 7 10 8 3 9 4 10 8 11 5 12
REMARK SMILES IDX 7 13 6 14 9 15 90 16 85 17 2 18 1 19 86 20 87 21 88 22 89 23
REMARK SMILES IDX 18 24 19 25 20 26 21 27 22 28 23 29 84 30 24 31 83 32 25 33
REMARK SMILES IDX 26 34 27 35 77 36 28 37 82 38 76 39 78 40 29 41 81 42 75 43
REMARK SMILES IDX 74 44 30 46 62 47 42 48 61 49 43 50 46 51 60 52 79 53 44 54
REMARK SMILES IDX 45 55 59 57 80 58 47 59 31 60 32 61 40 62 33 63 34 64 38 65
REMARK SMILES IDX 41 66 35 67 36 68 39 69 37 70 63 71 64 72 72 73 65 74 66 75
REMARK SMILES IDX 70 76 73 77 67 78 68 79 71 80 69 81 48 82 49 83 57 84 50 85
REMARK SMILES IDX 51 86 55 87 58 88 52 89 53 90 56 91 54 92
REMARK H PARENT 78 45 46 56
REMARK Flexibility Score: inf
ROOT
ATOM      1  C   UNL A   1      31.397  29.760  24.768  1.00  0.00     0.202 C 
ENDROOT
BRANCH   1   2
ATOM      2  O   UNL A   1      30.741  28.504  24.934  1.00  0.00    -0.374 OA
BRANCH   2   3
ATOM      3  C   UNL A   1      30.267  27.834  23.769  1.00  0.00     0.202 C 
BRANCH   3   4
ATOM      4  C   UNL A   1      29.410  26.584  23.992  1.00  0.00     0.261 C 
BRANCH   4   5
ATOM      5  O   UNL A   1      30.222  25.411  24.161  1.00  0.00    -0.460 OA
BRANCH   5   6
ATOM      6  C   UNL A   1      30.442  25.054  25.448  1.00  0.00     0.338 C 
ATOM      7  O   UNL A   1      29.815  25.431  26.425  1.00  0.00    -0.246 OA
BRANCH   6   8
ATOM      8  C   UNL A   1      31.508  24.043  25.532  1.00  0.00     0.087 C 
ATOM      9  C   UNL A   1      33.269  19.613  24.881  1.00  0.00     0.015 A 
ATOM     10  C   UNL A   1      34.558  20.146  24.768  1.00  0.00     0.015 A 
ATOM     11  C   UNL A   1      32.166  20.448  25.100  1.00  0.00     0.023 A 
ATOM     12  C   UNL A   1      34.750  21.521  24.883  1.00  0.00     0.048 A 
ATOM     13  C   UNL A   1      32.357  21.830  25.204  1.00  0.00     0.018 A 
ATOM     14  C   UNL A   1      33.656  22.352  25.111  1.00  0.00     0.128 A 
ATOM     15  C   UNL A   1      31.227  22.754  25.278  1.00  0.00     0.027 C 
ATOM     16  O   UNL A   1      33.912  23.698  25.160  1.00  0.00    -0.475 OA
ATOM     17  C   UNL A   1      32.917  24.477  25.876  1.00  0.00     0.316 C 
BRANCH   9  18
ATOM     18  C   UNL A   1      33.062  18.159  24.732  1.00  0.00     0.260 C 
ATOM     19  O   UNL A   1      32.066  17.596  25.166  1.00  0.00    -0.298 OA
ENDBRANCH   9  18
BRANCH  17  20
ATOM     20  C   UNL A   1      33.277  25.968  25.744  1.00  0.00     0.430 C 
ATOM     21  F   UNL A   1      32.602  26.713  26.651  1.00  0.00    -0.167 F 
ATOM     22  F   UNL A   1      34.595  26.154  26.017  1.00  0.00    -0.167 F 
ATOM     23  F   UNL A   1      33.054  26.464  24.511  1.00  0.00    -0.167 F 
ENDBRANCH  17  20
ENDBRANCH   6   8
ENDBRANCH   5   6
ENDBRANCH   4   5
ENDBRANCH   3   4
ENDBRANCH   2   3
ENDBRANCH   1   2
BRANCH   1  24
ATOM     24  C   UNL A   1      31.671  30.581  26.034  1.00  0.00     0.261 C 
BRANCH  24  25
ATOM     25  O   UNL A   1      32.996  30.363  26.553  1.00  0.00    -0.460 OA
BRANCH  25  26
ATOM     26  C   UNL A   1      33.520  31.415  27.225  1.00  0.00     0.338 C 
ATOM     27  O   UNL A   1      32.954  32.448  27.549  1.00  0.00    -0.246 OA
BRANCH  26  28
ATOM     28  C   UNL A   1      34.877  31.086  27.693  1.00  0.00     0.060 A 
ATOM     29  C   UNL A   1      35.161  29.742  27.974  1.00  0.00     0.016 A 
ATOM     30  C   UNL A   1      35.822  32.082  27.945  1.00  0.00     0.016 A 
ATOM     31  C   UNL A   1      36.377  29.393  28.558  1.00  0.00     0.010 A 
ATOM     32  C   UNL A   1      37.036  31.732  28.541  1.00  0.00     0.010 A 
ATOM     33  C   UNL A   1      37.301  30.393  28.884  1.00  0.00    -0.014 A 
BRANCH  33  34
ATOM     34  C   UNL A   1      38.464  30.069  29.742  1.00  0.00     0.031 A 
ATOM     35  C   UNL A   1      39.503  29.116  29.221  1.00  0.00     0.074 A 
ATOM     36  C   UNL A   1      38.599  30.619  30.962  1.00  0.00     0.049 A 
ATOM     37  N   UNL A   1      40.555  28.620  29.820  1.00  0.00    -0.248 NA
ATOM     38  C   UNL A   1      39.326  28.657  27.834  1.00  0.00     0.031 C 
ATOM     39  C   UNL A   1      37.686  31.594  31.552  1.00  0.00     0.029 A 
ATOM     40  N   UNL A   1      39.554  30.420  31.925  1.00  0.00    -0.354 N 
ATOM     41  C   UNL A   1      41.155  27.781  28.891  1.00  0.00     0.074 A 
ATOM     42  C   UNL A   1      40.337  27.814  27.698  1.00  0.00     0.031 C 
ATOM     43  C   UNL A   1      38.119  31.900  32.787  1.00  0.00     0.029 A 
ATOM     44  C   UNL A   1      39.315  31.114  33.084  1.00  0.00     0.049 A 
ATOM     45  H   UNL A   1      40.337  29.836  31.797  1.00  0.00     0.167 HD
ATOM     46  C   UNL A   1      42.290  27.053  29.020  1.00  0.00     0.037 A 
ATOM     47  C   UNL A   1      39.974  31.093  34.259  1.00  0.00     0.037 A 
ATOM     48  C   UNL A   1      43.101  27.027  30.209  1.00  0.00     0.049 A 
ATOM     49  C   UNL A   1      41.191  30.217  34.406  1.00  0.00     0.074 A 
ATOM     50  C   UNL A   1      44.276  26.334  30.440  1.00  0.00     0.029 A 
ATOM     51  N   UNL A   1      42.810  27.721  31.376  1.00  0.00    -0.354 N 
ATOM     52  N   UNL A   1      41.762  29.435  33.522  1.00  0.00    -0.248 NA
ATOM     53  C   UNL A   1      41.856  30.222  35.717  1.00  0.00     0.031 C 
ATOM     54  C   UNL A   1      44.669  26.570  31.762  1.00  0.00     0.029 A 
ATOM     55  C   UNL A   1      43.771  27.453  32.337  1.00  0.00     0.049 A 
ATOM     56  H   UNL A   1      42.036  28.316  31.500  1.00  0.00     0.167 HD
ATOM     57  C   UNL A   1      42.867  28.882  34.156  1.00  0.00     0.074 A 
ATOM     58  C   UNL A   1      42.891  29.422  35.499  1.00  0.00     0.031 C 
ATOM     59  C   UNL A   1      43.785  28.010  33.666  1.00  0.00     0.037 A 
BRANCH  46  60
ATOM     60  C   UNL A   1      42.699  26.200  27.855  1.00  0.00     0.064 A 
ATOM     61  C   UNL A   1      43.605  26.655  26.886  1.00  0.00     0.173 A 
ATOM     62  C   UNL A   1      42.180  24.904  27.711  1.00  0.00     0.173 A 
ATOM     63  F   UNL A   1      44.118  27.892  26.968  1.00  0.00    -0.203 F 
ATOM     64  C   UNL A   1      43.951  25.857  25.797  1.00  0.00     0.198 A 
ATOM     65  C   UNL A   1      42.552  24.097  26.638  1.00  0.00     0.198 A 
ATOM     66  F   UNL A   1      41.311  24.419  28.611  1.00  0.00    -0.203 F 
ATOM     67  F   UNL A   1      44.775  26.334  24.854  1.00  0.00    -0.200 F 
ATOM     68  C   UNL A   1      43.429  24.578  25.678  1.00  0.00     0.200 A 
ATOM     69  F   UNL A   1      42.054  22.858  26.530  1.00  0.00    -0.200 F 
ATOM     70  F   UNL A   1      43.763  23.812  24.631  1.00  0.00    -0.200 F 
ENDBRANCH  46  60
BRANCH  47  71
ATOM     71  C   UNL A   1      39.492  31.926  35.391  1.00  0.00     0.064 A 
ATOM     72  C   UNL A   1      38.575  31.418  36.320  1.00  0.00     0.173 A 
ATOM     73  C   UNL A   1      39.937  33.245  35.564  1.00  0.00     0.173 A 
ATOM     74  F   UNL A   1      38.103  30.171  36.181  1.00  0.00    -0.203 F 
ATOM     75  C   UNL A   1      38.112  32.201  37.376  1.00  0.00     0.198 A 
ATOM     76  C   UNL A   1      39.494  34.018  36.635  1.00  0.00     0.198 A 
ATOM     77  F   UNL A   1      40.814  33.778  34.701  1.00  0.00    -0.203 F 
ATOM     78  F   UNL A   1      37.208  31.704  38.229  1.00  0.00    -0.200 F 
ATOM     79  C   UNL A   1      38.578  33.497  37.537  1.00  0.00     0.200 A 
ATOM     80  F   UNL A   1      39.956  35.265  36.794  1.00  0.00    -0.200 F 
ATOM     81  F   UNL A   1      38.138  34.247  38.557  1.00  0.00    -0.200 F 
ENDBRANCH  47  71
BRANCH  59  82
ATOM     82  C   UNL A   1      44.919  27.621  34.570  1.00  0.00     0.064 A 
ATOM     83  C   UNL A   1      46.094  28.382  34.652  1.00  0.00     0.173 A 
ATOM     84  C   UNL A   1      44.805  26.496  35.401  1.00  0.00     0.173 A 
ATOM     85  F   UNL A   1      46.258  29.458  33.867  1.00  0.00    -0.203 F 
ATOM     86  C   UNL A   1      47.121  28.019  35.520  1.00  0.00     0.198 A 
ATOM     87  C   UNL A   1      45.821  26.153  36.289  1.00  0.00     0.198 A 
ATOM     88  F   UNL A   1      43.698  25.738  35.366  1.00  0.00    -0.203 F 
ATOM     89  F   UNL A   1      48.253  28.736  35.552  1.00  0.00    -0.200 F 
ATOM     90  C   UNL A   1      46.982  26.911  36.343  1.00  0.00     0.200 A 
ATOM     91  F   UNL A   1      45.677  25.091  37.093  1.00  0.00    -0.200 F 
ATOM     92  F   UNL A   1      47.967  26.570  37.183  1.00  0.00    -0.200 F 
ENDBRANCH  59  82
ENDBRANCH  33  34
ENDBRANCH  26  28
ENDBRANCH  25  26
ENDBRANCH  24  25
ENDBRANCH   1  24
TORSDOF 16
ENDMDL
MODEL 3
REMARK VINA RESULT:     -12.0      4.395      7.855
REMARK SMILES O=Cc1ccc2c(c1)C=C(C(=O)OCCOCCOC(=O)c1ccc(-c3c4nc(c(-c5c(F)c(F)c(F)c(F)c5F)c5ccc([nH]5)c(-c5c(F)c(F)c(F)c(F)c5F)c5nc(c(-c6c(F)c(F)c(F)c(F)c6F)c6ccc3[nH]6)C=C5)C=C4)cc1)[C@H](C(F)(F)F)O2
REMARK SMILES IDX 17 1 16 2 15 3 14 4 13 5 11 6 12 7 10 8 3 9 4 10 8 11 5 12
REMARK SMILES IDX 7 13 6 14 9 15 90 16 85 17 2 18 1 19 86 20 87 21 88 22 89 23
REMARK SMILES IDX 18 24 19 25 20 26 21 27 22 28 23 29 84 30 24 31 83 32 25 33
REMARK SMILES IDX 26 34 27 35 77 36 28 37 82 38 76 39 78 40 29 41 81 42 75 43
REMARK SMILES IDX 74 44 30 46 62 47 42 48 61 49 43 50 46 51 60 52 79 53 44 54
REMARK SMILES IDX 45 55 59 57 80 58 47 59 31 60 32 61 40 62 33 63 34 64 38 65
REMARK SMILES IDX 41 66 35 67 36 68 39 69 37 70 63 71 64 72 72 73 65 74 66 75
REMARK SMILES IDX 70 76 73 77 67 78 68 79 71 80 69 81 48 82 49 83 57 84 50 85
REMARK SMILES IDX 51 86 55 87 58 88 52 89 53 90 56 91 54 92
REMARK H PARENT 78 45 46 56
REMARK Flexibility Score: inf
ROOT
ATOM      1  C   UNL A   1      38.071  19.806  24.980  1.00  0.00     0.202 C 
ENDROOT
BRANCH   1   2
ATOM      2  O   UNL A   1      37.746  21.195  25.001  1.00  0.00    -0.374 OA
BRANCH   2   3
ATOM      3  C   UNL A   1      36.480  21.581  25.528  1.00  0.00     0.202 C 
BRANCH   3   4
ATOM      4  C   UNL A   1      35.716  22.665  24.762  1.00  0.00     0.261 C 
BRANCH   4   5
ATOM      5  O   UNL A   1      34.333  22.711  25.150  1.00  0.00    -0.460 OA
BRANCH   5   6
ATOM      6  C   UNL A   1      33.591  23.635  24.496  1.00  0.00     0.338 C 
ATOM      7  O   UNL A   1      33.211  23.575  23.339  1.00  0.00    -0.246 OA
BRANCH   6   8
ATOM      8  C   UNL A   1      33.197  24.724  25.405  1.00  0.00     0.087 C 
ATOM      9  C   UNL A   1      33.422  29.253  27.012  1.00  0.00     0.015 A 
ATOM     10  C   UNL A   1      32.104  29.152  27.471  1.00  0.00     0.015 A 
ATOM     11  C   UNL A   1      34.042  28.172  26.373  1.00  0.00     0.023 A 
ATOM     12  C   UNL A   1      31.401  27.962  27.298  1.00  0.00     0.048 A 
ATOM     13  C   UNL A   1      33.334  26.980  26.189  1.00  0.00     0.018 A 
ATOM     14  C   UNL A   1      32.019  26.882  26.672  1.00  0.00     0.128 A 
ATOM     15  C   UNL A   1      33.879  25.881  25.395  1.00  0.00     0.027 C 
ATOM     16  O   UNL A   1      31.252  25.761  26.490  1.00  0.00    -0.475 OA
ATOM     17  C   UNL A   1      32.006  24.532  26.320  1.00  0.00     0.316 C 
BRANCH   9  18
ATOM     18  C   UNL A   1      34.157  30.524  27.170  1.00  0.00     0.260 C 
ATOM     19  O   UNL A   1      33.653  31.506  27.699  1.00  0.00    -0.298 OA
ENDBRANCH   9  18
BRANCH  17  20
ATOM     20  C   UNL A   1      31.019  23.392  26.010  1.00  0.00     0.430 C 
ATOM     21  F   UNL A   1      29.884  23.520  26.737  1.00  0.00    -0.167 F 
ATOM     22  F   UNL A   1      30.635  23.452  24.707  1.00  0.00    -0.167 F 
ATOM     23  F   UNL A   1      31.539  22.166  26.213  1.00  0.00    -0.167 F 
ENDBRANCH  17  20
ENDBRANCH   6   8
ENDBRANCH   5   6
ENDBRANCH   4   5
ENDBRANCH   3   4
ENDBRANCH   2   3
ENDBRANCH   1   2
BRANCH   1  24
ATOM     24  C   UNL A   1      39.327  19.366  25.742  1.00  0.00     0.261 C 
BRANCH  24  25
ATOM     25  O   UNL A   1      40.246  20.453  25.958  1.00  0.00    -0.460 OA
BRANCH  25  26
ATOM     26  C   UNL A   1      40.782  20.501  27.200  1.00  0.00     0.338 C 
ATOM     27  O   UNL A   1      41.209  19.568  27.863  1.00  0.00    -0.246 OA
BRANCH  26  28
ATOM     28  C   UNL A   1      40.956  21.902  27.618  1.00  0.00     0.060 A 
ATOM     29  C   UNL A   1      40.143  22.868  27.011  1.00  0.00     0.016 A 
ATOM     30  C   UNL A   1      41.959  22.276  28.514  1.00  0.00     0.016 A 
ATOM     31  C   UNL A   1      40.363  24.222  27.257  1.00  0.00     0.010 A 
ATOM     32  C   UNL A   1      42.188  23.634  28.752  1.00  0.00     0.010 A 
ATOM     33  C   UNL A   1      41.416  24.611  28.095  1.00  0.00    -0.014 A 
BRANCH  33  34
ATOM     34  C   UNL A   1      41.827  26.033  28.148  1.00  0.00     0.031 A 
ATOM     35  C   UNL A   1      43.151  26.424  27.555  1.00  0.00     0.074 A 
ATOM     36  C   UNL A   1      41.034  26.962  28.710  1.00  0.00     0.049 A 
ATOM     37  N   UNL A   1      43.757  27.583  27.559  1.00  0.00    -0.248 NA
ATOM     38  C   UNL A   1      43.894  25.358  26.865  1.00  0.00     0.031 C 
ATOM     39  C   UNL A   1      39.708  26.712  29.269  1.00  0.00     0.029 A 
ATOM     40  N   UNL A   1      41.240  28.303  28.908  1.00  0.00    -0.354 N 
ATOM     41  C   UNL A   1      44.956  27.383  26.889  1.00  0.00     0.074 A 
ATOM     42  C   UNL A   1      45.005  25.987  26.513  1.00  0.00     0.031 C 
ATOM     43  C   UNL A   1      39.223  27.863  29.764  1.00  0.00     0.029 A 
ATOM     44  C   UNL A   1      40.220  28.919  29.588  1.00  0.00     0.049 A 
ATOM     45  H   UNL A   1      42.043  28.778  28.594  1.00  0.00     0.167 HD
ATOM     46  C   UNL A   1      45.926  28.286  26.607  1.00  0.00     0.037 A 
ATOM     47  C   UNL A   1      40.118  30.184  30.039  1.00  0.00     0.037 A 
ATOM     48  C   UNL A   1      45.870  29.674  26.981  1.00  0.00     0.049 A 
ATOM     49  C   UNL A   1      41.243  31.152  29.781  1.00  0.00     0.074 A 
ATOM     50  C   UNL A   1      46.794  30.675  26.733  1.00  0.00     0.029 A 
ATOM     51  N   UNL A   1      44.832  30.256  27.696  1.00  0.00    -0.354 N 
ATOM     52  N   UNL A   1      42.369  30.962  29.137  1.00  0.00    -0.248 NA
ATOM     53  C   UNL A   1      41.082  32.513  30.313  1.00  0.00     0.031 C 
ATOM     54  C   UNL A   1      46.337  31.850  27.340  1.00  0.00     0.029 A 
ATOM     55  C   UNL A   1      45.104  31.596  27.918  1.00  0.00     0.049 A 
ATOM     56  H   UNL A   1      44.022  29.785  27.999  1.00  0.00     0.167 HD
ATOM     57  C   UNL A   1      43.033  32.181  29.157  1.00  0.00     0.074 A 
ATOM     58  C   UNL A   1      42.182  33.108  29.874  1.00  0.00     0.031 C 
ATOM     59  C   UNL A   1      44.238  32.507  28.624  1.00  0.00     0.037 A 
BRANCH  46  60
ATOM     60  C   UNL A   1      47.145  27.785  25.888  1.00  0.00     0.064 A 
ATOM     61  C   UNL A   1      47.225  27.772  24.487  1.00  0.00     0.173 A 
ATOM     62  C   UNL A   1      48.253  27.319  26.613  1.00  0.00     0.173 A 
ATOM     63  F   UNL A   1      46.188  28.192  23.747  1.00  0.00    -0.203 F 
ATOM     64  C   UNL A   1      48.355  27.279  23.839  1.00  0.00     0.198 A 
ATOM     65  C   UNL A   1      49.393  26.855  25.961  1.00  0.00     0.198 A 
ATOM     66  F   UNL A   1      48.229  27.311  27.954  1.00  0.00    -0.203 F 
ATOM     67  F   UNL A   1      48.387  27.223  22.500  1.00  0.00    -0.200 F 
ATOM     68  C   UNL A   1      49.439  26.827  24.576  1.00  0.00     0.200 A 
ATOM     69  F   UNL A   1      50.443  26.428  26.676  1.00  0.00    -0.200 F 
ATOM     70  F   UNL A   1      50.526  26.353  23.951  1.00  0.00    -0.200 F 
ENDBRANCH  46  60
BRANCH  47  71
ATOM     71  C   UNL A   1      38.904  30.606  30.786  1.00  0.00     0.064 A 
ATOM     72  C   UNL A   1      38.847  30.508  32.182  1.00  0.00     0.173 A 
ATOM     73  C   UNL A   1      37.779  31.113  30.119  1.00  0.00     0.173 A 
ATOM     74  F   UNL A   1      39.888  30.006  32.861  1.00  0.00    -0.203 F 
ATOM     75  C   UNL A   1      37.705  30.892  32.883  1.00  0.00     0.198 A 
ATOM     76  C   UNL A   1      36.650  31.523  30.823  1.00  0.00     0.198 A 
ATOM     77  F   UNL A   1      37.784  31.227  28.782  1.00  0.00    -0.203 F 
ATOM     78  F   UNL A   1      37.663  30.754  34.215  1.00  0.00    -0.200 F 
ATOM     79  C   UNL A   1      36.611  31.406  32.205  1.00  0.00     0.200 A 
ATOM     80  F   UNL A   1      35.599  32.030  30.164  1.00  0.00    -0.200 F 
ATOM     81  F   UNL A   1      35.517  31.782  32.881  1.00  0.00    -0.200 F 
ENDBRANCH  47  71
BRANCH  59  82
ATOM     82  C   UNL A   1      44.689  33.933  28.752  1.00  0.00     0.064 A 
ATOM     83  C   UNL A   1      45.511  34.357  29.806  1.00  0.00     0.173 A 
ATOM     84  C   UNL A   1      44.332  34.876  27.776  1.00  0.00     0.173 A 
ATOM     85  F   UNL A   1      45.868  33.497  30.773  1.00  0.00    -0.203 F 
ATOM     86  C   UNL A   1      45.942  35.678  29.888  1.00  0.00     0.198 A 
ATOM     87  C   UNL A   1      44.790  36.189  27.845  1.00  0.00     0.198 A 
ATOM     88  F   UNL A   1      43.553  34.520  26.744  1.00  0.00    -0.203 F 
ATOM     89  F   UNL A   1      46.693  36.073  30.927  1.00  0.00    -0.200 F 
ATOM     90  C   UNL A   1      45.589  36.591  28.905  1.00  0.00     0.200 A 
ATOM     91  F   UNL A   1      44.459  37.065  26.887  1.00  0.00    -0.200 F 
ATOM     92  F   UNL A   1      46.014  37.859  28.982  1.00  0.00    -0.200 F 
ENDBRANCH  59  82
ENDBRANCH  33  34
ENDBRANCH  26  28
ENDBRANCH  25  26
ENDBRANCH  24  25
ENDBRANCH   1  24
TORSDOF 16
ENDMDL
