MODEL 1
REMARK VINA RESULT:     -11.3      0.000      0.000
REMARK SMILES CN1C(=O)CC[C@H]([NH2+]Cc2ccc(C(=O)OCCOCCOC(=O)c3ccc(-c4c5nc(c(-c6c(F)c(F)c(F)c(F)c6F)c6ccc([nH]6)c(-c6c(F)c(F)c(F)c(F)c6F)c6nc(c(-c7c(F)c(F)c(F)c(F)c7F)c7ccc4[nH]7)C=C6)C=C5)cc3)cn2)C1=O
REMARK SMILES IDX 18 1 17 2 16 3 14 4 15 5 13 6 10 7 11 8 89 9 12 10 88 11
REMARK SMILES IDX 9 12 8 13 7 16 1 17 2 18 3 19 90 20 4 21 5 22 91 23 6 24
REMARK SMILES IDX 19 25 20 26 21 27 22 28 23 29 24 30 25 31 26 32 87 33 27 34
REMARK SMILES IDX 86 35 28 36 29 37 30 38 80 39 31 40 85 41 79 42 81 43 32 44
REMARK SMILES IDX 84 45 78 46 77 47 33 49 65 50 45 51 64 52 46 53 49 54 63 55
REMARK SMILES IDX 82 56 47 57 48 58 62 60 83 61 50 62 34 63 35 64 43 65 36 66
REMARK SMILES IDX 37 67 41 68 44 69 38 70 39 71 42 72 40 73 66 74 67 75 75 76
REMARK SMILES IDX 68 77 69 78 73 79 76 80 70 81 71 82 74 83 72 84 51 85 52 86
REMARK SMILES IDX 60 87 53 88 54 89 58 90 61 91 55 92 56 93 59 94 57 95
REMARK H PARENT 8 14 8 15 81 48 49 59
REMARK Flexibility Score: inf
ROOT
ATOM      1  C   UNL A   1      47.655  20.996  39.585  1.00  0.00     0.202 C 
ENDROOT
BRANCH   1   2
ATOM      2  C   UNL A   1      46.787  20.009  38.800  1.00  0.00     0.261 C 
BRANCH   2   3
ATOM      3  O   UNL A   1      45.907  19.283  39.671  1.00  0.00    -0.460 OA
BRANCH   3   4
ATOM      4  C   UNL A   1      46.219  17.975  39.833  1.00  0.00     0.339 C 
ATOM      5  O   UNL A   1      47.328  17.502  40.023  1.00  0.00    -0.246 OA
BRANCH   4   6
ATOM      6  C   UNL A   1      44.980  17.190  39.941  1.00  0.00     0.078 A 
ATOM      7  C   UNL A   1      42.679  15.767  40.388  1.00  0.00     0.094 A 
ATOM      8  C   UNL A   1      43.322  15.650  39.151  1.00  0.00     0.031 A 
ATOM      9  N   UNL A   1      43.095  16.636  41.339  1.00  0.00    -0.254 NA
ATOM     10  C   UNL A   1      44.486  16.380  38.921  1.00  0.00     0.019 A 
ATOM     11  C   UNL A   1      44.246  17.304  41.112  1.00  0.00     0.127 A 
BRANCH   7  12
ATOM     12  C   UNL A   1      41.613  14.756  40.779  1.00  0.00     0.318 C 
BRANCH  12  13
ATOM     13  N   UNL A   1      41.245  14.978  42.182  1.00  0.00    -0.331 N 
ATOM     14  H   UNL A   1      41.806  15.758  42.523  1.00  0.00     0.347 HD
ATOM     15  H   UNL A   1      40.237  15.135  42.161  1.00  0.00     0.347 HD
BRANCH  13  16
ATOM     16  C   UNL A   1      41.425  13.867  43.123  1.00  0.00     0.274 C 
ATOM     17  C   UNL A   1      43.928  12.652  45.651  1.00  0.00     0.156 C 
ATOM     18  N   UNL A   1      42.957  12.617  44.576  1.00  0.00    -0.281 N 
ATOM     19  C   UNL A   1      42.509  11.375  44.158  1.00  0.00     0.229 C 
ATOM     20  C   UNL A   1      42.793  13.777  43.824  1.00  0.00     0.287 C 
ATOM     21  O   UNL A   1      42.976  10.317  44.583  1.00  0.00    -0.274 OA
ATOM     22  C   UNL A   1      41.358  11.356  43.180  1.00  0.00     0.107 C 
ATOM     23  O   UNL A   1      43.663  14.641  43.787  1.00  0.00    -0.267 OA
ATOM     24  C   UNL A   1      41.253  12.588  42.306  1.00  0.00     0.085 C 
ENDBRANCH  13  16
ENDBRANCH  12  13
ENDBRANCH   7  12
ENDBRANCH   4   6
ENDBRANCH   3   4
ENDBRANCH   2   3
ENDBRANCH   1   2
BRANCH   1  25
ATOM     25  O   UNL A   1      47.074  22.249  39.940  1.00  0.00    -0.374 OA
BRANCH  25  26
ATOM     26  C   UNL A   1      46.688  23.132  38.888  1.00  0.00     0.202 C 
BRANCH  26  27
ATOM     27  C   UNL A   1      47.645  24.272  38.520  1.00  0.00     0.261 C 
BRANCH  27  28
ATOM     28  O   UNL A   1      46.963  25.439  38.026  1.00  0.00    -0.460 OA
BRANCH  28  29
ATOM     29  C   UNL A   1      47.503  25.970  36.902  1.00  0.00     0.338 C 
ATOM     30  O   UNL A   1      48.679  26.004  36.584  1.00  0.00    -0.246 OA
BRANCH  29  31
ATOM     31  C   UNL A   1      46.428  26.375  35.979  1.00  0.00     0.060 A 
ATOM     32  C   UNL A   1      46.563  27.605  35.322  1.00  0.00     0.016 A 
ATOM     33  C   UNL A   1      45.277  25.603  35.816  1.00  0.00     0.016 A 
ATOM     34  C   UNL A   1      45.528  28.086  34.525  1.00  0.00     0.010 A 
ATOM     35  C   UNL A   1      44.236  26.092  35.022  1.00  0.00     0.010 A 
ATOM     36  C   UNL A   1      44.345  27.348  34.396  1.00  0.00    -0.014 A 
BRANCH  36  37
ATOM     37  C   UNL A   1      43.179  27.938  33.693  1.00  0.00     0.031 A 
ATOM     38  C   UNL A   1      42.965  27.630  32.238  1.00  0.00     0.074 A 
ATOM     39  C   UNL A   1      42.318  28.732  34.352  1.00  0.00     0.049 A 
ATOM     40  N   UNL A   1      42.058  28.094  31.415  1.00  0.00    -0.248 NA
ATOM     41  C   UNL A   1      43.901  26.674  31.627  1.00  0.00     0.031 C 
ATOM     42  C   UNL A   1      42.399  29.068  35.772  1.00  0.00     0.029 A 
ATOM     43  N   UNL A   1      41.212  29.411  33.906  1.00  0.00    -0.354 N 
ATOM     44  C   UNL A   1      42.320  27.495  30.190  1.00  0.00     0.074 A 
ATOM     45  C   UNL A   1      43.487  26.659  30.368  1.00  0.00     0.031 C 
ATOM     46  C   UNL A   1      41.391  29.902  36.080  1.00  0.00     0.029 A 
ATOM     47  C   UNL A   1      40.622  30.189  34.871  1.00  0.00     0.049 A 
ATOM     48  H   UNL A   1      40.874  29.346  32.985  1.00  0.00     0.167 HD
ATOM     49  C   UNL A   1      41.641  27.628  29.025  1.00  0.00     0.037 A 
ATOM     50  C   UNL A   1      39.596  31.059  34.779  1.00  0.00     0.037 A 
ATOM     51  C   UNL A   1      40.479  28.463  28.856  1.00  0.00     0.049 A 
ATOM     52  C   UNL A   1      38.908  31.249  33.453  1.00  0.00     0.074 A 
ATOM     53  C   UNL A   1      39.706  28.647  27.723  1.00  0.00     0.029 A 
ATOM     54  N   UNL A   1      39.929  29.262  29.848  1.00  0.00    -0.354 N 
ATOM     55  N   UNL A   1      39.145  30.662  32.304  1.00  0.00    -0.248 NA
ATOM     56  C   UNL A   1      37.808  32.223  33.411  1.00  0.00     0.031 C 
ATOM     57  C   UNL A   1      38.729  29.606  28.009  1.00  0.00     0.029 A 
ATOM     58  C   UNL A   1      38.847  29.968  29.342  1.00  0.00     0.049 A 
ATOM     59  H   UNL A   1      40.257  29.320  30.774  1.00  0.00     0.167 HD
ATOM     60  C   UNL A   1      38.206  31.170  31.414  1.00  0.00     0.074 A 
ATOM     61  C   UNL A   1      37.387  32.102  32.160  1.00  0.00     0.031 C 
ATOM     62  C   UNL A   1      38.037  30.890  30.097  1.00  0.00     0.037 A 
BRANCH  49  63
ATOM     63  C   UNL A   1      42.155  26.879  27.829  1.00  0.00     0.064 A 
ATOM     64  C   UNL A   1      43.097  27.440  26.952  1.00  0.00     0.173 A 
ATOM     65  C   UNL A   1      41.730  25.565  27.579  1.00  0.00     0.173 A 
ATOM     66  F   UNL A   1      43.529  28.695  27.137  1.00  0.00    -0.203 F 
ATOM     67  C   UNL A   1      43.573  26.722  25.857  1.00  0.00     0.198 A 
ATOM     68  C   UNL A   1      42.233  24.839  26.503  1.00  0.00     0.198 A 
ATOM     69  F   UNL A   1      40.835  24.978  28.387  1.00  0.00    -0.203 F 
ATOM     70  F   UNL A   1      44.435  27.295  25.006  1.00  0.00    -0.200 F 
ATOM     71  C   UNL A   1      43.147  25.420  25.637  1.00  0.00     0.200 A 
ATOM     72  F   UNL A   1      41.831  23.576  26.302  1.00  0.00    -0.200 F 
ATOM     73  F   UNL A   1      43.613  24.728  24.589  1.00  0.00    -0.200 F 
ENDBRANCH  49  63
BRANCH  50  74
ATOM     74  C   UNL A   1      39.168  31.831  35.975  1.00  0.00     0.064 A 
ATOM     75  C   UNL A   1      39.736  33.078  36.273  1.00  0.00     0.173 A 
ATOM     76  C   UNL A   1      38.197  31.331  36.856  1.00  0.00     0.173 A 
ATOM     77  F   UNL A   1      40.686  33.588  35.476  1.00  0.00    -0.203 F 
ATOM     78  C   UNL A   1      39.364  33.783  37.416  1.00  0.00     0.198 A 
ATOM     79  C   UNL A   1      37.803  32.052  37.980  1.00  0.00     0.198 A 
ATOM     80  F   UNL A   1      37.623  30.142  36.618  1.00  0.00    -0.203 F 
ATOM     81  F   UNL A   1      39.961  34.948  37.705  1.00  0.00    -0.200 F 
ATOM     82  C   UNL A   1      38.393  33.274  38.264  1.00  0.00     0.200 A 
ATOM     83  F   UNL A   1      36.854  31.562  38.788  1.00  0.00    -0.200 F 
ATOM     84  F   UNL A   1      38.033  33.954  39.361  1.00  0.00    -0.200 F 
ENDBRANCH  50  74
BRANCH  62  85
ATOM     85  C   UNL A   1      36.898  31.567  29.387  1.00  0.00     0.064 A 
ATOM     86  C   UNL A   1      35.741  30.870  29.010  1.00  0.00     0.173 A 
ATOM     87  C   UNL A   1      36.951  32.943  29.113  1.00  0.00     0.173 A 
ATOM     88  F   UNL A   1      35.644  29.551  29.236  1.00  0.00    -0.203 F 
ATOM     89  C   UNL A   1      34.694  31.518  28.357  1.00  0.00     0.198 A 
ATOM     90  C   UNL A   1      35.888  33.594  28.494  1.00  0.00     0.198 A 
ATOM     91  F   UNL A   1      38.030  33.661  29.460  1.00  0.00    -0.203 F 
ATOM     92  F   UNL A   1      33.622  30.819  27.957  1.00  0.00    -0.200 F 
ATOM     93  C   UNL A   1      34.765  32.880  28.107  1.00  0.00     0.200 A 
ATOM     94  F   UNL A   1      35.952  34.914  28.269  1.00  0.00    -0.200 F 
ATOM     95  F   UNL A   1      33.753  33.502  27.487  1.00  0.00    -0.200 F 
ENDBRANCH  62  85
ENDBRANCH  36  37
ENDBRANCH  29  31
ENDBRANCH  28  29
ENDBRANCH  27  28
ENDBRANCH  26  27
ENDBRANCH  25  26
ENDBRANCH   1  25
TORSDOF 17
ENDMDL
MODEL 2
REMARK VINA RESULT:     -11.3      8.494     13.574
REMARK SMILES CN1C(=O)CC[C@H]([NH2+]Cc2ccc(C(=O)OCCOCCOC(=O)c3ccc(-c4c5nc(c(-c6c(F)c(F)c(F)c(F)c6F)c6ccc([nH]6)c(-c6c(F)c(F)c(F)c(F)c6F)c6nc(c(-c7c(F)c(F)c(F)c(F)c7F)c7ccc4[nH]7)C=C6)C=C5)cc3)cn2)C1=O
REMARK SMILES IDX 18 1 17 2 16 3 14 4 15 5 13 6 10 7 11 8 89 9 12 10 88 11
REMARK SMILES IDX 9 12 8 13 7 16 1 17 2 18 3 19 90 20 4 21 5 22 91 23 6 24
REMARK SMILES IDX 19 25 20 26 21 27 22 28 23 29 24 30 25 31 26 32 87 33 27 34
REMARK SMILES IDX 86 35 28 36 29 37 30 38 80 39 31 40 85 41 79 42 81 43 32 44
REMARK SMILES IDX 84 45 78 46 77 47 33 49 65 50 45 51 64 52 46 53 49 54 63 55
REMARK SMILES IDX 82 56 47 57 48 58 62 60 83 61 50 62 34 63 35 64 43 65 36 66
REMARK SMILES IDX 37 67 41 68 44 69 38 70 39 71 42 72 40 73 66 74 67 75 75 76
REMARK SMILES IDX 68 77 69 78 73 79 76 80 70 81 71 82 74 83 72 84 51 85 52 86
REMARK SMILES IDX 60 87 53 88 54 89 58 90 61 91 55 92 56 93 59 94 57 95
REMARK H PARENT 8 14 8 15 81 48 49 59
REMARK Flexibility Score: inf
ROOT
ATOM      1  C   UNL A   1      33.415  29.594  26.642  1.00  0.00     0.202 C 
ENDROOT
BRANCH   1   2
ATOM      2  C   UNL A   1      32.620  29.246  25.380  1.00  0.00     0.261 C 
BRANCH   2   3
ATOM      3  O   UNL A   1      31.522  28.373  25.681  1.00  0.00    -0.460 OA
BRANCH   3   4
ATOM      4  C   UNL A   1      30.935  27.804  24.601  1.00  0.00     0.339 C 
ATOM      5  O   UNL A   1      30.629  28.354  23.556  1.00  0.00    -0.246 OA
BRANCH   4   6
ATOM      6  C   UNL A   1      30.883  26.346  24.788  1.00  0.00     0.078 A 
ATOM      7  C   UNL A   1      30.844  23.668  25.377  1.00  0.00     0.094 A 
ATOM      8  C   UNL A   1      30.876  24.070  24.037  1.00  0.00     0.031 A 
ATOM      9  N   UNL A   1      30.730  24.554  26.394  1.00  0.00    -0.254 NA
ATOM     10  C   UNL A   1      30.886  25.430  23.738  1.00  0.00     0.019 A 
ATOM     11  C   UNL A   1      30.782  25.867  26.085  1.00  0.00     0.127 A 
BRANCH   7  12
ATOM     12  C   UNL A   1      31.156  22.224  25.736  1.00  0.00     0.318 C 
BRANCH  12  13
ATOM     13  N   UNL A   1      32.106  22.211  26.855  1.00  0.00    -0.331 N 
ATOM     14  H   UNL A   1      32.081  23.135  27.284  1.00  0.00     0.347 HD
ATOM     15  H   UNL A   1      31.793  21.441  27.447  1.00  0.00     0.347 HD
BRANCH  13  16
ATOM     16  C   UNL A   1      33.509  21.902  26.560  1.00  0.00     0.274 C 
ATOM     17  C   UNL A   1      36.737  23.703  25.869  1.00  0.00     0.156 C 
ATOM     18  N   UNL A   1      35.679  22.718  25.755  1.00  0.00    -0.281 N 
ATOM     19  C   UNL A   1      35.913  21.617  24.950  1.00  0.00     0.229 C 
ATOM     20  C   UNL A   1      34.407  23.094  26.178  1.00  0.00     0.287 C 
ATOM     21  O   UNL A   1      36.924  21.499  24.254  1.00  0.00    -0.274 OA
ATOM     22  C   UNL A   1      34.891  20.505  24.995  1.00  0.00     0.107 C 
ATOM     23  O   UNL A   1      34.088  24.275  26.267  1.00  0.00    -0.267 OA
ATOM     24  C   UNL A   1      33.492  20.951  25.365  1.00  0.00     0.085 C 
ENDBRANCH  13  16
ENDBRANCH  12  13
ENDBRANCH   7  12
ENDBRANCH   4   6
ENDBRANCH   3   4
ENDBRANCH   2   3
ENDBRANCH   1   2
BRANCH   1  25
ATOM     25  O   UNL A   1      33.156  30.853  27.259  1.00  0.00    -0.374 OA
BRANCH  25  26
ATOM     26  C   UNL A   1      31.963  31.547  26.897  1.00  0.00     0.202 C 
BRANCH  26  27
ATOM     27  C   UNL A   1      31.887  33.049  27.192  1.00  0.00     0.261 C 
BRANCH  27  28
ATOM     28  O   UNL A   1      33.182  33.653  27.362  1.00  0.00    -0.460 OA
BRANCH  28  29
ATOM     29  C   UNL A   1      33.287  34.458  28.448  1.00  0.00     0.338 C 
ATOM     30  O   UNL A   1      32.521  35.337  28.801  1.00  0.00    -0.246 OA
BRANCH  29  31
ATOM     31  C   UNL A   1      34.410  34.007  29.291  1.00  0.00     0.060 A 
ATOM     32  C   UNL A   1      35.704  34.375  28.901  1.00  0.00     0.016 A 
ATOM     33  C   UNL A   1      34.206  33.181  30.397  1.00  0.00     0.016 A 
ATOM     34  C   UNL A   1      36.806  33.887  29.597  1.00  0.00     0.010 A 
ATOM     35  C   UNL A   1      35.314  32.685  31.088  1.00  0.00     0.010 A 
ATOM     36  C   UNL A   1      36.619  33.013  30.676  1.00  0.00    -0.014 A 
BRANCH  36  37
ATOM     37  C   UNL A   1      37.791  32.354  31.305  1.00  0.00     0.031 A 
ATOM     38  C   UNL A   1      38.515  31.271  30.556  1.00  0.00     0.074 A 
ATOM     39  C   UNL A   1      38.205  32.727  32.528  1.00  0.00     0.049 A 
ATOM     40  N   UNL A   1      39.512  30.516  30.944  1.00  0.00    -0.248 NA
ATOM     41  C   UNL A   1      38.051  31.000  29.187  1.00  0.00     0.031 C 
ATOM     42  C   UNL A   1      37.609  33.791  33.332  1.00  0.00     0.029 A 
ATOM     43  N   UNL A   1      39.221  32.239  33.312  1.00  0.00    -0.354 N 
ATOM     44  C   UNL A   1      39.787  29.676  29.873  1.00  0.00     0.074 A 
ATOM     45  C   UNL A   1      38.833  29.992  28.832  1.00  0.00     0.031 C 
ATOM     46  C   UNL A   1      38.262  33.869  34.504  1.00  0.00     0.029 A 
ATOM     47  C   UNL A   1      39.292  32.833  34.547  1.00  0.00     0.049 A 
ATOM     48  H   UNL A   1      39.839  31.532  33.017  1.00  0.00     0.167 HD
ATOM     49  C   UNL A   1      40.754  28.733  29.770  1.00  0.00     0.037 A 
ATOM     50  C   UNL A   1      40.080  32.551  35.603  1.00  0.00     0.037 A 
ATOM     51  C   UNL A   1      41.699  28.424  30.812  1.00  0.00     0.049 A 
ATOM     52  C   UNL A   1      41.094  31.442  35.490  1.00  0.00     0.074 A 
ATOM     53  C   UNL A   1      42.731  27.503  30.796  1.00  0.00     0.029 A 
ATOM     54  N   UNL A   1      41.721  29.025  32.063  1.00  0.00    -0.354 N 
ATOM     55  N   UNL A   1      41.366  30.667  34.467  1.00  0.00    -0.248 NA
ATOM     56  C   UNL A   1      41.912  31.168  36.681  1.00  0.00     0.031 C 
ATOM     57  C   UNL A   1      43.336  27.498  32.057  1.00  0.00     0.029 A 
ATOM     58  C   UNL A   1      42.727  28.468  32.838  1.00  0.00     0.049 A 
ATOM     59  H   UNL A   1      41.113  29.741  32.356  1.00  0.00     0.167 HD
ATOM     60  C   UNL A   1      42.404  29.840  34.878  1.00  0.00     0.074 A 
ATOM     61  C   UNL A   1      42.722  30.218  36.240  1.00  0.00     0.031 C 
ATOM     62  C   UNL A   1      43.037  28.856  34.191  1.00  0.00     0.037 A 
BRANCH  49  63
ATOM     63  C   UNL A   1      40.819  27.938  28.496  1.00  0.00     0.064 A 
ATOM     64  C   UNL A   1      41.566  28.373  27.389  1.00  0.00     0.173 A 
ATOM     65  C   UNL A   1      40.158  26.705  28.395  1.00  0.00     0.173 A 
ATOM     66  F   UNL A   1      42.208  29.549  27.427  1.00  0.00    -0.203 F 
ATOM     67  C   UNL A   1      41.625  27.614  26.222  1.00  0.00     0.198 A 
ATOM     68  C   UNL A   1      40.246  25.934  27.240  1.00  0.00     0.198 A 
ATOM     69  F   UNL A   1      39.433  26.240  29.424  1.00  0.00    -0.203 F 
ATOM     70  F   UNL A   1      42.304  28.071  25.162  1.00  0.00    -0.200 F 
ATOM     71  C   UNL A   1      40.973  26.392  26.151  1.00  0.00     0.200 A 
ATOM     72  F   UNL A   1      39.627  24.746  27.179  1.00  0.00    -0.200 F 
ATOM     73  F   UNL A   1      41.039  25.658  25.032  1.00  0.00    -0.200 F 
ENDBRANCH  49  63
BRANCH  50  74
ATOM     74  C   UNL A   1      39.930  33.318  36.868  1.00  0.00     0.064 A 
ATOM     75  C   UNL A   1      40.744  34.425  37.144  1.00  0.00     0.173 A 
ATOM     76  C   UNL A   1      38.983  32.948  37.835  1.00  0.00     0.173 A 
ATOM     77  F   UNL A   1      41.681  34.803  36.261  1.00  0.00    -0.203 F 
ATOM     78  C   UNL A   1      40.631  35.120  38.347  1.00  0.00     0.198 A 
ATOM     79  C   UNL A   1      38.849  33.663  39.023  1.00  0.00     0.198 A 
ATOM     80  F   UNL A   1      38.180  31.896  37.622  1.00  0.00    -0.203 F 
ATOM     81  F   UNL A   1      41.458  36.142  38.608  1.00  0.00    -0.200 F 
ATOM     82  C   UNL A   1      39.679  34.743  39.282  1.00  0.00     0.200 A 
ATOM     83  F   UNL A   1      37.918  33.304  39.916  1.00  0.00    -0.200 F 
ATOM     84  F   UNL A   1      39.569  35.413  40.437  1.00  0.00    -0.200 F 
ENDBRANCH  50  74
BRANCH  62  85
ATOM     85  C   UNL A   1      44.167  28.146  34.883  1.00  0.00     0.064 A 
ATOM     86  C   UNL A   1      43.964  26.963  35.609  1.00  0.00     0.173 A 
ATOM     87  C   UNL A   1      45.478  28.638  34.787  1.00  0.00     0.173 A 
ATOM     88  F   UNL A   1      42.728  26.457  35.743  1.00  0.00    -0.203 F 
ATOM     89  C   UNL A   1      45.026  26.317  36.238  1.00  0.00     0.198 A 
ATOM     90  C   UNL A   1      46.542  27.970  35.387  1.00  0.00     0.198 A 
ATOM     91  F   UNL A   1      45.731  29.761  34.098  1.00  0.00    -0.203 F 
ATOM     92  F   UNL A   1      44.798  25.219  36.973  1.00  0.00    -0.200 F 
ATOM     93  C   UNL A   1      46.314  26.816  36.120  1.00  0.00     0.200 A 
ATOM     94  F   UNL A   1      47.789  28.445  35.256  1.00  0.00    -0.200 F 
ATOM     95  F   UNL A   1      47.335  26.188  36.720  1.00  0.00    -0.200 F 
ENDBRANCH  62  85
ENDBRANCH  36  37
ENDBRANCH  29  31
ENDBRANCH  28  29
ENDBRANCH  27  28
ENDBRANCH  26  27
ENDBRANCH  25  26
ENDBRANCH   1  25
TORSDOF 17
ENDMDL
MODEL 3
REMARK VINA RESULT:     -11.3      9.025     16.465
REMARK SMILES CN1C(=O)CC[C@H]([NH2+]Cc2ccc(C(=O)OCCOCCOC(=O)c3ccc(-c4c5nc(c(-c6c(F)c(F)c(F)c(F)c6F)c6ccc([nH]6)c(-c6c(F)c(F)c(F)c(F)c6F)c6nc(c(-c7c(F)c(F)c(F)c(F)c7F)c7ccc4[nH]7)C=C6)C=C5)cc3)cn2)C1=O
REMARK SMILES IDX 18 1 17 2 16 3 14 4 15 5 13 6 10 7 11 8 89 9 12 10 88 11
REMARK SMILES IDX 9 12 8 13 7 16 1 17 2 18 3 19 90 20 4 21 5 22 91 23 6 24
REMARK SMILES IDX 19 25 20 26 21 27 22 28 23 29 24 30 25 31 26 32 87 33 27 34
REMARK SMILES IDX 86 35 28 36 29 37 30 38 80 39 31 40 85 41 79 42 81 43 32 44
REMARK SMILES IDX 84 45 78 46 77 47 33 49 65 50 45 51 64 52 46 53 49 54 63 55
REMARK SMILES IDX 82 56 47 57 48 58 62 60 83 61 50 62 34 63 35 64 43 65 36 66
REMARK SMILES IDX 37 67 41 68 44 69 38 70 39 71 42 72 40 73 66 74 67 75 75 76
REMARK SMILES IDX 68 77 69 78 73 79 76 80 70 81 71 82 74 83 72 84 51 85 52 86
REMARK SMILES IDX 60 87 53 88 54 89 58 90 61 91 55 92 56 93 59 94 57 95
REMARK H PARENT 8 14 8 15 81 48 49 59
REMARK Flexibility Score: inf
ROOT
ATOM      1  C   UNL A   1      34.972  32.215  29.335  1.00  0.00     0.202 C 
ENDROOT
BRANCH   1   2
ATOM      2  C   UNL A   1      35.196  32.002  27.835  1.00  0.00     0.261 C 
BRANCH   2   3
ATOM      3  O   UNL A   1      34.687  30.729  27.410  1.00  0.00    -0.460 OA
BRANCH   3   4
ATOM      4  C   UNL A   1      33.349  30.692  27.202  1.00  0.00     0.339 C 
ATOM      5  O   UNL A   1      32.605  31.644  27.034  1.00  0.00    -0.246 OA
BRANCH   4   6
ATOM      6  C   UNL A   1      32.926  29.297  27.011  1.00  0.00     0.078 A 
ATOM      7  C   UNL A   1      32.331  26.668  26.501  1.00  0.00     0.094 A 
ATOM      8  C   UNL A   1      31.372  27.475  27.122  1.00  0.00     0.031 A 
ATOM      9  N   UNL A   1      33.582  27.110  26.233  1.00  0.00    -0.254 NA
ATOM     10  C   UNL A   1      31.678  28.807  27.389  1.00  0.00     0.019 A 
ATOM     11  C   UNL A   1      33.845  28.414  26.463  1.00  0.00     0.127 A 
BRANCH   7  12
ATOM     12  C   UNL A   1      31.919  25.328  25.912  1.00  0.00     0.318 C 
BRANCH  12  13
ATOM     13  N   UNL A   1      31.518  25.531  24.515  1.00  0.00    -0.331 N 
ATOM     14  H   UNL A   1      32.320  25.298  23.932  1.00  0.00     0.347 HD
ATOM     15  H   UNL A   1      30.698  24.936  24.396  1.00  0.00     0.347 HD
BRANCH  13  16
ATOM     16  C   UNL A   1      31.063  26.869  24.120  1.00  0.00     0.274 C 
ATOM     17  C   UNL A   1      27.901  28.601  23.052  1.00  0.00     0.156 C 
ATOM     18  N   UNL A   1      29.302  28.230  23.087  1.00  0.00    -0.281 N 
ATOM     19  C   UNL A   1      30.183  28.985  22.331  1.00  0.00     0.229 C 
ATOM     20  C   UNL A   1      29.619  26.973  23.594  1.00  0.00     0.287 C 
ATOM     21  O   UNL A   1      29.814  29.872  21.560  1.00  0.00    -0.274 OA
ATOM     22  C   UNL A   1      31.657  28.719  22.528  1.00  0.00     0.107 C 
ATOM     23  O   UNL A   1      28.784  26.075  23.640  1.00  0.00    -0.267 OA
ATOM     24  C   UNL A   1      31.987  27.314  22.989  1.00  0.00     0.085 C 
ENDBRANCH  13  16
ENDBRANCH  12  13
ENDBRANCH   7  12
ENDBRANCH   4   6
ENDBRANCH   3   4
ENDBRANCH   2   3
ENDBRANCH   1   2
BRANCH   1  25
ATOM     25  O   UNL A   1      33.956  33.136  29.726  1.00  0.00    -0.374 OA
BRANCH  25  26
ATOM     26  C   UNL A   1      33.930  34.416  29.096  1.00  0.00     0.202 C 
BRANCH  26  27
ATOM     27  C   UNL A   1      33.025  35.496  29.700  1.00  0.00     0.261 C 
BRANCH  27  28
ATOM     28  O   UNL A   1      32.432  35.097  30.948  1.00  0.00    -0.460 OA
BRANCH  28  29
ATOM     29  C   UNL A   1      32.885  35.779  32.028  1.00  0.00     0.338 C 
ATOM     30  O   UNL A   1      32.380  36.750  32.563  1.00  0.00    -0.246 OA
BRANCH  29  31
ATOM     31  C   UNL A   1      34.035  35.067  32.616  1.00  0.00     0.060 A 
ATOM     32  C   UNL A   1      35.301  35.648  32.473  1.00  0.00     0.016 A 
ATOM     33  C   UNL A   1      33.887  33.822  33.228  1.00  0.00     0.016 A 
ATOM     34  C   UNL A   1      36.433  34.967  32.912  1.00  0.00     0.010 A 
ATOM     35  C   UNL A   1      35.025  33.136  33.659  1.00  0.00     0.010 A 
ATOM     36  C   UNL A   1      36.305  33.692  33.479  1.00  0.00    -0.014 A 
BRANCH  36  37
ATOM     37  C   UNL A   1      37.518  32.894  33.784  1.00  0.00     0.031 A 
ATOM     38  C   UNL A   1      38.264  33.150  35.063  1.00  0.00     0.074 A 
ATOM     39  C   UNL A   1      37.942  31.946  32.930  1.00  0.00     0.049 A 
ATOM     40  N   UNL A   1      39.383  32.623  35.493  1.00  0.00    -0.248 NA
ATOM     41  C   UNL A   1      37.672  34.136  35.980  1.00  0.00     0.031 C 
ATOM     42  C   UNL A   1      37.279  31.581  31.680  1.00  0.00     0.029 A 
ATOM     43  N   UNL A   1      39.042  31.127  32.982  1.00  0.00    -0.354 N 
ATOM     44  C   UNL A   1      39.632  33.218  36.722  1.00  0.00     0.074 A 
ATOM     45  C   UNL A   1      38.567  34.169  36.956  1.00  0.00     0.031 C 
ATOM     46  C   UNL A   1      37.993  30.617  31.074  1.00  0.00     0.029 A 
ATOM     47  C   UNL A   1      39.183  30.330  31.873  1.00  0.00     0.049 A 
ATOM     48  H   UNL A   1      39.669  31.113  33.740  1.00  0.00     0.167 HD
ATOM     49  C   UNL A   1      40.656  32.986  37.579  1.00  0.00     0.037 A 
ATOM     50  C   UNL A   1      40.177  29.487  31.530  1.00  0.00     0.037 A 
ATOM     51  C   UNL A   1      41.713  32.038  37.338  1.00  0.00     0.049 A 
ATOM     52  C   UNL A   1      41.345  29.306  32.464  1.00  0.00     0.074 A 
ATOM     53  C   UNL A   1      42.782  31.712  38.154  1.00  0.00     0.029 A 
ATOM     54  N   UNL A   1      41.841  31.270  36.189  1.00  0.00    -0.354 N 
ATOM     55  N   UNL A   1      41.563  29.853  33.636  1.00  0.00    -0.248 NA
ATOM     56  C   UNL A   1      42.406  28.387  32.027  1.00  0.00     0.031 C 
ATOM     57  C   UNL A   1      43.592  30.797  37.473  1.00  0.00     0.029 A 
ATOM     58  C   UNL A   1      42.990  30.497  36.261  1.00  0.00     0.049 A 
ATOM     59  H   UNL A   1      41.208  31.273  35.435  1.00  0.00     0.167 HD
ATOM     60  C   UNL A   1      42.765  29.323  34.089  1.00  0.00     0.074 A 
ATOM     61  C   UNL A   1      43.222  28.399  33.071  1.00  0.00     0.031 C 
ATOM     62  C   UNL A   1      43.431  29.577  35.243  1.00  0.00     0.037 A 
BRANCH  49  63
ATOM     63  C   UNL A   1      40.702  33.793  38.845  1.00  0.00     0.064 A 
ATOM     64  C   UNL A   1      40.023  33.391  40.006  1.00  0.00     0.173 A 
ATOM     65  C   UNL A   1      41.471  34.965  38.910  1.00  0.00     0.173 A 
ATOM     66  F   UNL A   1      39.264  32.285  39.996  1.00  0.00    -0.203 F 
ATOM     67  C   UNL A   1      40.091  34.147  41.175  1.00  0.00     0.198 A 
ATOM     68  C   UNL A   1      41.564  35.699  40.089  1.00  0.00     0.198 A 
ATOM     69  F   UNL A   1      42.145  35.393  37.832  1.00  0.00    -0.203 F 
ATOM     70  F   UNL A   1      39.395  33.770  42.255  1.00  0.00    -0.200 F 
ATOM     71  C   UNL A   1      40.868  35.296  41.218  1.00  0.00     0.200 A 
ATOM     72  F   UNL A   1      42.327  36.801  40.132  1.00  0.00    -0.200 F 
ATOM     73  F   UNL A   1      40.940  36.016  42.345  1.00  0.00    -0.200 F 
ENDBRANCH  49  63
BRANCH  50  74
ATOM     74  C   UNL A   1      40.121  28.763  30.233  1.00  0.00     0.064 A 
ATOM     75  C   UNL A   1      39.495  27.513  30.127  1.00  0.00     0.173 A 
ATOM     76  C   UNL A   1      40.709  29.296  29.076  1.00  0.00     0.173 A 
ATOM     77  F   UNL A   1      38.939  26.950  31.211  1.00  0.00    -0.203 F 
ATOM     78  C   UNL A   1      39.477  26.816  28.921  1.00  0.00     0.198 A 
ATOM     79  C   UNL A   1      40.662  28.613  27.863  1.00  0.00     0.198 A 
ATOM     80  F   UNL A   1      41.322  30.488  29.121  1.00  0.00    -0.203 F 
ATOM     81  F   UNL A   1      38.919  25.599  28.861  1.00  0.00    -0.200 F 
ATOM     82  C   UNL A   1      40.055  27.369  27.789  1.00  0.00     0.200 A 
ATOM     83  F   UNL A   1      41.209  29.159  26.768  1.00  0.00    -0.200 F 
ATOM     84  F   UNL A   1      40.035  26.700  26.628  1.00  0.00    -0.200 F 
ENDBRANCH  50  74
BRANCH  62  85
ATOM     85  C   UNL A   1      44.704  28.816  35.489  1.00  0.00     0.064 A 
ATOM     86  C   UNL A   1      45.954  29.319  35.101  1.00  0.00     0.173 A 
ATOM     87  C   UNL A   1      44.674  27.581  36.156  1.00  0.00     0.173 A 
ATOM     88  F   UNL A   1      46.039  30.488  34.448  1.00  0.00    -0.203 F 
ATOM     89  C   UNL A   1      47.123  28.600  35.344  1.00  0.00     0.198 A 
ATOM     90  C   UNL A   1      45.847  26.883  36.429  1.00  0.00     0.198 A 
ATOM     91  F   UNL A   1      43.506  27.057  36.557  1.00  0.00    -0.203 F 
ATOM     92  F   UNL A   1      48.301  29.075  34.914  1.00  0.00    -0.200 F 
ATOM     93  C   UNL A   1      47.069  27.387  36.014  1.00  0.00     0.200 A 
ATOM     94  F   UNL A   1      45.793  25.719  37.093  1.00  0.00    -0.200 F 
ATOM     95  F   UNL A   1      48.195  26.702  36.253  1.00  0.00    -0.200 F 
ENDBRANCH  62  85
ENDBRANCH  36  37
ENDBRANCH  29  31
ENDBRANCH  28  29
ENDBRANCH  27  28
ENDBRANCH  26  27
ENDBRANCH  25  26
ENDBRANCH   1  25
TORSDOF 17
ENDMDL
