MODEL 1
REMARK VINA RESULT:     -11.6      0.000      0.000
REMARK SMILES O=C(N[C@@H]1C=C[C@@H](C(=O)OCCOCCOC(=O)c2ccc(-c3c4nc(c(-c5c(F)c(F)c(F)c(F)c5F)c5ccc([nH]5)c(-c5c(F)c(F)c(F)c(F)c5F)c5nc(c(-c6c(F)c(F)c(F)c(F)c6F)c6ccc3[nH]6)C=C5)C=C4)cc2)C1)Oc1ccccc1
REMARK SMILES IDX 12 1 11 2 10 3 8 4 9 5 7 6 4 7 5 8 82 9 6 10 3 11 1 12 2 13
REMARK SMILES IDX 83 15 84 16 85 17 89 18 86 19 88 20 87 21 13 22 14 23 15 24
REMARK SMILES IDX 16 25 17 26 18 27 19 28 20 29 81 30 21 31 80 32 22 33 23 34
REMARK SMILES IDX 24 35 74 36 25 37 79 38 73 39 75 40 26 41 78 42 72 43 71 44
REMARK SMILES IDX 27 46 59 47 39 48 58 49 40 50 43 51 57 52 76 53 41 54 42 55
REMARK SMILES IDX 56 57 77 58 44 59 28 60 29 61 37 62 30 63 31 64 35 65 38 66
REMARK SMILES IDX 32 67 33 68 36 69 34 70 60 71 61 72 69 73 62 74 63 75 67 76
REMARK SMILES IDX 70 77 64 78 65 79 68 80 66 81 45 82 46 83 54 84 47 85 48 86
REMARK SMILES IDX 52 87 55 88 49 89 50 90 53 91 51 92
REMARK H PARENT 3 14 75 45 43 56
REMARK Flexibility Score: inf
ROOT
ATOM      1  C   UNL A   1      34.025  36.882  32.574  1.00  0.00     0.202 C 
ENDROOT
BRANCH   1   2
ATOM      2  C   UNL A   1      32.703  36.661  31.824  1.00  0.00     0.261 C 
BRANCH   2   3
ATOM      3  O   UNL A   1      32.645  35.342  31.232  1.00  0.00    -0.463 OA
BRANCH   3   4
ATOM      4  C   UNL A   1      32.903  35.311  29.887  1.00  0.00     0.312 C 
ATOM      5  O   UNL A   1      32.556  36.187  29.104  1.00  0.00    -0.252 OA
BRANCH   4   6
ATOM      6  C   UNL A   1      33.833  34.150  29.533  1.00  0.00     0.124 C 
ATOM      7  C   UNL A   1      35.083  33.065  27.722  1.00  0.00     0.109 C 
ATOM      8  C   UNL A   1      35.991  33.792  28.647  1.00  0.00    -0.006 C 
ATOM      9  C   UNL A   1      33.686  33.568  28.122  1.00  0.00     0.049 C 
ATOM     10  C   UNL A   1      35.306  34.453  29.591  1.00  0.00    -0.014 C 
BRANCH   7  11
ATOM     11  N   UNL A   1      35.371  31.641  27.626  1.00  0.00    -0.315 N 
ATOM     12  O   UNL A   1      35.379  29.411  27.697  1.00  0.00    -0.224 OA
ATOM     13  C   UNL A   1      34.714  30.445  27.705  1.00  0.00     0.413 C 
ATOM     14  H   UNL A   1      36.329  31.496  27.449  1.00  0.00     0.167 HD
BRANCH  13  15
ATOM     15  O   UNL A   1      33.345  30.416  27.904  1.00  0.00    -0.410 OA
BRANCH  15  16
ATOM     16  C   UNL A   1      32.510  29.640  27.081  1.00  0.00     0.132 A 
ATOM     17  C   UNL A   1      31.984  30.306  25.971  1.00  0.00     0.047 A 
ATOM     18  C   UNL A   1      32.313  28.276  27.254  1.00  0.00     0.047 A 
ATOM     19  C   UNL A   1      31.424  29.571  24.929  1.00  0.00     0.004 A 
ATOM     20  C   UNL A   1      31.762  27.546  26.206  1.00  0.00     0.004 A 
ATOM     21  C   UNL A   1      31.361  28.186  25.028  1.00  0.00     0.000 A 
ENDBRANCH  15  16
ENDBRANCH  13  15
ENDBRANCH   7  11
ENDBRANCH   4   6
ENDBRANCH   3   4
ENDBRANCH   2   3
ENDBRANCH   1   2
BRANCH   1  22
ATOM     22  O   UNL A   1      34.320  35.960  33.629  1.00  0.00    -0.374 OA
BRANCH  22  23
ATOM     23  C   UNL A   1      35.244  34.928  33.299  1.00  0.00     0.202 C 
BRANCH  23  24
ATOM     24  C   UNL A   1      34.713  33.494  33.396  1.00  0.00     0.261 C 
BRANCH  24  25
ATOM     25  O   UNL A   1      35.497  32.624  32.575  1.00  0.00    -0.460 OA
BRANCH  25  26
ATOM     26  C   UNL A   1      36.495  32.015  33.258  1.00  0.00     0.338 C 
ATOM     27  O   UNL A   1      36.652  31.962  34.459  1.00  0.00    -0.246 OA
BRANCH  26  28
ATOM     28  C   UNL A   1      37.293  31.212  32.320  1.00  0.00     0.060 A 
ATOM     29  C   UNL A   1      38.330  30.460  32.884  1.00  0.00     0.016 A 
ATOM     30  C   UNL A   1      37.069  31.220  30.942  1.00  0.00     0.016 A 
ATOM     31  C   UNL A   1      39.215  29.785  32.062  1.00  0.00     0.010 A 
ATOM     32  C   UNL A   1      37.966  30.545  30.113  1.00  0.00     0.010 A 
ATOM     33  C   UNL A   1      39.072  29.882  30.673  1.00  0.00    -0.014 A 
BRANCH  33  34
ATOM     34  C   UNL A   1      40.222  29.490  29.833  1.00  0.00     0.031 A 
ATOM     35  C   UNL A   1      41.325  30.490  29.628  1.00  0.00     0.074 A 
ATOM     36  C   UNL A   1      40.326  28.239  29.359  1.00  0.00     0.049 A 
ATOM     37  N   UNL A   1      42.451  30.368  28.975  1.00  0.00    -0.248 NA
ATOM     38  C   UNL A   1      41.130  31.809  30.252  1.00  0.00     0.031 C 
ATOM     39  C   UNL A   1      39.346  27.176  29.569  1.00  0.00     0.029 A 
ATOM     40  N   UNL A   1      41.316  27.651  28.617  1.00  0.00    -0.354 N 
ATOM     41  C   UNL A   1      43.091  31.594  29.102  1.00  0.00     0.074 A 
ATOM     42  C   UNL A   1      42.213  32.459  29.857  1.00  0.00     0.031 C 
ATOM     43  C   UNL A   1      39.791  26.055  28.978  1.00  0.00     0.029 A 
ATOM     44  C   UNL A   1      41.065  26.337  28.319  1.00  0.00     0.049 A 
ATOM     45  H   UNL A   1      42.128  28.127  28.328  1.00  0.00     0.167 HD
ATOM     46  C   UNL A   1      44.310  31.959  28.638  1.00  0.00     0.037 A 
ATOM     47  C   UNL A   1      41.786  25.469  27.586  1.00  0.00     0.037 A 
ATOM     48  C   UNL A   1      45.170  31.084  27.885  1.00  0.00     0.049 A 
ATOM     49  C   UNL A   1      43.091  25.928  26.992  1.00  0.00     0.074 A 
ATOM     50  C   UNL A   1      46.427  31.340  27.370  1.00  0.00     0.029 A 
ATOM     51  N   UNL A   1      44.846  29.781  27.528  1.00  0.00    -0.354 N 
ATOM     52  N   UNL A   1      43.700  27.083  27.119  1.00  0.00    -0.248 NA
ATOM     53  C   UNL A   1      43.808  24.961  26.152  1.00  0.00     0.031 C 
ATOM     54  C   UNL A   1      46.833  30.216  26.641  1.00  0.00     0.029 A 
ATOM     55  C   UNL A   1      45.863  29.233  26.763  1.00  0.00     0.049 A 
ATOM     56  H   UNL A   1      44.016  29.316  27.780  1.00  0.00     0.167 HD
ATOM     57  C   UNL A   1      44.885  26.973  26.403  1.00  0.00     0.074 A 
ATOM     58  C   UNL A   1      44.911  25.633  25.853  1.00  0.00     0.031 C 
ATOM     59  C   UNL A   1      45.865  27.896  26.222  1.00  0.00     0.037 A 
BRANCH  46  60
ATOM     60  C   UNL A   1      44.744  33.377  28.888  1.00  0.00     0.064 A 
ATOM     61  C   UNL A   1      44.377  34.433  28.038  1.00  0.00     0.173 A 
ATOM     62  C   UNL A   1      45.564  33.678  29.985  1.00  0.00     0.173 A 
ATOM     63  F   UNL A   1      43.608  34.199  26.964  1.00  0.00    -0.203 F 
ATOM     64  C   UNL A   1      44.857  35.724  28.249  1.00  0.00     0.198 A 
ATOM     65  C   UNL A   1      46.011  34.977  30.214  1.00  0.00     0.198 A 
ATOM     66  F   UNL A   1      45.944  32.711  30.833  1.00  0.00    -0.203 F 
ATOM     67  F   UNL A   1      44.557  36.698  27.378  1.00  0.00    -0.200 F 
ATOM     68  C   UNL A   1      45.670  35.996  29.338  1.00  0.00     0.200 A 
ATOM     69  F   UNL A   1      46.786  35.241  31.276  1.00  0.00    -0.200 F 
ATOM     70  F   UNL A   1      46.138  37.237  29.535  1.00  0.00    -0.200 F 
ENDBRANCH  46  60
BRANCH  47  71
ATOM     71  C   UNL A   1      41.287  24.085  27.387  1.00  0.00     0.064 A 
ATOM     72  C   UNL A   1      40.202  23.826  26.538  1.00  0.00     0.173 A 
ATOM     73  C   UNL A   1      41.900  22.992  28.016  1.00  0.00     0.173 A 
ATOM     74  F   UNL A   1      39.571  24.840  25.930  1.00  0.00    -0.203 F 
ATOM     75  C   UNL A   1      39.746  22.525  26.332  1.00  0.00     0.198 A 
ATOM     76  C   UNL A   1      41.462  21.690  27.789  1.00  0.00     0.198 A 
ATOM     77  F   UNL A   1      42.943  23.188  28.838  1.00  0.00    -0.203 F 
ATOM     78  F   UNL A   1      38.689  22.306  25.539  1.00  0.00    -0.200 F 
ATOM     79  C   UNL A   1      40.383  21.458  26.950  1.00  0.00     0.200 A 
ATOM     80  F   UNL A   1      42.089  20.661  28.375  1.00  0.00    -0.200 F 
ATOM     81  F   UNL A   1      39.953  20.206  26.739  1.00  0.00    -0.200 F 
ENDBRANCH  47  71
BRANCH  59  82
ATOM     82  C   UNL A   1      47.064  27.473  25.421  1.00  0.00     0.064 A 
ATOM     83  C   UNL A   1      47.181  27.764  24.054  1.00  0.00     0.173 A 
ATOM     84  C   UNL A   1      48.130  26.802  26.042  1.00  0.00     0.173 A 
ATOM     85  F   UNL A   1      46.185  28.391  23.409  1.00  0.00    -0.203 F 
ATOM     86  C   UNL A   1      48.306  27.372  23.332  1.00  0.00     0.198 A 
ATOM     87  C   UNL A   1      49.268  26.444  25.325  1.00  0.00     0.198 A 
ATOM     88  F   UNL A   1      48.072  26.506  27.349  1.00  0.00    -0.203 F 
ATOM     89  F   UNL A   1      48.370  27.612  22.015  1.00  0.00    -0.200 F 
ATOM     90  C   UNL A   1      49.351  26.720  23.969  1.00  0.00     0.200 A 
ATOM     91  F   UNL A   1      50.284  25.831  25.948  1.00  0.00    -0.200 F 
ATOM     92  F   UNL A   1      50.436  26.353  23.275  1.00  0.00    -0.200 F 
ENDBRANCH  59  82
ENDBRANCH  33  34
ENDBRANCH  26  28
ENDBRANCH  25  26
ENDBRANCH  24  25
ENDBRANCH  23  24
ENDBRANCH  22  23
ENDBRANCH   1  22
TORSDOF 17
ENDMDL
MODEL 2
REMARK VINA RESULT:     -11.5      5.962     11.799
REMARK SMILES O=C(N[C@@H]1C=C[C@@H](C(=O)OCCOCCOC(=O)c2ccc(-c3c4nc(c(-c5c(F)c(F)c(F)c(F)c5F)c5ccc([nH]5)c(-c5c(F)c(F)c(F)c(F)c5F)c5nc(c(-c6c(F)c(F)c(F)c(F)c6F)c6ccc3[nH]6)C=C5)C=C4)cc2)C1)Oc1ccccc1
REMARK SMILES IDX 12 1 11 2 10 3 8 4 9 5 7 6 4 7 5 8 82 9 6 10 3 11 1 12 2 13
REMARK SMILES IDX 83 15 84 16 85 17 89 18 86 19 88 20 87 21 13 22 14 23 15 24
REMARK SMILES IDX 16 25 17 26 18 27 19 28 20 29 81 30 21 31 80 32 22 33 23 34
REMARK SMILES IDX 24 35 74 36 25 37 79 38 73 39 75 40 26 41 78 42 72 43 71 44
REMARK SMILES IDX 27 46 59 47 39 48 58 49 40 50 43 51 57 52 76 53 41 54 42 55
REMARK SMILES IDX 56 57 77 58 44 59 28 60 29 61 37 62 30 63 31 64 35 65 38 66
REMARK SMILES IDX 32 67 33 68 36 69 34 70 60 71 61 72 69 73 62 74 63 75 67 76
REMARK SMILES IDX 70 77 64 78 65 79 68 80 66 81 45 82 46 83 54 84 47 85 48 86
REMARK SMILES IDX 52 87 55 88 49 89 50 90 53 91 51 92
REMARK H PARENT 3 14 75 45 43 56
REMARK Flexibility Score: inf
ROOT
ATOM      1  C   UNL A   1      40.614  20.949  26.283  1.00  0.00     0.202 C 
ENDROOT
BRANCH   1   2
ATOM      2  C   UNL A   1      39.646  22.068  26.695  1.00  0.00     0.261 C 
BRANCH   2   3
ATOM      3  O   UNL A   1      38.563  22.206  25.744  1.00  0.00    -0.463 OA
BRANCH   3   4
ATOM      4  C   UNL A   1      37.777  23.312  25.936  1.00  0.00     0.312 C 
ATOM      5  O   UNL A   1      38.172  24.351  26.452  1.00  0.00    -0.252 OA
BRANCH   4   6
ATOM      6  C   UNL A   1      36.418  23.144  25.256  1.00  0.00     0.124 C 
ATOM      7  C   UNL A   1      34.230  22.044  25.398  1.00  0.00     0.109 C 
ATOM      8  C   UNL A   1      34.131  23.492  25.718  1.00  0.00    -0.006 C 
ATOM      9  C   UNL A   1      35.744  21.776  25.416  1.00  0.00     0.049 C 
ATOM     10  C   UNL A   1      35.336  24.079  25.721  1.00  0.00    -0.014 C 
BRANCH   7  11
ATOM     11  N   UNL A   1      33.408  21.642  24.266  1.00  0.00    -0.315 N 
ATOM     12  O   UNL A   1      32.133  20.597  22.761  1.00  0.00    -0.224 OA
ATOM     13  C   UNL A   1      32.533  20.650  23.923  1.00  0.00     0.413 C 
ATOM     14  H   UNL A   1      33.513  22.279  23.522  1.00  0.00     0.167 HD
BRANCH  13  15
ATOM     15  O   UNL A   1      32.201  19.668  24.841  1.00  0.00    -0.410 OA
BRANCH  15  16
ATOM     16  C   UNL A   1      32.990  18.513  24.982  1.00  0.00     0.132 A 
ATOM     17  C   UNL A   1      32.424  17.496  25.756  1.00  0.00     0.047 A 
ATOM     18  C   UNL A   1      34.186  18.312  24.304  1.00  0.00     0.047 A 
ATOM     19  C   UNL A   1      32.954  16.211  25.696  1.00  0.00     0.004 A 
ATOM     20  C   UNL A   1      34.705  17.024  24.241  1.00  0.00     0.004 A 
ATOM     21  C   UNL A   1      34.065  15.966  24.897  1.00  0.00     0.000 A 
ENDBRANCH  15  16
ENDBRANCH  13  15
ENDBRANCH   7  11
ENDBRANCH   4   6
ENDBRANCH   3   4
ENDBRANCH   2   3
ENDBRANCH   1   2
BRANCH   1  22
ATOM     22  O   UNL A   1      41.669  21.319  25.388  1.00  0.00    -0.374 OA
BRANCH  22  23
ATOM     23  C   UNL A   1      42.987  21.205  25.916  1.00  0.00     0.202 C 
BRANCH  23  24
ATOM     24  C   UNL A   1      44.002  22.241  25.421  1.00  0.00     0.261 C 
BRANCH  24  25
ATOM     25  O   UNL A   1      43.321  23.369  24.864  1.00  0.00    -0.460 OA
BRANCH  25  26
ATOM     26  C   UNL A   1      43.965  24.537  25.095  1.00  0.00     0.338 C 
ATOM     27  O   UNL A   1      44.990  24.936  24.586  1.00  0.00    -0.246 OA
BRANCH  26  28
ATOM     28  C   UNL A   1      43.109  25.394  25.929  1.00  0.00     0.060 A 
ATOM     29  C   UNL A   1      43.586  26.688  26.170  1.00  0.00     0.016 A 
ATOM     30  C   UNL A   1      41.911  24.947  26.489  1.00  0.00     0.016 A 
ATOM     31  C   UNL A   1      42.915  27.514  27.054  1.00  0.00     0.010 A 
ATOM     32  C   UNL A   1      41.239  25.777  27.387  1.00  0.00     0.010 A 
ATOM     33  C   UNL A   1      41.778  27.034  27.714  1.00  0.00    -0.014 A 
BRANCH  33  34
ATOM     34  C   UNL A   1      41.317  27.765  28.912  1.00  0.00     0.031 A 
ATOM     35  C   UNL A   1      42.131  27.651  30.170  1.00  0.00     0.074 A 
ATOM     36  C   UNL A   1      40.262  28.591  28.843  1.00  0.00     0.049 A 
ATOM     37  N   UNL A   1      41.958  28.228  31.330  1.00  0.00    -0.248 NA
ATOM     38  C   UNL A   1      43.305  26.765  30.107  1.00  0.00     0.031 C 
ATOM     39  C   UNL A   1      39.455  28.827  27.648  1.00  0.00     0.029 A 
ATOM     40  N   UNL A   1      39.702  29.396  29.799  1.00  0.00    -0.354 N 
ATOM     41  C   UNL A   1      42.994  27.769  32.134  1.00  0.00     0.074 A 
ATOM     42  C   UNL A   1      43.765  26.835  31.346  1.00  0.00     0.031 C 
ATOM     43  C   UNL A   1      38.507  29.732  27.939  1.00  0.00     0.029 A 
ATOM     44  C   UNL A   1      38.619  30.105  29.347  1.00  0.00     0.049 A 
ATOM     45  H   UNL A   1      40.045  29.459  30.719  1.00  0.00     0.167 HD
ATOM     46  C   UNL A   1      43.280  28.108  33.414  1.00  0.00     0.037 A 
ATOM     47  C   UNL A   1      37.809  30.951  30.009  1.00  0.00     0.037 A 
ATOM     48  C   UNL A   1      42.497  29.038  34.184  1.00  0.00     0.049 A 
ATOM     49  C   UNL A   1      38.085  31.235  31.462  1.00  0.00     0.074 A 
ATOM     50  C   UNL A   1      42.694  29.464  35.485  1.00  0.00     0.029 A 
ATOM     51  N   UNL A   1      41.354  29.677  33.721  1.00  0.00    -0.354 N 
ATOM     52  N   UNL A   1      39.069  30.808  32.219  1.00  0.00    -0.248 NA
ATOM     53  C   UNL A   1      37.137  32.119  32.152  1.00  0.00     0.031 C 
ATOM     54  C   UNL A   1      41.630  30.305  35.831  1.00  0.00     0.029 A 
ATOM     55  C   UNL A   1      40.810  30.463  34.724  1.00  0.00     0.049 A 
ATOM     56  H   UNL A   1      40.984  29.583  32.813  1.00  0.00     0.167 HD
ATOM     57  C   UNL A   1      38.877  31.394  33.463  1.00  0.00     0.074 A 
ATOM     58  C   UNL A   1      37.687  32.214  33.354  1.00  0.00     0.031 C 
ATOM     59  C   UNL A   1      39.621  31.268  34.593  1.00  0.00     0.037 A 
BRANCH  46  60
ATOM     60  C   UNL A   1      44.450  27.421  34.061  1.00  0.00     0.064 A 
ATOM     61  C   UNL A   1      44.309  26.228  34.789  1.00  0.00     0.173 A 
ATOM     62  C   UNL A   1      45.732  27.983  33.973  1.00  0.00     0.173 A 
ATOM     63  F   UNL A   1      43.103  25.656  34.920  1.00  0.00    -0.203 F 
ATOM     64  C   UNL A   1      45.397  25.654  35.444  1.00  0.00     0.198 A 
ATOM     65  C   UNL A   1      46.824  27.385  34.597  1.00  0.00     0.198 A 
ATOM     66  F   UNL A   1      45.929  29.119  33.288  1.00  0.00    -0.203 F 
ATOM     67  F   UNL A   1      45.220  24.559  36.198  1.00  0.00    -0.200 F 
ATOM     68  C   UNL A   1      46.653  26.230  35.345  1.00  0.00     0.200 A 
ATOM     69  F   UNL A   1      48.042  27.937  34.489  1.00  0.00    -0.200 F 
ATOM     70  F   UNL A   1      47.697  25.682  35.983  1.00  0.00    -0.200 F 
ENDBRANCH  46  60
BRANCH  47  71
ATOM     71  C   UNL A   1      36.675  31.590  29.296  1.00  0.00     0.064 A 
ATOM     72  C   UNL A   1      35.557  30.841  28.905  1.00  0.00     0.173 A 
ATOM     73  C   UNL A   1      36.671  32.964  29.016  1.00  0.00     0.173 A 
ATOM     74  F   UNL A   1      35.523  29.520  29.133  1.00  0.00    -0.203 F 
ATOM     75  C   UNL A   1      34.480  31.442  28.256  1.00  0.00     0.198 A 
ATOM     76  C   UNL A   1      35.583  33.570  28.392  1.00  0.00     0.198 A 
ATOM     77  F   UNL A   1      37.718  33.725  29.370  1.00  0.00    -0.203 F 
ATOM     78  F   UNL A   1      33.436  30.699  27.866  1.00  0.00    -0.200 F 
ATOM     79  C   UNL A   1      34.490  32.807  28.009  1.00  0.00     0.200 A 
ATOM     80  F   UNL A   1      35.590  34.891  28.169  1.00  0.00    -0.200 F 
ATOM     81  F   UNL A   1      33.447  33.387  27.397  1.00  0.00    -0.200 F 
ENDBRANCH  47  71
BRANCH  59  82
ATOM     82  C   UNL A   1      39.186  32.063  35.791  1.00  0.00     0.064 A 
ATOM     83  C   UNL A   1      39.588  33.393  35.983  1.00  0.00     0.173 A 
ATOM     84  C   UNL A   1      38.319  31.497  36.740  1.00  0.00     0.173 A 
ATOM     85  F   UNL A   1      40.426  33.978  35.114  1.00  0.00    -0.203 F 
ATOM     86  C   UNL A   1      39.164  34.115  37.097  1.00  0.00     0.198 A 
ATOM     87  C   UNL A   1      37.869  32.233  37.832  1.00  0.00     0.198 A 
ATOM     88  F   UNL A   1      37.898  30.231  36.600  1.00  0.00    -0.203 F 
ATOM     89  F   UNL A   1      39.607  35.366  37.288  1.00  0.00    -0.200 F 
ATOM     90  C   UNL A   1      38.299  33.538  38.014  1.00  0.00     0.200 A 
ATOM     91  F   UNL A   1      37.019  31.679  38.707  1.00  0.00    -0.200 F 
ATOM     92  F   UNL A   1      37.886  34.238  39.079  1.00  0.00    -0.200 F 
ENDBRANCH  59  82
ENDBRANCH  33  34
ENDBRANCH  26  28
ENDBRANCH  25  26
ENDBRANCH  24  25
ENDBRANCH  23  24
ENDBRANCH  22  23
ENDBRANCH   1  22
TORSDOF 17
ENDMDL
MODEL 3
REMARK VINA RESULT:     -11.3      4.904      8.227
REMARK SMILES O=C(N[C@@H]1C=C[C@@H](C(=O)OCCOCCOC(=O)c2ccc(-c3c4nc(c(-c5c(F)c(F)c(F)c(F)c5F)c5ccc([nH]5)c(-c5c(F)c(F)c(F)c(F)c5F)c5nc(c(-c6c(F)c(F)c(F)c(F)c6F)c6ccc3[nH]6)C=C5)C=C4)cc2)C1)Oc1ccccc1
REMARK SMILES IDX 12 1 11 2 10 3 8 4 9 5 7 6 4 7 5 8 82 9 6 10 3 11 1 12 2 13
REMARK SMILES IDX 83 15 84 16 85 17 89 18 86 19 88 20 87 21 13 22 14 23 15 24
REMARK SMILES IDX 16 25 17 26 18 27 19 28 20 29 81 30 21 31 80 32 22 33 23 34
REMARK SMILES IDX 24 35 74 36 25 37 79 38 73 39 75 40 26 41 78 42 72 43 71 44
REMARK SMILES IDX 27 46 59 47 39 48 58 49 40 50 43 51 57 52 76 53 41 54 42 55
REMARK SMILES IDX 56 57 77 58 44 59 28 60 29 61 37 62 30 63 31 64 35 65 38 66
REMARK SMILES IDX 32 67 33 68 36 69 34 70 60 71 61 72 69 73 62 74 63 75 67 76
REMARK SMILES IDX 70 77 64 78 65 79 68 80 66 81 45 82 46 83 54 84 47 85 48 86
REMARK SMILES IDX 52 87 55 88 49 89 50 90 53 91 51 92
REMARK H PARENT 3 14 75 45 43 56
REMARK Flexibility Score: inf
ROOT
ATOM      1  C   UNL A   1      31.285  29.423  24.401  1.00  0.00     0.202 C 
ENDROOT
BRANCH   1   2
ATOM      2  C   UNL A   1      30.743  27.986  24.426  1.00  0.00     0.261 C 
BRANCH   2   3
ATOM      3  O   UNL A   1      31.740  27.053  24.907  1.00  0.00    -0.463 OA
BRANCH   3   4
ATOM      4  C   UNL A   1      31.406  26.415  26.072  1.00  0.00     0.312 C 
ATOM      5  O   UNL A   1      31.204  26.992  27.134  1.00  0.00    -0.252 OA
BRANCH   4   6
ATOM      6  C   UNL A   1      31.135  24.930  25.827  1.00  0.00     0.124 C 
ATOM      7  C   UNL A   1      31.463  22.663  26.704  1.00  0.00     0.109 C 
ATOM      8  C   UNL A   1      30.056  23.112  26.873  1.00  0.00    -0.006 C 
ATOM      9  C   UNL A   1      32.207  23.953  26.324  1.00  0.00     0.049 C 
ATOM     10  C   UNL A   1      29.891  24.380  26.470  1.00  0.00    -0.014 C 
BRANCH   7  11
ATOM     11  N   UNL A   1      31.593  21.455  25.902  1.00  0.00    -0.315 N 
ATOM     12  O   UNL A   1      32.267  19.725  24.663  1.00  0.00    -0.224 OA
ATOM     13  C   UNL A   1      32.568  20.595  25.478  1.00  0.00     0.413 C 
ATOM     14  H   UNL A   1      30.714  21.171  25.563  1.00  0.00     0.167 HD
BRANCH  13  15
ATOM     15  O   UNL A   1      33.880  20.780  25.877  1.00  0.00    -0.410 OA
BRANCH  15  16
ATOM     16  C   UNL A   1      34.853  21.241  24.973  1.00  0.00     0.132 A 
ATOM     17  C   UNL A   1      34.442  22.280  24.134  1.00  0.00     0.047 A 
ATOM     18  C   UNL A   1      36.174  20.811  24.981  1.00  0.00     0.047 A 
ATOM     19  C   UNL A   1      35.394  23.022  23.441  1.00  0.00     0.004 A 
ATOM     20  C   UNL A   1      37.122  21.563  24.295  1.00  0.00     0.004 A 
ATOM     21  C   UNL A   1      36.739  22.693  23.564  1.00  0.00     0.000 A 
ENDBRANCH  15  16
ENDBRANCH  13  15
ENDBRANCH   7  11
ENDBRANCH   4   6
ENDBRANCH   3   4
ENDBRANCH   2   3
ENDBRANCH   1   2
BRANCH   1  22
ATOM     22  O   UNL A   1      31.448  30.063  25.671  1.00  0.00    -0.374 OA
BRANCH  22  23
ATOM     23  C   UNL A   1      30.983  31.408  25.742  1.00  0.00     0.202 C 
BRANCH  23  24
ATOM     24  C   UNL A   1      31.513  32.242  26.912  1.00  0.00     0.261 C 
BRANCH  24  25
ATOM     25  O   UNL A   1      32.838  31.825  27.252  1.00  0.00    -0.460 OA
BRANCH  25  26
ATOM     26  C   UNL A   1      33.597  32.834  27.741  1.00  0.00     0.338 C 
ATOM     27  O   UNL A   1      33.235  33.936  28.091  1.00  0.00    -0.246 OA
BRANCH  26  28
ATOM     28  C   UNL A   1      34.952  32.327  28.000  1.00  0.00     0.060 A 
ATOM     29  C   UNL A   1      35.085  30.935  28.057  1.00  0.00     0.016 A 
ATOM     30  C   UNL A   1      36.044  33.169  28.219  1.00  0.00     0.016 A 
ATOM     31  C   UNL A   1      36.294  30.374  28.431  1.00  0.00     0.010 A 
ATOM     32  C   UNL A   1      37.260  32.605  28.604  1.00  0.00     0.010 A 
ATOM     33  C   UNL A   1      37.364  31.212  28.769  1.00  0.00    -0.014 A 
BRANCH  33  34
ATOM     34  C   UNL A   1      38.489  30.622  29.521  1.00  0.00     0.031 A 
ATOM     35  C   UNL A   1      38.653  31.000  30.967  1.00  0.00     0.074 A 
ATOM     36  C   UNL A   1      39.276  29.693  28.956  1.00  0.00     0.049 A 
ATOM     37  N   UNL A   1      39.529  30.585  31.844  1.00  0.00    -0.248 NA
ATOM     38  C   UNL A   1      37.690  31.980  31.495  1.00  0.00     0.031 C 
ATOM     39  C   UNL A   1      39.148  29.205  27.585  1.00  0.00     0.029 A 
ATOM     40  N   UNL A   1      40.326  28.985  29.476  1.00  0.00    -0.354 N 
ATOM     41  C   UNL A   1      39.227  31.258  33.021  1.00  0.00     0.074 A 
ATOM     42  C   UNL A   1      38.117  32.139  32.738  1.00  0.00     0.031 C 
ATOM     43  C   UNL A   1      40.081  28.262  27.374  1.00  0.00     0.029 A 
ATOM     44  C   UNL A   1      40.890  28.113  28.582  1.00  0.00     0.049 A 
ATOM     45  H   UNL A   1      40.643  29.093  30.402  1.00  0.00     0.167 HD
ATOM     46  C   UNL A   1      39.821  31.140  34.233  1.00  0.00     0.037 A 
ATOM     47  C   UNL A   1      41.949  27.296  28.729  1.00  0.00     0.037 A 
ATOM     48  C   UNL A   1      40.928  30.259  34.495  1.00  0.00     0.049 A 
ATOM     49  C   UNL A   1      42.658  27.258  30.057  1.00  0.00     0.074 A 
ATOM     50  C   UNL A   1      41.605  30.050  35.682  1.00  0.00     0.029 A 
ATOM     51  N   UNL A   1      41.531  29.449  33.541  1.00  0.00    -0.354 N 
ATOM     52  N   UNL A   1      42.368  27.886  31.171  1.00  0.00    -0.248 NA
ATOM     53  C   UNL A   1      43.843  26.394  30.145  1.00  0.00     0.031 C 
ATOM     54  C   UNL A   1      42.660  29.167  35.430  1.00  0.00     0.029 A 
ATOM     55  C   UNL A   1      42.598  28.768  34.103  1.00  0.00     0.049 A 
ATOM     56  H   UNL A   1      41.242  29.371  32.603  1.00  0.00     0.167 HD
ATOM     57  C   UNL A   1      43.313  27.474  32.102  1.00  0.00     0.074 A 
ATOM     58  C   UNL A   1      44.178  26.532  31.420  1.00  0.00     0.031 C 
ATOM     59  C   UNL A   1      43.449  27.837  33.403  1.00  0.00     0.037 A 
BRANCH  46  60
ATOM     60  C   UNL A   1      39.313  32.028  35.334  1.00  0.00     0.064 A 
ATOM     61  C   UNL A   1      39.727  33.363  35.471  1.00  0.00     0.173 A 
ATOM     62  C   UNL A   1      38.415  31.524  36.287  1.00  0.00     0.173 A 
ATOM     63  F   UNL A   1      40.597  33.893  34.598  1.00  0.00    -0.203 F 
ATOM     64  C   UNL A   1      39.301  34.141  36.546  1.00  0.00     0.198 A 
ATOM     65  C   UNL A   1      37.962  32.316  37.339  1.00  0.00     0.198 A 
ATOM     66  F   UNL A   1      37.982  30.257  36.207  1.00  0.00    -0.203 F 
ATOM     67  F   UNL A   1      39.772  35.386  36.698  1.00  0.00    -0.200 F 
ATOM     68  C   UNL A   1      38.416  33.618  37.477  1.00  0.00     0.200 A 
ATOM     69  F   UNL A   1      37.096  31.813  38.231  1.00  0.00    -0.200 F 
ATOM     70  F   UNL A   1      38.014  34.364  38.515  1.00  0.00    -0.200 F 
ENDBRANCH  46  60
BRANCH  47  71
ATOM     71  C   UNL A   1      42.387  26.450  27.591  1.00  0.00     0.064 A 
ATOM     72  C   UNL A   1      43.390  26.885  26.714  1.00  0.00     0.173 A 
ATOM     73  C   UNL A   1      41.834  25.180  27.372  1.00  0.00     0.173 A 
ATOM     74  F   UNL A   1      43.934  28.100  26.870  1.00  0.00    -0.203 F 
ATOM     75  C   UNL A   1      43.819  26.083  25.658  1.00  0.00     0.198 A 
ATOM     76  C   UNL A   1      42.282  24.367  26.334  1.00  0.00     0.198 A 
ATOM     77  F   UNL A   1      40.871  24.717  28.185  1.00  0.00    -0.203 F 
ATOM     78  F   UNL A   1      44.758  26.534  24.815  1.00  0.00    -0.200 F 
ATOM     79  C   UNL A   1      43.271  24.821  25.475  1.00  0.00     0.200 A 
ATOM     80  F   UNL A   1      41.762  23.143  26.170  1.00  0.00    -0.200 F 
ATOM     81  F   UNL A   1      43.695  24.045  24.468  1.00  0.00    -0.200 F 
ENDBRANCH  47  71
BRANCH  59  82
ATOM     82  C   UNL A   1      44.556  27.187  34.183  1.00  0.00     0.064 A 
ATOM     83  C   UNL A   1      45.819  27.783  34.315  1.00  0.00     0.173 A 
ATOM     84  C   UNL A   1      44.335  25.967  34.844  1.00  0.00     0.173 A 
ATOM     85  F   UNL A   1      46.087  28.942  33.692  1.00  0.00    -0.203 F 
ATOM     86  C   UNL A   1      46.828  27.168  35.052  1.00  0.00     0.198 A 
ATOM     87  C   UNL A   1      45.335  25.374  35.610  1.00  0.00     0.198 A 
ATOM     88  F   UNL A   1      43.143  25.358  34.758  1.00  0.00    -0.203 F 
ATOM     89  F   UNL A   1      48.043  27.729  35.116  1.00  0.00    -0.200 F 
ATOM     90  C   UNL A   1      46.583  25.969  35.705  1.00  0.00     0.200 A 
ATOM     91  F   UNL A   1      45.089  24.225  36.255  1.00  0.00    -0.200 F 
ATOM     92  F   UNL A   1      47.552  25.385  36.421  1.00  0.00    -0.200 F 
ENDBRANCH  59  82
ENDBRANCH  33  34
ENDBRANCH  26  28
ENDBRANCH  25  26
ENDBRANCH  24  25
ENDBRANCH  23  24
ENDBRANCH  22  23
ENDBRANCH   1  22
TORSDOF 17
ENDMDL
