MODEL 1
REMARK VINA RESULT:     -11.7      0.000      0.000
REMARK SMILES CC(C)[C@@H](ON1C(=O)c2ccccc2C1=O)C(=O)OCCOCCOC(=O)c1ccc(-c2c3nc(c(-c4c(F)c(F)c(F)c(F)c4F)c4ccc([nH]4)c(-c4c(F)c(F)c(F)c(F)c4F)c4nc(c(-c5c(F)c(F)c(F)c(F)c5F)c5ccc2[nH]5)C=C4)C=C3)cc1
REMARK SMILES IDX 22 1 21 2 20 3 19 4 17 5 18 6 4 7 2 8 1 9 3 10 5 11 6 12
REMARK SMILES IDX 7 13 15 14 8 15 9 16 14 17 16 18 10 19 13 20 11 21 12 22
REMARK SMILES IDX 23 23 24 24 25 25 26 26 27 27 28 28 29 29 90 30 30 31 89 32
REMARK SMILES IDX 31 33 32 34 33 35 83 36 34 37 88 38 82 39 84 40 35 41 87 42
REMARK SMILES IDX 81 43 80 44 36 46 68 47 48 48 67 49 49 50 52 51 66 52 85 53
REMARK SMILES IDX 50 54 51 55 65 57 86 58 53 59 37 60 38 61 46 62 39 63 40 64
REMARK SMILES IDX 44 65 47 66 41 67 42 68 45 69 43 70 69 71 70 72 78 73 71 74
REMARK SMILES IDX 72 75 76 76 79 77 73 78 74 79 77 80 75 81 54 82 55 83 63 84
REMARK SMILES IDX 56 85 57 86 61 87 64 88 58 89 59 90 62 91 60 92
REMARK H PARENT 84 45 52 56
REMARK Flexibility Score: inf
ROOT
ATOM      1  O   UNL A   1      32.527  29.291  24.758  1.00  0.00    -0.374 OA
ENDROOT
BRANCH   1   2
ATOM      2  C   UNL A   1      32.377  27.916  24.430  1.00  0.00     0.202 C 
BRANCH   2   3
ATOM      3  C   UNL A   1      33.629  27.033  24.411  1.00  0.00     0.261 C 
BRANCH   3   4
ATOM      4  O   UNL A   1      33.355  25.620  24.390  1.00  0.00    -0.461 OA
BRANCH   4   5
ATOM      5  C   UNL A   1      33.933  24.952  23.353  1.00  0.00     0.338 C 
ATOM      6  O   UNL A   1      33.956  25.370  22.198  1.00  0.00    -0.249 OA
BRANCH   5   7
ATOM      7  C   UNL A   1      34.521  23.592  23.732  1.00  0.00     0.261 C 
BRANCH   7   8
ATOM      8  C   UNL A   1      35.995  23.549  24.237  1.00  0.00     0.026 C 
ATOM      9  C   UNL A   1      36.148  23.702  25.756  1.00  0.00     0.011 C 
ATOM     10  C   UNL A   1      36.672  22.222  23.881  1.00  0.00     0.011 C 
ENDBRANCH   7   8
BRANCH   7  11
ATOM     11  O   UNL A   1      33.535  23.175  24.698  1.00  0.00    -0.247 OA
BRANCH  11  12
ATOM     12  N   UNL A   1      33.102  21.866  24.510  1.00  0.00    -0.144 N 
ATOM     13  C   UNL A   1      32.513  21.348  23.400  1.00  0.00     0.285 C 
ATOM     14  C   UNL A   1      33.397  20.939  25.466  1.00  0.00     0.285 C 
ATOM     15  O   UNL A   1      32.131  21.867  22.372  1.00  0.00    -0.266 OA
ATOM     16  C   UNL A   1      32.530  19.901  23.606  1.00  0.00     0.055 A 
ATOM     17  C   UNL A   1      33.052  19.653  24.866  1.00  0.00     0.055 A 
ATOM     18  O   UNL A   1      33.933  21.058  26.552  1.00  0.00    -0.266 OA
ATOM     19  C   UNL A   1      32.273  18.886  22.707  1.00  0.00     0.015 A 
ATOM     20  C   UNL A   1      33.330  18.375  25.305  1.00  0.00     0.015 A 
ATOM     21  C   UNL A   1      32.554  17.584  23.125  1.00  0.00     0.001 A 
ATOM     22  C   UNL A   1      33.072  17.330  24.414  1.00  0.00     0.001 A 
ENDBRANCH  11  12
ENDBRANCH   7  11
ENDBRANCH   5   7
ENDBRANCH   4   5
ENDBRANCH   3   4
ENDBRANCH   2   3
ENDBRANCH   1   2
BRANCH   1  23
ATOM     23  C   UNL A   1      31.351  30.040  25.059  1.00  0.00     0.202 C 
BRANCH  23  24
ATOM     24  C   UNL A   1      31.473  31.138  26.127  1.00  0.00     0.261 C 
BRANCH  24  25
ATOM     25  O   UNL A   1      32.537  30.872  27.066  1.00  0.00    -0.460 OA
BRANCH  25  26
ATOM     26  C   UNL A   1      33.279  31.947  27.419  1.00  0.00     0.338 C 
ATOM     27  O   UNL A   1      32.891  33.093  27.570  1.00  0.00    -0.246 OA
BRANCH  26  28
ATOM     28  C   UNL A   1      34.641  31.526  27.808  1.00  0.00     0.060 A 
ATOM     29  C   UNL A   1      34.830  30.171  28.106  1.00  0.00     0.016 A 
ATOM     30  C   UNL A   1      35.675  32.443  28.001  1.00  0.00     0.016 A 
ATOM     31  C   UNL A   1      36.024  29.737  28.677  1.00  0.00     0.010 A 
ATOM     32  C   UNL A   1      36.874  32.007  28.580  1.00  0.00     0.010 A 
ATOM     33  C   UNL A   1      37.034  30.661  28.971  1.00  0.00    -0.014 A 
BRANCH  33  34
ATOM     34  C   UNL A   1      38.157  30.262  29.858  1.00  0.00     0.031 A 
ATOM     35  C   UNL A   1      39.185  29.291  29.333  1.00  0.00     0.074 A 
ATOM     36  C   UNL A   1      38.305  30.788  31.088  1.00  0.00     0.049 A 
ATOM     37  N   UNL A   1      40.208  28.746  29.942  1.00  0.00    -0.248 NA
ATOM     38  C   UNL A   1      39.038  28.881  27.927  1.00  0.00     0.031 C 
ATOM     39  C   UNL A   1      37.428  31.791  31.688  1.00  0.00     0.029 A 
ATOM     40  N   UNL A   1      39.250  30.544  32.054  1.00  0.00    -0.354 N 
ATOM     41  C   UNL A   1      40.818  27.926  29.000  1.00  0.00     0.074 A 
ATOM     42  C   UNL A   1      40.031  28.016  27.789  1.00  0.00     0.031 C 
ATOM     43  C   UNL A   1      37.870  32.069  32.927  1.00  0.00     0.029 A 
ATOM     44  C   UNL A   1      39.033  31.233  33.222  1.00  0.00     0.049 A 
ATOM     45  H   UNL A   1      40.011  29.934  31.922  1.00  0.00     0.167 HD
ATOM     46  C   UNL A   1      41.938  27.175  29.127  1.00  0.00     0.037 A 
ATOM     47  C   UNL A   1      39.681  31.171  34.403  1.00  0.00     0.037 A 
ATOM     48  C   UNL A   1      42.724  27.091  30.330  1.00  0.00     0.049 A 
ATOM     49  C   UNL A   1      40.862  30.243  34.553  1.00  0.00     0.074 A 
ATOM     50  C   UNL A   1      43.870  26.350  30.561  1.00  0.00     0.029 A 
ATOM     51  N   UNL A   1      42.444  27.771  31.506  1.00  0.00    -0.354 N 
ATOM     52  N   UNL A   1      41.428  29.467  33.660  1.00  0.00    -0.248 NA
ATOM     53  C   UNL A   1      41.497  30.185  35.878  1.00  0.00     0.031 C 
ATOM     54  C   UNL A   1      44.251  26.536  31.893  1.00  0.00     0.029 A 
ATOM     55  C   UNL A   1      43.385  27.449  32.471  1.00  0.00     0.049 A 
ATOM     56  H   UNL A   1      41.690  28.390  31.635  1.00  0.00     0.167 HD
ATOM     57  C   UNL A   1      42.509  28.871  34.301  1.00  0.00     0.074 A 
ATOM     58  C   UNL A   1      42.523  29.377  35.656  1.00  0.00     0.031 C 
ATOM     59  C   UNL A   1      43.411  27.988  33.807  1.00  0.00     0.037 A 
BRANCH  46  60
ATOM     60  C   UNL A   1      42.374  26.363  27.941  1.00  0.00     0.064 A 
ATOM     61  C   UNL A   1      41.846  25.089  27.685  1.00  0.00     0.173 A 
ATOM     62  C   UNL A   1      43.293  26.889  27.020  1.00  0.00     0.173 A 
ATOM     63  F   UNL A   1      40.975  24.534  28.541  1.00  0.00    -0.203 F 
ATOM     64  C   UNL A   1      42.240  24.363  26.564  1.00  0.00     0.198 A 
ATOM     65  C   UNL A   1      43.658  26.175  25.883  1.00  0.00     0.198 A 
ATOM     66  F   UNL A   1      43.822  28.106  27.213  1.00  0.00    -0.203 F 
ATOM     67  F   UNL A   1      41.757  23.129  26.363  1.00  0.00    -0.200 F 
ATOM     68  C   UNL A   1      43.137  24.910  25.659  1.00  0.00     0.200 A 
ATOM     69  F   UNL A   1      44.511  26.714  25.001  1.00  0.00    -0.200 F 
ATOM     70  F   UNL A   1      43.504  24.216  24.572  1.00  0.00    -0.200 F 
ENDBRANCH  46  60
BRANCH  47  71
ATOM     71  C   UNL A   1      39.220  31.990  35.558  1.00  0.00     0.064 A 
ATOM     72  C   UNL A   1      39.679  33.302  35.744  1.00  0.00     0.173 A 
ATOM     73  C   UNL A   1      38.361  31.458  36.532  1.00  0.00     0.173 A 
ATOM     74  F   UNL A   1      40.524  33.847  34.857  1.00  0.00    -0.203 F 
ATOM     75  C   UNL A   1      39.324  34.037  36.873  1.00  0.00     0.198 A 
ATOM     76  C   UNL A   1      37.978  32.207  37.643  1.00  0.00     0.198 A 
ATOM     77  F   UNL A   1      37.897  30.206  36.407  1.00  0.00    -0.203 F 
ATOM     78  F   UNL A   1      39.834  35.262  37.060  1.00  0.00    -0.200 F 
ATOM     79  C   UNL A   1      38.471  33.490  37.820  1.00  0.00     0.200 A 
ATOM     80  F   UNL A   1      37.144  31.678  38.548  1.00  0.00    -0.200 F 
ATOM     81  F   UNL A   1      38.136  34.194  38.910  1.00  0.00    -0.200 F 
ENDBRANCH  47  71
BRANCH  59  82
ATOM     82  C   UNL A   1      44.543  27.566  34.703  1.00  0.00     0.064 A 
ATOM     83  C   UNL A   1      44.472  26.416  35.503  1.00  0.00     0.173 A 
ATOM     84  C   UNL A   1      45.741  28.299  34.713  1.00  0.00     0.173 A 
ATOM     85  F   UNL A   1      43.347  25.686  35.540  1.00  0.00    -0.203 F 
ATOM     86  C   UNL A   1      45.550  26.030  36.298  1.00  0.00     0.198 A 
ATOM     87  C   UNL A   1      46.827  27.890  35.482  1.00  0.00     0.198 A 
ATOM     88  F   UNL A   1      45.865  29.402  33.961  1.00  0.00    -0.203 F 
ATOM     89  F   UNL A   1      45.443  24.955  37.091  1.00  0.00    -0.200 F 
ATOM     90  C   UNL A   1      46.729  26.761  36.279  1.00  0.00     0.200 A 
ATOM     91  F   UNL A   1      47.971  28.588  35.447  1.00  0.00    -0.200 F 
ATOM     92  F   UNL A   1      47.768  26.379  37.034  1.00  0.00    -0.200 F 
ENDBRANCH  59  82
ENDBRANCH  33  34
ENDBRANCH  26  28
ENDBRANCH  25  26
ENDBRANCH  24  25
ENDBRANCH  23  24
ENDBRANCH   1  23
TORSDOF 17
ENDMDL
MODEL 2
REMARK VINA RESULT:     -11.5      0.647      2.048
REMARK SMILES CC(C)[C@@H](ON1C(=O)c2ccccc2C1=O)C(=O)OCCOCCOC(=O)c1ccc(-c2c3nc(c(-c4c(F)c(F)c(F)c(F)c4F)c4ccc([nH]4)c(-c4c(F)c(F)c(F)c(F)c4F)c4nc(c(-c5c(F)c(F)c(F)c(F)c5F)c5ccc2[nH]5)C=C4)C=C3)cc1
REMARK SMILES IDX 22 1 21 2 20 3 19 4 17 5 18 6 4 7 2 8 1 9 3 10 5 11 6 12
REMARK SMILES IDX 7 13 15 14 8 15 9 16 14 17 16 18 10 19 13 20 11 21 12 22
REMARK SMILES IDX 23 23 24 24 25 25 26 26 27 27 28 28 29 29 90 30 30 31 89 32
REMARK SMILES IDX 31 33 32 34 33 35 83 36 34 37 88 38 82 39 84 40 35 41 87 42
REMARK SMILES IDX 81 43 80 44 36 46 68 47 48 48 67 49 49 50 52 51 66 52 85 53
REMARK SMILES IDX 50 54 51 55 65 57 86 58 53 59 37 60 38 61 46 62 39 63 40 64
REMARK SMILES IDX 44 65 47 66 41 67 42 68 45 69 43 70 69 71 70 72 78 73 71 74
REMARK SMILES IDX 72 75 76 76 79 77 73 78 74 79 77 80 75 81 54 82 55 83 63 84
REMARK SMILES IDX 56 85 57 86 61 87 64 88 58 89 59 90 62 91 60 92
REMARK H PARENT 84 45 52 56
REMARK Flexibility Score: inf
ROOT
ATOM      1  O   UNL A   1      32.294  28.387  24.984  1.00  0.00    -0.374 OA
ENDROOT
BRANCH   1   2
ATOM      2  C   UNL A   1      32.974  28.003  23.795  1.00  0.00     0.202 C 
BRANCH   2   3
ATOM      3  C   UNL A   1      32.281  27.018  22.848  1.00  0.00     0.261 C 
BRANCH   3   4
ATOM      4  O   UNL A   1      32.380  25.641  23.254  1.00  0.00    -0.461 OA
BRANCH   4   5
ATOM      5  C   UNL A   1      33.107  24.858  22.409  1.00  0.00     0.338 C 
ATOM      6  O   UNL A   1      33.231  25.080  21.207  1.00  0.00    -0.249 OA
BRANCH   5   7
ATOM      7  C   UNL A   1      33.732  23.629  23.073  1.00  0.00     0.261 C 
BRANCH   7   8
ATOM      8  C   UNL A   1      35.056  23.826  23.872  1.00  0.00     0.026 C 
ATOM      9  C   UNL A   1      34.856  24.243  25.335  1.00  0.00     0.011 C 
ATOM     10  C   UNL A   1      35.882  22.536  23.915  1.00  0.00     0.011 C 
ENDBRANCH   7   8
BRANCH   7  11
ATOM     11  O   UNL A   1      32.605  23.194  23.861  1.00  0.00    -0.247 OA
BRANCH  11  12
ATOM     12  N   UNL A   1      32.439  21.813  23.864  1.00  0.00    -0.144 N 
ATOM     13  C   UNL A   1      32.206  21.012  22.791  1.00  0.00     0.285 C 
ATOM     14  C   UNL A   1      32.651  21.134  25.028  1.00  0.00     0.285 C 
ATOM     15  O   UNL A   1      31.990  21.268  21.624  1.00  0.00    -0.266 OA
ATOM     16  C   UNL A   1      32.404  19.652  23.286  1.00  0.00     0.055 A 
ATOM     17  C   UNL A   1      32.660  19.724  24.648  1.00  0.00     0.055 A 
ATOM     18  O   UNL A   1      32.902  21.536  26.149  1.00  0.00    -0.266 OA
ATOM     19  C   UNL A   1      32.522  18.472  22.581  1.00  0.00     0.015 A 
ATOM     20  C   UNL A   1      33.029  18.617  25.383  1.00  0.00     0.015 A 
ATOM     21  C   UNL A   1      32.903  17.339  23.303  1.00  0.00     0.001 A 
ATOM     22  C   UNL A   1      33.149  17.409  24.691  1.00  0.00     0.001 A 
ENDBRANCH  11  12
ENDBRANCH   7  11
ENDBRANCH   5   7
ENDBRANCH   4   5
ENDBRANCH   3   4
ENDBRANCH   2   3
ENDBRANCH   1   2
BRANCH   1  23
ATOM     23  C   UNL A   1      31.460  29.543  24.934  1.00  0.00     0.202 C 
BRANCH  23  24
ATOM     24  C   UNL A   1      31.669  30.606  26.025  1.00  0.00     0.261 C 
BRANCH  24  25
ATOM     25  O   UNL A   1      32.827  30.330  26.842  1.00  0.00    -0.460 OA
BRANCH  25  26
ATOM     26  C   UNL A   1      33.464  31.420  27.328  1.00  0.00     0.338 C 
ATOM     27  O   UNL A   1      32.973  32.505  27.590  1.00  0.00    -0.246 OA
BRANCH  26  28
ATOM     28  C   UNL A   1      34.850  31.079  27.709  1.00  0.00     0.060 A 
ATOM     29  C   UNL A   1      35.145  29.723  27.898  1.00  0.00     0.016 A 
ATOM     30  C   UNL A   1      35.804  32.056  27.997  1.00  0.00     0.016 A 
ATOM     31  C   UNL A   1      36.363  29.340  28.455  1.00  0.00     0.010 A 
ATOM     32  C   UNL A   1      37.027  31.670  28.562  1.00  0.00     0.010 A 
ATOM     33  C   UNL A   1      37.290  30.314  28.844  1.00  0.00    -0.014 A 
BRANCH  33  34
ATOM     34  C   UNL A   1      38.431  29.933  29.718  1.00  0.00     0.031 A 
ATOM     35  C   UNL A   1      39.450  28.954  29.192  1.00  0.00     0.074 A 
ATOM     36  C   UNL A   1      38.600  30.483  30.935  1.00  0.00     0.049 A 
ATOM     37  N   UNL A   1      40.485  28.422  29.793  1.00  0.00    -0.248 NA
ATOM     38  C   UNL A   1      39.278  28.517  27.798  1.00  0.00     0.031 C 
ATOM     39  C   UNL A   1      37.733  31.495  31.532  1.00  0.00     0.029 A 
ATOM     40  N   UNL A   1      39.563  30.258  31.888  1.00  0.00    -0.354 N 
ATOM     41  C   UNL A   1      41.079  27.585  28.855  1.00  0.00     0.074 A 
ATOM     42  C   UNL A   1      40.270  27.650  27.658  1.00  0.00     0.031 C 
ATOM     43  C   UNL A   1      38.197  31.797  32.757  1.00  0.00     0.029 A 
ATOM     44  C   UNL A   1      39.366  30.969  33.047  1.00  0.00     0.049 A 
ATOM     45  H   UNL A   1      40.323  29.647  31.753  1.00  0.00     0.167 HD
ATOM     46  C   UNL A   1      42.202  26.838  28.976  1.00  0.00     0.037 A 
ATOM     47  C   UNL A   1      40.036  30.930  34.216  1.00  0.00     0.037 A 
ATOM     48  C   UNL A   1      43.011  26.777  30.165  1.00  0.00     0.049 A 
ATOM     49  C   UNL A   1      41.222  30.006  34.361  1.00  0.00     0.074 A 
ATOM     50  C   UNL A   1      44.162  26.043  30.389  1.00  0.00     0.029 A 
ATOM     51  N   UNL A   1      42.751  27.479  31.333  1.00  0.00    -0.354 N 
ATOM     52  N   UNL A   1      41.772  29.214  33.473  1.00  0.00    -0.248 NA
ATOM     53  C   UNL A   1      41.881  29.974  35.676  1.00  0.00     0.031 C 
ATOM     54  C   UNL A   1      44.567  26.255  31.709  1.00  0.00     0.029 A 
ATOM     55  C   UNL A   1      43.710  27.177  32.286  1.00  0.00     0.049 A 
ATOM     56  H   UNL A   1      41.998  28.100  31.465  1.00  0.00     0.167 HD
ATOM     57  C   UNL A   1      42.866  28.633  34.105  1.00  0.00     0.074 A 
ATOM     58  C   UNL A   1      42.904  29.163  35.450  1.00  0.00     0.031 C 
ATOM     59  C   UNL A   1      43.761  27.741  33.612  1.00  0.00     0.037 A 
BRANCH  46  60
ATOM     60  C   UNL A   1      42.618  26.004  27.798  1.00  0.00     0.064 A 
ATOM     61  C   UNL A   1      43.586  26.446  26.885  1.00  0.00     0.173 A 
ATOM     62  C   UNL A   1      42.079  24.721  27.611  1.00  0.00     0.173 A 
ATOM     63  F   UNL A   1      44.124  27.669  27.010  1.00  0.00    -0.203 F 
ATOM     64  C   UNL A   1      43.982  25.646  25.816  1.00  0.00     0.198 A 
ATOM     65  C   UNL A   1      42.501  23.911  26.562  1.00  0.00     0.198 A 
ATOM     66  F   UNL A   1      41.154  24.247  28.459  1.00  0.00    -0.203 F 
ATOM     67  F   UNL A   1      44.876  26.107  24.930  1.00  0.00    -0.200 F 
ATOM     68  C   UNL A   1      43.446  24.376  25.661  1.00  0.00     0.200 A 
ATOM     69  F   UNL A   1      41.995  22.678  26.425  1.00  0.00    -0.200 F 
ATOM     70  F   UNL A   1      43.839  23.601  24.640  1.00  0.00    -0.200 F 
ENDBRANCH  46  60
BRANCH  47  71
ATOM     71  C   UNL A   1      39.596  31.770  35.364  1.00  0.00     0.064 A 
ATOM     72  C   UNL A   1      38.634  31.307  36.273  1.00  0.00     0.173 A 
ATOM     73  C   UNL A   1      40.083  33.074  35.541  1.00  0.00     0.173 A 
ATOM     74  F   UNL A   1      38.116  30.078  36.131  1.00  0.00    -0.203 F 
ATOM     75  C   UNL A   1      38.151  32.126  37.292  1.00  0.00     0.198 A 
ATOM     76  C   UNL A   1      39.626  33.879  36.583  1.00  0.00     0.198 A 
ATOM     77  F   UNL A   1      41.000  33.569  34.698  1.00  0.00    -0.203 F 
ATOM     78  F   UNL A   1      37.180  31.682  38.102  1.00  0.00    -0.200 F 
ATOM     79  C   UNL A   1      38.651  33.410  37.448  1.00  0.00     0.200 A 
ATOM     80  F   UNL A   1      40.120  35.115  36.736  1.00  0.00    -0.200 F 
ATOM     81  F   UNL A   1      38.181  34.200  38.423  1.00  0.00    -0.200 F 
ENDBRANCH  47  71
BRANCH  59  82
ATOM     82  C   UNL A   1      44.909  27.337  34.494  1.00  0.00     0.064 A 
ATOM     83  C   UNL A   1      46.107  28.064  34.539  1.00  0.00     0.173 A 
ATOM     84  C   UNL A   1      44.780  26.233  35.353  1.00  0.00     0.173 A 
ATOM     85  F   UNL A   1      46.287  29.121  33.733  1.00  0.00    -0.203 F 
ATOM     86  C   UNL A   1      47.142  27.687  35.392  1.00  0.00     0.198 A 
ATOM     87  C   UNL A   1      45.803  25.879  36.228  1.00  0.00     0.198 A 
ATOM     88  F   UNL A   1      43.653  25.507  35.356  1.00  0.00    -0.203 F 
ATOM     89  F   UNL A   1      48.297  28.368  35.384  1.00  0.00    -0.200 F 
ATOM     90  C   UNL A   1      46.986  26.601  36.242  1.00  0.00     0.200 A 
ATOM     91  F   UNL A   1      45.641  24.841  37.061  1.00  0.00    -0.200 F 
ATOM     92  F   UNL A   1      47.977  26.249  37.072  1.00  0.00    -0.200 F 
ENDBRANCH  59  82
ENDBRANCH  33  34
ENDBRANCH  26  28
ENDBRANCH  25  26
ENDBRANCH  24  25
ENDBRANCH  23  24
ENDBRANCH   1  23
TORSDOF 17
ENDMDL
MODEL 3
REMARK VINA RESULT:     -11.5      4.227      7.258
REMARK SMILES CC(C)[C@@H](ON1C(=O)c2ccccc2C1=O)C(=O)OCCOCCOC(=O)c1ccc(-c2c3nc(c(-c4c(F)c(F)c(F)c(F)c4F)c4ccc([nH]4)c(-c4c(F)c(F)c(F)c(F)c4F)c4nc(c(-c5c(F)c(F)c(F)c(F)c5F)c5ccc2[nH]5)C=C4)C=C3)cc1
REMARK SMILES IDX 22 1 21 2 20 3 19 4 17 5 18 6 4 7 2 8 1 9 3 10 5 11 6 12
REMARK SMILES IDX 7 13 15 14 8 15 9 16 14 17 16 18 10 19 13 20 11 21 12 22
REMARK SMILES IDX 23 23 24 24 25 25 26 26 27 27 28 28 29 29 90 30 30 31 89 32
REMARK SMILES IDX 31 33 32 34 33 35 83 36 34 37 88 38 82 39 84 40 35 41 87 42
REMARK SMILES IDX 81 43 80 44 36 46 68 47 48 48 67 49 49 50 52 51 66 52 85 53
REMARK SMILES IDX 50 54 51 55 65 57 86 58 53 59 37 60 38 61 46 62 39 63 40 64
REMARK SMILES IDX 44 65 47 66 41 67 42 68 45 69 43 70 69 71 70 72 78 73 71 74
REMARK SMILES IDX 72 75 76 76 79 77 73 78 74 79 77 80 75 81 54 82 55 83 63 84
REMARK SMILES IDX 56 85 57 86 61 87 64 88 58 89 59 90 62 91 60 92
REMARK H PARENT 84 45 52 56
REMARK Flexibility Score: inf
ROOT
ATOM      1  O   UNL A   1      37.315  21.442  25.078  1.00  0.00    -0.374 OA
ENDROOT
BRANCH   1   2
ATOM      2  C   UNL A   1      36.926  22.204  23.942  1.00  0.00     0.202 C 
BRANCH   2   3
ATOM      3  C   UNL A   1      35.753  23.179  24.088  1.00  0.00     0.261 C 
BRANCH   3   4
ATOM      4  O   UNL A   1      35.112  23.521  22.846  1.00  0.00    -0.461 OA
BRANCH   4   5
ATOM      5  C   UNL A   1      33.942  24.205  22.989  1.00  0.00     0.338 C 
ATOM      6  O   UNL A   1      33.473  24.945  22.127  1.00  0.00    -0.249 OA
BRANCH   5   7
ATOM      7  C   UNL A   1      33.266  24.017  24.347  1.00  0.00     0.261 C 
BRANCH   7   8
ATOM      8  C   UNL A   1      32.795  25.292  25.112  1.00  0.00     0.026 C 
ATOM      9  C   UNL A   1      32.046  25.005  26.419  1.00  0.00     0.011 C 
ATOM     10  C   UNL A   1      33.980  26.184  25.496  1.00  0.00     0.011 C 
ENDBRANCH   7   8
BRANCH   7  11
ATOM     11  O   UNL A   1      32.207  23.119  23.956  1.00  0.00    -0.247 OA
BRANCH  11  12
ATOM     12  N   UNL A   1      32.542  21.777  24.109  1.00  0.00    -0.144 N 
ATOM     13  C   UNL A   1      32.900  21.146  25.259  1.00  0.00     0.285 C 
ATOM     14  C   UNL A   1      32.384  20.940  23.044  1.00  0.00     0.285 C 
ATOM     15  O   UNL A   1      33.113  21.566  26.377  1.00  0.00    -0.266 OA
ATOM     16  C   UNL A   1      32.857  19.722  24.936  1.00  0.00     0.055 A 
ATOM     17  C   UNL A   1      32.559  19.596  23.587  1.00  0.00     0.055 A 
ATOM     18  O   UNL A   1      32.057  21.170  21.893  1.00  0.00    -0.266 OA
ATOM     19  C   UNL A   1      32.904  18.631  25.779  1.00  0.00     0.015 A 
ATOM     20  C   UNL A   1      32.310  18.373  23.003  1.00  0.00     0.015 A 
ATOM     21  C   UNL A   1      32.647  17.381  25.212  1.00  0.00     0.001 A 
ATOM     22  C   UNL A   1      32.358  17.252  23.836  1.00  0.00     0.001 A 
ENDBRANCH  11  12
ENDBRANCH   7  11
ENDBRANCH   5   7
ENDBRANCH   4   5
ENDBRANCH   3   4
ENDBRANCH   2   3
ENDBRANCH   1   2
BRANCH   1  23
ATOM     23  C   UNL A   1      37.647  20.069  24.882  1.00  0.00     0.202 C 
BRANCH  23  24
ATOM     24  C   UNL A   1      38.919  19.549  25.572  1.00  0.00     0.261 C 
BRANCH  24  25
ATOM     25  O   UNL A   1      39.939  20.567  25.676  1.00  0.00    -0.460 OA
BRANCH  25  26
ATOM     26  C   UNL A   1      40.685  20.522  26.803  1.00  0.00     0.338 C 
ATOM     27  O   UNL A   1      41.310  19.569  27.237  1.00  0.00    -0.246 OA
BRANCH  26  28
ATOM     28  C   UNL A   1      40.826  21.875  27.380  1.00  0.00     0.060 A 
ATOM     29  C   UNL A   1      40.057  22.897  26.808  1.00  0.00     0.016 A 
ATOM     30  C   UNL A   1      41.770  22.169  28.365  1.00  0.00     0.016 A 
ATOM     31  C   UNL A   1      40.286  24.226  27.155  1.00  0.00     0.010 A 
ATOM     32  C   UNL A   1      42.003  23.507  28.709  1.00  0.00     0.010 A 
ATOM     33  C   UNL A   1      41.299  24.546  28.066  1.00  0.00    -0.014 A 
BRANCH  33  34
ATOM     34  C   UNL A   1      41.754  25.956  28.191  1.00  0.00     0.031 A 
ATOM     35  C   UNL A   1      43.094  26.338  27.616  1.00  0.00     0.074 A 
ATOM     36  C   UNL A   1      40.975  26.899  28.751  1.00  0.00     0.049 A 
ATOM     37  N   UNL A   1      43.729  27.483  27.664  1.00  0.00    -0.248 NA
ATOM     38  C   UNL A   1      43.816  25.284  26.885  1.00  0.00     0.031 C 
ATOM     39  C   UNL A   1      39.630  26.682  29.277  1.00  0.00     0.029 A 
ATOM     40  N   UNL A   1      41.212  28.234  28.972  1.00  0.00    -0.354 N 
ATOM     41  C   UNL A   1      44.922  27.284  26.981  1.00  0.00     0.074 A 
ATOM     42  C   UNL A   1      44.943  25.900  26.559  1.00  0.00     0.031 C 
ATOM     43  C   UNL A   1      39.163  27.841  29.771  1.00  0.00     0.029 A 
ATOM     44  C   UNL A   1      40.192  28.871  29.637  1.00  0.00     0.049 A 
ATOM     45  H   UNL A   1      42.034  28.692  28.682  1.00  0.00     0.167 HD
ATOM     46  C   UNL A   1      45.908  28.175  26.719  1.00  0.00     0.037 A 
ATOM     47  C   UNL A   1      40.114  30.132  30.108  1.00  0.00     0.037 A 
ATOM     48  C   UNL A   1      45.886  29.553  27.134  1.00  0.00     0.049 A 
ATOM     49  C   UNL A   1      41.273  31.076  29.898  1.00  0.00     0.074 A 
ATOM     50  C   UNL A   1      46.841  30.533  26.925  1.00  0.00     0.029 A 
ATOM     51  N   UNL A   1      44.853  30.147  27.844  1.00  0.00    -0.354 N 
ATOM     52  N   UNL A   1      42.400  30.878  29.257  1.00  0.00    -0.248 NA
ATOM     53  C   UNL A   1      41.147  32.422  30.477  1.00  0.00     0.031 C 
ATOM     54  C   UNL A   1      46.414  31.703  27.558  1.00  0.00     0.029 A 
ATOM     55  C   UNL A   1      45.160  31.474  28.099  1.00  0.00     0.049 A 
ATOM     56  H   UNL A   1      44.026  29.694  28.125  1.00  0.00     0.167 HD
ATOM     57  C   UNL A   1      43.089  32.085  29.314  1.00  0.00     0.074 A 
ATOM     58  C   UNL A   1      42.254  33.010  30.048  1.00  0.00     0.031 C 
ATOM     59  C   UNL A   1      44.304  32.398  28.799  1.00  0.00     0.037 A 
BRANCH  46  60
ATOM     60  C   UNL A   1      47.111  27.685  25.964  1.00  0.00     0.064 A 
ATOM     61  C   UNL A   1      47.156  27.691  24.562  1.00  0.00     0.173 A 
ATOM     62  C   UNL A   1      48.256  27.257  26.654  1.00  0.00     0.173 A 
ATOM     63  F   UNL A   1      46.084  28.079  23.854  1.00  0.00    -0.203 F 
ATOM     64  C   UNL A   1      48.291  27.263  23.880  1.00  0.00     0.198 A 
ATOM     65  C   UNL A   1      49.401  26.862  25.969  1.00  0.00     0.198 A 
ATOM     66  F   UNL A   1      48.269  27.238  27.995  1.00  0.00    -0.203 F 
ATOM     67  F   UNL A   1      48.295  27.234  22.540  1.00  0.00    -0.200 F 
ATOM     68  C   UNL A   1      49.416  26.858  24.583  1.00  0.00     0.200 A 
ATOM     69  F   UNL A   1      50.492  26.488  26.652  1.00  0.00    -0.200 F 
ATOM     70  F   UNL A   1      50.514  26.460  23.925  1.00  0.00    -0.200 F 
ENDBRANCH  46  60
BRANCH  47  71
ATOM     71  C   UNL A   1      38.906  30.583  30.853  1.00  0.00     0.064 A 
ATOM     72  C   UNL A   1      37.832  31.193  30.189  1.00  0.00     0.173 A 
ATOM     73  C   UNL A   1      38.826  30.469  32.249  1.00  0.00     0.173 A 
ATOM     74  F   UNL A   1      37.871  31.352  28.858  1.00  0.00    -0.203 F 
ATOM     75  C   UNL A   1      36.743  31.702  30.895  1.00  0.00     0.198 A 
ATOM     76  C   UNL A   1      37.720  30.945  32.951  1.00  0.00     0.198 A 
ATOM     77  F   UNL A   1      39.827  29.898  32.935  1.00  0.00    -0.203 F 
ATOM     78  F   UNL A   1      35.765  32.343  30.241  1.00  0.00    -0.200 F 
ATOM     79  C   UNL A   1      36.686  31.573  32.274  1.00  0.00     0.200 A 
ATOM     80  F   UNL A   1      37.665  30.808  34.282  1.00  0.00    -0.200 F 
ATOM     81  F   UNL A   1      35.643  32.069  32.953  1.00  0.00    -0.200 F 
ENDBRANCH  47  71
BRANCH  59  82
ATOM     82  C   UNL A   1      44.779  33.818  28.934  1.00  0.00     0.064 A 
ATOM     83  C   UNL A   1      44.468  34.802  27.986  1.00  0.00     0.173 A 
ATOM     84  C   UNL A   1      45.511  34.208  30.068  1.00  0.00     0.173 A 
ATOM     85  F   UNL A   1      43.781  34.481  26.879  1.00  0.00    -0.203 F 
ATOM     86  C   UNL A   1      44.893  36.119  28.154  1.00  0.00     0.198 A 
ATOM     87  C   UNL A   1      45.904  35.531  30.250  1.00  0.00     0.198 A 
ATOM     88  F   UNL A   1      45.829  33.309  31.010  1.00  0.00    -0.203 F 
ATOM     89  F   UNL A   1      44.625  37.033  27.211  1.00  0.00    -0.200 F 
ATOM     90  C   UNL A   1      45.601  36.484  29.290  1.00  0.00     0.200 A 
ATOM     91  F   UNL A   1      46.572  35.884  31.357  1.00  0.00    -0.200 F 
ATOM     92  F   UNL A   1      45.996  37.753  29.456  1.00  0.00    -0.200 F 
ENDBRANCH  59  82
ENDBRANCH  33  34
ENDBRANCH  26  28
ENDBRANCH  25  26
ENDBRANCH  24  25
ENDBRANCH  23  24
ENDBRANCH   1  23
TORSDOF 17
ENDMDL
