MODEL 1
REMARK VINA RESULT:     -12.6      0.000      0.000
REMARK SMILES CC1(C)CC[C@@]2(C(=O)OCCOCCOC(=O)c3ccc(-c4c5nc(c(-c6c(F)c(F)c(F)c(F)c6F)c6ccc([nH]6)c(-c6c(F)c(F)c(F)c(F)c6F)c6nc(c(-c7c(F)c(F)c(F)c(F)c7F)c7ccc4[nH]7)C=C6)C=C5)cc3)CC[C@@]3(C)C(=CC[C@H]4[C@@]5(C)CC[C@H](O)C(C)(C)[C@@H]5CC[C@@]43C)[C@@H]2C1
REMARK SMILES IDX 13 1 12 2 11 3 10 4 9 5 7 6 8 7 6 8 1 9 2 10 3 11 4 12
REMARK SMILES IDX 104 13 5 14 103 15 85 16 81 17 83 18 86 19 82 20 84 21
REMARK SMILES IDX 101 22 87 23 88 24 100 25 102 26 89 27 99 28 90 29 91 30
REMARK SMILES IDX 98 31 92 32 95 33 93 34 96 35 97 36 94 37 14 39 15 40 16 41
REMARK SMILES IDX 17 42 18 43 19 44 80 45 20 46 79 47 21 48 22 49 23 50 73 51
REMARK SMILES IDX 24 52 78 53 72 54 74 55 25 56 77 57 71 58 70 59 26 61 58 62
REMARK SMILES IDX 38 63 57 64 39 65 42 66 56 67 75 68 40 69 41 70 55 72 76 73
REMARK SMILES IDX 43 74 27 75 28 76 36 77 29 78 30 79 34 80 37 81 31 82 32 83
REMARK SMILES IDX 35 84 33 85 59 86 60 87 68 88 61 89 62 90 66 91 69 92 63 93
REMARK SMILES IDX 64 94 67 95 65 96 44 97 45 98 53 99 46 100 47 101 51 102
REMARK SMILES IDX 54 103 48 104 49 105 52 106 50 107
REMARK H PARENT 94 38 74 60 42 71
REMARK Flexibility Score: inf
ROOT
ATOM      1  C   UNL A   1      49.877  30.089  35.010  1.00  0.00     0.202 C 
ENDROOT
BRANCH   1   2
ATOM      2  O   UNL A   1      48.829  31.085  34.037  1.00  0.00    -0.374 OA
BRANCH   2   3
ATOM      3  C   UNL A   1      49.110  32.637  33.111  1.00  0.00     0.202 C 
BRANCH   3   4
ATOM      4  C   UNL A   1      47.523  33.382  31.923  1.00  0.00     0.261 C 
BRANCH   4   5
ATOM      5  O   UNL A   1      45.900  33.148  32.024  1.00  0.00    -0.463 OA
BRANCH   5   6
ATOM      6  C   UNL A   1      44.773  33.871  32.137  1.00  0.00     0.312 C 
ATOM      7  O   UNL A   1      44.469  34.857  31.463  1.00  0.00    -0.252 OA
BRANCH   6   8
ATOM      8  C   UNL A   1      43.882  33.323  33.152  1.00  0.00     0.075 C 
ATOM      9  C   UNL A   1      43.628  36.377  35.619  1.00  0.00     0.011 C 
ATOM     10  C   UNL A   1      44.176  36.117  34.215  1.00  0.00    -0.035 C 
ATOM     11  C   UNL A   1      44.912  37.416  33.740  1.00  0.00     0.011 C 
ATOM     12  C   UNL A   1      45.288  35.066  34.371  1.00  0.00     0.007 C 
ATOM     13  C   UNL A   1      42.921  35.732  33.262  1.00  0.00     0.015 C 
ATOM     14  C   UNL A   1      44.735  33.631  34.407  1.00  0.00     0.020 C 
ATOM     15  C   UNL A   1      42.548  34.104  32.944  1.00  0.00     0.033 C 
ATOM     16  C   UNL A   1      41.809  33.500  31.407  1.00  0.00    -0.063 C 
ATOM     17  C   UNL A   1      43.821  31.851  32.761  1.00  0.00     0.020 C 
ATOM     18  C   UNL A   1      43.243  32.750  30.345  1.00  0.00    -0.006 C 
ATOM     19  C   UNL A   1      40.802  34.291  30.645  1.00  0.00    -0.027 C 
ATOM     20  C   UNL A   1      44.086  31.700  31.231  1.00  0.00     0.013 C 
ATOM     21  C   UNL A   1      41.983  31.453  30.156  1.00  0.00     0.017 C 
ATOM     22  C   UNL A   1      44.088  34.056  28.852  1.00  0.00    -0.020 C 
ATOM     23  C   UNL A   1      41.090  35.317  29.091  1.00  0.00     0.032 C 
ATOM     24  C   UNL A   1      42.789  35.380  28.173  1.00  0.00     0.006 C 
ATOM     25  C   UNL A   1      44.719  34.161  27.107  1.00  0.00     0.008 C 
ATOM     26  C   UNL A   1      45.246  34.612  29.503  1.00  0.00     0.012 C 
ATOM     27  C   UNL A   1      43.497  36.741  28.010  1.00  0.00    -0.025 C 
ATOM     28  C   UNL A   1      45.461  35.578  26.463  1.00  0.00     0.005 C 
ATOM     29  C   UNL A   1      42.779  37.310  26.676  1.00  0.00     0.012 C 
ATOM     30  C   UNL A   1      43.159  37.667  29.640  1.00  0.00     0.010 C 
ATOM     31  C   UNL A   1      45.303  36.832  27.358  1.00  0.00     0.003 C 
ATOM     32  C   UNL A   1      43.946  39.026  30.233  1.00  0.00     0.033 C 
ATOM     33  C   UNL A   1      46.435  38.544  27.695  1.00  0.00    -0.006 C 
ATOM     34  C   UNL A   1      45.770  39.396  29.698  1.00  0.00     0.120 C 
ATOM     35  C   UNL A   1      46.138  39.097  26.113  1.00  0.00     0.014 C 
ATOM     36  C   UNL A   1      48.026  38.072  27.232  1.00  0.00     0.014 C 
BRANCH  34  37
ATOM     37  O   UNL A   1      45.806  40.729  30.402  1.00  0.00    -0.393 OA
ATOM     38  H   UNL A   1      45.604  40.604  31.342  1.00  0.00     0.210 HD
ENDBRANCH  34  37
ENDBRANCH   6   8
ENDBRANCH   5   6
ENDBRANCH   4   5
ENDBRANCH   3   4
ENDBRANCH   2   3
ENDBRANCH   1   2
BRANCH   1  39
ATOM     39  C   UNL A   1      49.925  28.434  35.979  1.00  0.00     0.261 C 
BRANCH  39  40
ATOM     40  O   UNL A   1      49.429  26.810  35.530  1.00  0.00    -0.460 OA
BRANCH  40  41
ATOM     41  C   UNL A   1      48.205  25.964  35.859  1.00  0.00     0.338 C 
ATOM     42  O   UNL A   1      48.331  24.834  36.341  1.00  0.00    -0.246 OA
BRANCH  41  43
ATOM     43  C   UNL A   1      46.536  26.395  35.460  1.00  0.00     0.060 A 
ATOM     44  C   UNL A   1      44.733  25.702  35.212  1.00  0.00     0.016 A 
ATOM     45  C   UNL A   1      46.805  27.804  34.410  1.00  0.00     0.016 A 
ATOM     46  C   UNL A   1      43.561  26.383  34.078  1.00  0.00     0.010 A 
ATOM     47  C   UNL A   1      45.558  28.295  33.301  1.00  0.00     0.010 A 
ATOM     48  C   UNL A   1      43.957  27.616  33.226  1.00  0.00    -0.014 A 
BRANCH  48  49
ATOM     49  C   UNL A   1      42.732  28.347  32.721  1.00  0.00     0.031 A 
ATOM     50  C   UNL A   1      42.456  28.058  31.311  1.00  0.00     0.074 A 
ATOM     51  C   UNL A   1      41.879  29.114  33.477  1.00  0.00     0.049 A 
ATOM     52  N   UNL A   1      41.457  28.429  30.578  1.00  0.00    -0.248 NA
ATOM     53  C   UNL A   1      43.432  27.189  30.641  1.00  0.00     0.031 C 
ATOM     54  C   UNL A   1      41.985  29.391  34.908  1.00  0.00     0.029 A 
ATOM     55  N   UNL A   1      40.744  29.846  33.182  1.00  0.00    -0.354 N 
ATOM     56  C   UNL A   1      41.661  27.781  29.380  1.00  0.00     0.074 A 
ATOM     57  C   UNL A   1      42.911  27.076  29.443  1.00  0.00     0.031 C 
ATOM     58  C   UNL A   1      41.047  30.219  35.370  1.00  0.00     0.029 A 
ATOM     59  C   UNL A   1      40.249  30.604  34.245  1.00  0.00     0.049 A 
ATOM     60  H   UNL A   1      40.320  29.835  32.294  1.00  0.00     0.167 HD
ATOM     61  C   UNL A   1      40.848  27.781  28.314  1.00  0.00     0.037 A 
ATOM     62  C   UNL A   1      39.286  31.543  34.304  1.00  0.00     0.037 A 
ATOM     63  C   UNL A   1      39.745  28.683  28.236  1.00  0.00     0.049 A 
ATOM     64  C   UNL A   1      38.575  31.753  33.008  1.00  0.00     0.074 A 
ATOM     65  C   UNL A   1      38.954  28.990  27.156  1.00  0.00     0.029 A 
ATOM     66  N   UNL A   1      39.342  29.498  29.295  1.00  0.00    -0.354 N 
ATOM     67  N   UNL A   1      38.788  31.144  31.866  1.00  0.00    -0.248 NA
ATOM     68  C   UNL A   1      37.486  32.725  32.997  1.00  0.00     0.031 C 
ATOM     69  C   UNL A   1      38.138  30.062  27.533  1.00  0.00     0.029 A 
ATOM     70  C   UNL A   1      38.332  30.339  28.883  1.00  0.00     0.049 A 
ATOM     71  H   UNL A   1      39.722  29.474  30.204  1.00  0.00     0.167 HD
ATOM     72  C   UNL A   1      37.822  31.606  31.004  1.00  0.00     0.074 A 
ATOM     73  C   UNL A   1      37.018  32.550  31.770  1.00  0.00     0.031 C 
ATOM     74  C   UNL A   1      37.602  31.272  29.709  1.00  0.00     0.037 A 
BRANCH  61  75
ATOM     75  C   UNL A   1      41.316  26.916  27.191  1.00  0.00     0.064 A 
ATOM     76  C   UNL A   1      41.044  25.532  27.181  1.00  0.00     0.173 A 
ATOM     77  C   UNL A   1      42.276  27.406  26.299  1.00  0.00     0.173 A 
ATOM     78  F   UNL A   1      40.221  24.998  28.099  1.00  0.00    -0.203 F 
ATOM     79  C   UNL A   1      41.753  24.672  26.347  1.00  0.00     0.198 A 
ATOM     80  C   UNL A   1      42.951  26.547  25.438  1.00  0.00     0.198 A 
ATOM     81  F   UNL A   1      42.635  28.698  26.337  1.00  0.00    -0.203 F 
ATOM     82  F   UNL A   1      41.587  23.346  26.456  1.00  0.00    -0.200 F 
ATOM     83  C   UNL A   1      42.702  25.182  25.473  1.00  0.00     0.200 A 
ATOM     84  F   UNL A   1      43.896  27.033  24.622  1.00  0.00    -0.200 F 
ATOM     85  F   UNL A   1      43.412  24.352  24.698  1.00  0.00    -0.200 F 
ENDBRANCH  61  75
BRANCH  62  86
ATOM     86  C   UNL A   1      38.927  32.293  35.555  1.00  0.00     0.064 A 
ATOM     87  C   UNL A   1      39.335  33.624  35.745  1.00  0.00     0.173 A 
ATOM     88  C   UNL A   1      38.202  31.705  36.609  1.00  0.00     0.173 A 
ATOM     89  F   UNL A   1      40.037  34.248  34.787  1.00  0.00    -0.203 F 
ATOM     90  C   UNL A   1      39.067  34.319  36.929  1.00  0.00     0.198 A 
ATOM     91  C   UNL A   1      37.912  32.409  37.786  1.00  0.00     0.198 A 
ATOM     92  F   UNL A   1      37.774  30.439  36.507  1.00  0.00    -0.203 F 
ATOM     93  F   UNL A   1      39.519  35.571  37.088  1.00  0.00    -0.200 F 
ATOM     94  C   UNL A   1      38.354  33.711  37.950  1.00  0.00     0.200 A 
ATOM     95  F   UNL A   1      37.211  31.820  38.767  1.00  0.00    -0.200 F 
ATOM     96  F   UNL A   1      38.104  34.375  39.088  1.00  0.00    -0.200 F 
ENDBRANCH  62  86
BRANCH  74  97
ATOM     97  C   UNL A   1      36.400  31.894  29.091  1.00  0.00     0.064 A 
ATOM     98  C   UNL A   1      36.357  33.251  28.753  1.00  0.00     0.173 A 
ATOM     99  C   UNL A   1      35.282  31.092  28.822  1.00  0.00     0.173 A 
ATOM    100  F   UNL A   1      37.406  34.049  29.011  1.00  0.00    -0.203 F 
ATOM    101  C   UNL A   1      35.203  33.802  28.220  1.00  0.00     0.198 A 
ATOM    102  C   UNL A   1      34.157  31.633  28.227  1.00  0.00     0.198 A 
ATOM    103  F   UNL A   1      35.293  29.785  29.125  1.00  0.00    -0.203 F 
ATOM    104  F   UNL A   1      35.137  35.120  27.996  1.00  0.00    -0.200 F 
ATOM    105  C   UNL A   1      34.110  32.991  27.946  1.00  0.00     0.200 A 
ATOM    106  F   UNL A   1      33.117  30.843  27.930  1.00  0.00    -0.200 F 
ATOM    107  F   UNL A   1      33.000  33.522  27.419  1.00  0.00    -0.200 F 
ENDBRANCH  74  97
ENDBRANCH  48  49
ENDBRANCH  41  43
ENDBRANCH  40  41
ENDBRANCH  39  40
ENDBRANCH   1  39
TORSDOF 15
ENDMDL
MODEL 2
REMARK VINA RESULT:     -12.4      3.025      5.838
REMARK SMILES CC1(C)CC[C@@]2(C(=O)OCCOCCOC(=O)c3ccc(-c4c5nc(c(-c6c(F)c(F)c(F)c(F)c6F)c6ccc([nH]6)c(-c6c(F)c(F)c(F)c(F)c6F)c6nc(c(-c7c(F)c(F)c(F)c(F)c7F)c7ccc4[nH]7)C=C6)C=C5)cc3)CC[C@@]3(C)C(=CC[C@H]4[C@@]5(C)CC[C@H](O)C(C)(C)[C@@H]5CC[C@@]43C)[C@@H]2C1
REMARK SMILES IDX 13 1 12 2 11 3 10 4 9 5 7 6 8 7 6 8 1 9 2 10 3 11 4 12
REMARK SMILES IDX 104 13 5 14 103 15 85 16 81 17 83 18 86 19 82 20 84 21
REMARK SMILES IDX 101 22 87 23 88 24 100 25 102 26 89 27 99 28 90 29 91 30
REMARK SMILES IDX 98 31 92 32 95 33 93 34 96 35 97 36 94 37 14 39 15 40 16 41
REMARK SMILES IDX 17 42 18 43 19 44 80 45 20 46 79 47 21 48 22 49 23 50 73 51
REMARK SMILES IDX 24 52 78 53 72 54 74 55 25 56 77 57 71 58 70 59 26 61 58 62
REMARK SMILES IDX 38 63 57 64 39 65 42 66 56 67 75 68 40 69 41 70 55 72 76 73
REMARK SMILES IDX 43 74 27 75 28 76 36 77 29 78 30 79 34 80 37 81 31 82 32 83
REMARK SMILES IDX 35 84 33 85 59 86 60 87 68 88 61 89 62 90 66 91 69 92 63 93
REMARK SMILES IDX 64 94 67 95 65 96 44 97 45 98 53 99 46 100 47 101 51 102
REMARK SMILES IDX 54 103 48 104 49 105 52 106 50 107
REMARK H PARENT 94 38 74 60 42 71
REMARK Flexibility Score: inf
ROOT
ATOM      1  C   UNL A   1      49.160  26.376  33.120  1.00  0.00     0.202 C 
ENDROOT
BRANCH   1   2
ATOM      2  O   UNL A   1      48.165  25.347  32.128  1.00  0.00    -0.374 OA
BRANCH   2   3
ATOM      3  C   UNL A   1      46.478  25.541  31.447  1.00  0.00     0.202 C 
BRANCH   3   4
ATOM      4  C   UNL A   1      46.238  25.425  29.347  1.00  0.00     0.261 C 
BRANCH   4   5
ATOM      5  O   UNL A   1      47.336  25.529  28.129  1.00  0.00    -0.463 OA
BRANCH   5   6
ATOM      6  C   UNL A   1      48.144  26.440  27.562  1.00  0.00     0.312 C 
ATOM      7  O   UNL A   1      48.025  27.665  27.636  1.00  0.00    -0.252 OA
BRANCH   6   8
ATOM      8  C   UNL A   1      49.253  25.811  26.856  1.00  0.00     0.075 C 
ATOM      9  C   UNL A   1      48.513  26.967  23.169  1.00  0.00     0.011 C 
ATOM     10  C   UNL A   1      47.998  27.302  24.569  1.00  0.00    -0.035 C 
ATOM     11  C   UNL A   1      46.787  28.283  24.413  1.00  0.00     0.011 C 
ATOM     12  C   UNL A   1      47.387  26.005  25.129  1.00  0.00     0.007 C 
ATOM     13  C   UNL A   1      49.227  27.959  25.400  1.00  0.00     0.015 C 
ATOM     14  C   UNL A   1      48.448  25.082  25.752  1.00  0.00     0.020 C 
ATOM     15  C   UNL A   1      50.167  27.007  26.448  1.00  0.00     0.033 C 
ATOM     16  C   UNL A   1      50.959  27.614  27.957  1.00  0.00    -0.063 C 
ATOM     17  C   UNL A   1      49.840  24.903  27.930  1.00  0.00     0.020 C 
ATOM     18  C   UNL A   1      49.841  27.070  29.442  1.00  0.00    -0.006 C 
ATOM     19  C   UNL A   1      51.525  28.989  28.060  1.00  0.00    -0.027 C 
ATOM     20  C   UNL A   1      49.535  25.490  29.343  1.00  0.00     0.013 C 
ATOM     21  C   UNL A   1      51.483  26.628  30.087  1.00  0.00     0.017 C 
ATOM     22  C   UNL A   1      48.448  28.550  30.160  1.00  0.00    -0.020 C 
ATOM     23  C   UNL A   1      50.746  30.487  28.896  1.00  0.00     0.032 C 
ATOM     24  C   UNL A   1      49.086  30.398  29.880  1.00  0.00     0.006 C 
ATOM     25  C   UNL A   1      47.691  29.314  31.676  1.00  0.00     0.008 C 
ATOM     26  C   UNL A   1      47.221  28.217  29.487  1.00  0.00     0.012 C 
ATOM     27  C   UNL A   1      47.902  31.275  29.423  1.00  0.00    -0.025 C 
ATOM     28  C   UNL A   1      46.417  30.474  31.604  1.00  0.00     0.005 C 
ATOM     29  C   UNL A   1      48.241  32.672  30.165  1.00  0.00     0.012 C 
ATOM     30  C   UNL A   1      47.987  31.260  27.520  1.00  0.00     0.010 C 
ATOM     31  C   UNL A   1      46.153  31.029  30.183  1.00  0.00     0.003 C 
ATOM     32  C   UNL A   1      46.788  31.710  26.433  1.00  0.00     0.033 C 
ATOM     33  C   UNL A   1      44.483  31.760  29.181  1.00  0.00    -0.006 C 
ATOM     34  C   UNL A   1      44.926  31.612  26.953  1.00  0.00     0.120 C 
ATOM     35  C   UNL A   1      44.422  33.122  30.200  1.00  0.00     0.014 C 
ATOM     36  C   UNL A   1      43.163  31.060  30.037  1.00  0.00     0.014 C 
BRANCH  34  37
ATOM     37  O   UNL A   1      44.439  32.258  25.681  1.00  0.00    -0.393 OA
ATOM     38  H   UNL A   1      43.876  33.016  25.899  1.00  0.00     0.210 HD
ENDBRANCH  34  37
ENDBRANCH   6   8
ENDBRANCH   5   6
ENDBRANCH   4   5
ENDBRANCH   3   4
ENDBRANCH   2   3
ENDBRANCH   1   2
BRANCH   1  39
ATOM     39  C   UNL A   1      49.726  26.647  34.933  1.00  0.00     0.261 C 
BRANCH  39  40
ATOM     40  O   UNL A   1      48.987  26.192  36.460  1.00  0.00    -0.460 OA
BRANCH  40  41
ATOM     41  C   UNL A   1      47.698  25.463  36.820  1.00  0.00     0.338 C 
ATOM     42  O   UNL A   1      47.725  24.437  37.508  1.00  0.00    -0.246 OA
BRANCH  41  43
ATOM     43  C   UNL A   1      46.093  25.868  36.194  1.00  0.00     0.060 A 
ATOM     44  C   UNL A   1      44.467  25.143  35.405  1.00  0.00     0.016 A 
ATOM     45  C   UNL A   1      46.380  27.521  35.606  1.00  0.00     0.016 A 
ATOM     46  C   UNL A   1      43.454  26.019  34.252  1.00  0.00     0.010 A 
ATOM     47  C   UNL A   1      45.312  28.203  34.414  1.00  0.00     0.010 A 
ATOM     48  C   UNL A   1      43.849  27.459  33.835  1.00  0.00    -0.014 A 
BRANCH  48  49
ATOM     49  C   UNL A   1      42.660  28.212  33.278  1.00  0.00     0.031 A 
ATOM     50  C   UNL A   1      42.457  27.949  31.851  1.00  0.00     0.074 A 
ATOM     51  C   UNL A   1      41.776  28.976  34.000  1.00  0.00     0.049 A 
ATOM     52  N   UNL A   1      41.502  28.342  31.072  1.00  0.00    -0.248 NA
ATOM     53  C   UNL A   1      43.458  27.079  31.220  1.00  0.00     0.031 C 
ATOM     54  C   UNL A   1      41.808  29.228  35.439  1.00  0.00     0.029 A 
ATOM     55  N   UNL A   1      40.665  29.725  33.658  1.00  0.00    -0.354 N 
ATOM     56  C   UNL A   1      41.764  27.711  29.876  1.00  0.00     0.074 A 
ATOM     57  C   UNL A   1      43.001  26.991  29.994  1.00  0.00     0.031 C 
ATOM     58  C   UNL A   1      40.855  30.059  35.864  1.00  0.00     0.029 A 
ATOM     59  C   UNL A   1      40.122  30.471  34.705  1.00  0.00     0.049 A 
ATOM     60  H   UNL A   1      40.289  29.732  32.748  1.00  0.00     0.167 HD
ATOM     61  C   UNL A   1      41.009  27.737  28.768  1.00  0.00     0.037 A 
ATOM     62  C   UNL A   1      39.167  31.420  34.728  1.00  0.00     0.037 A 
ATOM     63  C   UNL A   1      39.920  28.652  28.646  1.00  0.00     0.049 A 
ATOM     64  C   UNL A   1      38.528  31.658  33.400  1.00  0.00     0.074 A 
ATOM     65  C   UNL A   1      39.192  28.986  27.531  1.00  0.00     0.029 A 
ATOM     66  N   UNL A   1      39.469  29.455  29.696  1.00  0.00    -0.354 N 
ATOM     67  N   UNL A   1      38.796  31.065  32.260  1.00  0.00    -0.248 NA
ATOM     68  C   UNL A   1      37.451  32.642  33.347  1.00  0.00     0.031 C 
ATOM     69  C   UNL A   1      38.368  30.060  27.882  1.00  0.00     0.029 A 
ATOM     70  C   UNL A   1      38.492  30.313  29.245  1.00  0.00     0.049 A 
ATOM     71  H   UNL A   1      39.801  29.412  30.623  1.00  0.00     0.167 HD
ATOM     72  C   UNL A   1      37.882  31.551  31.356  1.00  0.00     0.074 A 
ATOM     73  C   UNL A   1      37.048  32.491  32.094  1.00  0.00     0.031 C 
ATOM     74  C   UNL A   1      37.728  31.240  30.046  1.00  0.00     0.037 A 
BRANCH  61  75
ATOM     75  C   UNL A   1      41.527  26.885  27.657  1.00  0.00     0.064 A 
ATOM     76  C   UNL A   1      41.294  25.494  27.642  1.00  0.00     0.173 A 
ATOM     77  C   UNL A   1      42.495  27.401  26.788  1.00  0.00     0.173 A 
ATOM     78  F   UNL A   1      40.464  24.937  28.540  1.00  0.00    -0.203 F 
ATOM     79  C   UNL A   1      42.046  24.654  26.826  1.00  0.00     0.198 A 
ATOM     80  C   UNL A   1      43.213  26.561  25.944  1.00  0.00     0.198 A 
ATOM     81  F   UNL A   1      42.817  28.703  26.834  1.00  0.00    -0.203 F 
ATOM     82  F   UNL A   1      41.914  23.324  26.932  1.00  0.00    -0.200 F 
ATOM     83  C   UNL A   1      43.001  25.190  25.975  1.00  0.00     0.200 A 
ATOM     84  F   UNL A   1      44.164  27.072  25.151  1.00  0.00    -0.200 F 
ATOM     85  F   UNL A   1      43.753  24.379  25.218  1.00  0.00    -0.200 F 
ENDBRANCH  61  75
BRANCH  62  86
ATOM     86  C   UNL A   1      38.749  32.153  35.971  1.00  0.00     0.064 A 
ATOM     87  C   UNL A   1      39.125  33.490  36.184  1.00  0.00     0.173 A 
ATOM     88  C   UNL A   1      37.998  31.544  36.994  1.00  0.00     0.173 A 
ATOM     89  F   UNL A   1      39.849  34.134  35.257  1.00  0.00    -0.203 F 
ATOM     90  C   UNL A   1      38.801  34.171  37.363  1.00  0.00     0.198 A 
ATOM     91  C   UNL A   1      37.652  32.233  38.165  1.00  0.00     0.198 A 
ATOM     92  F   UNL A   1      37.598  30.270  36.867  1.00  0.00    -0.203 F 
ATOM     93  F   UNL A   1      39.224  35.430  37.546  1.00  0.00    -0.200 F 
ATOM     94  C   UNL A   1      38.064  33.543  38.353  1.00  0.00     0.200 A 
ATOM     95  F   UNL A   1      36.928  31.624  39.115  1.00  0.00    -0.200 F 
ATOM     96  F   UNL A   1      37.761  34.193  39.486  1.00  0.00    -0.200 F 
ENDBRANCH  62  86
BRANCH  74  97
ATOM     97  C   UNL A   1      36.567  31.886  29.376  1.00  0.00     0.064 A 
ATOM     98  C   UNL A   1      36.551  33.251  29.070  1.00  0.00     0.173 A 
ATOM     99  C   UNL A   1      35.463  31.099  29.022  1.00  0.00     0.173 A 
ATOM    100  F   UNL A   1      37.588  34.035  29.407  1.00  0.00    -0.203 F 
ATOM    101  C   UNL A   1      35.433  33.822  28.484  1.00  0.00     0.198 A 
ATOM    102  C   UNL A   1      34.376  31.661  28.376  1.00  0.00     0.198 A 
ATOM    103  F   UNL A   1      35.449  29.784  29.292  1.00  0.00    -0.203 F 
ATOM    104  F   UNL A   1      35.387  35.146  28.290  1.00  0.00    -0.200 F 
ATOM    105  C   UNL A   1      34.353  33.026  28.127  1.00  0.00     0.200 A 
ATOM    106  F   UNL A   1      33.352  30.886  28.000  1.00  0.00    -0.200 F 
ATOM    107  F   UNL A   1      33.278  33.577  27.550  1.00  0.00    -0.200 F 
ENDBRANCH  74  97
ENDBRANCH  48  49
ENDBRANCH  41  43
ENDBRANCH  40  41
ENDBRANCH  39  40
ENDBRANCH   1  39
TORSDOF 15
ENDMDL
MODEL 3
REMARK VINA RESULT:     -12.3      3.060      7.927
REMARK SMILES CC1(C)CC[C@@]2(C(=O)OCCOCCOC(=O)c3ccc(-c4c5nc(c(-c6c(F)c(F)c(F)c(F)c6F)c6ccc([nH]6)c(-c6c(F)c(F)c(F)c(F)c6F)c6nc(c(-c7c(F)c(F)c(F)c(F)c7F)c7ccc4[nH]7)C=C6)C=C5)cc3)CC[C@@]3(C)C(=CC[C@H]4[C@@]5(C)CC[C@H](O)C(C)(C)[C@@H]5CC[C@@]43C)[C@@H]2C1
REMARK SMILES IDX 13 1 12 2 11 3 10 4 9 5 7 6 8 7 6 8 1 9 2 10 3 11 4 12
REMARK SMILES IDX 104 13 5 14 103 15 85 16 81 17 83 18 86 19 82 20 84 21
REMARK SMILES IDX 101 22 87 23 88 24 100 25 102 26 89 27 99 28 90 29 91 30
REMARK SMILES IDX 98 31 92 32 95 33 93 34 96 35 97 36 94 37 14 39 15 40 16 41
REMARK SMILES IDX 17 42 18 43 19 44 80 45 20 46 79 47 21 48 22 49 23 50 73 51
REMARK SMILES IDX 24 52 78 53 72 54 74 55 25 56 77 57 71 58 70 59 26 61 58 62
REMARK SMILES IDX 38 63 57 64 39 65 42 66 56 67 75 68 40 69 41 70 55 72 76 73
REMARK SMILES IDX 43 74 27 75 28 76 36 77 29 78 30 79 34 80 37 81 31 82 32 83
REMARK SMILES IDX 35 84 33 85 59 86 60 87 68 88 61 89 62 90 66 91 69 92 63 93
REMARK SMILES IDX 64 94 67 95 65 96 44 97 45 98 53 99 46 100 47 101 51 102
REMARK SMILES IDX 54 103 48 104 49 105 52 106 50 107
REMARK H PARENT 94 38 74 60 42 71
REMARK Flexibility Score: inf
ROOT
ATOM      1  C   UNL A   1      40.138  36.819  37.579  1.00  0.00     0.202 C 
ENDROOT
BRANCH   1   2
ATOM      2  O   UNL A   1      39.653  36.640  35.915  1.00  0.00    -0.374 OA
BRANCH   2   3
ATOM      3  C   UNL A   1      39.055  35.206  34.950  1.00  0.00     0.202 C 
BRANCH   3   4
ATOM      4  C   UNL A   1      40.353  34.382  33.494  1.00  0.00     0.261 C 
BRANCH   4   5
ATOM      5  O   UNL A   1      41.990  34.243  33.463  1.00  0.00    -0.463 OA
BRANCH   5   6
ATOM      6  C   UNL A   1      42.974  33.998  32.582  1.00  0.00     0.312 C 
ATOM      7  O   UNL A   1      43.468  34.810  31.798  1.00  0.00    -0.252 OA
BRANCH   6   8
ATOM      8  C   UNL A   1      43.455  32.625  32.682  1.00  0.00     0.075 C 
ATOM      9  C   UNL A   1      43.194  31.493  28.923  1.00  0.00     0.011 C 
ATOM     10  C   UNL A   1      43.089  32.803  29.705  1.00  0.00    -0.035 C 
ATOM     11  C   UNL A   1      42.652  33.926  28.704  1.00  0.00     0.011 C 
ATOM     12  C   UNL A   1      41.896  32.641  30.663  1.00  0.00     0.007 C 
ATOM     13  C   UNL A   1      44.539  33.095  30.371  1.00  0.00     0.015 C 
ATOM     14  C   UNL A   1      42.285  31.912  31.961  1.00  0.00     0.020 C 
ATOM     15  C   UNL A   1      44.850  32.664  31.985  1.00  0.00     0.033 C 
ATOM     16  C   UNL A   1      45.974  33.553  33.089  1.00  0.00    -0.063 C 
ATOM     17  C   UNL A   1      43.506  32.414  34.190  1.00  0.00     0.020 C 
ATOM     18  C   UNL A   1      44.881  34.670  34.232  1.00  0.00    -0.006 C 
ATOM     19  C   UNL A   1      47.233  34.184  32.601  1.00  0.00    -0.027 C 
ATOM     20  C   UNL A   1      43.717  33.782  34.909  1.00  0.00     0.013 C 
ATOM     21  C   UNL A   1      46.021  33.960  35.459  1.00  0.00     0.017 C 
ATOM     22  C   UNL A   1      44.658  36.720  33.606  1.00  0.00    -0.020 C 
ATOM     23  C   UNL A   1      47.531  36.008  32.237  1.00  0.00     0.032 C 
ATOM     24  C   UNL A   1      46.214  37.379  32.582  1.00  0.00     0.006 C 
ATOM     25  C   UNL A   1      44.612  38.487  34.179  1.00  0.00     0.008 C 
ATOM     26  C   UNL A   1      43.408  36.723  32.891  1.00  0.00     0.012 C 
ATOM     27  C   UNL A   1      45.712  38.242  31.406  1.00  0.00    -0.025 C 
ATOM     28  C   UNL A   1      44.232  39.803  33.131  1.00  0.00     0.005 C 
ATOM     29  C   UNL A   1      46.855  39.387  31.347  1.00  0.00     0.012 C 
ATOM     30  C   UNL A   1      45.607  37.044  29.929  1.00  0.00     0.010 C 
ATOM     31  C   UNL A   1      44.212  39.424  31.630  1.00  0.00     0.003 C 
ATOM     32  C   UNL A   1      44.795  37.270  28.476  1.00  0.00     0.033 C 
ATOM     33  C   UNL A   1      43.185  40.113  29.958  1.00  0.00    -0.006 C 
ATOM     34  C   UNL A   1      43.267  38.456  28.399  1.00  0.00     0.120 C 
ATOM     35  C   UNL A   1      44.006  41.603  30.021  1.00  0.00     0.014 C 
ATOM     36  C   UNL A   1      41.782  40.856  30.626  1.00  0.00     0.014 C 
BRANCH  34  37
ATOM     37  O   UNL A   1      43.130  38.335  26.902  1.00  0.00    -0.393 OA
ATOM     38  H   UNL A   1      43.051  39.219  26.512  1.00  0.00     0.210 HD
ENDBRANCH  34  37
ENDBRANCH   6   8
ENDBRANCH   5   6
ENDBRANCH   4   5
ENDBRANCH   3   4
ENDBRANCH   2   3
ENDBRANCH   1   2
BRANCH   1  39
ATOM     39  C   UNL A   1      39.432  36.957  39.357  1.00  0.00     0.261 C 
BRANCH  39  40
ATOM     40  O   UNL A   1      38.618  35.782  40.378  1.00  0.00    -0.460 OA
BRANCH  40  41
ATOM     41  C   UNL A   1      38.428  34.272  40.286  1.00  0.00     0.338 C 
ATOM     42  O   UNL A   1      38.471  33.569  41.300  1.00  0.00    -0.246 OA
BRANCH  41  43
ATOM     43  C   UNL A   1      38.298  33.356  38.779  1.00  0.00     0.060 A 
ATOM     44  C   UNL A   1      37.407  31.865  37.898  1.00  0.00     0.016 A 
ATOM     45  C   UNL A   1      39.940  33.564  38.127  1.00  0.00     0.016 A 
ATOM     46  C   UNL A   1      38.157  30.863  36.651  1.00  0.00     0.010 A 
ATOM     47  C   UNL A   1      40.541  32.437  36.946  1.00  0.00     0.010 A 
ATOM     48  C   UNL A   1      39.606  31.174  36.197  1.00  0.00    -0.014 A 
BRANCH  48  49
ATOM     49  C   UNL A   1      39.889  30.585  34.832  1.00  0.00     0.031 A 
ATOM     50  C   UNL A   1      41.062  29.705  34.841  1.00  0.00     0.074 A 
ATOM     51  C   UNL A   1      39.112  30.732  33.710  1.00  0.00     0.049 A 
ATOM     52  N   UNL A   1      41.543  28.970  33.892  1.00  0.00    -0.248 NA
ATOM     53  C   UNL A   1      41.772  29.611  36.124  1.00  0.00     0.031 C 
ATOM     54  C   UNL A   1      37.869  31.493  33.599  1.00  0.00     0.029 A 
ATOM     55  N   UNL A   1      39.225  30.282  32.408  1.00  0.00    -0.354 N 
ATOM     56  C   UNL A   1      42.574  28.282  34.492  1.00  0.00     0.074 A 
ATOM     57  C   UNL A   1      42.716  28.745  35.844  1.00  0.00     0.031 C 
ATOM     58  C   UNL A   1      37.354  31.512  32.368  1.00  0.00     0.029 A 
ATOM     59  C   UNL A   1      38.261  30.785  31.533  1.00  0.00     0.049 A 
ATOM     60  H   UNL A   1      39.929  29.657  32.121  1.00  0.00     0.167 HD
ATOM     61  C   UNL A   1      43.337  27.327  33.938  1.00  0.00     0.037 A 
ATOM     62  C   UNL A   1      38.140  30.710  30.193  1.00  0.00     0.037 A 
ATOM     63  C   UNL A   1      43.295  27.082  32.533  1.00  0.00     0.049 A 
ATOM     64  C   UNL A   1      39.192  29.874  29.544  1.00  0.00     0.074 A 
ATOM     65  C   UNL A   1      44.145  26.328  31.761  1.00  0.00     0.029 A 
ATOM     66  N   UNL A   1      42.373  27.684  31.674  1.00  0.00    -0.354 N 
ATOM     67  N   UNL A   1      40.183  29.236  30.120  1.00  0.00    -0.248 NA
ATOM     68  C   UNL A   1      39.107  29.706  28.096  1.00  0.00     0.031 C 
ATOM     69  C   UNL A   1      43.798  26.553  30.425  1.00  0.00     0.029 A 
ATOM     70  C   UNL A   1      42.656  27.346  30.370  1.00  0.00     0.049 A 
ATOM     71  H   UNL A   1      41.629  28.263  31.960  1.00  0.00     0.167 HD
ATOM     72  C   UNL A   1      40.813  28.533  29.122  1.00  0.00     0.074 A 
ATOM     73  C   UNL A   1      40.080  28.828  27.898  1.00  0.00     0.031 C 
ATOM     74  C   UNL A   1      41.884  27.706  29.204  1.00  0.00     0.037 A 
BRANCH  61  75
ATOM     75  C   UNL A   1      44.326  26.717  34.876  1.00  0.00     0.064 A 
ATOM     76  C   UNL A   1      45.656  27.182  34.928  1.00  0.00     0.173 A 
ATOM     77  C   UNL A   1      44.029  25.494  35.488  1.00  0.00     0.173 A 
ATOM     78  F   UNL A   1      46.013  28.287  34.253  1.00  0.00    -0.203 F 
ATOM     79  C   UNL A   1      46.656  26.417  35.523  1.00  0.00     0.198 A 
ATOM     80  C   UNL A   1      45.025  24.755  36.117  1.00  0.00     0.198 A 
ATOM     81  F   UNL A   1      42.800  24.967  35.382  1.00  0.00    -0.203 F 
ATOM     82  F   UNL A   1      47.936  26.804  35.433  1.00  0.00    -0.200 F 
ATOM     83  C   UNL A   1      46.337  25.207  36.121  1.00  0.00     0.200 A 
ATOM     84  F   UNL A   1      44.726  23.567  36.660  1.00  0.00    -0.200 F 
ATOM     85  F   UNL A   1      47.304  24.452  36.659  1.00  0.00    -0.200 F 
ENDBRANCH  61  75
BRANCH  62  86
ATOM     86  C   UNL A   1      37.037  31.372  29.418  1.00  0.00     0.064 A 
ATOM     87  C   UNL A   1      37.036  32.760  29.200  1.00  0.00     0.173 A 
ATOM     88  C   UNL A   1      35.940  30.657  28.900  1.00  0.00     0.173 A 
ATOM     89  F   UNL A   1      38.044  33.509  29.671  1.00  0.00    -0.203 F 
ATOM     90  C   UNL A   1      35.986  33.404  28.536  1.00  0.00     0.198 A 
ATOM     91  C   UNL A   1      34.900  31.299  28.213  1.00  0.00     0.198 A 
ATOM     92  F   UNL A   1      35.866  29.328  29.062  1.00  0.00    -0.203 F 
ATOM     93  F   UNL A   1      36.001  34.738  28.395  1.00  0.00    -0.200 F 
ATOM     94  C   UNL A   1      34.919  32.673  28.041  1.00  0.00     0.200 A 
ATOM     95  F   UNL A   1      33.874  30.585  27.725  1.00  0.00    -0.200 F 
ATOM     96  F   UNL A   1      33.909  33.292  27.412  1.00  0.00    -0.200 F 
ENDBRANCH  62  86
BRANCH  74  97
ATOM     97  C   UNL A   1      42.256  27.025  27.934  1.00  0.00     0.064 A 
ATOM     98  C   UNL A   1      43.220  27.548  27.065  1.00  0.00     0.173 A 
ATOM     99  C   UNL A   1      41.634  25.812  27.607  1.00  0.00     0.173 A 
ATOM    100  F   UNL A   1      43.824  28.715  27.344  1.00  0.00    -0.203 F 
ATOM    101  C   UNL A   1      43.506  26.906  25.872  1.00  0.00     0.198 A 
ATOM    102  C   UNL A   1      41.973  25.140  26.446  1.00  0.00     0.198 A 
ATOM    103  F   UNL A   1      40.712  25.278  28.422  1.00  0.00    -0.203 F 
ATOM    104  F   UNL A   1      44.354  27.467  25.001  1.00  0.00    -0.200 F 
ATOM    105  C   UNL A   1      42.892  25.698  25.569  1.00  0.00     0.200 A 
ATOM    106  F   UNL A   1      41.407  23.957  26.174  1.00  0.00    -0.200 F 
ATOM    107  F   UNL A   1      43.179  25.072  24.421  1.00  0.00    -0.200 F 
ENDBRANCH  74  97
ENDBRANCH  48  49
ENDBRANCH  41  43
ENDBRANCH  40  41
ENDBRANCH  39  40
ENDBRANCH   1  39
TORSDOF 15
ENDMDL
