MODEL 1
REMARK VINA RESULT:     -12.5      0.000      0.000
REMARK SMILES Cc1ccnc(C(=O)c2[nH]c3ccc(F)cc3c2CC(=O)OCCOCCOC(=O)c2ccc(-c3c4nc(c(-c5c(F)c(F)c(F)c(F)c5F)c5ccc([nH]5)c(-c5c(F)c(F)c(F)c(F)c5F)c5nc(c(-c6c(F)c(F)c(F)c(F)c6F)c6ccc3[nH]6)C=C5)C=C4)cc2)c1
REMARK SMILES IDX 24 1 23 2 22 3 20 4 21 5 19 6 18 7 9 8 10 9 11 10 17 12
REMARK SMILES IDX 12 13 16 14 13 15 14 16 15 17 7 18 8 19 6 20 1 21 2 22 3 23
REMARK SMILES IDX 94 24 4 25 5 26 25 27 26 28 27 29 28 30 29 31 30 32 31 33
REMARK SMILES IDX 32 34 93 35 33 36 92 37 34 38 35 39 36 40 86 41 37 42 91 43
REMARK SMILES IDX 85 44 87 45 38 46 90 47 84 48 83 49 39 51 71 52 51 53 70 54
REMARK SMILES IDX 52 55 55 56 69 57 88 58 53 59 54 60 68 62 89 63 56 64 40 65
REMARK SMILES IDX 41 66 49 67 42 68 43 69 47 70 50 71 44 72 45 73 48 74 46 75
REMARK SMILES IDX 72 76 73 77 81 78 74 79 75 80 79 81 82 82 76 83 77 84 80 85
REMARK SMILES IDX 78 86 57 87 58 88 66 89 59 90 60 91 64 92 67 93 61 94 62 95
REMARK SMILES IDX 65 96 63 97
REMARK H PARENT 10 11 87 50 55 61
REMARK Flexibility Score: inf
ROOT
ATOM      1  C   UNL A   1      32.331  28.769  26.346  1.00  0.00     0.202 C 
ENDROOT
BRANCH   1   2
ATOM      2  C   UNL A   1      31.408  27.599  26.767  1.00  0.00     0.261 C 
BRANCH   2   3
ATOM      3  O   UNL A   1      31.780  26.325  26.192  1.00  0.00    -0.463 OA
BRANCH   3   4
ATOM      4  C   UNL A   1      30.749  25.479  25.889  1.00  0.00     0.310 C 
ATOM      5  O   UNL A   1      30.048  24.919  26.724  1.00  0.00    -0.252 OA
BRANCH   4   6
ATOM      6  C   UNL A   1      30.561  25.270  24.398  1.00  0.00     0.161 C 
BRANCH   6   7
ATOM      7  C   UNL A   1      30.814  26.466  23.517  1.00  0.00     0.000 A 
ATOM      8  C   UNL A   1      31.967  26.835  22.805  1.00  0.00     0.093 A 
ATOM      9  N   UNL A   1      31.728  28.146  22.394  1.00  0.00    -0.352 N 
ATOM     10  C   UNL A   1      30.407  28.494  22.512  1.00  0.00     0.046 A 
ATOM     11  H   UNL A   1      32.428  28.752  22.058  1.00  0.00     0.167 HD
ATOM     12  C   UNL A   1      29.804  27.482  23.251  1.00  0.00     0.007 A 
ATOM     13  C   UNL A   1      29.709  29.598  21.994  1.00  0.00     0.030 A 
ATOM     14  C   UNL A   1      28.422  27.605  23.527  1.00  0.00     0.049 A 
ATOM     15  C   UNL A   1      28.334  29.663  22.231  1.00  0.00     0.041 A 
ATOM     16  C   UNL A   1      27.712  28.686  22.994  1.00  0.00     0.123 A 
ATOM     17  F   UNL A   1      26.390  28.765  23.201  1.00  0.00    -0.207 F 
BRANCH   8  18
ATOM     18  C   UNL A   1      33.309  26.296  22.515  1.00  0.00     0.227 C 
ATOM     19  O   UNL A   1      33.902  26.793  21.551  1.00  0.00    -0.285 OA
BRANCH  18  20
ATOM     20  C   UNL A   1      33.983  25.075  23.137  1.00  0.00     0.113 A 
ATOM     21  C   UNL A   1      35.168  23.542  26.436  1.00  0.00     0.044 C 
ATOM     22  C   UNL A   1      34.738  23.698  25.002  1.00  0.00    -0.047 A 
ATOM     23  C   UNL A   1      34.696  22.588  24.168  1.00  0.00     0.023 A 
ATOM     24  C   UNL A   1      34.388  24.955  24.466  1.00  0.00     0.036 A 
ATOM     25  C   UNL A   1      34.295  22.778  22.859  1.00  0.00     0.112 A 
ATOM     26  N   UNL A   1      33.950  23.976  22.332  1.00  0.00    -0.253 NA
ENDBRANCH  18  20
ENDBRANCH   8  18
ENDBRANCH   6   7
ENDBRANCH   4   6
ENDBRANCH   3   4
ENDBRANCH   2   3
ENDBRANCH   1   2
BRANCH   1  27
ATOM     27  O   UNL A   1      32.285  29.972  27.139  1.00  0.00    -0.374 OA
BRANCH  27  28
ATOM     28  C   UNL A   1      31.550  30.996  26.472  1.00  0.00     0.202 C 
BRANCH  28  29
ATOM     29  C   UNL A   1      31.674  32.431  26.985  1.00  0.00     0.261 C 
BRANCH  29  30
ATOM     30  O   UNL A   1      33.001  32.801  27.197  1.00  0.00    -0.460 OA
BRANCH  30  31
ATOM     31  C   UNL A   1      33.188  33.782  28.108  1.00  0.00     0.338 C 
ATOM     32  O   UNL A   1      32.423  34.619  28.513  1.00  0.00    -0.246 OA
BRANCH  31  33
ATOM     33  C   UNL A   1      34.452  33.341  28.695  1.00  0.00     0.060 A 
ATOM     34  C   UNL A   1      35.592  34.111  28.459  1.00  0.00     0.016 A 
ATOM     35  C   UNL A   1      34.388  32.364  29.700  1.00  0.00     0.016 A 
ATOM     36  C   UNL A   1      36.700  33.895  29.257  1.00  0.00     0.010 A 
ATOM     37  C   UNL A   1      35.444  32.232  30.558  1.00  0.00     0.010 A 
ATOM     38  C   UNL A   1      36.613  32.952  30.290  1.00  0.00    -0.014 A 
BRANCH  38  39
ATOM     39  C   UNL A   1      37.807  32.466  30.973  1.00  0.00     0.031 A 
ATOM     40  C   UNL A   1      38.544  31.366  30.276  1.00  0.00     0.074 A 
ATOM     41  C   UNL A   1      38.090  32.906  32.204  1.00  0.00     0.049 A 
ATOM     42  N   UNL A   1      39.480  30.583  30.728  1.00  0.00    -0.248 NA
ATOM     43  C   UNL A   1      38.109  31.057  28.898  1.00  0.00     0.031 C 
ATOM     44  C   UNL A   1      37.358  33.949  32.925  1.00  0.00     0.029 A 
ATOM     45  N   UNL A   1      39.055  32.498  33.074  1.00  0.00    -0.354 N 
ATOM     46  C   UNL A   1      39.719  29.679  29.703  1.00  0.00     0.074 A 
ATOM     47  C   UNL A   1      38.783  29.951  28.642  1.00  0.00     0.031 C 
ATOM     48  C   UNL A   1      37.911  34.101  34.141  1.00  0.00     0.029 A 
ATOM     49  C   UNL A   1      39.000  33.139  34.284  1.00  0.00     0.049 A 
ATOM     50  H   UNL A   1      39.726  31.813  32.856  1.00  0.00     0.167 HD
ATOM     51  C   UNL A   1      40.670  28.722  29.657  1.00  0.00     0.037 A 
ATOM     52  C   UNL A   1      39.754  32.935  35.377  1.00  0.00     0.037 A 
ATOM     53  C   UNL A   1      41.591  28.511  30.735  1.00  0.00     0.049 A 
ATOM     54  C   UNL A   1      40.821  31.874  35.294  1.00  0.00     0.074 A 
ATOM     55  C   UNL A   1      42.641  27.621  30.819  1.00  0.00     0.029 A 
ATOM     56  N   UNL A   1      41.559  29.222  31.931  1.00  0.00    -0.354 N 
ATOM     57  N   UNL A   1      41.097  31.052  34.306  1.00  0.00    -0.248 NA
ATOM     58  C   UNL A   1      41.684  31.718  36.467  1.00  0.00     0.031 C 
ATOM     59  C   UNL A   1      43.218  27.762  32.085  1.00  0.00     0.029 A 
ATOM     60  C   UNL A   1      42.564  28.780  32.769  1.00  0.00     0.049 A 
ATOM     61  H   UNL A   1      40.916  29.934  32.147  1.00  0.00     0.167 HD
ATOM     62  C   UNL A   1      42.184  30.300  34.724  1.00  0.00     0.074 A 
ATOM     63  C   UNL A   1      42.521  30.777  36.053  1.00  0.00     0.031 C 
ATOM     64  C   UNL A   1      42.848  29.304  34.083  1.00  0.00     0.037 A 
BRANCH  51  65
ATOM     65  C   UNL A   1      40.728  27.867  28.426  1.00  0.00     0.064 A 
ATOM     66  C   UNL A   1      40.053  26.636  28.346  1.00  0.00     0.173 A 
ATOM     67  C   UNL A   1      41.498  28.261  27.324  1.00  0.00     0.173 A 
ATOM     68  F   UNL A   1      39.328  26.193  29.384  1.00  0.00    -0.203 F 
ATOM     69  C   UNL A   1      40.177  25.820  27.223  1.00  0.00     0.198 A 
ATOM     70  C   UNL A   1      41.589  27.460  26.188  1.00  0.00     0.198 A 
ATOM     71  F   UNL A   1      42.176  29.419  27.351  1.00  0.00    -0.203 F 
ATOM     72  F   UNL A   1      39.582  24.620  27.202  1.00  0.00    -0.200 F 
ATOM     73  C   UNL A   1      40.938  26.236  26.143  1.00  0.00     0.200 A 
ATOM     74  F   UNL A   1      42.324  27.865  25.142  1.00  0.00    -0.200 F 
ATOM     75  F   UNL A   1      41.057  25.451  25.064  1.00  0.00    -0.200 F 
ENDBRANCH  51  65
BRANCH  52  76
ATOM     76  C   UNL A   1      39.549  33.767  36.586  1.00  0.00     0.064 A 
ATOM     77  C   UNL A   1      40.132  35.038  36.688  1.00  0.00     0.173 A 
ATOM     78  C   UNL A   1      38.735  33.339  37.645  1.00  0.00     0.173 A 
ATOM     79  F   UNL A   1      40.921  35.492  35.703  1.00  0.00    -0.203 F 
ATOM     80  C   UNL A   1      39.926  35.839  37.810  1.00  0.00     0.198 A 
ATOM     81  C   UNL A   1      38.507  34.150  38.755  1.00  0.00     0.198 A 
ATOM     82  F   UNL A   1      38.138  32.139  37.590  1.00  0.00    -0.203 F 
ATOM     83  F   UNL A   1      40.523  37.035  37.894  1.00  0.00    -0.200 F 
ATOM     84  C   UNL A   1      39.109  35.397  38.839  1.00  0.00     0.200 A 
ATOM     85  F   UNL A   1      37.699  33.729  39.737  1.00  0.00    -0.200 F 
ATOM     86  F   UNL A   1      38.902  36.173  39.912  1.00  0.00    -0.200 F 
ENDBRANCH  52  76
BRANCH  64  87
ATOM     87  C   UNL A   1      44.018  28.707  34.803  1.00  0.00     0.064 A 
ATOM     88  C   UNL A   1      45.300  29.266  34.708  1.00  0.00     0.173 A 
ATOM     89  C   UNL A   1      43.837  27.598  35.641  1.00  0.00     0.173 A 
ATOM     90  F   UNL A   1      45.520  30.321  33.910  1.00  0.00    -0.203 F 
ATOM     91  C   UNL A   1      46.368  28.713  35.405  1.00  0.00     0.198 A 
ATOM     92  C   UNL A   1      44.900  27.069  36.363  1.00  0.00     0.198 A 
ATOM     93  F   UNL A   1      42.623  27.039  35.771  1.00  0.00    -0.203 F 
ATOM     94  F   UNL A   1      47.597  29.227  35.261  1.00  0.00    -0.200 F 
ATOM     95  C   UNL A   1      46.165  27.621  36.238  1.00  0.00     0.200 A 
ATOM     96  F   UNL A   1      44.698  26.028  37.183  1.00  0.00    -0.200 F 
ATOM     97  F   UNL A   1      47.195  27.097  36.917  1.00  0.00    -0.200 F 
ENDBRANCH  64  87
ENDBRANCH  38  39
ENDBRANCH  31  33
ENDBRANCH  30  31
ENDBRANCH  29  30
ENDBRANCH  28  29
ENDBRANCH  27  28
ENDBRANCH   1  27
TORSDOF 17
ENDMDL
MODEL 2
REMARK VINA RESULT:     -12.4      0.407      1.611
REMARK SMILES Cc1ccnc(C(=O)c2[nH]c3ccc(F)cc3c2CC(=O)OCCOCCOC(=O)c2ccc(-c3c4nc(c(-c5c(F)c(F)c(F)c(F)c5F)c5ccc([nH]5)c(-c5c(F)c(F)c(F)c(F)c5F)c5nc(c(-c6c(F)c(F)c(F)c(F)c6F)c6ccc3[nH]6)C=C5)C=C4)cc2)c1
REMARK SMILES IDX 24 1 23 2 22 3 20 4 21 5 19 6 18 7 9 8 10 9 11 10 17 12
REMARK SMILES IDX 12 13 16 14 13 15 14 16 15 17 7 18 8 19 6 20 1 21 2 22 3 23
REMARK SMILES IDX 94 24 4 25 5 26 25 27 26 28 27 29 28 30 29 31 30 32 31 33
REMARK SMILES IDX 32 34 93 35 33 36 92 37 34 38 35 39 36 40 86 41 37 42 91 43
REMARK SMILES IDX 85 44 87 45 38 46 90 47 84 48 83 49 39 51 71 52 51 53 70 54
REMARK SMILES IDX 52 55 55 56 69 57 88 58 53 59 54 60 68 62 89 63 56 64 40 65
REMARK SMILES IDX 41 66 49 67 42 68 43 69 47 70 50 71 44 72 45 73 48 74 46 75
REMARK SMILES IDX 72 76 73 77 81 78 74 79 75 80 79 81 82 82 76 83 77 84 80 85
REMARK SMILES IDX 78 86 57 87 58 88 66 89 59 90 60 91 64 92 67 93 61 94 62 95
REMARK SMILES IDX 65 96 63 97
REMARK H PARENT 10 11 87 50 55 61
REMARK Flexibility Score: inf
ROOT
ATOM      1  C   UNL A   1      32.156  28.920  26.172  1.00  0.00     0.202 C 
ENDROOT
BRANCH   1   2
ATOM      2  C   UNL A   1      31.404  27.747  26.848  1.00  0.00     0.261 C 
BRANCH   2   3
ATOM      3  O   UNL A   1      31.621  26.468  26.209  1.00  0.00    -0.463 OA
BRANCH   3   4
ATOM      4  C   UNL A   1      30.498  25.753  25.898  1.00  0.00     0.310 C 
ATOM      5  O   UNL A   1      29.665  25.384  26.719  1.00  0.00    -0.252 OA
BRANCH   4   6
ATOM      6  C   UNL A   1      30.381  25.428  24.421  1.00  0.00     0.161 C 
BRANCH   6   7
ATOM      7  C   UNL A   1      30.740  26.533  23.462  1.00  0.00     0.000 A 
ATOM      8  C   UNL A   1      31.902  26.720  22.694  1.00  0.00     0.093 A 
ATOM      9  N   UNL A   1      31.804  28.025  22.211  1.00  0.00    -0.352 N 
ATOM     10  C   UNL A   1      30.538  28.534  22.347  1.00  0.00     0.046 A 
ATOM     11  H   UNL A   1      32.558  28.522  21.819  1.00  0.00     0.167 HD
ATOM     12  C   UNL A   1      29.848  27.645  23.164  1.00  0.00     0.007 A 
ATOM     13  C   UNL A   1      29.956  29.682  21.784  1.00  0.00     0.030 A 
ATOM     14  C   UNL A   1      28.501  27.948  23.473  1.00  0.00     0.049 A 
ATOM     15  C   UNL A   1      28.608  29.925  22.057  1.00  0.00     0.041 A 
ATOM     16  C   UNL A   1      27.904  29.075  22.897  1.00  0.00     0.123 A 
ATOM     17  F   UNL A   1      26.609  29.322  23.138  1.00  0.00    -0.207 F 
BRANCH   8  18
ATOM     18  C   UNL A   1      33.160  26.009  22.398  1.00  0.00     0.227 C 
ATOM     19  O   UNL A   1      33.945  26.580  21.632  1.00  0.00    -0.285 OA
BRANCH  18  20
ATOM     20  C   UNL A   1      33.535  24.575  22.767  1.00  0.00     0.113 A 
ATOM     21  C   UNL A   1      35.914  22.446  24.875  1.00  0.00     0.044 C 
ATOM     22  C   UNL A   1      34.738  22.882  24.043  1.00  0.00    -0.047 A 
ATOM     23  C   UNL A   1      33.724  21.978  23.754  1.00  0.00     0.023 A 
ATOM     24  C   UNL A   1      34.639  24.191  23.527  1.00  0.00     0.036 A 
ATOM     25  C   UNL A   1      32.662  22.421  22.987  1.00  0.00     0.112 A 
ATOM     26  N   UNL A   1      32.550  23.675  22.491  1.00  0.00    -0.253 NA
ENDBRANCH  18  20
ENDBRANCH   8  18
ENDBRANCH   6   7
ENDBRANCH   4   6
ENDBRANCH   3   4
ENDBRANCH   2   3
ENDBRANCH   1   2
BRANCH   1  27
ATOM     27  O   UNL A   1      32.333  30.127  26.938  1.00  0.00    -0.374 OA
BRANCH  27  28
ATOM     28  C   UNL A   1      31.425  31.141  26.511  1.00  0.00     0.202 C 
BRANCH  28  29
ATOM     29  C   UNL A   1      31.706  32.588  26.919  1.00  0.00     0.261 C 
BRANCH  29  30
ATOM     30  O   UNL A   1      33.031  32.775  27.311  1.00  0.00    -0.460 OA
BRANCH  30  31
ATOM     31  C   UNL A   1      33.241  33.807  28.159  1.00  0.00     0.338 C 
ATOM     32  O   UNL A   1      32.492  34.678  28.519  1.00  0.00    -0.246 OA
BRANCH  31  33
ATOM     33  C   UNL A   1      34.503  33.382  28.762  1.00  0.00     0.060 A 
ATOM     34  C   UNL A   1      35.606  34.230  28.647  1.00  0.00     0.016 A 
ATOM     35  C   UNL A   1      34.454  32.317  29.674  1.00  0.00     0.016 A 
ATOM     36  C   UNL A   1      36.691  34.002  29.472  1.00  0.00     0.010 A 
ATOM     37  C   UNL A   1      35.480  32.164  30.564  1.00  0.00     0.010 A 
ATOM     38  C   UNL A   1      36.617  32.967  30.414  1.00  0.00    -0.014 A 
BRANCH  38  39
ATOM     39  C   UNL A   1      37.807  32.486  31.104  1.00  0.00     0.031 A 
ATOM     40  C   UNL A   1      38.550  31.384  30.416  1.00  0.00     0.074 A 
ATOM     41  C   UNL A   1      38.083  32.931  32.335  1.00  0.00     0.049 A 
ATOM     42  N   UNL A   1      39.485  30.604  30.876  1.00  0.00    -0.248 NA
ATOM     43  C   UNL A   1      38.123  31.069  29.036  1.00  0.00     0.031 C 
ATOM     44  C   UNL A   1      37.346  33.975  33.049  1.00  0.00     0.029 A 
ATOM     45  N   UNL A   1      39.044  32.527  33.212  1.00  0.00    -0.354 N 
ATOM     46  C   UNL A   1      39.731  29.697  29.855  1.00  0.00     0.074 A 
ATOM     47  C   UNL A   1      38.799  29.963  28.788  1.00  0.00     0.031 C 
ATOM     48  C   UNL A   1      37.892  34.132  34.267  1.00  0.00     0.029 A 
ATOM     49  C   UNL A   1      38.981  33.173  34.419  1.00  0.00     0.049 A 
ATOM     50  H   UNL A   1      39.717  31.842  33.000  1.00  0.00     0.167 HD
ATOM     51  C   UNL A   1      40.683  28.741  29.818  1.00  0.00     0.037 A 
ATOM     52  C   UNL A   1      39.730  32.974  35.517  1.00  0.00     0.037 A 
ATOM     53  C   UNL A   1      41.599  28.535  30.902  1.00  0.00     0.049 A 
ATOM     54  C   UNL A   1      40.799  31.915  35.444  1.00  0.00     0.074 A 
ATOM     55  C   UNL A   1      42.649  27.648  30.994  1.00  0.00     0.029 A 
ATOM     56  N   UNL A   1      41.560  29.251  32.095  1.00  0.00    -0.354 N 
ATOM     57  N   UNL A   1      41.082  31.090  34.460  1.00  0.00    -0.248 NA
ATOM     58  C   UNL A   1      41.656  31.764  36.622  1.00  0.00     0.031 C 
ATOM     59  C   UNL A   1      43.220  27.795  32.263  1.00  0.00     0.029 A 
ATOM     60  C   UNL A   1      42.560  28.813  32.940  1.00  0.00     0.049 A 
ATOM     61  H   UNL A   1      40.914  29.963  32.305  1.00  0.00     0.167 HD
ATOM     62  C   UNL A   1      42.167  30.340  34.887  1.00  0.00     0.074 A 
ATOM     63  C   UNL A   1      42.497  30.823  36.216  1.00  0.00     0.031 C 
ATOM     64  C   UNL A   1      42.837  29.344  34.253  1.00  0.00     0.037 A 
BRANCH  51  65
ATOM     65  C   UNL A   1      40.750  27.881  28.591  1.00  0.00     0.064 A 
ATOM     66  C   UNL A   1      41.486  28.264  27.456  1.00  0.00     0.173 A 
ATOM     67  C   UNL A   1      40.039  26.675  28.531  1.00  0.00     0.173 A 
ATOM     68  F   UNL A   1      42.159  29.424  27.445  1.00  0.00    -0.203 F 
ATOM     69  C   UNL A   1      41.478  27.489  26.298  1.00  0.00     0.198 A 
ATOM     70  C   UNL A   1      40.063  25.884  27.384  1.00  0.00     0.198 A 
ATOM     71  F   UNL A   1      39.307  26.268  29.578  1.00  0.00    -0.203 F 
ATOM     72  F   UNL A   1      42.128  27.912  25.206  1.00  0.00    -0.200 F 
ATOM     73  C   UNL A   1      40.773  26.296  26.266  1.00  0.00     0.200 A 
ATOM     74  F   UNL A   1      39.384  24.729  27.356  1.00  0.00    -0.200 F 
ATOM     75  F   UNL A   1      40.765  25.551  25.153  1.00  0.00    -0.200 F 
ENDBRANCH  51  65
BRANCH  52  76
ATOM     76  C   UNL A   1      39.517  33.811  36.722  1.00  0.00     0.064 A 
ATOM     77  C   UNL A   1      40.062  35.099  36.804  1.00  0.00     0.173 A 
ATOM     78  C   UNL A   1      38.732  33.367  37.796  1.00  0.00     0.173 A 
ATOM     79  F   UNL A   1      40.823  35.569  35.804  1.00  0.00    -0.203 F 
ATOM     80  C   UNL A   1      39.848  35.904  37.922  1.00  0.00     0.198 A 
ATOM     81  C   UNL A   1      38.496  34.181  38.902  1.00  0.00     0.198 A 
ATOM     82  F   UNL A   1      38.171  32.149  37.760  1.00  0.00    -0.203 F 
ATOM     83  F   UNL A   1      40.409  37.119  37.987  1.00  0.00    -0.200 F 
ATOM     84  C   UNL A   1      39.061  35.447  38.967  1.00  0.00     0.200 A 
ATOM     85  F   UNL A   1      37.716  33.745  39.900  1.00  0.00    -0.200 F 
ATOM     86  F   UNL A   1      38.845  36.225  40.036  1.00  0.00    -0.200 F 
ENDBRANCH  52  76
BRANCH  64  87
ATOM     87  C   UNL A   1      44.004  28.751  34.981  1.00  0.00     0.064 A 
ATOM     88  C   UNL A   1      43.868  27.602  35.771  1.00  0.00     0.173 A 
ATOM     89  C   UNL A   1      45.282  29.311  34.836  1.00  0.00     0.173 A 
ATOM     90  F   UNL A   1      42.663  27.040  35.946  1.00  0.00    -0.203 F 
ATOM     91  C   UNL A   1      44.969  27.052  36.418  1.00  0.00     0.198 A 
ATOM     92  C   UNL A   1      46.385  28.738  35.456  1.00  0.00     0.198 A 
ATOM     93  F   UNL A   1      45.460  30.404  34.078  1.00  0.00    -0.203 F 
ATOM     94  F   UNL A   1      44.811  25.984  37.213  1.00  0.00    -0.200 F 
ATOM     95  C   UNL A   1      46.227  27.615  36.253  1.00  0.00     0.200 A 
ATOM     96  F   UNL A   1      47.603  29.270  35.278  1.00  0.00    -0.200 F 
ATOM     97  F   UNL A   1      47.287  27.075  36.869  1.00  0.00    -0.200 F 
ENDBRANCH  64  87
ENDBRANCH  38  39
ENDBRANCH  31  33
ENDBRANCH  30  31
ENDBRANCH  29  30
ENDBRANCH  28  29
ENDBRANCH  27  28
ENDBRANCH   1  27
TORSDOF 17
ENDMDL
MODEL 3
REMARK VINA RESULT:     -12.3      4.768      8.088
REMARK SMILES Cc1ccnc(C(=O)c2[nH]c3ccc(F)cc3c2CC(=O)OCCOCCOC(=O)c2ccc(-c3c4nc(c(-c5c(F)c(F)c(F)c(F)c5F)c5ccc([nH]5)c(-c5c(F)c(F)c(F)c(F)c5F)c5nc(c(-c6c(F)c(F)c(F)c(F)c6F)c6ccc3[nH]6)C=C5)C=C4)cc2)c1
REMARK SMILES IDX 24 1 23 2 22 3 20 4 21 5 19 6 18 7 9 8 10 9 11 10 17 12
REMARK SMILES IDX 12 13 16 14 13 15 14 16 15 17 7 18 8 19 6 20 1 21 2 22 3 23
REMARK SMILES IDX 94 24 4 25 5 26 25 27 26 28 27 29 28 30 29 31 30 32 31 33
REMARK SMILES IDX 32 34 93 35 33 36 92 37 34 38 35 39 36 40 86 41 37 42 91 43
REMARK SMILES IDX 85 44 87 45 38 46 90 47 84 48 83 49 39 51 71 52 51 53 70 54
REMARK SMILES IDX 52 55 55 56 69 57 88 58 53 59 54 60 68 62 89 63 56 64 40 65
REMARK SMILES IDX 41 66 49 67 42 68 43 69 47 70 50 71 44 72 45 73 48 74 46 75
REMARK SMILES IDX 72 76 73 77 81 78 74 79 75 80 79 81 82 82 76 83 77 84 80 85
REMARK SMILES IDX 78 86 57 87 58 88 66 89 59 90 60 91 64 92 67 93 61 94 62 95
REMARK SMILES IDX 65 96 63 97
REMARK H PARENT 10 11 87 50 55 61
REMARK Flexibility Score: inf
ROOT
ATOM      1  C   UNL A   1      36.842  22.488  24.166  1.00  0.00     0.202 C 
ENDROOT
BRANCH   1   2
ATOM      2  C   UNL A   1      35.361  22.797  23.833  1.00  0.00     0.261 C 
BRANCH   2   3
ATOM      3  O   UNL A   1      35.159  24.082  23.203  1.00  0.00    -0.463 OA
BRANCH   3   4
ATOM      4  C   UNL A   1      34.194  24.878  23.756  1.00  0.00     0.310 C 
ATOM      5  O   UNL A   1      33.293  25.413  23.119  1.00  0.00    -0.252 OA
BRANCH   4   6
ATOM      6  C   UNL A   1      34.352  25.065  25.253  1.00  0.00     0.161 C 
BRANCH   6   7
ATOM      7  C   UNL A   1      33.201  25.720  25.971  1.00  0.00     0.000 A 
ATOM      8  C   UNL A   1      32.007  25.164  26.460  1.00  0.00     0.093 A 
ATOM      9  N   UNL A   1      31.208  26.261  26.782  1.00  0.00    -0.352 N 
ATOM     10  C   UNL A   1      31.927  27.427  26.838  1.00  0.00     0.046 A 
ATOM     11  H   UNL A   1      30.239  26.204  26.948  1.00  0.00     0.167 HD
ATOM     12  C   UNL A   1      33.175  27.140  26.297  1.00  0.00     0.007 A 
ATOM     13  C   UNL A   1      31.577  28.686  27.356  1.00  0.00     0.030 A 
ATOM     14  C   UNL A   1      34.119  28.191  26.228  1.00  0.00     0.049 A 
ATOM     15  C   UNL A   1      32.547  29.689  27.329  1.00  0.00     0.041 A 
ATOM     16  C   UNL A   1      33.789  29.442  26.764  1.00  0.00     0.123 A 
ATOM     17  F   UNL A   1      34.709  30.417  26.758  1.00  0.00    -0.207 F 
BRANCH   8  18
ATOM     18  C   UNL A   1      31.374  23.838  26.586  1.00  0.00     0.227 C 
ATOM     19  O   UNL A   1      30.284  23.805  27.169  1.00  0.00    -0.285 OA
BRANCH  18  20
ATOM     20  C   UNL A   1      31.979  22.475  26.255  1.00  0.00     0.113 A 
ATOM     21  C   UNL A   1      32.322  19.827  23.515  1.00  0.00     0.044 C 
ATOM     22  C   UNL A   1      32.555  20.635  24.764  1.00  0.00    -0.047 A 
ATOM     23  C   UNL A   1      33.586  20.289  25.629  1.00  0.00     0.023 A 
ATOM     24  C   UNL A   1      31.739  21.735  25.098  1.00  0.00     0.036 A 
ATOM     25  C   UNL A   1      33.764  21.058  26.763  1.00  0.00     0.112 A 
ATOM     26  N   UNL A   1      32.993  22.121  27.093  1.00  0.00    -0.253 NA
ENDBRANCH  18  20
ENDBRANCH   8  18
ENDBRANCH   6   7
ENDBRANCH   4   6
ENDBRANCH   3   4
ENDBRANCH   2   3
ENDBRANCH   1   2
BRANCH   1  27
ATOM     27  O   UNL A   1      37.108  21.678  25.327  1.00  0.00    -0.374 OA
BRANCH  27  28
ATOM     28  C   UNL A   1      37.707  20.437  24.959  1.00  0.00     0.202 C 
BRANCH  28  29
ATOM     29  C   UNL A   1      38.927  19.956  25.746  1.00  0.00     0.261 C 
BRANCH  29  30
ATOM     30  O   UNL A   1      39.880  20.961  25.904  1.00  0.00    -0.460 OA
BRANCH  30  31
ATOM     31  C   UNL A   1      40.442  21.034  27.132  1.00  0.00     0.338 C 
ATOM     32  O   UNL A   1      40.778  20.155  27.883  1.00  0.00    -0.246 OA
BRANCH  31  33
ATOM     33  C   UNL A   1      40.828  22.444  27.146  1.00  0.00     0.060 A 
ATOM     34  C   UNL A   1      40.028  23.352  26.450  1.00  0.00     0.016 A 
ATOM     35  C   UNL A   1      41.779  22.841  28.098  1.00  0.00     0.016 A 
ATOM     36  C   UNL A   1      40.188  24.699  26.719  1.00  0.00     0.010 A 
ATOM     37  C   UNL A   1      41.855  24.161  28.442  1.00  0.00     0.010 A 
ATOM     38  C   UNL A   1      41.106  25.085  27.705  1.00  0.00    -0.014 A 
BRANCH  38  39
ATOM     39  C   UNL A   1      41.535  26.472  27.836  1.00  0.00     0.031 A 
ATOM     40  C   UNL A   1      42.910  26.772  27.326  1.00  0.00     0.074 A 
ATOM     41  C   UNL A   1      40.772  27.340  28.509  1.00  0.00     0.049 A 
ATOM     42  N   UNL A   1      43.648  27.828  27.510  1.00  0.00    -0.248 NA
ATOM     43  C   UNL A   1      43.574  25.694  26.563  1.00  0.00     0.031 C 
ATOM     44  C   UNL A   1      39.444  27.061  29.057  1.00  0.00     0.029 A 
ATOM     45  N   UNL A   1      41.030  28.628  28.872  1.00  0.00    -0.354 N 
ATOM     46  C   UNL A   1      44.863  27.526  26.913  1.00  0.00     0.074 A 
ATOM     47  C   UNL A   1      44.799  26.168  26.434  1.00  0.00     0.031 C 
ATOM     48  C   UNL A   1      38.999  28.160  29.691  1.00  0.00     0.029 A 
ATOM     49  C   UNL A   1      40.029  29.190  29.620  1.00  0.00     0.049 A 
ATOM     50  H   UNL A   1      41.851  29.107  28.620  1.00  0.00     0.167 HD
ATOM     51  C   UNL A   1      45.928  28.341  26.759  1.00  0.00     0.037 A 
ATOM     52  C   UNL A   1      39.990  30.407  30.189  1.00  0.00     0.037 A 
ATOM     53  C   UNL A   1      45.928  29.693  27.236  1.00  0.00     0.049 A 
ATOM     54  C   UNL A   1      41.182  31.305  29.987  1.00  0.00     0.074 A 
ATOM     55  C   UNL A   1      46.904  30.658  27.112  1.00  0.00     0.029 A 
ATOM     56  N   UNL A   1      44.871  30.266  27.937  1.00  0.00    -0.354 N 
ATOM     57  N   UNL A   1      42.315  31.052  29.371  1.00  0.00    -0.248 NA
ATOM     58  C   UNL A   1      41.090  32.656  30.548  1.00  0.00     0.031 C 
ATOM     59  C   UNL A   1      46.457  31.804  27.778  1.00  0.00     0.029 A 
ATOM     60  C   UNL A   1      45.177  31.571  28.267  1.00  0.00     0.049 A 
ATOM     61  H   UNL A   1      44.030  29.809  28.163  1.00  0.00     0.167 HD
ATOM     62  C   UNL A   1      43.062  32.218  29.443  1.00  0.00     0.074 A 
ATOM     63  C   UNL A   1      42.241  33.183  30.153  1.00  0.00     0.031 C 
ATOM     64  C   UNL A   1      44.308  32.481  28.974  1.00  0.00     0.037 A 
BRANCH  51  65
ATOM     65  C   UNL A   1      47.135  27.776  26.071  1.00  0.00     0.064 A 
ATOM     66  C   UNL A   1      47.245  27.749  24.669  1.00  0.00     0.173 A 
ATOM     67  C   UNL A   1      48.183  27.221  26.817  1.00  0.00     0.173 A 
ATOM     68  F   UNL A   1      46.258  28.238  23.904  1.00  0.00    -0.203 F 
ATOM     69  C   UNL A   1      48.340  27.155  24.045  1.00  0.00     0.198 A 
ATOM     70  C   UNL A   1      49.294  26.660  26.190  1.00  0.00     0.198 A 
ATOM     71  F   UNL A   1      48.124  27.204  28.158  1.00  0.00    -0.203 F 
ATOM     72  F   UNL A   1      48.385  27.077  22.708  1.00  0.00    -0.200 F 
ATOM     73  C   UNL A   1      49.366  26.619  24.806  1.00  0.00     0.200 A 
ATOM     74  F   UNL A   1      50.287  26.145  26.927  1.00  0.00    -0.200 F 
ATOM     75  F   UNL A   1      50.419  26.048  24.205  1.00  0.00    -0.200 F 
ENDBRANCH  51  65
BRANCH  52  76
ATOM     76  C   UNL A   1      38.786  30.836  30.941  1.00  0.00     0.064 A 
ATOM     77  C   UNL A   1      37.659  31.328  30.268  1.00  0.00     0.173 A 
ATOM     78  C   UNL A   1      38.712  30.724  32.337  1.00  0.00     0.173 A 
ATOM     79  F   UNL A   1      37.681  31.458  28.933  1.00  0.00    -0.203 F 
ATOM     80  C   UNL A   1      36.514  31.712  30.963  1.00  0.00     0.198 A 
ATOM     81  C   UNL A   1      37.557  31.082  33.030  1.00  0.00     0.198 A 
ATOM     82  F   UNL A   1      39.755  30.240  33.028  1.00  0.00    -0.203 F 
ATOM     83  F   UNL A   1      35.464  32.210  30.296  1.00  0.00    -0.200 F 
ATOM     84  C   UNL A   1      36.461  31.583  32.342  1.00  0.00     0.200 A 
ATOM     85  F   UNL A   1      37.502  30.934  34.360  1.00  0.00    -0.200 F 
ATOM     86  F   UNL A   1      35.355  31.940  33.009  1.00  0.00    -0.200 F 
ENDBRANCH  52  76
BRANCH  64  87
ATOM     87  C   UNL A   1      44.825  33.871  29.187  1.00  0.00     0.064 A 
ATOM     88  C   UNL A   1      44.557  34.900  28.274  1.00  0.00     0.173 A 
ATOM     89  C   UNL A   1      45.548  34.182  30.348  1.00  0.00     0.173 A 
ATOM     90  F   UNL A   1      43.879  34.644  27.146  1.00  0.00    -0.203 F 
ATOM     91  C   UNL A   1      45.024  36.189  28.503  1.00  0.00     0.198 A 
ATOM     92  C   UNL A   1      45.982  35.480  30.590  1.00  0.00     0.198 A 
ATOM     93  F   UNL A   1      45.815  33.230  31.255  1.00  0.00    -0.203 F 
ATOM     94  F   UNL A   1      44.805  37.150  27.594  1.00  0.00    -0.200 F 
ATOM     95  C   UNL A   1      45.727  36.480  29.663  1.00  0.00     0.200 A 
ATOM     96  F   UNL A   1      46.642  35.764  31.721  1.00  0.00    -0.200 F 
ATOM     97  F   UNL A   1      46.166  37.726  29.886  1.00  0.00    -0.200 F 
ENDBRANCH  64  87
ENDBRANCH  38  39
ENDBRANCH  31  33
ENDBRANCH  30  31
ENDBRANCH  29  30
ENDBRANCH  28  29
ENDBRANCH  27  28
ENDBRANCH   1  27
TORSDOF 17
ENDMDL
