MODEL 1
REMARK VINA RESULT:     -11.4      0.000      0.000
REMARK SMILES CC[C@@H]1CC(=O)N(Cc2ccc(C(=O)OCCOCCOC(=O)c3ccc(-c4c5nc(c(-c6c(F)c(F)c(F)c(F)c6F)c6ccc([nH]6)c(-c6c(F)c(F)c(F)c(F)c6F)c6nc(c(-c7c(F)c(F)c(F)c(F)c7F)c7ccc4[nH]7)C=C6)C=C5)cc3)cn2)C1
REMARK SMILES IDX 17 1 16 2 15 3 13 4 14 5 12 6 9 7 10 8 88 9 11 10 87 11 8 12
REMARK SMILES IDX 7 13 3 14 4 15 89 16 5 17 6 18 2 19 1 20 18 21 19 22 20 23
REMARK SMILES IDX 21 24 22 25 23 26 24 27 25 28 86 29 26 30 85 31 27 32 28 33
REMARK SMILES IDX 29 34 79 35 30 36 84 37 78 38 80 39 31 40 83 41 77 42 76 43
REMARK SMILES IDX 32 45 64 46 44 47 63 48 45 49 48 50 62 51 81 52 46 53 47 54
REMARK SMILES IDX 61 56 82 57 49 58 33 59 34 60 42 61 35 62 36 63 40 64 43 65
REMARK SMILES IDX 37 66 38 67 41 68 39 69 65 70 66 71 74 72 67 73 68 74 72 75
REMARK SMILES IDX 75 76 69 77 70 78 73 79 71 80 50 81 51 82 59 83 52 84 53 85
REMARK SMILES IDX 57 86 60 87 54 88 55 89 58 90 56 91
REMARK H PARENT 80 44 48 55
REMARK Flexibility Score: inf
ROOT
ATOM      1  C   UNL A   1      40.597  20.373  26.433  1.00  0.00     0.202 C 
ENDROOT
BRANCH   1   2
ATOM      2  C   UNL A   1      40.017  21.787  26.538  1.00  0.00     0.261 C 
BRANCH   2   3
ATOM      3  O   UNL A   1      38.916  21.965  25.634  1.00  0.00    -0.460 OA
BRANCH   3   4
ATOM      4  C   UNL A   1      38.141  23.045  25.894  1.00  0.00     0.339 C 
ATOM      5  O   UNL A   1      38.524  24.170  26.180  1.00  0.00    -0.246 OA
BRANCH   4   6
ATOM      6  C   UNL A   1      36.725  22.724  25.650  1.00  0.00     0.078 A 
ATOM      7  C   UNL A   1      34.023  22.357  25.311  1.00  0.00     0.060 A 
ATOM      8  C   UNL A   1      34.879  21.259  25.187  1.00  0.00     0.026 A 
ATOM      9  N   UNL A   1      34.486  23.613  25.512  1.00  0.00    -0.259 NA
ATOM     10  C   UNL A   1      36.249  21.445  25.364  1.00  0.00     0.019 A 
ATOM     11  C   UNL A   1      35.818  23.772  25.680  1.00  0.00     0.127 A 
BRANCH   7  12
ATOM     12  C   UNL A   1      32.525  22.156  25.389  1.00  0.00     0.175 C 
BRANCH  12  13
ATOM     13  N   UNL A   1      31.808  23.411  25.209  1.00  0.00    -0.336 N 
ATOM     14  C   UNL A   1      31.065  25.401  24.261  1.00  0.00     0.017 C 
ATOM     15  C   UNL A   1      30.320  25.167  25.581  1.00  0.00     0.105 C 
ATOM     16  C   UNL A   1      31.542  23.995  23.917  1.00  0.00     0.124 C 
ATOM     17  C   UNL A   1      31.100  24.044  26.221  1.00  0.00     0.223 C 
ATOM     18  O   UNL A   1      31.062  23.744  27.401  1.00  0.00    -0.275 OA
BRANCH  14  19
ATOM     19  C   UNL A   1      32.269  26.355  24.373  1.00  0.00     0.002 C 
ATOM     20  C   UNL A   1      33.218  26.288  23.189  1.00  0.00     0.004 C 
ENDBRANCH  14  19
ENDBRANCH  12  13
ENDBRANCH   7  12
ENDBRANCH   4   6
ENDBRANCH   3   4
ENDBRANCH   2   3
ENDBRANCH   1   2
BRANCH   1  21
ATOM     21  O   UNL A   1      41.809  20.222  25.696  1.00  0.00    -0.374 OA
BRANCH  21  22
ATOM     22  C   UNL A   1      42.955  20.951  26.137  1.00  0.00     0.202 C 
BRANCH  22  23
ATOM     23  C   UNL A   1      43.755  21.717  25.075  1.00  0.00     0.261 C 
BRANCH  23  24
ATOM     24  O   UNL A   1      43.120  22.949  24.687  1.00  0.00    -0.460 OA
BRANCH  24  25
ATOM     25  C   UNL A   1      43.866  24.058  24.905  1.00  0.00     0.338 C 
ATOM     26  O   UNL A   1      44.911  24.371  24.356  1.00  0.00    -0.246 OA
BRANCH  25  27
ATOM     27  C   UNL A   1      43.150  24.979  25.806  1.00  0.00     0.060 A 
ATOM     28  C   UNL A   1      43.651  26.282  25.931  1.00  0.00     0.016 A 
ATOM     29  C   UNL A   1      42.069  24.556  26.579  1.00  0.00     0.016 A 
ATOM     30  C   UNL A   1      43.104  27.154  26.870  1.00  0.00     0.010 A 
ATOM     31  C   UNL A   1      41.524  25.431  27.527  1.00  0.00     0.010 A 
ATOM     32  C   UNL A   1      42.064  26.720  27.702  1.00  0.00    -0.014 A 
BRANCH  32  33
ATOM     33  C   UNL A   1      41.642  27.563  28.848  1.00  0.00     0.031 A 
ATOM     34  C   UNL A   1      42.407  27.473  30.141  1.00  0.00     0.074 A 
ATOM     35  C   UNL A   1      40.607  28.415  28.731  1.00  0.00     0.049 A 
ATOM     36  N   UNL A   1      42.186  28.075  31.281  1.00  0.00    -0.248 NA
ATOM     37  C   UNL A   1      43.577  26.580  30.152  1.00  0.00     0.031 C 
ATOM     38  C   UNL A   1      39.814  28.619  27.521  1.00  0.00     0.029 A 
ATOM     39  N   UNL A   1      40.041  29.263  29.651  1.00  0.00    -0.354 N 
ATOM     40  C   UNL A   1      43.176  27.625  32.146  1.00  0.00     0.074 A 
ATOM     41  C   UNL A   1      43.987  26.682  31.409  1.00  0.00     0.031 C 
ATOM     42  C   UNL A   1      38.853  29.524  27.776  1.00  0.00     0.029 A 
ATOM     43  C   UNL A   1      38.943  29.935  29.176  1.00  0.00     0.049 A 
ATOM     44  H   UNL A   1      40.390  29.376  30.565  1.00  0.00     0.167 HD
ATOM     45  C   UNL A   1      43.390  27.975  33.436  1.00  0.00     0.037 A 
ATOM     46  C   UNL A   1      38.093  30.768  29.809  1.00  0.00     0.037 A 
ATOM     47  C   UNL A   1      42.595  28.932  34.160  1.00  0.00     0.049 A 
ATOM     48  C   UNL A   1      38.327  31.094  31.264  1.00  0.00     0.074 A 
ATOM     49  C   UNL A   1      42.761  29.382  35.458  1.00  0.00     0.029 A 
ATOM     50  N   UNL A   1      41.483  29.582  33.649  1.00  0.00    -0.354 N 
ATOM     51  N   UNL A   1      39.289  30.695  32.060  1.00  0.00    -0.248 NA
ATOM     52  C   UNL A   1      37.357  31.992  31.906  1.00  0.00     0.031 C 
ATOM     53  C   UNL A   1      41.715  30.261  35.753  1.00  0.00     0.029 A 
ATOM     54  C   UNL A   1      40.934  30.407  34.618  1.00  0.00     0.049 A 
ATOM     55  H   UNL A   1      41.134  29.474  32.734  1.00  0.00     0.167 HD
ATOM     56  C   UNL A   1      39.063  31.324  33.279  1.00  0.00     0.074 A 
ATOM     57  C   UNL A   1      37.881  32.141  33.114  1.00  0.00     0.031 C 
ATOM     58  C   UNL A   1      39.770  31.233  34.432  1.00  0.00     0.037 A 
BRANCH  45  59
ATOM     59  C   UNL A   1      44.516  27.308  34.170  1.00  0.00     0.064 A 
ATOM     60  C   UNL A   1      45.788  27.891  34.261  1.00  0.00     0.173 A 
ATOM     61  C   UNL A   1      44.291  26.109  34.864  1.00  0.00     0.173 A 
ATOM     62  F   UNL A   1      46.057  29.030  33.607  1.00  0.00    -0.203 F 
ATOM     63  C   UNL A   1      46.795  27.294  35.014  1.00  0.00     0.198 A 
ATOM     64  C   UNL A   1      45.292  25.530  35.638  1.00  0.00     0.198 A 
ATOM     65  F   UNL A   1      43.090  25.513  34.812  1.00  0.00    -0.203 F 
ATOM     66  F   UNL A   1      48.012  27.853  35.066  1.00  0.00    -0.200 F 
ATOM     67  C   UNL A   1      46.544  26.120  35.711  1.00  0.00     0.200 A 
ATOM     68  F   UNL A   1      45.041  24.404  36.322  1.00  0.00    -0.200 F 
ATOM     69  F   UNL A   1      47.509  25.559  36.453  1.00  0.00    -0.200 F 
ENDBRANCH  45  59
BRANCH  46  70
ATOM     70  C   UNL A   1      36.920  31.338  29.092  1.00  0.00     0.064 A 
ATOM     71  C   UNL A   1      36.872  32.696  28.744  1.00  0.00     0.173 A 
ATOM     72  C   UNL A   1      35.798  30.551  28.796  1.00  0.00     0.173 A 
ATOM     73  F   UNL A   1      37.909  33.497  29.028  1.00  0.00    -0.203 F 
ATOM     74  C   UNL A   1      35.732  33.252  28.167  1.00  0.00     0.198 A 
ATOM     75  C   UNL A   1      34.672  31.100  28.185  1.00  0.00     0.198 A 
ATOM     76  F   UNL A   1      35.790  29.246  29.106  1.00  0.00    -0.203 F 
ATOM     77  F   UNL A   1      35.686  34.566  27.912  1.00  0.00    -0.200 F 
ATOM     78  C   UNL A   1      34.634  32.453  27.884  1.00  0.00     0.200 A 
ATOM     79  F   UNL A   1      33.619  30.321  27.902  1.00  0.00    -0.200 F 
ATOM     80  F   UNL A   1      33.535  32.989  27.337  1.00  0.00    -0.200 F 
ENDBRANCH  46  70
BRANCH  58  81
ATOM     81  C   UNL A   1      39.323  32.081  35.589  1.00  0.00     0.064 A 
ATOM     82  C   UNL A   1      39.755  33.406  35.747  1.00  0.00     0.173 A 
ATOM     83  C   UNL A   1      38.417  31.570  36.532  1.00  0.00     0.173 A 
ATOM     84  F   UNL A   1      40.630  33.939  34.881  1.00  0.00    -0.203 F 
ATOM     85  C   UNL A   1      39.320  34.176  36.822  1.00  0.00     0.198 A 
ATOM     86  C   UNL A   1      37.958  32.355  37.585  1.00  0.00     0.198 A 
ATOM     87  F   UNL A   1      37.965  30.311  36.422  1.00  0.00    -0.203 F 
ATOM     88  F   UNL A   1      39.788  35.422  36.983  1.00  0.00    -0.200 F 
ATOM     89  C   UNL A   1      38.417  33.653  37.735  1.00  0.00     0.200 A 
ATOM     90  F   UNL A   1      37.071  31.852  38.456  1.00  0.00    -0.200 F 
ATOM     91  F   UNL A   1      37.993  34.400  38.765  1.00  0.00    -0.200 F 
ENDBRANCH  58  81
ENDBRANCH  32  33
ENDBRANCH  25  27
ENDBRANCH  24  25
ENDBRANCH  23  24
ENDBRANCH  22  23
ENDBRANCH  21  22
ENDBRANCH   1  21
TORSDOF 17
ENDMDL
MODEL 2
REMARK VINA RESULT:     -11.3      5.378     10.559
REMARK SMILES CC[C@@H]1CC(=O)N(Cc2ccc(C(=O)OCCOCCOC(=O)c3ccc(-c4c5nc(c(-c6c(F)c(F)c(F)c(F)c6F)c6ccc([nH]6)c(-c6c(F)c(F)c(F)c(F)c6F)c6nc(c(-c7c(F)c(F)c(F)c(F)c7F)c7ccc4[nH]7)C=C6)C=C5)cc3)cn2)C1
REMARK SMILES IDX 17 1 16 2 15 3 13 4 14 5 12 6 9 7 10 8 88 9 11 10 87 11 8 12
REMARK SMILES IDX 7 13 3 14 4 15 89 16 5 17 6 18 2 19 1 20 18 21 19 22 20 23
REMARK SMILES IDX 21 24 22 25 23 26 24 27 25 28 86 29 26 30 85 31 27 32 28 33
REMARK SMILES IDX 29 34 79 35 30 36 84 37 78 38 80 39 31 40 83 41 77 42 76 43
REMARK SMILES IDX 32 45 64 46 44 47 63 48 45 49 48 50 62 51 81 52 46 53 47 54
REMARK SMILES IDX 61 56 82 57 49 58 33 59 34 60 42 61 35 62 36 63 40 64 43 65
REMARK SMILES IDX 37 66 38 67 41 68 39 69 65 70 66 71 74 72 67 73 68 74 72 75
REMARK SMILES IDX 75 76 69 77 70 78 73 79 71 80 50 81 51 82 59 83 52 84 53 85
REMARK SMILES IDX 57 86 60 87 54 88 55 89 58 90 56 91
REMARK H PARENT 80 44 48 55
REMARK Flexibility Score: inf
ROOT
ATOM      1  C   UNL A   1      34.452  33.186  28.511  1.00  0.00     0.202 C 
ENDROOT
BRANCH   1   2
ATOM      2  C   UNL A   1      33.697  31.888  28.214  1.00  0.00     0.261 C 
BRANCH   2   3
ATOM      3  O   UNL A   1      34.259  31.207  27.082  1.00  0.00    -0.460 OA
BRANCH   3   4
ATOM      4  C   UNL A   1      34.454  29.879  27.261  1.00  0.00     0.339 C 
ATOM      5  O   UNL A   1      35.210  29.352  28.065  1.00  0.00    -0.246 OA
BRANCH   4   6
ATOM      6  C   UNL A   1      33.511  29.110  26.433  1.00  0.00     0.078 A 
ATOM      7  C   UNL A   1      31.942  27.659  24.706  1.00  0.00     0.060 A 
ATOM      8  C   UNL A   1      31.333  28.364  25.747  1.00  0.00     0.026 A 
ATOM      9  N   UNL A   1      33.288  27.599  24.565  1.00  0.00    -0.259 NA
ATOM     10  C   UNL A   1      32.129  29.104  26.620  1.00  0.00     0.019 A 
ATOM     11  C   UNL A   1      34.041  28.323  25.423  1.00  0.00     0.127 A 
BRANCH   7  12
ATOM     12  C   UNL A   1      31.108  27.066  23.590  1.00  0.00     0.175 C 
BRANCH  12  13
ATOM     13  N   UNL A   1      30.088  28.000  23.133  1.00  0.00    -0.336 N 
ATOM     14  C   UNL A   1      29.084  29.943  22.340  1.00  0.00     0.017 C 
ATOM     15  C   UNL A   1      28.019  28.846  22.468  1.00  0.00     0.105 C 
ATOM     16  C   UNL A   1      30.369  29.126  22.276  1.00  0.00     0.124 C 
ATOM     17  C   UNL A   1      28.725  27.775  23.264  1.00  0.00     0.223 C 
ATOM     18  O   UNL A   1      28.177  26.867  23.864  1.00  0.00    -0.275 OA
BRANCH  14  19
ATOM     19  C   UNL A   1      29.136  30.918  23.530  1.00  0.00     0.002 C 
ATOM     20  C   UNL A   1      27.796  31.547  23.869  1.00  0.00     0.004 C 
ENDBRANCH  14  19
ENDBRANCH  12  13
ENDBRANCH   7  12
ENDBRANCH   4   6
ENDBRANCH   3   4
ENDBRANCH   2   3
ENDBRANCH   1   2
BRANCH   1  21
ATOM     21  O   UNL A   1      33.848  34.092  29.432  1.00  0.00    -0.374 OA
BRANCH  21  22
ATOM     22  C   UNL A   1      34.585  34.449  30.601  1.00  0.00     0.202 C 
BRANCH  22  23
ATOM     23  C   UNL A   1      34.190  33.770  31.919  1.00  0.00     0.261 C 
BRANCH  23  24
ATOM     24  O   UNL A   1      34.631  32.402  31.990  1.00  0.00    -0.460 OA
BRANCH  24  25
ATOM     25  C   UNL A   1      35.730  32.206  32.757  1.00  0.00     0.338 C 
ATOM     26  O   UNL A   1      35.869  32.477  33.940  1.00  0.00    -0.246 OA
BRANCH  25  27
ATOM     27  C   UNL A   1      36.737  31.432  32.009  1.00  0.00     0.060 A 
ATOM     28  C   UNL A   1      37.753  30.809  32.745  1.00  0.00     0.016 A 
ATOM     29  C   UNL A   1      36.741  31.388  30.614  1.00  0.00     0.016 A 
ATOM     30  C   UNL A   1      38.809  30.182  32.087  1.00  0.00     0.010 A 
ATOM     31  C   UNL A   1      37.807  30.764  29.954  1.00  0.00     0.010 A 
ATOM     32  C   UNL A   1      38.863  30.192  30.688  1.00  0.00    -0.014 A 
BRANCH  32  33
ATOM     33  C   UNL A   1      40.094  29.731  29.998  1.00  0.00     0.031 A 
ATOM     34  C   UNL A   1      41.224  30.705  29.796  1.00  0.00     0.074 A 
ATOM     35  C   UNL A   1      40.214  28.459  29.581  1.00  0.00     0.049 A 
ATOM     36  N   UNL A   1      42.365  30.536  29.179  1.00  0.00    -0.248 NA
ATOM     37  C   UNL A   1      41.042  32.051  30.361  1.00  0.00     0.031 C 
ATOM     38  C   UNL A   1      39.205  27.415  29.754  1.00  0.00     0.029 A 
ATOM     39  N   UNL A   1      41.238  27.830  28.916  1.00  0.00    -0.354 N 
ATOM     40  C   UNL A   1      43.028  31.754  29.268  1.00  0.00     0.074 A 
ATOM     41  C   UNL A   1      42.155  32.662  29.979  1.00  0.00     0.031 C 
ATOM     42  C   UNL A   1      39.655  26.277  29.196  1.00  0.00     0.029 A 
ATOM     43  C   UNL A   1      40.965  26.523  28.597  1.00  0.00     0.049 A 
ATOM     44  H   UNL A   1      42.086  28.275  28.689  1.00  0.00     0.167 HD
ATOM     45  C   UNL A   1      44.258  32.080  28.805  1.00  0.00     0.037 A 
ATOM     46  C   UNL A   1      41.683  25.636  27.880  1.00  0.00     0.037 A 
ATOM     47  C   UNL A   1      45.134  31.167  28.119  1.00  0.00     0.049 A 
ATOM     48  C   UNL A   1      43.026  26.048  27.328  1.00  0.00     0.074 A 
ATOM     49  C   UNL A   1      46.416  31.396  27.648  1.00  0.00     0.029 A 
ATOM     50  N   UNL A   1      44.817  29.857  27.801  1.00  0.00    -0.354 N 
ATOM     51  N   UNL A   1      43.661  27.188  27.453  1.00  0.00    -0.248 NA
ATOM     52  C   UNL A   1      43.755  25.045  26.538  1.00  0.00     0.031 C 
ATOM     53  C   UNL A   1      46.853  30.240  26.994  1.00  0.00     0.029 A 
ATOM     54  C   UNL A   1      45.869  29.272  27.113  1.00  0.00     0.049 A 
ATOM     55  H   UNL A   1      43.972  29.407  28.031  1.00  0.00     0.167 HD
ATOM     56  C   UNL A   1      44.875  27.025  26.796  1.00  0.00     0.074 A 
ATOM     57  C   UNL A   1      44.894  25.673  26.285  1.00  0.00     0.031 C 
ATOM     58  C   UNL A   1      45.884  27.916  26.630  1.00  0.00     0.037 A 
BRANCH  45  59
ATOM     59  C   UNL A   1      44.734  33.490  28.998  1.00  0.00     0.064 A 
ATOM     60  C   UNL A   1      45.505  33.866  30.107  1.00  0.00     0.173 A 
ATOM     61  C   UNL A   1      44.485  34.458  28.012  1.00  0.00     0.173 A 
ATOM     62  F   UNL A   1      45.760  32.981  31.083  1.00  0.00    -0.203 F 
ATOM     63  C   UNL A   1      46.002  35.161  30.226  1.00  0.00     0.198 A 
ATOM     64  C   UNL A   1      45.007  35.743  28.121  1.00  0.00     0.198 A 
ATOM     65  F   UNL A   1      43.755  34.148  26.929  1.00  0.00    -0.203 F 
ATOM     66  F   UNL A   1      46.715  35.506  31.307  1.00  0.00    -0.200 F 
ATOM     67  C   UNL A   1      45.763  36.095  29.228  1.00  0.00     0.200 A 
ATOM     68  F   UNL A   1      44.787  36.639  27.148  1.00  0.00    -0.200 F 
ATOM     69  F   UNL A   1      46.262  37.334  29.334  1.00  0.00    -0.200 F 
ENDBRANCH  45  59
BRANCH  46  70
ATOM     70  C   UNL A   1      41.148  24.274  27.610  1.00  0.00     0.064 A 
ATOM     71  C   UNL A   1      41.729  23.137  28.189  1.00  0.00     0.173 A 
ATOM     72  C   UNL A   1      40.085  24.076  26.716  1.00  0.00     0.173 A 
ATOM     73  F   UNL A   1      42.765  23.270  29.031  1.00  0.00    -0.203 F 
ATOM     74  C   UNL A   1      41.295  21.855  27.856  1.00  0.00     0.198 A 
ATOM     75  C   UNL A   1      39.627  22.796  26.411  1.00  0.00     0.198 A 
ATOM     76  F   UNL A   1      39.491  25.128  26.133  1.00  0.00    -0.203 F 
ATOM     77  F   UNL A   1      41.916  20.785  28.369  1.00  0.00    -0.200 F 
ATOM     78  C   UNL A   1      40.242  21.686  26.970  1.00  0.00     0.200 A 
ATOM     79  F   UNL A   1      38.601  22.638  25.564  1.00  0.00    -0.200 F 
ATOM     80  F   UNL A   1      39.830  20.454  26.642  1.00  0.00    -0.200 F 
ENDBRANCH  46  70
BRANCH  58  81
ATOM     81  C   UNL A   1      47.119  27.441  25.918  1.00  0.00     0.064 A 
ATOM     82  C   UNL A   1      47.276  27.586  24.533  1.00  0.00     0.173 A 
ATOM     83  C   UNL A   1      48.176  26.869  26.643  1.00  0.00     0.173 A 
ATOM     84  F   UNL A   1      46.291  28.116  23.791  1.00  0.00    -0.203 F 
ATOM     85  C   UNL A   1      48.434  27.147  23.895  1.00  0.00     0.198 A 
ATOM     86  C   UNL A   1      49.346  26.464  26.006  1.00  0.00     0.198 A 
ATOM     87  F   UNL A   1      48.080  26.716  27.972  1.00  0.00    -0.203 F 
ATOM     88  F   UNL A   1      48.540  27.247  22.563  1.00  0.00    -0.200 F 
ATOM     89  C   UNL A   1      49.470  26.595  24.633  1.00  0.00     0.200 A 
ATOM     90  F   UNL A   1      50.352  25.945  26.725  1.00  0.00    -0.200 F 
ATOM     91  F   UNL A   1      50.586  26.180  24.017  1.00  0.00    -0.200 F 
ENDBRANCH  58  81
ENDBRANCH  32  33
ENDBRANCH  25  27
ENDBRANCH  24  25
ENDBRANCH  23  24
ENDBRANCH  22  23
ENDBRANCH  21  22
ENDBRANCH   1  21
TORSDOF 17
ENDMDL
MODEL 3
REMARK VINA RESULT:     -11.2      4.264      9.439
REMARK SMILES CC[C@@H]1CC(=O)N(Cc2ccc(C(=O)OCCOCCOC(=O)c3ccc(-c4c5nc(c(-c6c(F)c(F)c(F)c(F)c6F)c6ccc([nH]6)c(-c6c(F)c(F)c(F)c(F)c6F)c6nc(c(-c7c(F)c(F)c(F)c(F)c7F)c7ccc4[nH]7)C=C6)C=C5)cc3)cn2)C1
REMARK SMILES IDX 17 1 16 2 15 3 13 4 14 5 12 6 9 7 10 8 88 9 11 10 87 11 8 12
REMARK SMILES IDX 7 13 3 14 4 15 89 16 5 17 6 18 2 19 1 20 18 21 19 22 20 23
REMARK SMILES IDX 21 24 22 25 23 26 24 27 25 28 86 29 26 30 85 31 27 32 28 33
REMARK SMILES IDX 29 34 79 35 30 36 84 37 78 38 80 39 31 40 83 41 77 42 76 43
REMARK SMILES IDX 32 45 64 46 44 47 63 48 45 49 48 50 62 51 81 52 46 53 47 54
REMARK SMILES IDX 61 56 82 57 49 58 33 59 34 60 42 61 35 62 36 63 40 64 43 65
REMARK SMILES IDX 37 66 38 67 41 68 39 69 65 70 66 71 74 72 67 73 68 74 72 75
REMARK SMILES IDX 75 76 69 77 70 78 73 79 71 80 50 81 51 82 59 83 52 84 53 85
REMARK SMILES IDX 57 86 60 87 54 88 55 89 58 90 56 91
REMARK H PARENT 80 44 48 55
REMARK Flexibility Score: inf
ROOT
ATOM      1  C   UNL A   1      35.195  33.356  28.141  1.00  0.00     0.202 C 
ENDROOT
BRANCH   1   2
ATOM      2  C   UNL A   1      34.493  32.116  28.701  1.00  0.00     0.261 C 
BRANCH   2   3
ATOM      3  O   UNL A   1      33.652  31.503  27.711  1.00  0.00    -0.460 OA
BRANCH   3   4
ATOM      4  C   UNL A   1      34.128  30.340  27.208  1.00  0.00     0.339 C 
ATOM      5  O   UNL A   1      35.097  29.710  27.608  1.00  0.00    -0.246 OA
BRANCH   4   6
ATOM      6  C   UNL A   1      33.224  29.830  26.164  1.00  0.00     0.078 A 
ATOM      7  C   UNL A   1      31.748  28.764  24.106  1.00  0.00     0.060 A 
ATOM      8  C   UNL A   1      31.205  29.806  24.863  1.00  0.00     0.026 A 
ATOM      9  N   UNL A   1      32.945  28.205  24.403  1.00  0.00    -0.259 NA
ATOM     10  C   UNL A   1      31.957  30.350  25.903  1.00  0.00     0.019 A 
ATOM     11  C   UNL A   1      33.656  28.747  25.416  1.00  0.00     0.127 A 
BRANCH   7  12
ATOM     12  C   UNL A   1      31.086  28.329  22.816  1.00  0.00     0.175 C 
BRANCH  12  13
ATOM     13  N   UNL A   1      29.724  28.834  22.718  1.00  0.00    -0.336 N 
ATOM     14  C   UNL A   1      27.935  30.282  22.374  1.00  0.00     0.017 C 
ATOM     15  C   UNL A   1      27.392  28.882  22.688  1.00  0.00     0.105 C 
ATOM     16  C   UNL A   1      29.354  29.970  21.911  1.00  0.00     0.124 C 
ATOM     17  C   UNL A   1      28.613  28.144  23.183  1.00  0.00     0.223 C 
ATOM     18  O   UNL A   1      28.597  27.112  23.830  1.00  0.00    -0.275 OA
BRANCH  14  19
ATOM     19  C   UNL A   1      27.972  31.234  23.584  1.00  0.00     0.002 C 
ATOM     20  C   UNL A   1      28.654  32.561  23.301  1.00  0.00     0.004 C 
ENDBRANCH  14  19
ENDBRANCH  12  13
ENDBRANCH   7  12
ENDBRANCH   4   6
ENDBRANCH   3   4
ENDBRANCH   2   3
ENDBRANCH   1   2
BRANCH   1  21
ATOM     21  O   UNL A   1      34.590  34.620  28.407  1.00  0.00    -0.374 OA
BRANCH  21  22
ATOM     22  C   UNL A   1      33.440  34.646  29.252  1.00  0.00     0.202 C 
BRANCH  22  23
ATOM     23  C   UNL A   1      32.863  36.020  29.617  1.00  0.00     0.261 C 
BRANCH  23  24
ATOM     24  O   UNL A   1      33.246  36.447  30.938  1.00  0.00    -0.460 OA
BRANCH  24  25
ATOM     25  C   UNL A   1      32.834  35.626  31.934  1.00  0.00     0.338 C 
ATOM     26  O   UNL A   1      31.686  35.328  32.224  1.00  0.00    -0.246 OA
BRANCH  25  27
ATOM     27  C   UNL A   1      33.995  34.964  32.555  1.00  0.00     0.060 A 
ATOM     28  C   UNL A   1      35.256  35.540  32.349  1.00  0.00     0.016 A 
ATOM     29  C   UNL A   1      33.868  33.760  33.248  1.00  0.00     0.016 A 
ATOM     30  C   UNL A   1      36.403  34.885  32.792  1.00  0.00     0.010 A 
ATOM     31  C   UNL A   1      35.023  33.100  33.686  1.00  0.00     0.010 A 
ATOM     32  C   UNL A   1      36.296  33.641  33.427  1.00  0.00    -0.014 A 
BRANCH  32  33
ATOM     33  C   UNL A   1      37.520  32.844  33.688  1.00  0.00     0.031 A 
ATOM     34  C   UNL A   1      38.302  33.099  34.949  1.00  0.00     0.074 A 
ATOM     35  C   UNL A   1      37.915  31.889  32.828  1.00  0.00     0.049 A 
ATOM     36  N   UNL A   1      39.423  32.559  35.355  1.00  0.00    -0.248 NA
ATOM     37  C   UNL A   1      37.749  34.100  35.875  1.00  0.00     0.031 C 
ATOM     38  C   UNL A   1      37.221  31.523  31.594  1.00  0.00     0.029 A 
ATOM     39  N   UNL A   1      39.007  31.056  32.858  1.00  0.00    -0.354 N 
ATOM     40  C   UNL A   1      39.716  33.164  36.571  1.00  0.00     0.074 A 
ATOM     41  C   UNL A   1      38.669  34.127  36.829  1.00  0.00     0.031 C 
ATOM     42  C   UNL A   1      37.911  30.549  30.978  1.00  0.00     0.029 A 
ATOM     43  C   UNL A   1      39.112  30.248  31.754  1.00  0.00     0.049 A 
ATOM     44  H   UNL A   1      39.652  31.042  33.601  1.00  0.00     0.167 HD
ATOM     45  C   UNL A   1      40.761  32.928  37.399  1.00  0.00     0.037 A 
ATOM     46  C   UNL A   1      40.083  29.382  31.400  1.00  0.00     0.037 A 
ATOM     47  C   UNL A   1      41.788  31.951  37.150  1.00  0.00     0.049 A 
ATOM     48  C   UNL A   1      41.264  29.184  32.319  1.00  0.00     0.074 A 
ATOM     49  C   UNL A   1      42.865  31.611  37.952  1.00  0.00     0.029 A 
ATOM     50  N   UNL A   1      41.868  31.161  36.015  1.00  0.00    -0.354 N 
ATOM     51  N   UNL A   1      41.511  29.729  33.485  1.00  0.00    -0.248 NA
ATOM     52  C   UNL A   1      42.301  28.242  31.872  1.00  0.00     0.031 C 
ATOM     53  C   UNL A   1      43.630  30.658  37.274  1.00  0.00     0.029 A 
ATOM     54  C   UNL A   1      42.995  30.356  36.080  1.00  0.00     0.049 A 
ATOM     55  H   UNL A   1      41.222  31.170  35.272  1.00  0.00     0.167 HD
ATOM     56  C   UNL A   1      42.704  29.169  33.926  1.00  0.00     0.074 A 
ATOM     57  C   UNL A   1      43.125  28.231  32.909  1.00  0.00     0.031 C 
ATOM     58  C   UNL A   1      43.390  29.410  35.071  1.00  0.00     0.037 A 
BRANCH  45  59
ATOM     59  C   UNL A   1      40.871  33.752  38.648  1.00  0.00     0.064 A 
ATOM     60  C   UNL A   1      41.653  34.914  38.702  1.00  0.00     0.173 A 
ATOM     61  C   UNL A   1      40.111  33.417  39.780  1.00  0.00     0.173 A 
ATOM     62  F   UNL A   1      42.406  35.271  37.651  1.00  0.00    -0.203 F 
ATOM     63  C   UNL A   1      41.677  35.706  39.847  1.00  0.00     0.198 A 
ATOM     64  C   UNL A   1      40.117  34.226  40.912  1.00  0.00     0.198 A 
ATOM     65  F   UNL A   1      39.343  32.317  39.779  1.00  0.00    -0.203 F 
ATOM     66  F   UNL A   1      42.453  36.799  39.887  1.00  0.00    -0.200 F 
ATOM     67  C   UNL A   1      40.901  35.369  40.946  1.00  0.00     0.200 A 
ATOM     68  F   UNL A   1      39.355  33.906  41.968  1.00  0.00    -0.200 F 
ATOM     69  F   UNL A   1      40.910  36.145  42.039  1.00  0.00    -0.200 F 
ENDBRANCH  45  59
BRANCH  46  70
ATOM     70  C   UNL A   1      40.008  28.651  30.106  1.00  0.00     0.064 A 
ATOM     71  C   UNL A   1      39.430  27.376  30.025  1.00  0.00     0.173 A 
ATOM     72  C   UNL A   1      40.571  29.185  28.938  1.00  0.00     0.173 A 
ATOM     73  F   UNL A   1      38.901  26.810  31.120  1.00  0.00    -0.203 F 
ATOM     74  C   UNL A   1      39.452  26.648  28.837  1.00  0.00     0.198 A 
ATOM     75  C   UNL A   1      40.560  28.471  27.741  1.00  0.00     0.198 A 
ATOM     76  F   UNL A   1      41.137  30.400  28.958  1.00  0.00    -0.203 F 
ATOM     77  F   UNL A   1      38.957  25.404  28.807  1.00  0.00    -0.200 F 
ATOM     78  C   UNL A   1      40.014  27.197  27.695  1.00  0.00     0.200 A 
ATOM     79  F   UNL A   1      41.093  29.012  26.636  1.00  0.00    -0.200 F 
ATOM     80  F   UNL A   1      40.044  26.495  26.555  1.00  0.00    -0.200 F 
ENDBRANCH  46  70
BRANCH  58  81
ATOM     81  C   UNL A   1      44.635  28.605  35.316  1.00  0.00     0.064 A 
ATOM     82  C   UNL A   1      44.600  27.367  35.973  1.00  0.00     0.173 A 
ATOM     83  C   UNL A   1      45.876  29.065  34.848  1.00  0.00     0.173 A 
ATOM     84  F   UNL A   1      43.441  26.888  36.451  1.00  0.00    -0.203 F 
ATOM     85  C   UNL A   1      45.766  26.635  36.181  1.00  0.00     0.198 A 
ATOM     86  C   UNL A   1      47.034  28.313  35.027  1.00  0.00     0.198 A 
ATOM     87  F   UNL A   1      45.964  30.238  34.204  1.00  0.00    -0.203 F 
ATOM     88  F   UNL A   1      45.716  25.480  36.860  1.00  0.00    -0.200 F 
ATOM     89  C   UNL A   1      46.979  27.103  35.701  1.00  0.00     0.200 A 
ATOM     90  F   UNL A   1      48.203  28.761  34.547  1.00  0.00    -0.200 F 
ATOM     91  F   UNL A   1      48.099  26.393  35.896  1.00  0.00    -0.200 F 
ENDBRANCH  58  81
ENDBRANCH  32  33
ENDBRANCH  25  27
ENDBRANCH  24  25
ENDBRANCH  23  24
ENDBRANCH  22  23
ENDBRANCH  21  22
ENDBRANCH   1  21
TORSDOF 17
ENDMDL
