MODEL 1
REMARK VINA RESULT:     -11.8      0.000      0.000
REMARK SMILES COc1ccc(C[N@@H+]2C[C@@H](C(=O)OCCOCCOC(=O)c3ccc(-c4c5nc(c(-c6c(F)c(F)c(F)c(F)c6F)c6ccc([nH]6)c(-c6c(F)c(F)c(F)c(F)c6F)c6nc(c(-c7c(F)c(F)c(F)c(F)c7F)c7ccc4[nH]7)C=C6)C=C5)cc3)[C@H](c3ccccc3OC)C2)c(OC)c1
REMARK SMILES IDX 15 1 14 2 13 3 11 4 12 5 10 6 8 7 9 8 94 9 85 11 7 12 6 13
REMARK SMILES IDX 3 14 4 15 98 16 5 17 95 18 2 19 1 20 96 21 97 22 86 23 87 24
REMARK SMILES IDX 91 25 88 26 90 27 89 28 92 29 93 30 16 31 17 32 18 33 19 34
REMARK SMILES IDX 20 35 21 36 22 37 23 38 84 39 24 40 83 41 25 42 26 43 27 44
REMARK SMILES IDX 77 45 28 46 82 47 76 48 78 49 29 50 81 51 75 52 74 53 30 55
REMARK SMILES IDX 62 56 42 57 61 58 43 59 46 60 60 61 79 62 44 63 45 64 59 66
REMARK SMILES IDX 80 67 47 68 31 69 32 70 40 71 33 72 34 73 38 74 41 75 35 76
REMARK SMILES IDX 36 77 39 78 37 79 63 80 64 81 72 82 65 83 66 84 70 85 73 86
REMARK SMILES IDX 67 87 68 88 71 89 69 90 48 91 49 92 57 93 50 94 51 95 55 96
REMARK SMILES IDX 58 97 52 98 53 99 56 100 54 101
REMARK H PARENT 8 10 78 54 46 65
REMARK Flexibility Score: inf
ROOT
ATOM      1  C   UNL A   1      33.405  29.403  25.753  1.00  0.00     0.202 C 
ENDROOT
BRANCH   1   2
ATOM      2  C   UNL A   1      33.354  28.420  26.924  1.00  0.00     0.261 C 
BRANCH   2   3
ATOM      3  O   UNL A   1      33.133  27.079  26.476  1.00  0.00    -0.463 OA
BRANCH   3   4
ATOM      4  C   UNL A   1      31.870  26.805  26.056  1.00  0.00     0.315 C 
ATOM      5  O   UNL A   1      30.872  26.934  26.757  1.00  0.00    -0.252 OA
BRANCH   4   6
ATOM      6  C   UNL A   1      31.823  26.209  24.674  1.00  0.00     0.167 C 
ATOM      7  N   UNL A   1      32.909  25.131  22.876  1.00  0.00    -0.330 N 
ATOM      8  C   UNL A   1      33.196  25.777  24.160  1.00  0.00     0.278 C 
ATOM      9  C   UNL A   1      31.768  25.911  22.326  1.00  0.00     0.272 C 
ATOM     10  H   UNL A   1      33.713  25.152  22.248  1.00  0.00     0.348 HD
ATOM     11  C   UNL A   1      31.269  26.906  23.433  1.00  0.00     0.098 C 
BRANCH   7  12
ATOM     12  C   UNL A   1      32.661  23.656  22.976  1.00  0.00     0.303 C 
BRANCH  12  13
ATOM     13  C   UNL A   1      33.841  22.761  23.354  1.00  0.00     0.048 A 
ATOM     14  C   UNL A   1      36.063  21.653  24.670  1.00  0.00     0.122 A 
ATOM     15  C   UNL A   1      36.247  22.671  23.743  1.00  0.00     0.047 A 
ATOM     16  C   UNL A   1      34.796  21.097  24.854  1.00  0.00     0.093 A 
ATOM     17  C   UNL A   1      35.151  23.194  23.056  1.00  0.00     0.017 A 
ATOM     18  C   UNL A   1      33.690  21.623  24.164  1.00  0.00     0.131 A 
BRANCH  14  19
ATOM     19  O   UNL A   1      37.126  21.370  25.480  1.00  0.00    -0.497 OA
ATOM     20  C   UNL A   1      38.005  22.467  25.680  1.00  0.00     0.278 C 
ENDBRANCH  14  19
BRANCH  18  21
ATOM     21  O   UNL A   1      32.424  21.128  24.344  1.00  0.00    -0.496 OA
ATOM     22  C   UNL A   1      32.420  19.785  24.830  1.00  0.00     0.278 C 
ENDBRANCH  18  21
ENDBRANCH  12  13
ENDBRANCH   7  12
BRANCH  11  23
ATOM     23  C   UNL A   1      29.784  27.248  23.452  1.00  0.00     0.004 A 
ATOM     24  C   UNL A   1      28.822  26.431  24.074  1.00  0.00     0.008 A 
ATOM     25  C   UNL A   1      29.322  28.421  22.818  1.00  0.00     0.122 A 
ATOM     26  C   UNL A   1      27.466  26.774  24.086  1.00  0.00     0.001 A 
ATOM     27  C   UNL A   1      27.962  28.761  22.830  1.00  0.00     0.047 A 
ATOM     28  C   UNL A   1      27.036  27.944  23.475  1.00  0.00     0.004 A 
BRANCH  25  29
ATOM     29  O   UNL A   1      30.245  29.169  22.128  1.00  0.00    -0.496 OA
ATOM     30  C   UNL A   1      29.730  30.388  21.588  1.00  0.00     0.278 C 
ENDBRANCH  25  29
ENDBRANCH  11  23
ENDBRANCH   4   6
ENDBRANCH   3   4
ENDBRANCH   2   3
ENDBRANCH   1   2
BRANCH   1  31
ATOM     31  O   UNL A   1      32.345  30.349  25.640  1.00  0.00    -0.374 OA
BRANCH  31  32
ATOM     32  C   UNL A   1      31.783  30.886  26.840  1.00  0.00     0.202 C 
BRANCH  32  33
ATOM     33  C   UNL A   1      31.809  32.410  27.015  1.00  0.00     0.261 C 
BRANCH  33  34
ATOM     34  O   UNL A   1      33.124  32.971  26.852  1.00  0.00    -0.460 OA
BRANCH  34  35
ATOM     35  C   UNL A   1      33.691  33.421  27.995  1.00  0.00     0.338 C 
ATOM     36  O   UNL A   1      33.208  34.194  28.814  1.00  0.00    -0.246 OA
BRANCH  35  37
ATOM     37  C   UNL A   1      34.948  32.704  28.257  1.00  0.00     0.060 A 
ATOM     38  C   UNL A   1      34.859  31.341  28.574  1.00  0.00     0.016 A 
ATOM     39  C   UNL A   1      36.174  33.368  28.295  1.00  0.00     0.016 A 
ATOM     40  C   UNL A   1      35.990  30.649  28.991  1.00  0.00     0.010 A 
ATOM     41  C   UNL A   1      37.308  32.676  28.730  1.00  0.00     0.010 A 
ATOM     42  C   UNL A   1      37.207  31.328  29.123  1.00  0.00    -0.014 A 
BRANCH  42  43
ATOM     43  C   UNL A   1      38.310  30.677  29.864  1.00  0.00     0.031 A 
ATOM     44  C   UNL A   1      38.517  31.043  31.305  1.00  0.00     0.074 A 
ATOM     45  C   UNL A   1      39.081  29.750  29.273  1.00  0.00     0.049 A 
ATOM     46  N   UNL A   1      39.415  30.612  32.153  1.00  0.00    -0.248 NA
ATOM     47  C   UNL A   1      37.584  32.034  31.866  1.00  0.00     0.031 C 
ATOM     48  C   UNL A   1      38.943  29.297  27.892  1.00  0.00     0.029 A 
ATOM     49  N   UNL A   1      40.139  29.031  29.766  1.00  0.00    -0.354 N 
ATOM     50  C   UNL A   1      39.157  31.281  33.343  1.00  0.00     0.074 A 
ATOM     51  C   UNL A   1      38.041  32.168  33.101  1.00  0.00     0.031 C 
ATOM     52  C   UNL A   1      39.902  28.390  27.637  1.00  0.00     0.029 A 
ATOM     53  C   UNL A   1      40.729  28.220  28.830  1.00  0.00     0.049 A 
ATOM     54  H   UNL A   1      40.447  29.092  30.699  1.00  0.00     0.167 HD
ATOM     55  C   UNL A   1      39.793  31.160  34.532  1.00  0.00     0.037 A 
ATOM     56  C   UNL A   1      41.829  27.447  28.926  1.00  0.00     0.037 A 
ATOM     57  C   UNL A   1      40.907  30.279  34.761  1.00  0.00     0.049 A 
ATOM     58  C   UNL A   1      42.552  27.361  30.243  1.00  0.00     0.074 A 
ATOM     59  C   UNL A   1      41.608  30.055  35.931  1.00  0.00     0.029 A 
ATOM     60  N   UNL A   1      41.490  29.482  33.784  1.00  0.00    -0.354 N 
ATOM     61  N   UNL A   1      42.283  27.967  31.375  1.00  0.00    -0.248 NA
ATOM     62  C   UNL A   1      43.725  26.480  30.300  1.00  0.00     0.031 C 
ATOM     63  C   UNL A   1      42.651  29.163  35.650  1.00  0.00     0.029 A 
ATOM     64  C   UNL A   1      42.565  28.789  34.318  1.00  0.00     0.049 A 
ATOM     65  H   UNL A   1      41.186  29.420  32.850  1.00  0.00     0.167 HD
ATOM     66  C   UNL A   1      43.239  27.530  32.283  1.00  0.00     0.074 A 
ATOM     67  C   UNL A   1      44.087  26.594  31.571  1.00  0.00     0.031 C 
ATOM     68  C   UNL A   1      43.401  27.871  33.585  1.00  0.00     0.037 A 
BRANCH  55  69
ATOM     69  C   UNL A   1      39.318  32.033  35.657  1.00  0.00     0.064 A 
ATOM     70  C   UNL A   1      39.779  33.350  35.819  1.00  0.00     0.173 A 
ATOM     71  C   UNL A   1      38.397  31.542  36.594  1.00  0.00     0.173 A 
ATOM     72  F   UNL A   1      40.673  33.863  34.960  1.00  0.00    -0.203 F 
ATOM     73  C   UNL A   1      39.363  34.126  36.898  1.00  0.00     0.198 A 
ATOM     74  C   UNL A   1      37.962  32.332  37.655  1.00  0.00     0.198 A 
ATOM     75  F   UNL A   1      37.924  30.291  36.486  1.00  0.00    -0.203 F 
ATOM     76  F   UNL A   1      39.863  35.359  37.066  1.00  0.00    -0.200 F 
ATOM     77  C   UNL A   1      38.453  33.618  37.813  1.00  0.00     0.200 A 
ATOM     78  F   UNL A   1      37.076  31.841  38.533  1.00  0.00    -0.200 F 
ATOM     79  F   UNL A   1      38.059  34.365  38.854  1.00  0.00    -0.200 F 
ENDBRANCH  55  69
BRANCH  56  80
ATOM     80  C   UNL A   1      42.310  26.714  27.728  1.00  0.00     0.064 A 
ATOM     81  C   UNL A   1      43.271  27.266  26.872  1.00  0.00     0.173 A 
ATOM     82  C   UNL A   1      41.835  25.426  27.434  1.00  0.00     0.173 A 
ATOM     83  F   UNL A   1      43.739  28.501  27.099  1.00  0.00    -0.203 F 
ATOM     84  C   UNL A   1      43.738  26.558  25.765  1.00  0.00     0.198 A 
ATOM     85  C   UNL A   1      42.321  24.711  26.342  1.00  0.00     0.198 A 
ATOM     86  F   UNL A   1      40.914  24.854  28.224  1.00  0.00    -0.203 F 
ATOM     87  F   UNL A   1      44.639  27.118  24.947  1.00  0.00    -0.200 F 
ATOM     88  C   UNL A   1      43.270  25.278  25.507  1.00  0.00     0.200 A 
ATOM     89  F   UNL A   1      41.875  23.470  26.105  1.00  0.00    -0.200 F 
ATOM     90  F   UNL A   1      43.731  24.594  24.452  1.00  0.00    -0.200 F 
ENDBRANCH  56  80
BRANCH  68  91
ATOM     91  C   UNL A   1      44.530  27.218  34.329  1.00  0.00     0.064 A 
ATOM     92  C   UNL A   1      44.376  25.968  34.947  1.00  0.00     0.173 A 
ATOM     93  C   UNL A   1      45.792  27.829  34.385  1.00  0.00     0.173 A 
ATOM     94  F   UNL A   1      43.186  25.350  34.933  1.00  0.00    -0.203 F 
ATOM     95  C   UNL A   1      45.440  25.365  35.613  1.00  0.00     0.198 A 
ATOM     96  C   UNL A   1      46.860  27.210  35.027  1.00  0.00     0.198 A 
ATOM     97  F   UNL A   1      45.992  29.022  33.804  1.00  0.00    -0.203 F 
ATOM     98  F   UNL A   1      45.260  24.190  36.233  1.00  0.00    -0.200 F 
ATOM     99  C   UNL A   1      46.682  25.982  35.645  1.00  0.00     0.200 A 
ATOM    100  F   UNL A   1      48.062  27.801  35.045  1.00  0.00    -0.200 F 
ATOM    101  F   UNL A   1      47.706  25.395  36.280  1.00  0.00    -0.200 F 
ENDBRANCH  68  91
ENDBRANCH  42  43
ENDBRANCH  35  37
ENDBRANCH  34  35
ENDBRANCH  33  34
ENDBRANCH  32  33
ENDBRANCH  31  32
ENDBRANCH   1  31
TORSDOF 20
ENDMDL
MODEL 2
REMARK VINA RESULT:     -11.5      1.547      7.179
REMARK SMILES COc1ccc(C[N@@H+]2C[C@@H](C(=O)OCCOCCOC(=O)c3ccc(-c4c5nc(c(-c6c(F)c(F)c(F)c(F)c6F)c6ccc([nH]6)c(-c6c(F)c(F)c(F)c(F)c6F)c6nc(c(-c7c(F)c(F)c(F)c(F)c7F)c7ccc4[nH]7)C=C6)C=C5)cc3)[C@H](c3ccccc3OC)C2)c(OC)c1
REMARK SMILES IDX 15 1 14 2 13 3 11 4 12 5 10 6 8 7 9 8 94 9 85 11 7 12 6 13
REMARK SMILES IDX 3 14 4 15 98 16 5 17 95 18 2 19 1 20 96 21 97 22 86 23 87 24
REMARK SMILES IDX 91 25 88 26 90 27 89 28 92 29 93 30 16 31 17 32 18 33 19 34
REMARK SMILES IDX 20 35 21 36 22 37 23 38 84 39 24 40 83 41 25 42 26 43 27 44
REMARK SMILES IDX 77 45 28 46 82 47 76 48 78 49 29 50 81 51 75 52 74 53 30 55
REMARK SMILES IDX 62 56 42 57 61 58 43 59 46 60 60 61 79 62 44 63 45 64 59 66
REMARK SMILES IDX 80 67 47 68 31 69 32 70 40 71 33 72 34 73 38 74 41 75 35 76
REMARK SMILES IDX 36 77 39 78 37 79 63 80 64 81 72 82 65 83 66 84 70 85 73 86
REMARK SMILES IDX 67 87 68 88 71 89 69 90 48 91 49 92 57 93 50 94 51 95 55 96
REMARK SMILES IDX 58 97 52 98 53 99 56 100 54 101
REMARK H PARENT 8 10 78 54 46 65
REMARK Flexibility Score: inf
ROOT
ATOM      1  C   UNL A   1      31.844  29.323  26.740  1.00  0.00     0.202 C 
ENDROOT
BRANCH   1   2
ATOM      2  C   UNL A   1      32.664  28.249  27.457  1.00  0.00     0.261 C 
BRANCH   2   3
ATOM      3  O   UNL A   1      33.046  27.196  26.567  1.00  0.00    -0.463 OA
BRANCH   3   4
ATOM      4  C   UNL A   1      32.041  26.368  26.177  1.00  0.00     0.315 C 
ATOM      5  O   UNL A   1      31.225  25.874  26.946  1.00  0.00    -0.252 OA
BRANCH   4   6
ATOM      6  C   UNL A   1      32.099  26.017  24.714  1.00  0.00     0.167 C 
ATOM      7  N   UNL A   1      33.330  25.296  22.832  1.00  0.00    -0.330 N 
ATOM      8  C   UNL A   1      33.515  25.720  24.223  1.00  0.00     0.278 C 
ATOM      9  C   UNL A   1      32.192  26.125  22.350  1.00  0.00     0.272 C 
ATOM     10  H   UNL A   1      34.167  25.449  22.270  1.00  0.00     0.348 HD
ATOM     11  C   UNL A   1      31.591  26.901  23.576  1.00  0.00     0.098 C 
BRANCH   7  12
ATOM     12  C   UNL A   1      33.135  23.819  22.665  1.00  0.00     0.303 C 
BRANCH  12  13
ATOM     13  C   UNL A   1      34.222  22.893  23.209  1.00  0.00     0.048 A 
ATOM     14  C   UNL A   1      36.290  21.795  24.764  1.00  0.00     0.122 A 
ATOM     15  C   UNL A   1      36.595  22.673  23.731  1.00  0.00     0.047 A 
ATOM     16  C   UNL A   1      34.975  21.363  24.947  1.00  0.00     0.093 A 
ATOM     17  C   UNL A   1      35.574  23.186  22.929  1.00  0.00     0.017 A 
ATOM     18  C   UNL A   1      33.946  21.880  24.142  1.00  0.00     0.131 A 
BRANCH  14  19
ATOM     19  O   UNL A   1      37.291  21.538  25.657  1.00  0.00    -0.497 OA
ATOM     20  C   UNL A   1      38.211  22.608  25.814  1.00  0.00     0.278 C 
ENDBRANCH  14  19
BRANCH  18  21
ATOM     21  O   UNL A   1      32.638  21.507  24.315  1.00  0.00    -0.496 OA
ATOM     22  C   UNL A   1      32.420  20.120  24.056  1.00  0.00     0.278 C 
ENDBRANCH  18  21
ENDBRANCH  12  13
ENDBRANCH   7  12
BRANCH  11  23
ATOM     23  C   UNL A   1      30.094  27.190  23.558  1.00  0.00     0.004 A 
ATOM     24  C   UNL A   1      29.139  26.303  24.087  1.00  0.00     0.008 A 
ATOM     25  C   UNL A   1      29.615  28.385  22.981  1.00  0.00     0.122 A 
ATOM     26  C   UNL A   1      27.773  26.598  24.067  1.00  0.00     0.001 A 
ATOM     27  C   UNL A   1      28.243  28.678  22.961  1.00  0.00     0.047 A 
ATOM     28  C   UNL A   1      27.325  27.790  23.515  1.00  0.00     0.004 A 
BRANCH  25  29
ATOM     29  O   UNL A   1      30.535  29.207  22.379  1.00  0.00    -0.496 OA
ATOM     30  C   UNL A   1      29.963  30.269  21.610  1.00  0.00     0.278 C 
ENDBRANCH  25  29
ENDBRANCH  11  23
ENDBRANCH   4   6
ENDBRANCH   3   4
ENDBRANCH   2   3
ENDBRANCH   1   2
BRANCH   1  31
ATOM     31  O   UNL A   1      32.330  30.662  26.782  1.00  0.00    -0.374 OA
BRANCH  31  32
ATOM     32  C   UNL A   1      31.423  31.723  26.473  1.00  0.00     0.202 C 
BRANCH  32  33
ATOM     33  C   UNL A   1      31.807  33.138  26.925  1.00  0.00     0.261 C 
BRANCH  33  34
ATOM     34  O   UNL A   1      33.055  33.180  27.639  1.00  0.00    -0.460 OA
BRANCH  34  35
ATOM     35  C   UNL A   1      33.229  34.280  28.406  1.00  0.00     0.338 C 
ATOM     36  O   UNL A   1      32.517  35.277  28.456  1.00  0.00    -0.246 OA
BRANCH  35  37
ATOM     37  C   UNL A   1      34.328  34.068  29.360  1.00  0.00     0.060 A 
ATOM     38  C   UNL A   1      35.636  34.243  28.889  1.00  0.00     0.016 A 
ATOM     39  C   UNL A   1      34.092  33.606  30.656  1.00  0.00     0.016 A 
ATOM     40  C   UNL A   1      36.718  33.899  29.691  1.00  0.00     0.010 A 
ATOM     41  C   UNL A   1      35.179  33.244  31.457  1.00  0.00     0.010 A 
ATOM     42  C   UNL A   1      36.491  33.348  30.958  1.00  0.00    -0.014 A 
BRANCH  42  43
ATOM     43  C   UNL A   1      37.616  32.694  31.662  1.00  0.00     0.031 A 
ATOM     44  C   UNL A   1      38.293  31.528  31.001  1.00  0.00     0.074 A 
ATOM     45  C   UNL A   1      38.049  33.159  32.845  1.00  0.00     0.049 A 
ATOM     46  N   UNL A   1      39.292  30.796  31.422  1.00  0.00    -0.248 NA
ATOM     47  C   UNL A   1      37.770  31.134  29.682  1.00  0.00     0.031 C 
ATOM     48  C   UNL A   1      37.486  34.303  33.556  1.00  0.00     0.029 A 
ATOM     49  N   UNL A   1      39.060  32.714  33.657  1.00  0.00    -0.354 N 
ATOM     50  C   UNL A   1      39.512  29.854  30.426  1.00  0.00     0.074 A 
ATOM     51  C   UNL A   1      38.527  30.086  29.393  1.00  0.00     0.031 C 
ATOM     52  C   UNL A   1      38.145  34.457  34.718  1.00  0.00     0.029 A 
ATOM     53  C   UNL A   1      39.157  33.409  34.835  1.00  0.00     0.049 A 
ATOM     54  H   UNL A   1      39.656  31.968  33.419  1.00  0.00     0.167 HD
ATOM     55  C   UNL A   1      40.457  28.886  30.377  1.00  0.00     0.037 A 
ATOM     56  C   UNL A   1      39.961  33.203  35.898  1.00  0.00     0.037 A 
ATOM     57  C   UNL A   1      41.429  28.659  31.412  1.00  0.00     0.049 A 
ATOM     58  C   UNL A   1      40.973  32.091  35.845  1.00  0.00     0.074 A 
ATOM     59  C   UNL A   1      42.449  27.727  31.454  1.00  0.00     0.029 A 
ATOM     60  N   UNL A   1      41.489  29.373  32.602  1.00  0.00    -0.354 N 
ATOM     61  N   UNL A   1      41.203  31.226  34.885  1.00  0.00    -0.248 NA
ATOM     62  C   UNL A   1      41.845  31.930  37.016  1.00  0.00     0.031 C 
ATOM     63  C   UNL A   1      43.093  27.840  32.693  1.00  0.00     0.029 A 
ATOM     64  C   UNL A   1      42.509  28.880  33.400  1.00  0.00     0.049 A 
ATOM     65  H   UNL A   1      40.894  30.119  32.844  1.00  0.00     0.167 HD
ATOM     66  C   UNL A   1      42.252  30.430  35.327  1.00  0.00     0.074 A 
ATOM     67  C   UNL A   1      42.625  30.927  36.637  1.00  0.00     0.031 C 
ATOM     68  C   UNL A   1      42.853  29.385  34.706  1.00  0.00     0.037 A 
BRANCH  55  69
ATOM     69  C   UNL A   1      40.450  27.980  29.179  1.00  0.00     0.064 A 
ATOM     70  C   UNL A   1      41.198  28.268  28.026  1.00  0.00     0.173 A 
ATOM     71  C   UNL A   1      39.673  26.812  29.180  1.00  0.00     0.173 A 
ATOM     72  F   UNL A   1      41.945  29.382  27.967  1.00  0.00    -0.203 F 
ATOM     73  C   UNL A   1      41.138  27.441  26.908  1.00  0.00     0.198 A 
ATOM     74  C   UNL A   1      39.638  25.972  28.071  1.00  0.00     0.198 A 
ATOM     75  F   UNL A   1      38.939  26.489  30.257  1.00  0.00    -0.203 F 
ATOM     76  F   UNL A   1      41.813  27.768  25.797  1.00  0.00    -0.200 F 
ATOM     77  C   UNL A   1      40.361  26.292  26.932  1.00  0.00     0.200 A 
ATOM     78  F   UNL A   1      38.894  24.858  28.100  1.00  0.00    -0.200 F 
ATOM     79  F   UNL A   1      40.300  25.500  25.853  1.00  0.00    -0.200 F 
ENDBRANCH  55  69
BRANCH  56  80
ATOM     80  C   UNL A   1      39.815  34.063  37.098  1.00  0.00     0.064 A 
ATOM     81  C   UNL A   1      39.053  33.656  38.200  1.00  0.00     0.173 A 
ATOM     82  C   UNL A   1      40.469  35.303  37.178  1.00  0.00     0.173 A 
ATOM     83  F   UNL A   1      38.392  32.490  38.163  1.00  0.00    -0.203 F 
ATOM     84  C   UNL A   1      38.945  34.459  39.335  1.00  0.00     0.198 A 
ATOM     85  C   UNL A   1      40.381  36.092  38.322  1.00  0.00     0.198 A 
ATOM     86  F   UNL A   1      41.213  35.737  36.149  1.00  0.00    -0.203 F 
ATOM     87  F   UNL A   1      38.187  34.060  40.365  1.00  0.00    -0.200 F 
ATOM     88  C   UNL A   1      39.617  35.671  39.399  1.00  0.00     0.200 A 
ATOM     89  F   UNL A   1      41.043  37.255  38.384  1.00  0.00    -0.200 F 
ATOM     90  F   UNL A   1      39.525  36.434  40.496  1.00  0.00    -0.200 F 
ENDBRANCH  56  80
BRANCH  68  91
ATOM     91  C   UNL A   1      43.985  28.716  35.431  1.00  0.00     0.064 A 
ATOM     92  C   UNL A   1      43.762  27.655  36.321  1.00  0.00     0.173 A 
ATOM     93  C   UNL A   1      45.311  29.109  35.195  1.00  0.00     0.173 A 
ATOM     94  F   UNL A   1      42.511  27.252  36.590  1.00  0.00    -0.203 F 
ATOM     95  C   UNL A   1      44.824  27.029  36.967  1.00  0.00     0.198 A 
ATOM     96  C   UNL A   1      46.373  28.461  35.820  1.00  0.00     0.198 A 
ATOM     97  F   UNL A   1      45.578  30.114  34.346  1.00  0.00    -0.203 F 
ATOM     98  F   UNL A   1      44.585  26.046  37.847  1.00  0.00    -0.200 F 
ATOM     99  C   UNL A   1      46.128  27.427  36.710  1.00  0.00     0.200 A 
ATOM    100  F   UNL A   1      47.632  28.838  35.560  1.00  0.00    -0.200 F 
ATOM    101  F   UNL A   1      47.149  26.816  37.327  1.00  0.00    -0.200 F 
ENDBRANCH  68  91
ENDBRANCH  42  43
ENDBRANCH  35  37
ENDBRANCH  34  35
ENDBRANCH  33  34
ENDBRANCH  32  33
ENDBRANCH  31  32
ENDBRANCH   1  31
TORSDOF 20
ENDMDL
MODEL 3
REMARK VINA RESULT:     -11.4      0.738      2.032
REMARK SMILES COc1ccc(C[N@@H+]2C[C@@H](C(=O)OCCOCCOC(=O)c3ccc(-c4c5nc(c(-c6c(F)c(F)c(F)c(F)c6F)c6ccc([nH]6)c(-c6c(F)c(F)c(F)c(F)c6F)c6nc(c(-c7c(F)c(F)c(F)c(F)c7F)c7ccc4[nH]7)C=C6)C=C5)cc3)[C@H](c3ccccc3OC)C2)c(OC)c1
REMARK SMILES IDX 15 1 14 2 13 3 11 4 12 5 10 6 8 7 9 8 94 9 85 11 7 12 6 13
REMARK SMILES IDX 3 14 4 15 98 16 5 17 95 18 2 19 1 20 96 21 97 22 86 23 87 24
REMARK SMILES IDX 91 25 88 26 90 27 89 28 92 29 93 30 16 31 17 32 18 33 19 34
REMARK SMILES IDX 20 35 21 36 22 37 23 38 84 39 24 40 83 41 25 42 26 43 27 44
REMARK SMILES IDX 77 45 28 46 82 47 76 48 78 49 29 50 81 51 75 52 74 53 30 55
REMARK SMILES IDX 62 56 42 57 61 58 43 59 46 60 60 61 79 62 44 63 45 64 59 66
REMARK SMILES IDX 80 67 47 68 31 69 32 70 40 71 33 72 34 73 38 74 41 75 35 76
REMARK SMILES IDX 36 77 39 78 37 79 63 80 64 81 72 82 65 83 66 84 70 85 73 86
REMARK SMILES IDX 67 87 68 88 71 89 69 90 48 91 49 92 57 93 50 94 51 95 55 96
REMARK SMILES IDX 58 97 52 98 53 99 56 100 54 101
REMARK H PARENT 8 10 78 54 46 65
REMARK Flexibility Score: inf
ROOT
ATOM      1  C   UNL A   1      31.775  29.490  26.528  1.00  0.00     0.202 C 
ENDROOT
BRANCH   1   2
ATOM      2  C   UNL A   1      32.635  28.406  27.180  1.00  0.00     0.261 C 
BRANCH   2   3
ATOM      3  O   UNL A   1      32.794  27.272  26.321  1.00  0.00    -0.463 OA
BRANCH   3   4
ATOM      4  C   UNL A   1      31.643  26.759  25.812  1.00  0.00     0.315 C 
ATOM      5  O   UNL A   1      30.716  26.347  26.500  1.00  0.00    -0.252 OA
BRANCH   4   6
ATOM      6  C   UNL A   1      31.664  26.633  24.312  1.00  0.00     0.167 C 
ATOM      7  N   UNL A   1      32.865  26.306  22.305  1.00  0.00    -0.330 N 
ATOM      8  C   UNL A   1      33.077  26.536  23.738  1.00  0.00     0.278 C 
ATOM      9  C   UNL A   1      31.644  27.095  21.990  1.00  0.00     0.272 C 
ATOM     10  H   UNL A   1      33.662  26.612  21.747  1.00  0.00     0.348 HD
ATOM     11  C   UNL A   1      31.037  27.627  23.336  1.00  0.00     0.098 C 
BRANCH   7  12
ATOM     12  C   UNL A   1      32.784  24.859  21.924  1.00  0.00     0.303 C 
BRANCH  12  13
ATOM     13  C   UNL A   1      32.761  23.827  23.052  1.00  0.00     0.048 A 
ATOM     14  C   UNL A   1      32.445  21.449  24.515  1.00  0.00     0.122 A 
ATOM     15  C   UNL A   1      31.366  22.309  24.354  1.00  0.00     0.047 A 
ATOM     16  C   UNL A   1      33.710  21.824  24.060  1.00  0.00     0.093 A 
ATOM     17  C   UNL A   1      31.531  23.511  23.665  1.00  0.00     0.017 A 
ATOM     18  C   UNL A   1      33.878  23.034  23.365  1.00  0.00     0.131 A 
BRANCH  14  19
ATOM     19  O   UNL A   1      32.158  20.192  24.967  1.00  0.00    -0.497 OA
ATOM     20  C   UNL A   1      33.286  19.332  25.033  1.00  0.00     0.278 C 
ENDBRANCH  14  19
BRANCH  18  21
ATOM     21  O   UNL A   1      35.098  23.420  22.872  1.00  0.00    -0.496 OA
ATOM     22  C   UNL A   1      36.187  22.744  23.501  1.00  0.00     0.278 C 
ENDBRANCH  18  21
ENDBRANCH  12  13
ENDBRANCH   7  12
BRANCH  11  23
ATOM     23  C   UNL A   1      29.522  27.784  23.409  1.00  0.00     0.004 A 
ATOM     24  C   UNL A   1      28.665  26.744  23.814  1.00  0.00     0.008 A 
ATOM     25  C   UNL A   1      28.923  29.011  23.051  1.00  0.00     0.122 A 
ATOM     26  C   UNL A   1      27.280  26.920  23.881  1.00  0.00     0.001 A 
ATOM     27  C   UNL A   1      27.533  29.183  23.118  1.00  0.00     0.047 A 
ATOM     28  C   UNL A   1      26.714  28.142  23.545  1.00  0.00     0.004 A 
BRANCH  25  29
ATOM     29  O   UNL A   1      29.748  29.996  22.564  1.00  0.00    -0.496 OA
ATOM     30  C   UNL A   1      29.195  30.744  21.479  1.00  0.00     0.278 C 
ENDBRANCH  25  29
ENDBRANCH  11  23
ENDBRANCH   4   6
ENDBRANCH   3   4
ENDBRANCH   2   3
ENDBRANCH   1   2
BRANCH   1  31
ATOM     31  O   UNL A   1      32.317  30.805  26.453  1.00  0.00    -0.374 OA
BRANCH  31  32
ATOM     32  C   UNL A   1      31.418  31.915  26.528  1.00  0.00     0.202 C 
BRANCH  32  33
ATOM     33  C   UNL A   1      31.932  33.200  27.189  1.00  0.00     0.261 C 
BRANCH  33  34
ATOM     34  O   UNL A   1      33.361  33.340  27.108  1.00  0.00    -0.460 OA
BRANCH  34  35
ATOM     35  C   UNL A   1      33.954  33.745  28.255  1.00  0.00     0.338 C 
ATOM     36  O   UNL A   1      33.516  34.535  29.084  1.00  0.00    -0.246 OA
BRANCH  35  37
ATOM     37  C   UNL A   1      35.169  32.955  28.506  1.00  0.00     0.060 A 
ATOM     38  C   UNL A   1      35.002  31.616  28.886  1.00  0.00     0.016 A 
ATOM     39  C   UNL A   1      36.437  33.536  28.475  1.00  0.00     0.016 A 
ATOM     40  C   UNL A   1      36.099  30.867  29.295  1.00  0.00     0.010 A 
ATOM     41  C   UNL A   1      37.538  32.788  28.902  1.00  0.00     0.010 A 
ATOM     42  C   UNL A   1      37.362  31.467  29.356  1.00  0.00    -0.014 A 
BRANCH  42  43
ATOM     43  C   UNL A   1      38.445  30.774  30.088  1.00  0.00     0.031 A 
ATOM     44  C   UNL A   1      38.653  31.104  31.538  1.00  0.00     0.074 A 
ATOM     45  C   UNL A   1      39.197  29.842  29.481  1.00  0.00     0.049 A 
ATOM     46  N   UNL A   1      39.536  30.633  32.381  1.00  0.00    -0.248 NA
ATOM     47  C   UNL A   1      37.740  32.103  32.116  1.00  0.00     0.031 C 
ATOM     48  C   UNL A   1      39.056  29.422  28.090  1.00  0.00     0.029 A 
ATOM     49  N   UNL A   1      40.236  29.088  29.963  1.00  0.00    -0.354 N 
ATOM     50  C   UNL A   1      39.287  31.281  33.584  1.00  0.00     0.074 A 
ATOM     51  C   UNL A   1      38.193  32.200  33.356  1.00  0.00     0.031 C 
ATOM     52  C   UNL A   1      39.995  28.499  27.820  1.00  0.00     0.029 A 
ATOM     53  C   UNL A   1      40.811  28.283  29.013  1.00  0.00     0.049 A 
ATOM     54  H   UNL A   1      40.539  29.120  30.899  1.00  0.00     0.167 HD
ATOM     55  C   UNL A   1      39.914  31.119  34.773  1.00  0.00     0.037 A 
ATOM     56  C   UNL A   1      41.892  27.483  29.097  1.00  0.00     0.037 A 
ATOM     57  C   UNL A   1      41.005  30.207  34.988  1.00  0.00     0.049 A 
ATOM     58  C   UNL A   1      42.605  27.351  30.415  1.00  0.00     0.074 A 
ATOM     59  C   UNL A   1      41.695  29.941  36.156  1.00  0.00     0.029 A 
ATOM     60  N   UNL A   1      41.575  29.418  33.997  1.00  0.00    -0.354 N 
ATOM     61  N   UNL A   1      42.345  27.938  31.559  1.00  0.00    -0.248 NA
ATOM     62  C   UNL A   1      43.757  26.441  30.459  1.00  0.00     0.031 C 
ATOM     63  C   UNL A   1      42.717  29.031  35.861  1.00  0.00     0.029 A 
ATOM     64  C   UNL A   1      42.630  28.689  34.520  1.00  0.00     0.049 A 
ATOM     65  H   UNL A   1      41.275  29.384  33.060  1.00  0.00     0.167 HD
ATOM     66  C   UNL A   1      43.286  27.459  32.461  1.00  0.00     0.074 A 
ATOM     67  C   UNL A   1      44.115  26.519  31.733  1.00  0.00     0.031 C 
ATOM     68  C   UNL A   1      43.448  27.767  33.772  1.00  0.00     0.037 A 
BRANCH  55  69
ATOM     69  C   UNL A   1      39.453  31.979  35.915  1.00  0.00     0.064 A 
ATOM     70  C   UNL A   1      38.407  31.586  36.765  1.00  0.00     0.173 A 
ATOM     71  C   UNL A   1      40.060  33.221  36.154  1.00  0.00     0.173 A 
ATOM     72  F   UNL A   1      37.782  30.415  36.569  1.00  0.00    -0.203 F 
ATOM     73  C   UNL A   1      37.962  32.421  37.786  1.00  0.00     0.198 A 
ATOM     74  C   UNL A   1      39.631  34.041  37.195  1.00  0.00     0.198 A 
ATOM     75  F   UNL A   1      41.064  33.645  35.372  1.00  0.00    -0.203 F 
ATOM     76  F   UNL A   1      36.922  32.051  38.547  1.00  0.00    -0.200 F 
ATOM     77  C   UNL A   1      38.576  33.646  38.003  1.00  0.00     0.200 A 
ATOM     78  F   UNL A   1      40.232  35.219  37.407  1.00  0.00    -0.200 F 
ATOM     79  F   UNL A   1      38.143  34.450  38.983  1.00  0.00    -0.200 F 
ENDBRANCH  55  69
BRANCH  56  80
ATOM     80  C   UNL A   1      42.362  26.765  27.885  1.00  0.00     0.064 A 
ATOM     81  C   UNL A   1      41.902  25.479  27.575  1.00  0.00     0.173 A 
ATOM     82  C   UNL A   1      43.261  27.370  26.994  1.00  0.00     0.173 A 
ATOM     83  F   UNL A   1      41.058  24.851  28.406  1.00  0.00    -0.203 F 
ATOM     84  C   UNL A   1      42.327  24.824  26.419  1.00  0.00     0.198 A 
ATOM     85  C   UNL A   1      43.665  26.725  25.828  1.00  0.00     0.198 A 
ATOM     86  F   UNL A   1      43.729  28.602  27.246  1.00  0.00    -0.203 F 
ATOM     87  F   UNL A   1      41.893  23.584  26.158  1.00  0.00    -0.200 F 
ATOM     88  C   UNL A   1      43.200  25.451  25.542  1.00  0.00     0.200 A 
ATOM     89  F   UNL A   1      44.497  27.341  24.977  1.00  0.00    -0.200 F 
ATOM     90  F   UNL A   1      43.595  24.826  24.425  1.00  0.00    -0.200 F 
ENDBRANCH  56  80
BRANCH  68  91
ATOM     91  C   UNL A   1      44.557  27.072  34.507  1.00  0.00     0.064 A 
ATOM     92  C   UNL A   1      44.367  25.819  35.109  1.00  0.00     0.173 A 
ATOM     93  C   UNL A   1      45.837  27.644  34.570  1.00  0.00     0.173 A 
ATOM     94  F   UNL A   1      43.159  25.237  35.088  1.00  0.00    -0.203 F 
ATOM     95  C   UNL A   1      45.412  25.176  35.766  1.00  0.00     0.198 A 
ATOM     96  C   UNL A   1      46.887  26.985  35.203  1.00  0.00     0.198 A 
ATOM     97  F   UNL A   1      46.072  28.838  34.004  1.00  0.00    -0.203 F 
ATOM     98  F   UNL A   1      45.197  23.999  36.371  1.00  0.00    -0.200 F 
ATOM     99  C   UNL A   1      46.672  25.756  35.806  1.00  0.00     0.200 A 
ATOM    100  F   UNL A   1      48.106  27.540  35.228  1.00  0.00    -0.200 F 
ATOM    101  F   UNL A   1      47.678  25.130  36.432  1.00  0.00    -0.200 F 
ENDBRANCH  68  91
ENDBRANCH  42  43
ENDBRANCH  35  37
ENDBRANCH  34  35
ENDBRANCH  33  34
ENDBRANCH  32  33
ENDBRANCH  31  32
ENDBRANCH   1  31
TORSDOF 20
ENDMDL
