MODEL 1
REMARK VINA RESULT:     -12.1      0.000      0.000
REMARK SMILES C[C@@H](C(=O)OCCOCCOC(=O)c1ccc(-c2c3nc(c(-c4c(F)c(F)c(F)c(F)c4F)c4ccc([nH]4)c(-c4c(F)c(F)c(F)c(F)c4F)c4nc(c(-c5c(F)c(F)c(F)c(F)c5F)c5ccc2[nH]5)C=C4)C=C3)cc1)c1ccc2c(c1)[nH]c1ccc(Cl)cc12
REMARK SMILES IDX 9 1 8 2 7 3 6 4 5 5 3 6 4 7 2 8 1 9 77 10 78 11 82 12 79 13
REMARK SMILES IDX 81 14 80 15 83 16 90 17 84 18 89 20 85 21 87 22 86 23 88 24
REMARK SMILES IDX 10 25 11 26 12 27 13 28 14 29 15 30 76 31 16 32 75 33 17 34
REMARK SMILES IDX 18 35 19 36 69 37 20 38 74 39 68 40 70 41 21 42 73 43 67 44
REMARK SMILES IDX 66 45 22 47 54 48 34 49 53 50 35 51 38 52 52 53 71 54 36 55
REMARK SMILES IDX 37 56 51 58 72 59 39 60 23 61 24 62 32 63 25 64 26 65 30 66
REMARK SMILES IDX 33 67 27 68 28 69 31 70 29 71 55 72 56 73 64 74 57 75 58 76
REMARK SMILES IDX 62 77 65 78 59 79 60 80 63 81 61 82 40 83 41 84 49 85 42 86
REMARK SMILES IDX 43 87 47 88 50 89 44 90 45 91 48 92 46 93
REMARK H PARENT 83 19 70 46 38 57
REMARK Flexibility Score: inf
ROOT
ATOM      1  C   UNL A   1      45.090  21.650  24.738  1.00  0.00     0.202 C 
ENDROOT
BRANCH   1   2
ATOM      2  O   UNL A   1      44.574  20.390  24.309  1.00  0.00    -0.374 OA
BRANCH   2   3
ATOM      3  C   UNL A   1      44.404  19.387  25.313  1.00  0.00     0.202 C 
BRANCH   3   4
ATOM      4  C   UNL A   1      42.958  18.956  25.570  1.00  0.00     0.261 C 
BRANCH   4   5
ATOM      5  O   UNL A   1      42.108  20.117  25.625  1.00  0.00    -0.463 OA
BRANCH   5   6
ATOM      6  C   UNL A   1      41.542  20.390  26.832  1.00  0.00     0.313 C 
ATOM      7  O   UNL A   1      41.253  19.538  27.664  1.00  0.00    -0.252 OA
BRANCH   6   8
ATOM      8  C   UNL A   1      41.331  21.894  27.051  1.00  0.00     0.126 C 
ATOM      9  C   UNL A   1      41.708  22.372  28.462  1.00  0.00     0.025 C 
BRANCH   8  10
ATOM     10  C   UNL A   1      39.939  22.335  26.589  1.00  0.00    -0.032 A 
ATOM     11  C   UNL A   1      39.507  23.629  26.925  1.00  0.00     0.005 A 
ATOM     12  C   UNL A   1      39.080  21.506  25.843  1.00  0.00     0.031 A 
ATOM     13  C   UNL A   1      38.244  24.108  26.552  1.00  0.00     0.011 A 
ATOM     14  C   UNL A   1      37.809  21.994  25.497  1.00  0.00     0.047 A 
ATOM     15  C   UNL A   1      37.370  23.270  25.835  1.00  0.00     0.007 A 
ATOM     16  N   UNL A   1      36.779  21.384  24.817  1.00  0.00    -0.355 N 
ATOM     17  C   UNL A   1      36.030  23.410  25.353  1.00  0.00     0.009 A 
ATOM     18  C   UNL A   1      35.674  22.201  24.757  1.00  0.00     0.047 A 
ATOM     19  H   UNL A   1      36.827  20.482  24.425  1.00  0.00     0.167 HD
ATOM     20  C   UNL A   1      35.075  24.448  25.400  1.00  0.00     0.031 A 
ATOM     21  C   UNL A   1      34.399  21.959  24.232  1.00  0.00     0.028 A 
ATOM     22  C   UNL A   1      33.799  24.219  24.878  1.00  0.00     0.041 A 
ATOM     23  C   UNL A   1      33.460  22.992  24.311  1.00  0.00     0.022 A 
ATOM     24  Cl  UNL A   1      32.620  25.473  24.948  1.00  0.00    -0.084 Cl
ENDBRANCH   8  10
ENDBRANCH   6   8
ENDBRANCH   5   6
ENDBRANCH   4   5
ENDBRANCH   3   4
ENDBRANCH   2   3
ENDBRANCH   1   2
BRANCH   1  25
ATOM     25  C   UNL A   1      44.619  22.865  23.934  1.00  0.00     0.261 C 
BRANCH  25  26
ATOM     26  O   UNL A   1      43.851  23.779  24.738  1.00  0.00    -0.460 OA
BRANCH  26  27
ATOM     27  C   UNL A   1      44.503  24.914  25.076  1.00  0.00     0.338 C 
ATOM     28  O   UNL A   1      45.563  25.325  24.621  1.00  0.00    -0.246 OA
BRANCH  27  29
ATOM     29  C   UNL A   1      43.682  25.726  25.992  1.00  0.00     0.060 A 
ATOM     30  C   UNL A   1      44.130  27.023  26.274  1.00  0.00     0.016 A 
ATOM     31  C   UNL A   1      42.548  25.214  26.626  1.00  0.00     0.016 A 
ATOM     32  C   UNL A   1      43.479  27.793  27.235  1.00  0.00     0.010 A 
ATOM     33  C   UNL A   1      41.898  25.988  27.597  1.00  0.00     0.010 A 
ATOM     34  C   UNL A   1      42.385  27.265  27.931  1.00  0.00    -0.014 A 
BRANCH  34  35
ATOM     35  C   UNL A   1      41.856  27.993  29.110  1.00  0.00     0.031 A 
ATOM     36  C   UNL A   1      42.587  27.889  30.421  1.00  0.00     0.074 A 
ATOM     37  C   UNL A   1      40.768  28.775  29.006  1.00  0.00     0.049 A 
ATOM     38  N   UNL A   1      42.303  28.431  31.578  1.00  0.00    -0.248 NA
ATOM     39  C   UNL A   1      43.804  27.062  30.427  1.00  0.00     0.031 C 
ATOM     40  C   UNL A   1      39.998  28.990  27.783  1.00  0.00     0.029 A 
ATOM     41  N   UNL A   1      40.121  29.534  29.949  1.00  0.00    -0.354 N 
ATOM     42  C   UNL A   1      43.302  28.011  32.447  1.00  0.00     0.074 A 
ATOM     43  C   UNL A   1      44.181  27.142  31.694  1.00  0.00     0.031 C 
ATOM     44  C   UNL A   1      38.975  29.819  28.052  1.00  0.00     0.029 A 
ATOM     45  C   UNL A   1      39.004  30.171  29.471  1.00  0.00     0.049 A 
ATOM     46  H   UNL A   1      40.429  29.614  30.881  1.00  0.00     0.167 HD
ATOM     47  C   UNL A   1      43.477  28.331  33.751  1.00  0.00     0.037 A 
ATOM     48  C   UNL A   1      38.098  30.936  30.111  1.00  0.00     0.037 A 
ATOM     49  C   UNL A   1      42.603  29.196  34.498  1.00  0.00     0.049 A 
ATOM     50  C   UNL A   1      38.277  31.222  31.580  1.00  0.00     0.074 A 
ATOM     51  C   UNL A   1      42.704  29.592  35.822  1.00  0.00     0.029 A 
ATOM     52  N   UNL A   1      41.461  29.796  33.988  1.00  0.00    -0.354 N 
ATOM     53  N   UNL A   1      39.236  30.839  32.387  1.00  0.00    -0.248 NA
ATOM     54  C   UNL A   1      37.248  32.050  32.225  1.00  0.00     0.031 C 
ATOM     55  C   UNL A   1      41.597  30.393  36.123  1.00  0.00     0.029 A 
ATOM     56  C   UNL A   1      40.835  30.538  34.976  1.00  0.00     0.049 A 
ATOM     57  H   UNL A   1      41.143  29.707  33.060  1.00  0.00     0.167 HD
ATOM     58  C   UNL A   1      38.943  31.400  33.624  1.00  0.00     0.074 A 
ATOM     59  C   UNL A   1      37.722  32.161  33.458  1.00  0.00     0.031 C 
ATOM     60  C   UNL A   1      39.624  31.295  34.792  1.00  0.00     0.037 A 
BRANCH  47  61
ATOM     61  C   UNL A   1      44.650  27.722  34.462  1.00  0.00     0.064 A 
ATOM     62  C   UNL A   1      44.572  26.459  35.066  1.00  0.00     0.173 A 
ATOM     63  C   UNL A   1      45.878  28.399  34.511  1.00  0.00     0.173 A 
ATOM     64  F   UNL A   1      43.415  25.778  35.059  1.00  0.00    -0.203 F 
ATOM     65  C   UNL A   1      45.674  25.904  35.713  1.00  0.00     0.198 A 
ATOM     66  C   UNL A   1      46.985  27.830  35.135  1.00  0.00     0.198 A 
ATOM     67  F   UNL A   1      46.007  29.609  33.947  1.00  0.00    -0.203 F 
ATOM     68  F   UNL A   1      45.563  24.715  36.320  1.00  0.00    -0.200 F 
ATOM     69  C   UNL A   1      46.881  26.587  35.741  1.00  0.00     0.200 A 
ATOM     70  F   UNL A   1      48.154  28.485  35.152  1.00  0.00    -0.200 F 
ATOM     71  F   UNL A   1      47.942  26.049  36.358  1.00  0.00    -0.200 F 
ENDBRANCH  47  61
BRANCH  48  72
ATOM     72  C   UNL A   1      36.930  31.478  29.370  1.00  0.00     0.064 A 
ATOM     73  C   UNL A   1      36.854  32.836  29.029  1.00  0.00     0.173 A 
ATOM     74  C   UNL A   1      35.858  30.653  29.001  1.00  0.00     0.173 A 
ATOM     75  F   UNL A   1      37.842  33.671  29.382  1.00  0.00    -0.203 F 
ATOM     76  C   UNL A   1      35.742  33.349  28.362  1.00  0.00     0.198 A 
ATOM     77  C   UNL A   1      34.761  31.161  28.311  1.00  0.00     0.198 A 
ATOM     78  F   UNL A   1      35.881  29.347  29.306  1.00  0.00    -0.203 F 
ATOM     79  F   UNL A   1      35.675  34.659  28.089  1.00  0.00    -0.200 F 
ATOM     80  C   UNL A   1      34.700  32.510  27.998  1.00  0.00     0.200 A 
ATOM     81  F   UNL A   1      33.761  30.344  27.951  1.00  0.00    -0.200 F 
ATOM     82  F   UNL A   1      33.634  33.004  27.355  1.00  0.00    -0.200 F 
ENDBRANCH  48  72
BRANCH  60  83
ATOM     83  C   UNL A   1      39.085  32.047  35.975  1.00  0.00     0.064 A 
ATOM     84  C   UNL A   1      38.209  31.448  36.893  1.00  0.00     0.173 A 
ATOM     85  C   UNL A   1      39.485  33.370  36.217  1.00  0.00     0.173 A 
ATOM     86  F   UNL A   1      37.787  30.190  36.698  1.00  0.00    -0.203 F 
ATOM     87  C   UNL A   1      37.736  32.154  37.995  1.00  0.00     0.198 A 
ATOM     88  C   UNL A   1      39.032  34.063  37.336  1.00  0.00     0.198 A 
ATOM     89  F   UNL A   1      40.327  33.987  35.374  1.00  0.00    -0.203 F 
ATOM     90  F   UNL A   1      36.865  31.576  38.834  1.00  0.00    -0.200 F 
ATOM     91  C   UNL A   1      38.153  33.457  38.221  1.00  0.00     0.200 A 
ATOM     92  F   UNL A   1      39.447  35.318  37.560  1.00  0.00    -0.200 F 
ATOM     93  F   UNL A   1      37.702  34.132  39.287  1.00  0.00    -0.200 F 
ENDBRANCH  60  83
ENDBRANCH  34  35
ENDBRANCH  27  29
ENDBRANCH  26  27
ENDBRANCH  25  26
ENDBRANCH   1  25
TORSDOF 15
ENDMDL
MODEL 2
REMARK VINA RESULT:     -11.8      0.435      7.268
REMARK SMILES C[C@@H](C(=O)OCCOCCOC(=O)c1ccc(-c2c3nc(c(-c4c(F)c(F)c(F)c(F)c4F)c4ccc([nH]4)c(-c4c(F)c(F)c(F)c(F)c4F)c4nc(c(-c5c(F)c(F)c(F)c(F)c5F)c5ccc2[nH]5)C=C4)C=C3)cc1)c1ccc2c(c1)[nH]c1ccc(Cl)cc12
REMARK SMILES IDX 9 1 8 2 7 3 6 4 5 5 3 6 4 7 2 8 1 9 77 10 78 11 82 12 79 13
REMARK SMILES IDX 81 14 80 15 83 16 90 17 84 18 89 20 85 21 87 22 86 23 88 24
REMARK SMILES IDX 10 25 11 26 12 27 13 28 14 29 15 30 76 31 16 32 75 33 17 34
REMARK SMILES IDX 18 35 19 36 69 37 20 38 74 39 68 40 70 41 21 42 73 43 67 44
REMARK SMILES IDX 66 45 22 47 54 48 34 49 53 50 35 51 38 52 52 53 71 54 36 55
REMARK SMILES IDX 37 56 51 58 72 59 39 60 23 61 24 62 32 63 25 64 26 65 30 66
REMARK SMILES IDX 33 67 27 68 28 69 31 70 29 71 55 72 56 73 64 74 57 75 58 76
REMARK SMILES IDX 62 77 65 78 59 79 60 80 63 81 61 82 40 83 41 84 49 85 42 86
REMARK SMILES IDX 43 87 47 88 50 89 44 90 45 91 48 92 46 93
REMARK H PARENT 83 19 70 46 38 57
REMARK Flexibility Score: inf
ROOT
ATOM      1  C   UNL A   1      45.187  21.567  24.488  1.00  0.00     0.202 C 
ENDROOT
BRANCH   1   2
ATOM      2  O   UNL A   1      44.529  20.386  24.031  1.00  0.00    -0.374 OA
BRANCH   2   3
ATOM      3  C   UNL A   1      44.445  19.297  24.953  1.00  0.00     0.202 C 
BRANCH   3   4
ATOM      4  C   UNL A   1      43.040  18.995  25.484  1.00  0.00     0.261 C 
BRANCH   4   5
ATOM      5  O   UNL A   1      42.270  20.210  25.535  1.00  0.00    -0.463 OA
BRANCH   5   6
ATOM      6  C   UNL A   1      41.456  20.360  26.616  1.00  0.00     0.313 C 
ATOM      7  O   UNL A   1      40.991  19.428  27.261  1.00  0.00    -0.252 OA
BRANCH   6   8
ATOM      8  C   UNL A   1      41.210  21.835  26.961  1.00  0.00     0.126 C 
ATOM      9  C   UNL A   1      41.544  22.194  28.417  1.00  0.00     0.025 C 
BRANCH   8  10
ATOM     10  C   UNL A   1      39.819  22.289  26.506  1.00  0.00    -0.032 A 
ATOM     11  C   UNL A   1      39.397  23.583  26.853  1.00  0.00     0.005 A 
ATOM     12  C   UNL A   1      38.953  21.471  25.756  1.00  0.00     0.031 A 
ATOM     13  C   UNL A   1      38.136  24.073  26.487  1.00  0.00     0.011 A 
ATOM     14  C   UNL A   1      37.685  21.970  25.416  1.00  0.00     0.047 A 
ATOM     15  C   UNL A   1      37.255  23.247  25.766  1.00  0.00     0.007 A 
ATOM     16  N   UNL A   1      36.649  21.372  24.734  1.00  0.00    -0.355 N 
ATOM     17  C   UNL A   1      35.915  23.399  25.288  1.00  0.00     0.009 A 
ATOM     18  C   UNL A   1      35.549  22.197  24.684  1.00  0.00     0.047 A 
ATOM     19  H   UNL A   1      36.689  20.473  24.336  1.00  0.00     0.167 HD
ATOM     20  C   UNL A   1      34.967  24.442  25.344  1.00  0.00     0.031 A 
ATOM     21  C   UNL A   1      34.271  21.967  24.160  1.00  0.00     0.028 A 
ATOM     22  C   UNL A   1      33.687  24.226  24.824  1.00  0.00     0.041 A 
ATOM     23  C   UNL A   1      33.340  23.006  24.249  1.00  0.00     0.022 A 
ATOM     24  Cl  UNL A   1      32.517  25.488  24.907  1.00  0.00    -0.084 Cl
ENDBRANCH   8  10
ENDBRANCH   6   8
ENDBRANCH   5   6
ENDBRANCH   4   5
ENDBRANCH   3   4
ENDBRANCH   2   3
ENDBRANCH   1   2
BRANCH   1  25
ATOM     25  C   UNL A   1      44.544  22.890  24.058  1.00  0.00     0.261 C 
BRANCH  25  26
ATOM     26  O   UNL A   1      44.041  23.634  25.183  1.00  0.00    -0.460 OA
BRANCH  26  27
ATOM     27  C   UNL A   1      44.536  24.888  25.292  1.00  0.00     0.338 C 
ATOM     28  O   UNL A   1      45.430  25.394  24.626  1.00  0.00    -0.246 OA
BRANCH  27  29
ATOM     29  C   UNL A   1      43.737  25.675  26.249  1.00  0.00     0.060 A 
ATOM     30  C   UNL A   1      44.131  27.000  26.474  1.00  0.00     0.016 A 
ATOM     31  C   UNL A   1      42.680  25.117  26.972  1.00  0.00     0.016 A 
ATOM     32  C   UNL A   1      43.508  27.756  27.464  1.00  0.00     0.010 A 
ATOM     33  C   UNL A   1      42.058  25.876  27.971  1.00  0.00     0.010 A 
ATOM     34  C   UNL A   1      42.496  27.185  28.246  1.00  0.00    -0.014 A 
BRANCH  34  35
ATOM     35  C   UNL A   1      42.012  27.910  29.447  1.00  0.00     0.031 A 
ATOM     36  C   UNL A   1      40.734  28.698  29.358  1.00  0.00     0.074 A 
ATOM     37  C   UNL A   1      42.673  27.829  30.614  1.00  0.00     0.049 A 
ATOM     38  N   UNL A   1      40.130  29.411  30.274  1.00  0.00    -0.248 NA
ATOM     39  C   UNL A   1      40.043  28.679  28.059  1.00  0.00     0.031 C 
ATOM     40  C   UNL A   1      43.899  27.065  30.837  1.00  0.00     0.029 A 
ATOM     41  N   UNL A   1      42.405  28.400  31.833  1.00  0.00    -0.354 N 
ATOM     42  C   UNL A   1      38.992  29.924  29.664  1.00  0.00     0.074 A 
ATOM     43  C   UNL A   1      39.006  29.470  28.290  1.00  0.00     0.031 C 
ATOM     44  C   UNL A   1      44.283  27.222  32.116  1.00  0.00     0.029 A 
ATOM     45  C   UNL A   1      43.346  28.118  32.792  1.00  0.00     0.049 A 
ATOM     46  H   UNL A   1      41.613  28.959  32.004  1.00  0.00     0.167 HD
ATOM     47  C   UNL A   1      38.018  30.694  30.205  1.00  0.00     0.037 A 
ATOM     48  C   UNL A   1      43.447  28.549  34.064  1.00  0.00     0.037 A 
ATOM     49  C   UNL A   1      38.004  31.144  31.572  1.00  0.00     0.049 A 
ATOM     50  C   UNL A   1      42.386  29.462  34.623  1.00  0.00     0.074 A 
ATOM     51  C   UNL A   1      37.053  31.917  32.217  1.00  0.00     0.029 A 
ATOM     52  N   UNL A   1      38.993  30.865  32.504  1.00  0.00    -0.354 N 
ATOM     53  N   UNL A   1      41.303  29.923  34.045  1.00  0.00    -0.248 NA
ATOM     54  C   UNL A   1      42.560  29.910  36.012  1.00  0.00     0.031 C 
ATOM     55  C   UNL A   1      37.491  32.145  33.526  1.00  0.00     0.029 A 
ATOM     56  C   UNL A   1      38.688  31.472  33.712  1.00  0.00     0.049 A 
ATOM     57  H   UNL A   1      39.793  30.317  32.332  1.00  0.00     0.167 HD
ATOM     58  C   UNL A   1      40.654  30.690  35.005  1.00  0.00     0.074 A 
ATOM     59  C   UNL A   1      41.459  30.623  36.207  1.00  0.00     0.031 C 
ATOM     60  C   UNL A   1      39.497  31.389  34.900  1.00  0.00     0.037 A 
BRANCH  47  61
ATOM     61  C   UNL A   1      36.893  31.119  29.307  1.00  0.00     0.064 A 
ATOM     62  C   UNL A   1      35.875  30.232  28.930  1.00  0.00     0.173 A 
ATOM     63  C   UNL A   1      36.816  32.442  28.844  1.00  0.00     0.173 A 
ATOM     64  F   UNL A   1      35.911  28.953  29.335  1.00  0.00    -0.203 F 
ATOM     65  C   UNL A   1      34.832  30.646  28.104  1.00  0.00     0.198 A 
ATOM     66  C   UNL A   1      35.758  32.859  28.040  1.00  0.00     0.198 A 
ATOM     67  F   UNL A   1      37.764  33.332  29.177  1.00  0.00    -0.203 F 
ATOM     68  F   UNL A   1      33.894  29.768  27.722  1.00  0.00    -0.200 F 
ATOM     69  C   UNL A   1      34.771  31.960  27.666  1.00  0.00     0.200 A 
ATOM     70  F   UNL A   1      35.695  34.132  27.627  1.00  0.00    -0.200 F 
ATOM     71  F   UNL A   1      33.764  32.359  26.876  1.00  0.00    -0.200 F 
ENDBRANCH  47  61
BRANCH  48  72
ATOM     72  C   UNL A   1      44.604  28.133  34.897  1.00  0.00     0.064 A 
ATOM     73  C   UNL A   1      45.798  28.868  34.899  1.00  0.00     0.173 A 
ATOM     74  C   UNL A   1      44.547  26.981  35.695  1.00  0.00     0.173 A 
ATOM     75  F   UNL A   1      45.911  29.962  34.133  1.00  0.00    -0.203 F 
ATOM     76  C   UNL A   1      46.895  28.457  35.656  1.00  0.00     0.198 A 
ATOM     77  C   UNL A   1      45.633  26.587  36.472  1.00  0.00     0.198 A 
ATOM     78  F   UNL A   1      43.429  26.241  35.726  1.00  0.00    -0.203 F 
ATOM     79  F   UNL A   1      48.038  29.153  35.605  1.00  0.00    -0.200 F 
ATOM     80  C   UNL A   1      46.809  27.321  36.446  1.00  0.00     0.200 A 
ATOM     81  F   UNL A   1      45.543  25.494  37.243  1.00  0.00    -0.200 F 
ATOM     82  F   UNL A   1      47.863  26.929  37.175  1.00  0.00    -0.200 F 
ENDBRANCH  48  72
BRANCH  60  83
ATOM     83  C   UNL A   1      39.011  32.107  36.126  1.00  0.00     0.064 A 
ATOM     84  C   UNL A   1      39.360  33.441  36.386  1.00  0.00     0.173 A 
ATOM     85  C   UNL A   1      38.149  31.466  37.029  1.00  0.00     0.173 A 
ATOM     86  F   UNL A   1      40.192  34.092  35.560  1.00  0.00    -0.203 F 
ATOM     87  C   UNL A   1      38.883  34.097  37.517  1.00  0.00     0.198 A 
ATOM     88  C   UNL A   1      37.651  32.136  38.144  1.00  0.00     0.198 A 
ATOM     89  F   UNL A   1      37.777  30.193  36.823  1.00  0.00    -0.203 F 
ATOM     90  F   UNL A   1      39.266  35.357  37.768  1.00  0.00    -0.200 F 
ATOM     91  C   UNL A   1      38.023  33.448  38.391  1.00  0.00     0.200 A 
ATOM     92  F   UNL A   1      36.809  31.511  38.979  1.00  0.00    -0.200 F 
ATOM     93  F   UNL A   1      37.560  34.085  39.475  1.00  0.00    -0.200 F 
ENDBRANCH  60  83
ENDBRANCH  34  35
ENDBRANCH  27  29
ENDBRANCH  26  27
ENDBRANCH  25  26
ENDBRANCH   1  25
TORSDOF 15
ENDMDL
MODEL 3
REMARK VINA RESULT:     -11.8      4.533      9.338
REMARK SMILES C[C@@H](C(=O)OCCOCCOC(=O)c1ccc(-c2c3nc(c(-c4c(F)c(F)c(F)c(F)c4F)c4ccc([nH]4)c(-c4c(F)c(F)c(F)c(F)c4F)c4nc(c(-c5c(F)c(F)c(F)c(F)c5F)c5ccc2[nH]5)C=C4)C=C3)cc1)c1ccc2c(c1)[nH]c1ccc(Cl)cc12
REMARK SMILES IDX 9 1 8 2 7 3 6 4 5 5 3 6 4 7 2 8 1 9 77 10 78 11 82 12 79 13
REMARK SMILES IDX 81 14 80 15 83 16 90 17 84 18 89 20 85 21 87 22 86 23 88 24
REMARK SMILES IDX 10 25 11 26 12 27 13 28 14 29 15 30 76 31 16 32 75 33 17 34
REMARK SMILES IDX 18 35 19 36 69 37 20 38 74 39 68 40 70 41 21 42 73 43 67 44
REMARK SMILES IDX 66 45 22 47 54 48 34 49 53 50 35 51 38 52 52 53 71 54 36 55
REMARK SMILES IDX 37 56 51 58 72 59 39 60 23 61 24 62 32 63 25 64 26 65 30 66
REMARK SMILES IDX 33 67 27 68 28 69 31 70 29 71 55 72 56 73 64 74 57 75 58 76
REMARK SMILES IDX 62 77 65 78 59 79 60 80 63 81 61 82 40 83 41 84 49 85 42 86
REMARK SMILES IDX 43 87 47 88 50 89 44 90 45 91 48 92 46 93
REMARK H PARENT 83 19 70 46 38 57
REMARK Flexibility Score: inf
ROOT
ATOM      1  C   UNL A   1      31.701  29.713  25.590  1.00  0.00     0.202 C 
ENDROOT
BRANCH   1   2
ATOM      2  O   UNL A   1      32.896  28.932  25.587  1.00  0.00    -0.374 OA
BRANCH   2   3
ATOM      3  C   UNL A   1      32.885  27.733  26.366  1.00  0.00     0.202 C 
BRANCH   3   4
ATOM      4  C   UNL A   1      34.090  26.810  26.164  1.00  0.00     0.261 C 
BRANCH   4   5
ATOM      5  O   UNL A   1      33.642  25.450  26.020  1.00  0.00    -0.463 OA
BRANCH   5   6
ATOM      6  C   UNL A   1      34.213  24.732  25.015  1.00  0.00     0.313 C 
ATOM      7  O   UNL A   1      35.402  24.442  24.967  1.00  0.00    -0.252 OA
BRANCH   6   8
ATOM      8  C   UNL A   1      33.191  24.295  23.956  1.00  0.00     0.126 C 
ATOM      9  C   UNL A   1      33.809  23.518  22.784  1.00  0.00     0.025 C 
BRANCH   8  10
ATOM     10  C   UNL A   1      32.294  25.463  23.533  1.00  0.00    -0.032 A 
ATOM     11  C   UNL A   1      32.870  26.505  22.788  1.00  0.00     0.005 A 
ATOM     12  C   UNL A   1      30.925  25.534  23.853  1.00  0.00     0.031 A 
ATOM     13  C   UNL A   1      32.124  27.616  22.369  1.00  0.00     0.011 A 
ATOM     14  C   UNL A   1      30.198  26.664  23.445  1.00  0.00     0.047 A 
ATOM     15  C   UNL A   1      30.764  27.706  22.716  1.00  0.00     0.007 A 
ATOM     16  N   UNL A   1      28.879  26.996  23.659  1.00  0.00    -0.355 N 
ATOM     17  C   UNL A   1      29.747  28.692  22.508  1.00  0.00     0.009 A 
ATOM     18  C   UNL A   1      28.592  28.239  23.144  1.00  0.00     0.047 A 
ATOM     19  H   UNL A   1      28.227  26.420  24.120  1.00  0.00     0.167 HD
ATOM     20  C   UNL A   1      29.716  29.946  21.863  1.00  0.00     0.031 A 
ATOM     21  C   UNL A   1      27.411  28.988  23.199  1.00  0.00     0.028 A 
ATOM     22  C   UNL A   1      28.542  30.704  21.910  1.00  0.00     0.041 A 
ATOM     23  C   UNL A   1      27.410  30.239  22.575  1.00  0.00     0.022 A 
ATOM     24  Cl  UNL A   1      28.501  32.246  21.142  1.00  0.00    -0.084 Cl
ENDBRANCH   8  10
ENDBRANCH   6   8
ENDBRANCH   5   6
ENDBRANCH   4   5
ENDBRANCH   3   4
ENDBRANCH   2   3
ENDBRANCH   1   2
BRANCH   1  25
ATOM     25  C   UNL A   1      31.819  31.096  26.238  1.00  0.00     0.261 C 
BRANCH  25  26
ATOM     26  O   UNL A   1      32.602  31.062  27.445  1.00  0.00    -0.460 OA
BRANCH  26  27
ATOM     27  C   UNL A   1      33.450  32.104  27.594  1.00  0.00     0.338 C 
ATOM     28  O   UNL A   1      33.172  33.297  27.570  1.00  0.00    -0.246 OA
BRANCH  27  29
ATOM     29  C   UNL A   1      34.796  31.626  27.959  1.00  0.00     0.060 A 
ATOM     30  C   UNL A   1      34.938  30.258  28.225  1.00  0.00     0.016 A 
ATOM     31  C   UNL A   1      35.877  32.495  28.118  1.00  0.00     0.016 A 
ATOM     32  C   UNL A   1      36.147  29.763  28.708  1.00  0.00     0.010 A 
ATOM     33  C   UNL A   1      37.090  31.996  28.609  1.00  0.00     0.010 A 
ATOM     34  C   UNL A   1      37.217  30.635  28.942  1.00  0.00    -0.014 A 
BRANCH  34  35
ATOM     35  C   UNL A   1      38.407  30.142  29.678  1.00  0.00     0.031 A 
ATOM     36  C   UNL A   1      38.647  30.622  31.082  1.00  0.00     0.074 A 
ATOM     37  C   UNL A   1      39.237  29.243  29.122  1.00  0.00     0.049 A 
ATOM     38  N   UNL A   1      39.622  30.332  31.907  1.00  0.00    -0.248 NA
ATOM     39  C   UNL A   1      37.653  31.557  31.633  1.00  0.00     0.031 C 
ATOM     40  C   UNL A   1      39.088  28.672  27.785  1.00  0.00     0.029 A 
ATOM     41  N   UNL A   1      40.374  28.654  29.616  1.00  0.00    -0.354 N 
ATOM     42  C   UNL A   1      39.360  31.046  33.069  1.00  0.00     0.074 A 
ATOM     43  C   UNL A   1      38.154  31.811  32.833  1.00  0.00     0.031 C 
ATOM     44  C   UNL A   1      40.102  27.818  27.561  1.00  0.00     0.029 A 
ATOM     45  C   UNL A   1      40.985  27.805  28.726  1.00  0.00     0.049 A 
ATOM     46  H   UNL A   1      40.718  28.823  30.522  1.00  0.00     0.167 HD
ATOM     47  C   UNL A   1      40.055  31.054  34.231  1.00  0.00     0.037 A 
ATOM     48  C   UNL A   1      42.135  27.112  28.836  1.00  0.00     0.037 A 
ATOM     49  C   UNL A   1      41.252  30.292  34.465  1.00  0.00     0.049 A 
ATOM     50  C   UNL A   1      42.928  27.191  30.115  1.00  0.00     0.074 A 
ATOM     51  C   UNL A   1      42.022  30.223  35.614  1.00  0.00     0.029 A 
ATOM     52  N   UNL A   1      41.860  29.469  33.527  1.00  0.00    -0.354 N 
ATOM     53  N   UNL A   1      42.660  27.851  31.216  1.00  0.00    -0.248 NA
ATOM     54  C   UNL A   1      44.181  26.424  30.168  1.00  0.00     0.031 C 
ATOM     55  C   UNL A   1      43.120  29.395  35.355  1.00  0.00     0.029 A 
ATOM     56  C   UNL A   1      43.008  28.909  34.063  1.00  0.00     0.049 A 
ATOM     57  H   UNL A   1      41.525  29.309  32.615  1.00  0.00     0.167 HD
ATOM     58  C   UNL A   1      43.692  27.558  32.099  1.00  0.00     0.074 A 
ATOM     59  C   UNL A   1      44.586  26.651  31.410  1.00  0.00     0.031 C 
ATOM     60  C   UNL A   1      43.883  28.002  33.366  1.00  0.00     0.037 A 
BRANCH  47  61
ATOM     61  C   UNL A   1      39.547  31.934  35.336  1.00  0.00     0.064 A 
ATOM     62  C   UNL A   1      39.932  33.278  35.444  1.00  0.00     0.173 A 
ATOM     63  C   UNL A   1      38.637  31.433  36.279  1.00  0.00     0.173 A 
ATOM     64  F   UNL A   1      40.811  33.800  34.575  1.00  0.00    -0.203 F 
ATOM     65  C   UNL A   1      39.443  34.083  36.470  1.00  0.00     0.198 A 
ATOM     66  C   UNL A   1      38.129  32.248  37.287  1.00  0.00     0.198 A 
ATOM     67  F   UNL A   1      38.234  30.154  36.219  1.00  0.00    -0.203 F 
ATOM     68  F   UNL A   1      39.859  35.353  36.579  1.00  0.00    -0.200 F 
ATOM     69  C   UNL A   1      38.537  33.570  37.386  1.00  0.00     0.200 A 
ATOM     70  F   UNL A   1      37.245  31.754  38.165  1.00  0.00    -0.200 F 
ATOM     71  F   UNL A   1      38.062  34.347  38.369  1.00  0.00    -0.200 F 
ENDBRANCH  47  61
BRANCH  48  72
ATOM     72  C   UNL A   1      42.615  26.290  27.695  1.00  0.00     0.064 A 
ATOM     73  C   UNL A   1      43.551  26.794  26.782  1.00  0.00     0.173 A 
ATOM     74  C   UNL A   1      42.134  24.990  27.485  1.00  0.00     0.173 A 
ATOM     75  F   UNL A   1      44.021  28.042  26.925  1.00  0.00    -0.203 F 
ATOM     76  C   UNL A   1      43.976  26.034  25.693  1.00  0.00     0.198 A 
ATOM     77  C   UNL A   1      42.580  24.221  26.414  1.00  0.00     0.198 A 
ATOM     78  F   UNL A   1      41.236  24.462  28.330  1.00  0.00    -0.203 F 
ATOM     79  F   UNL A   1      44.837  26.556  24.810  1.00  0.00    -0.200 F 
ATOM     80  C   UNL A   1      43.495  24.746  25.514  1.00  0.00     0.200 A 
ATOM     81  F   UNL A   1      42.121  22.972  26.250  1.00  0.00    -0.200 F 
ATOM     82  F   UNL A   1      43.906  24.015  24.469  1.00  0.00    -0.200 F 
ENDBRANCH  48  72
BRANCH  60  83
ATOM     83  C   UNL A   1      45.084  27.486  34.104  1.00  0.00     0.064 A 
ATOM     84  C   UNL A   1      46.307  28.173  34.094  1.00  0.00     0.173 A 
ATOM     85  C   UNL A   1      44.998  26.311  34.868  1.00  0.00     0.173 A 
ATOM     86  F   UNL A   1      46.444  29.293  33.368  1.00  0.00    -0.203 F 
ATOM     87  C   UNL A   1      47.405  27.690  34.801  1.00  0.00     0.198 A 
ATOM     88  C   UNL A   1      46.089  25.848  35.597  1.00  0.00     0.198 A 
ATOM     89  F   UNL A   1      43.849  25.620  34.917  1.00  0.00    -0.203 F 
ATOM     90  F   UNL A   1      48.576  28.340  34.740  1.00  0.00    -0.200 F 
ATOM     91  C   UNL A   1      47.294  26.533  35.558  1.00  0.00     0.200 A 
ATOM     92  F   UNL A   1      45.976  24.737  36.338  1.00  0.00    -0.200 F 
ATOM     93  F   UNL A   1      48.349  26.075  36.244  1.00  0.00    -0.200 F 
ENDBRANCH  60  83
ENDBRANCH  34  35
ENDBRANCH  27  29
ENDBRANCH  26  27
ENDBRANCH  25  26
ENDBRANCH   1  25
TORSDOF 15
ENDMDL
