MODEL 1
REMARK VINA RESULT:     -11.7      0.000      0.000
REMARK SMILES NC(=O)C[C@H](C(=O)OCCOCCOC(=O)c1ccc(-c2c3nc(c(-c4c(F)c(F)c(F)c(F)c4F)c4ccc([nH]4)c(-c4c(F)c(F)c(F)c(F)c4F)c4nc(c(-c5c(F)c(F)c(F)c(F)c5F)c5ccc2[nH]5)C=C4)C=C3)cc1)N1C(=O)/C(=C/c2ccccc2)SC1=S
REMARK SMILES IDX 11 1 10 2 9 3 8 4 6 5 7 6 5 7 4 8 2 9 1 10 3 13 80 14 81 15
REMARK SMILES IDX 92 16 82 17 83 18 91 19 93 20 84 21 85 22 86 23 90 24 87 25
REMARK SMILES IDX 89 26 88 27 12 28 13 29 14 30 15 31 16 32 17 33 18 34 79 35
REMARK SMILES IDX 19 36 78 37 20 38 21 39 22 40 72 41 23 42 77 43 71 44 73 45
REMARK SMILES IDX 24 46 76 47 70 48 69 49 25 51 57 52 37 53 56 54 38 55 41 56
REMARK SMILES IDX 55 57 74 58 39 59 40 60 54 62 75 63 42 64 26 65 27 66 35 67
REMARK SMILES IDX 28 68 29 69 33 70 36 71 30 72 31 73 34 74 32 75 58 76 59 77
REMARK SMILES IDX 67 78 60 79 61 80 65 81 68 82 62 83 63 84 66 85 64 86 43 87
REMARK SMILES IDX 44 88 52 89 45 90 46 91 50 92 53 93 47 94 48 95 51 96 49 97
REMARK H PARENT 1 11 1 12 73 50 41 61
REMARK Flexibility Score: inf
ROOT
ATOM      1  O   UNL A   1      31.492  28.292  24.323  1.00  0.00    -0.374 OA
ENDROOT
BRANCH   1   2
ATOM      2  C   UNL A   1      30.672  27.684  25.317  1.00  0.00     0.202 C 
BRANCH   2   3
ATOM      3  C   UNL A   1      30.687  26.155  25.370  1.00  0.00     0.261 C 
BRANCH   3   4
ATOM      4  O   UNL A   1      31.788  25.622  26.144  1.00  0.00    -0.462 OA
BRANCH   4   5
ATOM      5  C   UNL A   1      33.008  25.739  25.543  1.00  0.00     0.329 C 
ATOM      6  O   UNL A   1      33.971  26.307  26.045  1.00  0.00    -0.250 OA
BRANCH   5   7
ATOM      7  C   UNL A   1      33.132  24.941  24.235  1.00  0.00     0.211 C 
BRANCH   7   8
ATOM      8  C   UNL A   1      34.031  25.841  23.342  1.00  0.00     0.137 C 
BRANCH   8   9
ATOM      9  C   UNL A   1      33.509  26.260  21.978  1.00  0.00     0.220 C 
ATOM     10  N   UNL A   1      33.257  27.575  21.745  1.00  0.00    -0.370 N 
ATOM     11  H   UNL A   1      32.919  27.864  20.866  1.00  0.00     0.159 HD
ATOM     12  H   UNL A   1      33.414  28.240  22.454  1.00  0.00     0.159 HD
ATOM     13  O   UNL A   1      33.236  25.442  21.103  1.00  0.00    -0.275 OA
ENDBRANCH   8   9
ENDBRANCH   7   8
BRANCH   7  14
ATOM     14  N   UNL A   1      33.524  23.510  24.302  1.00  0.00    -0.278 N 
ATOM     15  C   UNL A   1      32.513  22.556  24.338  1.00  0.00     0.267 C 
ATOM     16  C   UNL A   1      34.712  23.026  24.817  1.00  0.00     0.149 C 
ATOM     17  O   UNL A   1      31.315  22.782  24.427  1.00  0.00    -0.268 OA
ATOM     18  C   UNL A   1      33.069  21.187  24.416  1.00  0.00     0.081 C 
ATOM     19  S   UNL A   1      34.760  21.272  24.654  1.00  0.00    -0.054 SA
ATOM     20  S   UNL A   1      35.973  23.846  25.537  1.00  0.00    -0.052 S 
ATOM     21  C   UNL A   1      32.278  20.108  24.338  1.00  0.00     0.029 C 
BRANCH  21  22
ATOM     22  C   UNL A   1      32.717  18.717  24.457  1.00  0.00    -0.024 A 
ATOM     23  C   UNL A   1      33.176  18.039  23.323  1.00  0.00     0.008 A 
ATOM     24  C   UNL A   1      32.653  18.043  25.683  1.00  0.00     0.008 A 
ATOM     25  C   UNL A   1      33.603  16.713  23.425  1.00  0.00     0.001 A 
ATOM     26  C   UNL A   1      33.083  16.721  25.783  1.00  0.00     0.001 A 
ATOM     27  C   UNL A   1      33.562  16.058  24.655  1.00  0.00     0.000 A 
ENDBRANCH  21  22
ENDBRANCH   7  14
ENDBRANCH   5   7
ENDBRANCH   4   5
ENDBRANCH   3   4
ENDBRANCH   2   3
ENDBRANCH   1   2
BRANCH   1  28
ATOM     28  C   UNL A   1      32.404  29.300  24.751  1.00  0.00     0.202 C 
BRANCH  28  29
ATOM     29  C   UNL A   1      31.842  30.357  25.708  1.00  0.00     0.261 C 
BRANCH  29  30
ATOM     30  O   UNL A   1      32.497  30.334  26.991  1.00  0.00    -0.460 OA
BRANCH  30  31
ATOM     31  C   UNL A   1      33.188  31.460  27.288  1.00  0.00     0.338 C 
ATOM     32  O   UNL A   1      32.767  32.610  27.298  1.00  0.00    -0.246 OA
BRANCH  31  33
ATOM     33  C   UNL A   1      34.536  31.125  27.777  1.00  0.00     0.060 A 
ATOM     34  C   UNL A   1      34.798  29.778  28.061  1.00  0.00     0.016 A 
ATOM     35  C   UNL A   1      35.493  32.105  28.049  1.00  0.00     0.016 A 
ATOM     36  C   UNL A   1      35.993  29.414  28.674  1.00  0.00     0.010 A 
ATOM     37  C   UNL A   1      36.694  31.737  28.670  1.00  0.00     0.010 A 
ATOM     38  C   UNL A   1      36.929  30.395  29.022  1.00  0.00    -0.014 A 
BRANCH  38  39
ATOM     39  C   UNL A   1      38.081  30.018  29.877  1.00  0.00     0.031 A 
ATOM     40  C   UNL A   1      39.131  29.090  29.330  1.00  0.00     0.074 A 
ATOM     41  C   UNL A   1      38.223  30.546  31.105  1.00  0.00     0.049 A 
ATOM     42  N   UNL A   1      40.239  28.668  29.885  1.00  0.00    -0.248 NA
ATOM     43  C   UNL A   1      38.902  28.570  27.973  1.00  0.00     0.031 C 
ATOM     44  C   UNL A   1      37.291  31.480  31.731  1.00  0.00     0.029 A 
ATOM     45  N   UNL A   1      39.212  30.376  32.040  1.00  0.00    -0.354 N 
ATOM     46  C   UNL A   1      40.839  27.837  28.948  1.00  0.00     0.074 A 
ATOM     47  C   UNL A   1      39.956  27.786  27.802  1.00  0.00     0.031 C 
ATOM     48  C   UNL A   1      37.754  31.804  32.951  1.00  0.00     0.029 A 
ATOM     49  C   UNL A   1      39.001  31.083  33.197  1.00  0.00     0.049 A 
ATOM     50  H   UNL A   1      39.997  29.800  31.895  1.00  0.00     0.167 HD
ATOM     51  C   UNL A   1      42.025  27.187  29.030  1.00  0.00     0.037 A 
ATOM     52  C   UNL A   1      39.730  31.135  34.329  1.00  0.00     0.037 A 
ATOM     53  C   UNL A   1      42.903  27.239  30.169  1.00  0.00     0.049 A 
ATOM     54  C   UNL A   1      41.013  30.352  34.419  1.00  0.00     0.074 A 
ATOM     55  C   UNL A   1      44.139  26.639  30.337  1.00  0.00     0.029 A 
ATOM     56  N   UNL A   1      42.632  27.927  31.343  1.00  0.00    -0.354 N 
ATOM     57  N   UNL A   1      41.590  29.599  33.516  1.00  0.00    -0.248 NA
ATOM     58  C   UNL A   1      41.748  30.433  35.690  1.00  0.00     0.031 C 
ATOM     59  C   UNL A   1      44.592  26.922  31.630  1.00  0.00     0.029 A 
ATOM     60  C   UNL A   1      43.662  27.741  32.251  1.00  0.00     0.049 A 
ATOM     61  H   UNL A   1      41.826  28.469  31.507  1.00  0.00     0.167 HD
ATOM     62  C   UNL A   1      42.762  29.134  34.096  1.00  0.00     0.074 A 
ATOM     63  C   UNL A   1      42.824  29.703  35.427  1.00  0.00     0.031 C 
ATOM     64  C   UNL A   1      43.705  28.309  33.574  1.00  0.00     0.037 A 
BRANCH  51  65
ATOM     65  C   UNL A   1      42.429  26.339  27.859  1.00  0.00     0.064 A 
ATOM     66  C   UNL A   1      43.249  26.839  26.837  1.00  0.00     0.173 A 
ATOM     67  C   UNL A   1      42.011  25.003  27.771  1.00  0.00     0.173 A 
ATOM     68  F   UNL A   1      43.665  28.114  26.866  1.00  0.00    -0.203 F 
ATOM     69  C   UNL A   1      43.612  26.040  25.755  1.00  0.00     0.198 A 
ATOM     70  C   UNL A   1      42.398  24.199  26.702  1.00  0.00     0.198 A 
ATOM     71  F   UNL A   1      41.229  24.476  28.725  1.00  0.00    -0.203 F 
ATOM     72  F   UNL A   1      44.358  26.551  24.766  1.00  0.00    -0.200 F 
ATOM     73  C   UNL A   1      43.191  24.720  25.692  1.00  0.00     0.200 A 
ATOM     74  F   UNL A   1      41.998  22.921  26.649  1.00  0.00    -0.200 F 
ATOM     75  F   UNL A   1      43.544  23.951  24.652  1.00  0.00    -0.200 F 
ENDBRANCH  51  65
BRANCH  52  76
ATOM     76  C   UNL A   1      39.262  31.964  35.468  1.00  0.00     0.064 A 
ATOM     77  C   UNL A   1      39.613  33.315  35.573  1.00  0.00     0.173 A 
ATOM     78  C   UNL A   1      38.451  31.419  36.476  1.00  0.00     0.173 A 
ATOM     79  F   UNL A   1      40.407  33.873  34.647  1.00  0.00    -0.203 F 
ATOM     80  C   UNL A   1      39.182  34.090  36.647  1.00  0.00     0.198 A 
ATOM     81  C   UNL A   1      37.999  32.201  37.536  1.00  0.00     0.198 A 
ATOM     82  F   UNL A   1      38.090  30.128  36.423  1.00  0.00    -0.203 F 
ATOM     83  F   UNL A   1      39.562  35.371  36.743  1.00  0.00    -0.200 F 
ATOM     84  C   UNL A   1      38.368  33.534  37.624  1.00  0.00     0.200 A 
ATOM     85  F   UNL A   1      37.206  31.662  38.472  1.00  0.00    -0.200 F 
ATOM     86  F   UNL A   1      37.947  34.281  38.652  1.00  0.00    -0.200 F 
ENDBRANCH  52  76
BRANCH  64  87
ATOM     87  C   UNL A   1      44.890  27.987  34.438  1.00  0.00     0.064 A 
ATOM     88  C   UNL A   1      44.902  26.864  35.278  1.00  0.00     0.173 A 
ATOM     89  C   UNL A   1      46.037  28.794  34.403  1.00  0.00     0.173 A 
ATOM     90  F   UNL A   1      43.825  26.070  35.358  1.00  0.00    -0.203 F 
ATOM     91  C   UNL A   1      46.011  26.574  36.070  1.00  0.00     0.198 A 
ATOM     92  C   UNL A   1      47.154  28.486  35.175  1.00  0.00     0.198 A 
ATOM     93  F   UNL A   1      46.079  29.876  33.612  1.00  0.00    -0.203 F 
ATOM     94  F   UNL A   1      45.983  25.522  36.900  1.00  0.00    -0.200 F 
ATOM     95  C   UNL A   1      47.138  27.381  36.013  1.00  0.00     0.200 A 
ATOM     96  F   UNL A   1      48.247  29.260  35.110  1.00  0.00    -0.200 F 
ATOM     97  F   UNL A   1      48.205  27.099  36.773  1.00  0.00    -0.200 F 
ENDBRANCH  64  87
ENDBRANCH  38  39
ENDBRANCH  31  33
ENDBRANCH  30  31
ENDBRANCH  29  30
ENDBRANCH  28  29
ENDBRANCH   1  28
TORSDOF 18
ENDMDL
MODEL 2
REMARK VINA RESULT:     -11.6      0.669      7.293
REMARK SMILES NC(=O)C[C@H](C(=O)OCCOCCOC(=O)c1ccc(-c2c3nc(c(-c4c(F)c(F)c(F)c(F)c4F)c4ccc([nH]4)c(-c4c(F)c(F)c(F)c(F)c4F)c4nc(c(-c5c(F)c(F)c(F)c(F)c5F)c5ccc2[nH]5)C=C4)C=C3)cc1)N1C(=O)/C(=C/c2ccccc2)SC1=S
REMARK SMILES IDX 11 1 10 2 9 3 8 4 6 5 7 6 5 7 4 8 2 9 1 10 3 13 80 14 81 15
REMARK SMILES IDX 92 16 82 17 83 18 91 19 93 20 84 21 85 22 86 23 90 24 87 25
REMARK SMILES IDX 89 26 88 27 12 28 13 29 14 30 15 31 16 32 17 33 18 34 79 35
REMARK SMILES IDX 19 36 78 37 20 38 21 39 22 40 72 41 23 42 77 43 71 44 73 45
REMARK SMILES IDX 24 46 76 47 70 48 69 49 25 51 57 52 37 53 56 54 38 55 41 56
REMARK SMILES IDX 55 57 74 58 39 59 40 60 54 62 75 63 42 64 26 65 27 66 35 67
REMARK SMILES IDX 28 68 29 69 33 70 36 71 30 72 31 73 34 74 32 75 58 76 59 77
REMARK SMILES IDX 67 78 60 79 61 80 65 81 68 82 62 83 63 84 66 85 64 86 43 87
REMARK SMILES IDX 44 88 52 89 45 90 46 91 50 92 53 93 47 94 48 95 51 96 49 97
REMARK H PARENT 1 11 1 12 73 50 41 61
REMARK Flexibility Score: inf
ROOT
ATOM      1  O   UNL A   1      32.959  29.441  24.791  1.00  0.00    -0.374 OA
ENDROOT
BRANCH   1   2
ATOM      2  C   UNL A   1      33.858  28.684  25.594  1.00  0.00     0.202 C 
BRANCH   2   3
ATOM      3  C   UNL A   1      33.240  27.586  26.461  1.00  0.00     0.261 C 
BRANCH   3   4
ATOM      4  O   UNL A   1      33.717  26.260  26.128  1.00  0.00    -0.462 OA
BRANCH   4   5
ATOM      5  C   UNL A   1      32.728  25.342  25.922  1.00  0.00     0.329 C 
ATOM      6  O   UNL A   1      31.770  25.182  26.671  1.00  0.00    -0.250 OA
BRANCH   5   7
ATOM      7  C   UNL A   1      32.821  24.627  24.565  1.00  0.00     0.211 C 
BRANCH   7   8
ATOM      8  C   UNL A   1      33.617  25.627  23.680  1.00  0.00     0.137 C 
BRANCH   8   9
ATOM      9  C   UNL A   1      32.898  26.301  22.523  1.00  0.00     0.220 C 
ATOM     10  N   UNL A   1      33.265  27.560  22.164  1.00  0.00    -0.370 N 
ATOM     11  H   UNL A   1      32.810  28.010  21.417  1.00  0.00     0.159 HD
ATOM     12  H   UNL A   1      33.986  28.020  22.651  1.00  0.00     0.159 HD
ATOM     13  O   UNL A   1      31.948  25.776  21.949  1.00  0.00    -0.275 OA
ENDBRANCH   8   9
ENDBRANCH   7   8
BRANCH   7  14
ATOM     14  N   UNL A   1      33.294  23.219  24.525  1.00  0.00    -0.278 N 
ATOM     15  C   UNL A   1      32.349  22.208  24.648  1.00  0.00     0.267 C 
ATOM     16  C   UNL A   1      34.562  22.789  24.868  1.00  0.00     0.149 C 
ATOM     17  O   UNL A   1      31.161  22.362  24.896  1.00  0.00    -0.268 OA
ATOM     18  C   UNL A   1      32.981  20.872  24.602  1.00  0.00     0.081 C 
ATOM     19  S   UNL A   1      34.682  21.047  24.630  1.00  0.00    -0.054 SA
ATOM     20  S   UNL A   1      35.859  23.656  25.458  1.00  0.00    -0.052 S 
ATOM     21  C   UNL A   1      32.246  19.752  24.580  1.00  0.00     0.029 C 
BRANCH  21  22
ATOM     22  C   UNL A   1      32.770  18.386  24.587  1.00  0.00    -0.024 A 
ATOM     23  C   UNL A   1      32.581  17.581  25.715  1.00  0.00     0.008 A 
ATOM     24  C   UNL A   1      33.486  17.882  23.495  1.00  0.00     0.008 A 
ATOM     25  C   UNL A   1      33.073  16.273  25.733  1.00  0.00     0.001 A 
ATOM     26  C   UNL A   1      33.971  16.575  23.512  1.00  0.00     0.001 A 
ATOM     27  C   UNL A   1      33.760  15.770  24.630  1.00  0.00     0.000 A 
ENDBRANCH  21  22
ENDBRANCH   7  14
ENDBRANCH   5   7
ENDBRANCH   4   5
ENDBRANCH   3   4
ENDBRANCH   2   3
ENDBRANCH   1   2
BRANCH   1  28
ATOM     28  C   UNL A   1      31.736  29.861  25.390  1.00  0.00     0.202 C 
BRANCH  28  29
ATOM     29  C   UNL A   1      31.779  31.195  26.144  1.00  0.00     0.261 C 
BRANCH  29  30
ATOM     30  O   UNL A   1      32.530  31.104  27.371  1.00  0.00    -0.460 OA
BRANCH  30  31
ATOM     31  C   UNL A   1      33.360  32.148  27.599  1.00  0.00     0.338 C 
ATOM     32  O   UNL A   1      33.065  33.336  27.647  1.00  0.00    -0.246 OA
BRANCH  31  33
ATOM     33  C   UNL A   1      34.705  31.670  27.962  1.00  0.00     0.060 A 
ATOM     34  C   UNL A   1      34.839  30.310  28.270  1.00  0.00     0.016 A 
ATOM     35  C   UNL A   1      35.792  32.537  28.096  1.00  0.00     0.016 A 
ATOM     36  C   UNL A   1      36.042  29.824  28.772  1.00  0.00     0.010 A 
ATOM     37  C   UNL A   1      37.001  32.047  28.606  1.00  0.00     0.010 A 
ATOM     38  C   UNL A   1      37.117  30.697  28.984  1.00  0.00    -0.014 A 
BRANCH  38  39
ATOM     39  C   UNL A   1      38.302  30.209  29.732  1.00  0.00     0.031 A 
ATOM     40  C   UNL A   1      38.509  30.656  31.153  1.00  0.00     0.074 A 
ATOM     41  C   UNL A   1      39.148  29.327  29.172  1.00  0.00     0.049 A 
ATOM     42  N   UNL A   1      39.447  30.318  32.002  1.00  0.00    -0.248 NA
ATOM     43  C   UNL A   1      37.528  31.612  31.689  1.00  0.00     0.031 C 
ATOM     44  C   UNL A   1      39.033  28.795  27.817  1.00  0.00     0.029 A 
ATOM     45  N   UNL A   1      40.267  28.720  29.682  1.00  0.00    -0.354 N 
ATOM     46  C   UNL A   1      39.168  31.015  33.170  1.00  0.00     0.074 A 
ATOM     47  C   UNL A   1      37.994  31.822  32.911  1.00  0.00     0.031 C 
ATOM     48  C   UNL A   1      40.044  27.936  27.600  1.00  0.00     0.029 A 
ATOM     49  C   UNL A   1      40.886  27.876  28.794  1.00  0.00     0.049 A 
ATOM     50  H   UNL A   1      40.596  28.875  30.596  1.00  0.00     0.167 HD
ATOM     51  C   UNL A   1      39.822  30.976  34.356  1.00  0.00     0.037 A 
ATOM     52  C   UNL A   1      42.010  27.145  28.928  1.00  0.00     0.037 A 
ATOM     53  C   UNL A   1      40.988  30.172  34.614  1.00  0.00     0.049 A 
ATOM     54  C   UNL A   1      42.755  27.167  30.236  1.00  0.00     0.074 A 
ATOM     55  C   UNL A   1      41.706  30.042  35.791  1.00  0.00     0.029 A 
ATOM     56  N   UNL A   1      41.615  29.368  33.674  1.00  0.00    -0.354 N 
ATOM     57  N   UNL A   1      42.463  27.800  31.346  1.00  0.00    -0.248 NA
ATOM     58  C   UNL A   1      43.986  26.367  30.308  1.00  0.00     0.031 C 
ATOM     59  C   UNL A   1      42.794  29.198  35.549  1.00  0.00     0.029 A 
ATOM     60  C   UNL A   1      42.729  28.763  34.235  1.00  0.00     0.049 A 
ATOM     61  H   UNL A   1      41.313  29.245  32.745  1.00  0.00     0.167 HD
ATOM     62  C   UNL A   1      43.458  27.460  32.253  1.00  0.00     0.074 A 
ATOM     63  C   UNL A   1      44.354  26.551  31.569  1.00  0.00     0.031 C 
ATOM     64  C   UNL A   1      43.614  27.865  33.538  1.00  0.00     0.037 A 
BRANCH  51  65
ATOM     65  C   UNL A   1      39.302  31.850  35.461  1.00  0.00     0.064 A 
ATOM     66  C   UNL A   1      38.397  31.367  36.417  1.00  0.00     0.173 A 
ATOM     67  C   UNL A   1      39.734  33.180  35.576  1.00  0.00     0.173 A 
ATOM     68  F   UNL A   1      37.943  30.107  36.343  1.00  0.00    -0.203 F 
ATOM     69  C   UNL A   1      37.922  32.193  37.434  1.00  0.00     0.198 A 
ATOM     70  C   UNL A   1      39.277  33.994  36.610  1.00  0.00     0.198 A 
ATOM     71  F   UNL A   1      40.601  33.688  34.689  1.00  0.00    -0.203 F 
ATOM     72  F   UNL A   1      37.022  31.725  38.310  1.00  0.00    -0.200 F 
ATOM     73  C   UNL A   1      38.367  33.503  37.532  1.00  0.00     0.200 A 
ATOM     74  F   UNL A   1      39.717  35.257  36.708  1.00  0.00    -0.200 F 
ATOM     75  F   UNL A   1      37.911  34.295  38.513  1.00  0.00    -0.200 F 
ENDBRANCH  51  65
BRANCH  52  76
ATOM     76  C   UNL A   1      42.495  26.326  27.788  1.00  0.00     0.064 A 
ATOM     77  C   UNL A   1      42.000  25.036  27.561  1.00  0.00     0.173 A 
ATOM     78  C   UNL A   1      43.465  26.820  26.903  1.00  0.00     0.173 A 
ATOM     79  F   UNL A   1      41.090  24.512  28.396  1.00  0.00    -0.203 F 
ATOM     80  C   UNL A   1      42.463  24.265  26.498  1.00  0.00     0.198 A 
ATOM     81  C   UNL A   1      43.909  26.057  25.825  1.00  0.00     0.198 A 
ATOM     82  F   UNL A   1      43.973  28.049  27.080  1.00  0.00    -0.203 F 
ATOM     83  F   UNL A   1      41.999  23.020  26.324  1.00  0.00    -0.200 F 
ATOM     84  C   UNL A   1      43.411  24.779  25.625  1.00  0.00     0.200 A 
ATOM     85  F   UNL A   1      44.818  26.562  24.980  1.00  0.00    -0.200 F 
ATOM     86  F   UNL A   1      43.851  24.040  24.599  1.00  0.00    -0.200 F 
ENDBRANCH  52  76
BRANCH  64  87
ATOM     87  C   UNL A   1      44.790  27.313  34.293  1.00  0.00     0.064 A 
ATOM     88  C   UNL A   1      44.716  26.088  34.972  1.00  0.00     0.173 A 
ATOM     89  C   UNL A   1      46.011  28.003  34.312  1.00  0.00     0.173 A 
ATOM     90  F   UNL A   1      43.567  25.398  34.996  1.00  0.00    -0.203 F 
ATOM     91  C   UNL A   1      45.817  25.586  35.664  1.00  0.00     0.198 A 
ATOM     92  C   UNL A   1      47.117  27.485  34.981  1.00  0.00     0.198 A 
ATOM     93  F   UNL A   1      46.136  29.176  33.674  1.00  0.00    -0.203 F 
ATOM     94  F   UNL A   1      45.710  24.436  36.344  1.00  0.00    -0.200 F 
ATOM     95  C   UNL A   1      47.017  26.281  35.663  1.00  0.00     0.200 A 
ATOM     96  F   UNL A   1      48.279  28.152  34.969  1.00  0.00    -0.200 F 
ATOM     97  F   UNL A   1      48.075  25.795  36.326  1.00  0.00    -0.200 F 
ENDBRANCH  64  87
ENDBRANCH  38  39
ENDBRANCH  31  33
ENDBRANCH  30  31
ENDBRANCH  29  30
ENDBRANCH  28  29
ENDBRANCH   1  28
TORSDOF 18
ENDMDL
MODEL 3
REMARK VINA RESULT:     -11.6      0.853      7.297
REMARK SMILES NC(=O)C[C@H](C(=O)OCCOCCOC(=O)c1ccc(-c2c3nc(c(-c4c(F)c(F)c(F)c(F)c4F)c4ccc([nH]4)c(-c4c(F)c(F)c(F)c(F)c4F)c4nc(c(-c5c(F)c(F)c(F)c(F)c5F)c5ccc2[nH]5)C=C4)C=C3)cc1)N1C(=O)/C(=C/c2ccccc2)SC1=S
REMARK SMILES IDX 11 1 10 2 9 3 8 4 6 5 7 6 5 7 4 8 2 9 1 10 3 13 80 14 81 15
REMARK SMILES IDX 92 16 82 17 83 18 91 19 93 20 84 21 85 22 86 23 90 24 87 25
REMARK SMILES IDX 89 26 88 27 12 28 13 29 14 30 15 31 16 32 17 33 18 34 79 35
REMARK SMILES IDX 19 36 78 37 20 38 21 39 22 40 72 41 23 42 77 43 71 44 73 45
REMARK SMILES IDX 24 46 76 47 70 48 69 49 25 51 57 52 37 53 56 54 38 55 41 56
REMARK SMILES IDX 55 57 74 58 39 59 40 60 54 62 75 63 42 64 26 65 27 66 35 67
REMARK SMILES IDX 28 68 29 69 33 70 36 71 30 72 31 73 34 74 32 75 58 76 59 77
REMARK SMILES IDX 67 78 60 79 61 80 65 81 68 82 62 83 63 84 66 85 64 86 43 87
REMARK SMILES IDX 44 88 52 89 45 90 46 91 50 92 53 93 47 94 48 95 51 96 49 97
REMARK H PARENT 1 11 1 12 73 50 41 61
REMARK Flexibility Score: inf
ROOT
ATOM      1  O   UNL A   1      31.539  30.077  25.159  1.00  0.00    -0.374 OA
ENDROOT
BRANCH   1   2
ATOM      2  C   UNL A   1      32.132  28.824  24.834  1.00  0.00     0.202 C 
BRANCH   2   3
ATOM      3  C   UNL A   1      32.480  27.909  26.010  1.00  0.00     0.261 C 
BRANCH   3   4
ATOM      4  O   UNL A   1      33.363  26.822  25.645  1.00  0.00    -0.462 OA
BRANCH   4   5
ATOM      5  C   UNL A   1      32.778  25.589  25.670  1.00  0.00     0.329 C 
ATOM      6  O   UNL A   1      32.072  25.181  26.585  1.00  0.00    -0.250 OA
BRANCH   5   7
ATOM      7  C   UNL A   1      32.937  24.802  24.359  1.00  0.00     0.211 C 
BRANCH   7   8
ATOM      8  C   UNL A   1      33.803  25.741  23.473  1.00  0.00     0.137 C 
BRANCH   8   9
ATOM      9  C   UNL A   1      33.335  26.035  22.058  1.00  0.00     0.220 C 
ATOM     10  N   UNL A   1      32.534  25.135  21.429  1.00  0.00    -0.370 N 
ATOM     11  H   UNL A   1      32.221  25.311  20.512  1.00  0.00     0.159 HD
ATOM     12  H   UNL A   1      32.266  24.308  21.890  1.00  0.00     0.159 HD
ATOM     13  O   UNL A   1      33.715  27.024  21.436  1.00  0.00    -0.275 OA
ENDBRANCH   8   9
ENDBRANCH   7   8
BRANCH   7  14
ATOM     14  N   UNL A   1      33.384  23.387  24.421  1.00  0.00    -0.278 N 
ATOM     15  C   UNL A   1      32.413  22.393  24.403  1.00  0.00     0.267 C 
ATOM     16  C   UNL A   1      34.571  22.944  24.976  1.00  0.00     0.149 C 
ATOM     17  O   UNL A   1      31.204  22.569  24.448  1.00  0.00    -0.268 OA
ATOM     18  C   UNL A   1      33.021  21.046  24.484  1.00  0.00     0.081 C 
ATOM     19  S   UNL A   1      34.696  21.196  24.789  1.00  0.00    -0.054 SA
ATOM     20  S   UNL A   1      35.768  23.802  25.757  1.00  0.00    -0.052 S 
ATOM     21  C   UNL A   1      32.278  19.938  24.358  1.00  0.00     0.029 C 
BRANCH  21  22
ATOM     22  C   UNL A   1      32.769  18.564  24.475  1.00  0.00    -0.024 A 
ATOM     23  C   UNL A   1      33.316  17.929  23.355  1.00  0.00     0.008 A 
ATOM     24  C   UNL A   1      32.669  17.862  25.682  1.00  0.00     0.008 A 
ATOM     25  C   UNL A   1      33.792  16.620  23.454  1.00  0.00     0.001 A 
ATOM     26  C   UNL A   1      33.149  16.557  25.781  1.00  0.00     0.001 A 
ATOM     27  C   UNL A   1      33.714  15.938  24.668  1.00  0.00     0.000 A 
ENDBRANCH  21  22
ENDBRANCH   7  14
ENDBRANCH   5   7
ENDBRANCH   4   5
ENDBRANCH   3   4
ENDBRANCH   2   3
ENDBRANCH   1   2
BRANCH   1  28
ATOM     28  C   UNL A   1      31.643  30.525  26.507  1.00  0.00     0.202 C 
BRANCH  28  29
ATOM     29  C   UNL A   1      32.063  31.987  26.701  1.00  0.00     0.261 C 
BRANCH  29  30
ATOM     30  O   UNL A   1      32.749  32.195  27.952  1.00  0.00    -0.460 OA
BRANCH  30  31
ATOM     31  C   UNL A   1      33.748  33.108  27.898  1.00  0.00     0.338 C 
ATOM     32  O   UNL A   1      33.641  34.317  27.734  1.00  0.00    -0.246 OA
BRANCH  31  33
ATOM     33  C   UNL A   1      35.039  32.483  28.233  1.00  0.00     0.060 A 
ATOM     34  C   UNL A   1      35.020  31.128  28.587  1.00  0.00     0.016 A 
ATOM     35  C   UNL A   1      36.225  33.216  28.298  1.00  0.00     0.016 A 
ATOM     36  C   UNL A   1      36.175  30.516  29.066  1.00  0.00     0.010 A 
ATOM     37  C   UNL A   1      37.386  32.600  28.784  1.00  0.00     0.010 A 
ATOM     38  C   UNL A   1      37.353  31.259  29.209  1.00  0.00    -0.014 A 
BRANCH  38  39
ATOM     39  C   UNL A   1      38.499  30.657  29.934  1.00  0.00     0.031 A 
ATOM     40  C   UNL A   1      38.727  31.017  31.376  1.00  0.00     0.074 A 
ATOM     41  C   UNL A   1      39.289  29.751  29.332  1.00  0.00     0.049 A 
ATOM     42  N   UNL A   1      39.635  30.575  32.210  1.00  0.00    -0.248 NA
ATOM     43  C   UNL A   1      37.808  32.006  31.958  1.00  0.00     0.031 C 
ATOM     44  C   UNL A   1      39.148  29.298  27.951  1.00  0.00     0.029 A 
ATOM     45  N   UNL A   1      40.363  29.046  29.813  1.00  0.00    -0.354 N 
ATOM     46  C   UNL A   1      39.395  31.229  33.411  1.00  0.00     0.074 A 
ATOM     47  C   UNL A   1      38.279  32.123  33.190  1.00  0.00     0.031 C 
ATOM     48  C   UNL A   1      40.101  28.385  27.694  1.00  0.00     0.029 A 
ATOM     49  C   UNL A   1      40.930  28.209  28.885  1.00  0.00     0.049 A 
ATOM     50  H   UNL A   1      40.695  29.132  30.735  1.00  0.00     0.167 HD
ATOM     51  C   UNL A   1      40.038  31.086  34.595  1.00  0.00     0.037 A 
ATOM     52  C   UNL A   1      42.002  27.400  28.984  1.00  0.00     0.037 A 
ATOM     53  C   UNL A   1      41.147  30.195  34.816  1.00  0.00     0.049 A 
ATOM     54  C   UNL A   1      42.739  27.306  30.294  1.00  0.00     0.074 A 
ATOM     55  C   UNL A   1      41.847  29.958  35.986  1.00  0.00     0.029 A 
ATOM     56  N   UNL A   1      41.725  29.399  33.837  1.00  0.00    -0.354 N 
ATOM     57  N   UNL A   1      42.483  27.899  31.434  1.00  0.00    -0.248 NA
ATOM     58  C   UNL A   1      43.914  26.423  30.329  1.00  0.00     0.031 C 
ATOM     59  C   UNL A   1      42.879  29.057  35.704  1.00  0.00     0.029 A 
ATOM     60  C   UNL A   1      42.793  28.694  34.370  1.00  0.00     0.049 A 
ATOM     61  H   UNL A   1      41.422  29.344  32.902  1.00  0.00     0.167 HD
ATOM     62  C   UNL A   1      43.447  27.449  32.325  1.00  0.00     0.074 A 
ATOM     63  C   UNL A   1      44.286  26.519  31.599  1.00  0.00     0.031 C 
ATOM     64  C   UNL A   1      43.622  27.776  33.630  1.00  0.00     0.037 A 
BRANCH  51  65
ATOM     65  C   UNL A   1      39.570  31.935  35.742  1.00  0.00     0.064 A 
ATOM     66  C   UNL A   1      40.116  33.202  35.991  1.00  0.00     0.173 A 
ATOM     67  C   UNL A   1      38.544  31.484  36.586  1.00  0.00     0.173 A 
ATOM     68  F   UNL A   1      41.108  33.673  35.221  1.00  0.00    -0.203 F 
ATOM     69  C   UNL A   1      39.672  33.976  37.061  1.00  0.00     0.198 A 
ATOM     70  C   UNL A   1      38.084  32.271  37.639  1.00  0.00     0.198 A 
ATOM     71  F   UNL A   1      37.986  30.281  36.389  1.00  0.00    -0.203 F 
ATOM     72  F   UNL A   1      40.240  35.164  37.309  1.00  0.00    -0.200 F 
ATOM     73  C   UNL A   1      38.653  33.512  37.880  1.00  0.00     0.200 A 
ATOM     74  F   UNL A   1      37.093  31.824  38.423  1.00  0.00    -0.200 F 
ATOM     75  F   UNL A   1      38.225  34.258  38.907  1.00  0.00    -0.200 F 
ENDBRANCH  51  65
BRANCH  52  76
ATOM     76  C   UNL A   1      42.440  26.610  27.806  1.00  0.00     0.064 A 
ATOM     77  C   UNL A   1      41.938  25.324  27.570  1.00  0.00     0.173 A 
ATOM     78  C   UNL A   1      43.369  27.127  26.892  1.00  0.00     0.173 A 
ATOM     79  F   UNL A   1      41.066  24.777  28.431  1.00  0.00    -0.203 F 
ATOM     80  C   UNL A   1      42.356  24.579  26.469  1.00  0.00     0.198 A 
ATOM     81  C   UNL A   1      43.768  26.391  25.777  1.00  0.00     0.198 A 
ATOM     82  F   UNL A   1      43.882  28.353  27.075  1.00  0.00    -0.203 F 
ATOM     83  F   UNL A   1      41.888  23.337  26.286  1.00  0.00    -0.200 F 
ATOM     84  C   UNL A   1      43.265  25.117  25.569  1.00  0.00     0.200 A 
ATOM     85  F   UNL A   1      44.639  26.919  24.906  1.00  0.00    -0.200 F 
ATOM     86  F   UNL A   1      43.661  24.404  24.508  1.00  0.00    -0.200 F 
ENDBRANCH  52  76
BRANCH  64  87
ATOM     87  C   UNL A   1      44.754  27.110  34.359  1.00  0.00     0.064 A 
ATOM     88  C   UNL A   1      46.023  27.700  34.439  1.00  0.00     0.173 A 
ATOM     89  C   UNL A   1      44.557  25.884  35.011  1.00  0.00     0.173 A 
ATOM     90  F   UNL A   1      46.266  28.864  33.819  1.00  0.00    -0.203 F 
ATOM     91  C   UNL A   1      47.062  27.073  35.123  1.00  0.00     0.198 A 
ATOM     92  C   UNL A   1      45.590  25.274  35.718  1.00  0.00     0.198 A 
ATOM     93  F   UNL A   1      43.360  25.280  34.972  1.00  0.00    -0.203 F 
ATOM     94  F   UNL A   1      48.280  27.632  35.146  1.00  0.00    -0.200 F 
ATOM     95  C   UNL A   1      46.844  25.864  35.767  1.00  0.00     0.200 A 
ATOM     96  F   UNL A   1      45.373  24.111  36.350  1.00  0.00    -0.200 F 
ATOM     97  F   UNL A   1      47.843  25.265  36.428  1.00  0.00    -0.200 F 
ENDBRANCH  64  87
ENDBRANCH  38  39
ENDBRANCH  31  33
ENDBRANCH  30  31
ENDBRANCH  29  30
ENDBRANCH  28  29
ENDBRANCH   1  28
TORSDOF 18
ENDMDL
