MODEL 1
REMARK VINA RESULT:     -12.8      0.000      0.000
REMARK SMILES Cc1cc(C(=O)OCCOCCOC(=O)c2ccc(-c3c4nc(c(-c5c(F)c(F)c(F)c(F)c5F)c5ccc([nH]5)c(-c5c(F)c(F)c(F)c(F)c5F)c5nc(c(-c6c(F)c(F)c(F)c(F)c6F)c6ccc3[nH]6)C=C5)C=C4)cc2)ccc1NS(=O)(=O)c1c(F)cccc1F
REMARK SMILES IDX 9 1 8 2 7 3 5 4 6 5 4 6 1 7 2 8 3 9 81 10 80 11 79 12 82 13
REMARK SMILES IDX 83 15 84 16 85 17 86 18 87 19 92 20 88 21 89 22 91 23 93 24
REMARK SMILES IDX 90 25 10 26 11 27 12 28 13 29 14 30 15 31 16 32 17 33 78 34
REMARK SMILES IDX 18 35 77 36 19 37 20 38 21 39 71 40 22 41 76 42 70 43 72 44
REMARK SMILES IDX 23 45 75 46 69 47 68 48 24 50 56 51 36 52 55 53 37 54 40 55
REMARK SMILES IDX 54 56 73 57 38 58 39 59 53 61 74 62 41 63 25 64 26 65 34 66
REMARK SMILES IDX 27 67 28 68 32 69 35 70 29 71 30 72 33 73 31 74 57 75 58 76
REMARK SMILES IDX 66 77 59 78 60 79 64 80 67 81 61 82 62 83 65 84 63 85 42 86
REMARK SMILES IDX 43 87 51 88 44 89 45 90 49 91 52 92 46 93 47 94 50 95 48 96
REMARK H PARENT 82 14 72 49 40 60
REMARK Flexibility Score: inf
ROOT
ATOM      1  C   UNL A   1      33.766  33.805  28.176  1.00  0.00     0.202 C 
ENDROOT
BRANCH   1   2
ATOM      2  C   UNL A   1      34.074  32.394  28.574  1.00  0.00     0.261 C 
BRANCH   2   3
ATOM      3  O   UNL A   1      33.680  31.419  27.583  1.00  0.00    -0.460 OA
BRANCH   3   4
ATOM      4  C   UNL A   1      34.348  30.226  27.477  1.00  0.00     0.338 C 
ATOM      5  O   UNL A   1      35.413  29.906  27.921  1.00  0.00    -0.246 OA
BRANCH   4   6
ATOM      6  C   UNL A   1      33.406  29.302  26.816  1.00  0.00     0.060 A 
ATOM      7  C   UNL A   1      33.895  26.171  24.788  1.00  0.00     0.046 C 
ATOM      8  C   UNL A   1      33.269  27.171  25.716  1.00  0.00    -0.026 A 
ATOM      9  C   UNL A   1      33.943  28.377  25.928  1.00  0.00     0.021 A 
ATOM     10  C   UNL A   1      32.084  26.935  26.438  1.00  0.00     0.052 A 
ATOM     11  C   UNL A   1      31.394  28.014  26.991  1.00  0.00     0.028 A 
ATOM     12  C   UNL A   1      32.082  29.194  27.238  1.00  0.00     0.018 A 
BRANCH  10  13
ATOM     13  N   UNL A   1      31.813  25.595  26.845  1.00  0.00    -0.279 N 
ATOM     14  H   UNL A   1      32.306  25.267  27.631  1.00  0.00     0.180 HD
BRANCH  13  15
ATOM     15  S   UNL A   1      30.745  24.523  26.131  1.00  0.00     0.267 S 
ATOM     16  O   UNL A   1      30.117  23.812  27.226  1.00  0.00    -0.201 OA
ATOM     17  O   UNL A   1      29.967  25.316  25.203  1.00  0.00    -0.201 OA
BRANCH  15  18
ATOM     18  C   UNL A   1      31.617  23.338  25.164  1.00  0.00     0.158 A 
ATOM     19  C   UNL A   1      31.410  23.369  23.787  1.00  0.00     0.146 A 
ATOM     20  C   UNL A   1      32.359  22.298  25.704  1.00  0.00     0.146 A 
ATOM     21  F   UNL A   1      30.777  24.396  23.205  1.00  0.00    -0.205 F 
ATOM     22  C   UNL A   1      31.850  22.330  22.968  1.00  0.00     0.041 A 
ATOM     23  C   UNL A   1      32.783  21.234  24.897  1.00  0.00     0.041 A 
ATOM     24  F   UNL A   1      32.655  22.247  27.010  1.00  0.00    -0.205 F 
ATOM     25  C   UNL A   1      32.510  21.239  23.528  1.00  0.00     0.006 A 
ENDBRANCH  15  18
ENDBRANCH  13  15
ENDBRANCH  10  13
ENDBRANCH   4   6
ENDBRANCH   3   4
ENDBRANCH   2   3
ENDBRANCH   1   2
BRANCH   1  26
ATOM     26  O   UNL A   1      32.858  34.281  29.153  1.00  0.00    -0.374 OA
BRANCH  26  27
ATOM     27  C   UNL A   1      32.933  35.664  29.432  1.00  0.00     0.202 C 
BRANCH  27  28
ATOM     28  C   UNL A   1      32.758  35.984  30.921  1.00  0.00     0.261 C 
BRANCH  28  29
ATOM     29  O   UNL A   1      34.045  36.266  31.512  1.00  0.00    -0.460 OA
BRANCH  29  30
ATOM     30  C   UNL A   1      34.291  35.677  32.715  1.00  0.00     0.338 C 
ATOM     31  O   UNL A   1      34.203  36.225  33.801  1.00  0.00    -0.246 OA
BRANCH  30  32
ATOM     32  C   UNL A   1      34.963  34.362  32.500  1.00  0.00     0.060 A 
ATOM     33  C   UNL A   1      35.060  33.436  33.558  1.00  0.00     0.016 A 
ATOM     34  C   UNL A   1      35.767  34.210  31.375  1.00  0.00     0.016 A 
ATOM     35  C   UNL A   1      36.078  32.470  33.560  1.00  0.00     0.010 A 
ATOM     36  C   UNL A   1      36.830  33.337  31.437  1.00  0.00     0.010 A 
ATOM     37  C   UNL A   1      37.024  32.487  32.540  1.00  0.00    -0.014 A 
BRANCH  37  38
ATOM     38  C   UNL A   1      38.301  31.761  32.515  1.00  0.00     0.031 A 
ATOM     39  C   UNL A   1      38.380  30.534  31.682  1.00  0.00     0.074 A 
ATOM     40  C   UNL A   1      39.449  32.343  32.954  1.00  0.00     0.049 A 
ATOM     41  N   UNL A   1      39.433  29.801  31.599  1.00  0.00    -0.248 NA
ATOM     42  C   UNL A   1      37.272  29.992  30.892  1.00  0.00     0.031 C 
ATOM     43  C   UNL A   1      40.824  32.072  32.512  1.00  0.00     0.029 A 
ATOM     44  N   UNL A   1      39.644  33.361  33.903  1.00  0.00    -0.354 N 
ATOM     45  C   UNL A   1      39.279  28.944  30.540  1.00  0.00     0.074 A 
ATOM     46  C   UNL A   1      37.878  29.009  30.217  1.00  0.00     0.031 C 
ATOM     47  C   UNL A   1      41.697  32.633  33.367  1.00  0.00     0.029 A 
ATOM     48  C   UNL A   1      40.922  33.191  34.459  1.00  0.00     0.049 A 
ATOM     49  H   UNL A   1      38.998  34.067  34.135  1.00  0.00     0.167 HD
ATOM     50  C   UNL A   1      40.404  28.380  30.019  1.00  0.00     0.037 A 
ATOM     51  C   UNL A   1      41.077  32.968  35.790  1.00  0.00     0.037 A 
ATOM     52  C   UNL A   1      41.551  28.644  30.903  1.00  0.00     0.049 A 
ATOM     53  C   UNL A   1      41.662  31.600  35.949  1.00  0.00     0.074 A 
ATOM     54  C   UNL A   1      42.670  29.452  30.813  1.00  0.00     0.029 A 
ATOM     55  N   UNL A   1      41.463  28.247  32.240  1.00  0.00    -0.354 N 
ATOM     56  N   UNL A   1      41.504  30.672  35.042  1.00  0.00    -0.248 NA
ATOM     57  C   UNL A   1      42.573  31.207  37.015  1.00  0.00     0.031 C 
ATOM     58  C   UNL A   1      43.189  29.617  32.134  1.00  0.00     0.029 A 
ATOM     59  C   UNL A   1      42.415  28.877  33.019  1.00  0.00     0.049 A 
ATOM     60  H   UNL A   1      40.805  27.601  32.584  1.00  0.00     0.167 HD
ATOM     61  C   UNL A   1      42.353  29.648  35.304  1.00  0.00     0.074 A 
ATOM     62  C   UNL A   1      42.959  29.993  36.579  1.00  0.00     0.031 C 
ATOM     63  C   UNL A   1      42.518  28.599  34.451  1.00  0.00     0.037 A 
BRANCH  50  64
ATOM     64  C   UNL A   1      40.529  27.707  28.665  1.00  0.00     0.064 A 
ATOM     65  C   UNL A   1      39.952  26.434  28.456  1.00  0.00     0.173 A 
ATOM     66  C   UNL A   1      41.262  28.198  27.563  1.00  0.00     0.173 A 
ATOM     67  F   UNL A   1      39.245  25.826  29.419  1.00  0.00    -0.203 F 
ATOM     68  C   UNL A   1      40.090  25.727  27.254  1.00  0.00     0.198 A 
ATOM     69  C   UNL A   1      41.359  27.513  26.346  1.00  0.00     0.198 A 
ATOM     70  F   UNL A   1      41.966  29.332  27.621  1.00  0.00    -0.203 F 
ATOM     71  F   UNL A   1      39.554  24.504  27.136  1.00  0.00    -0.200 F 
ATOM     72  C   UNL A   1      40.781  26.274  26.193  1.00  0.00     0.200 A 
ATOM     73  F   UNL A   1      42.041  28.062  25.329  1.00  0.00    -0.200 F 
ATOM     74  F   UNL A   1      40.904  25.605  25.039  1.00  0.00    -0.200 F 
ENDBRANCH  50  64
BRANCH  51  75
ATOM     75  C   UNL A   1      40.044  33.686  36.590  1.00  0.00     0.064 A 
ATOM     76  C   UNL A   1      39.021  32.882  37.145  1.00  0.00     0.173 A 
ATOM     77  C   UNL A   1      40.319  34.900  37.239  1.00  0.00     0.173 A 
ATOM     78  F   UNL A   1      38.727  31.694  36.586  1.00  0.00    -0.203 F 
ATOM     79  C   UNL A   1      38.424  33.194  38.367  1.00  0.00     0.198 A 
ATOM     80  C   UNL A   1      39.713  35.210  38.465  1.00  0.00     0.198 A 
ATOM     81  F   UNL A   1      41.287  35.706  36.781  1.00  0.00    -0.203 F 
ATOM     82  F   UNL A   1      37.590  32.316  38.945  1.00  0.00    -0.200 F 
ATOM     83  C   UNL A   1      38.805  34.337  39.047  1.00  0.00     0.200 A 
ATOM     84  F   UNL A   1      40.094  36.303  39.142  1.00  0.00    -0.200 F 
ATOM     85  F   UNL A   1      38.354  34.556  40.291  1.00  0.00    -0.200 F 
ENDBRANCH  51  75
BRANCH  63  86
ATOM     86  C   UNL A   1      42.856  27.224  34.943  1.00  0.00     0.064 A 
ATOM     87  C   UNL A   1      41.899  26.196  35.044  1.00  0.00     0.173 A 
ATOM     88  C   UNL A   1      44.197  26.834  35.142  1.00  0.00     0.173 A 
ATOM     89  F   UNL A   1      40.612  26.397  34.731  1.00  0.00    -0.203 F 
ATOM     90  C   UNL A   1      42.246  24.900  35.411  1.00  0.00     0.198 A 
ATOM     91  C   UNL A   1      44.548  25.519  35.433  1.00  0.00     0.198 A 
ATOM     92  F   UNL A   1      45.211  27.703  35.017  1.00  0.00    -0.203 F 
ATOM     93  F   UNL A   1      41.286  23.976  35.552  1.00  0.00    -0.200 F 
ATOM     94  C   UNL A   1      43.570  24.559  35.595  1.00  0.00     0.200 A 
ATOM     95  F   UNL A   1      45.841  25.184  35.530  1.00  0.00    -0.200 F 
ATOM     96  F   UNL A   1      43.905  23.300  35.902  1.00  0.00    -0.200 F 
ENDBRANCH  63  86
ENDBRANCH  37  38
ENDBRANCH  30  32
ENDBRANCH  29  30
ENDBRANCH  28  29
ENDBRANCH  27  28
ENDBRANCH  26  27
ENDBRANCH   1  26
TORSDOF 17
ENDMDL
MODEL 2
REMARK VINA RESULT:     -12.7      2.189      2.931
REMARK SMILES Cc1cc(C(=O)OCCOCCOC(=O)c2ccc(-c3c4nc(c(-c5c(F)c(F)c(F)c(F)c5F)c5ccc([nH]5)c(-c5c(F)c(F)c(F)c(F)c5F)c5nc(c(-c6c(F)c(F)c(F)c(F)c6F)c6ccc3[nH]6)C=C5)C=C4)cc2)ccc1NS(=O)(=O)c1c(F)cccc1F
REMARK SMILES IDX 9 1 8 2 7 3 5 4 6 5 4 6 1 7 2 8 3 9 81 10 80 11 79 12 82 13
REMARK SMILES IDX 83 15 84 16 85 17 86 18 87 19 92 20 88 21 89 22 91 23 93 24
REMARK SMILES IDX 90 25 10 26 11 27 12 28 13 29 14 30 15 31 16 32 17 33 78 34
REMARK SMILES IDX 18 35 77 36 19 37 20 38 21 39 71 40 22 41 76 42 70 43 72 44
REMARK SMILES IDX 23 45 75 46 69 47 68 48 24 50 56 51 36 52 55 53 37 54 40 55
REMARK SMILES IDX 54 56 73 57 38 58 39 59 53 61 74 62 41 63 25 64 26 65 34 66
REMARK SMILES IDX 27 67 28 68 32 69 35 70 29 71 30 72 33 73 31 74 57 75 58 76
REMARK SMILES IDX 66 77 59 78 60 79 64 80 67 81 61 82 62 83 65 84 63 85 42 86
REMARK SMILES IDX 43 87 51 88 44 89 45 90 49 91 52 92 46 93 47 94 50 95 48 96
REMARK H PARENT 82 14 72 49 40 60
REMARK Flexibility Score: inf
ROOT
ATOM      1  C   UNL A   1      33.885  34.592  28.334  1.00  0.00     0.202 C 
ENDROOT
BRANCH   1   2
ATOM      2  C   UNL A   1      34.721  33.381  28.618  1.00  0.00     0.261 C 
BRANCH   2   3
ATOM      3  O   UNL A   1      34.760  32.441  27.522  1.00  0.00    -0.460 OA
BRANCH   3   4
ATOM      4  C   UNL A   1      35.304  31.194  27.696  1.00  0.00     0.338 C 
ATOM      5  O   UNL A   1      36.336  30.877  28.214  1.00  0.00    -0.246 OA
BRANCH   4   6
ATOM      6  C   UNL A   1      34.266  30.244  27.248  1.00  0.00     0.060 A 
ATOM      7  C   UNL A   1      30.966  30.702  25.500  1.00  0.00     0.046 C 
ATOM      8  C   UNL A   1      32.260  30.080  25.936  1.00  0.00    -0.026 A 
ATOM      9  C   UNL A   1      33.043  30.779  26.859  1.00  0.00     0.021 A 
ATOM     10  C   UNL A   1      32.763  28.871  25.418  1.00  0.00     0.052 A 
ATOM     11  C   UNL A   1      33.770  28.196  26.109  1.00  0.00     0.028 A 
ATOM     12  C   UNL A   1      34.570  28.908  26.992  1.00  0.00     0.018 A 
BRANCH  10  13
ATOM     13  N   UNL A   1      32.458  28.556  24.060  1.00  0.00    -0.279 N 
ATOM     14  H   UNL A   1      32.962  29.046  23.371  1.00  0.00     0.180 HD
BRANCH  13  15
ATOM     15  S   UNL A   1      31.336  27.441  23.514  1.00  0.00     0.267 S 
ATOM     16  O   UNL A   1      31.962  26.781  22.386  1.00  0.00    -0.201 OA
ATOM     17  O   UNL A   1      30.928  26.700  24.688  1.00  0.00    -0.201 OA
BRANCH  15  18
ATOM     18  C   UNL A   1      29.897  28.259  22.916  1.00  0.00     0.158 A 
ATOM     19  C   UNL A   1      30.092  29.419  22.170  1.00  0.00     0.146 A 
ATOM     20  C   UNL A   1      28.604  27.905  23.275  1.00  0.00     0.146 A 
ATOM     21  F   UNL A   1      31.307  29.757  21.722  1.00  0.00    -0.205 F 
ATOM     22  C   UNL A   1      29.029  30.268  21.866  1.00  0.00     0.041 A 
ATOM     23  C   UNL A   1      27.531  28.765  23.001  1.00  0.00     0.041 A 
ATOM     24  F   UNL A   1      28.341  26.767  23.931  1.00  0.00    -0.205 F 
ATOM     25  C   UNL A   1      27.746  29.959  22.313  1.00  0.00     0.006 A 
ENDBRANCH  15  18
ENDBRANCH  13  15
ENDBRANCH  10  13
ENDBRANCH   4   6
ENDBRANCH   3   4
ENDBRANCH   2   3
ENDBRANCH   1   2
BRANCH   1  26
ATOM     26  O   UNL A   1      33.080  34.772  29.485  1.00  0.00    -0.374 OA
BRANCH  26  27
ATOM     27  C   UNL A   1      32.740  36.110  29.786  1.00  0.00     0.202 C 
BRANCH  27  28
ATOM     28  C   UNL A   1      32.585  36.363  31.291  1.00  0.00     0.261 C 
BRANCH  28  29
ATOM     29  O   UNL A   1      33.862  36.731  31.856  1.00  0.00    -0.460 OA
BRANCH  29  30
ATOM     30  C   UNL A   1      34.146  36.204  33.079  1.00  0.00     0.338 C 
ATOM     31  O   UNL A   1      34.088  36.806  34.138  1.00  0.00    -0.246 OA
BRANCH  30  32
ATOM     32  C   UNL A   1      34.819  34.882  32.911  1.00  0.00     0.060 A 
ATOM     33  C   UNL A   1      34.973  34.021  34.016  1.00  0.00     0.016 A 
ATOM     34  C   UNL A   1      35.572  34.669  31.760  1.00  0.00     0.016 A 
ATOM     35  C   UNL A   1      35.999  33.063  34.026  1.00  0.00     0.010 A 
ATOM     36  C   UNL A   1      36.644  33.808  31.824  1.00  0.00     0.010 A 
ATOM     37  C   UNL A   1      36.897  33.026  32.964  1.00  0.00    -0.014 A 
BRANCH  37  38
ATOM     38  C   UNL A   1      38.177  32.308  32.922  1.00  0.00     0.031 A 
ATOM     39  C   UNL A   1      38.204  30.987  32.244  1.00  0.00     0.074 A 
ATOM     40  C   UNL A   1      39.349  32.944  33.188  1.00  0.00     0.049 A 
ATOM     41  N   UNL A   1      39.257  30.253  32.164  1.00  0.00    -0.248 NA
ATOM     42  C   UNL A   1      37.043  30.346  31.623  1.00  0.00     0.031 C 
ATOM     43  C   UNL A   1      40.686  32.625  32.670  1.00  0.00     0.029 A 
ATOM     44  N   UNL A   1      39.607  34.073  33.984  1.00  0.00    -0.354 N 
ATOM     45  C   UNL A   1      39.028  29.270  31.236  1.00  0.00     0.074 A 
ATOM     46  C   UNL A   1      37.605  29.289  31.026  1.00  0.00     0.031 C 
ATOM     47  C   UNL A   1      41.619  33.292  33.372  1.00  0.00     0.029 A 
ATOM     48  C   UNL A   1      40.929  33.979  34.448  1.00  0.00     0.049 A 
ATOM     49  H   UNL A   1      38.973  34.800  34.180  1.00  0.00     0.167 HD
ATOM     50  C   UNL A   1      40.115  28.650  30.696  1.00  0.00     0.037 A 
ATOM     51  C   UNL A   1      41.197  33.923  35.778  1.00  0.00     0.037 A 
ATOM     52  C   UNL A   1      41.327  29.026  31.441  1.00  0.00     0.049 A 
ATOM     53  C   UNL A   1      41.812  32.588  36.056  1.00  0.00     0.074 A 
ATOM     54  C   UNL A   1      42.423  29.821  31.159  1.00  0.00     0.029 A 
ATOM     55  N   UNL A   1      41.355  28.799  32.821  1.00  0.00    -0.354 N 
ATOM     56  N   UNL A   1      41.593  31.554  35.288  1.00  0.00    -0.248 NA
ATOM     57  C   UNL A   1      42.814  32.334  37.082  1.00  0.00     0.031 C 
ATOM     58  C   UNL A   1      43.047  30.151  32.402  1.00  0.00     0.029 A 
ATOM     59  C   UNL A   1      42.359  29.524  33.432  1.00  0.00     0.049 A 
ATOM     60  H   UNL A   1      40.737  28.197  33.296  1.00  0.00     0.167 HD
ATOM     61  C   UNL A   1      42.476  30.573  35.602  1.00  0.00     0.074 A 
ATOM     62  C   UNL A   1      43.180  31.077  36.769  1.00  0.00     0.031 C 
ATOM     63  C   UNL A   1      42.584  29.428  34.875  1.00  0.00     0.037 A 
BRANCH  50  64
ATOM     64  C   UNL A   1      40.137  27.814  29.431  1.00  0.00     0.064 A 
ATOM     65  C   UNL A   1      40.742  28.324  28.260  1.00  0.00     0.173 A 
ATOM     66  C   UNL A   1      39.517  26.556  29.261  1.00  0.00     0.173 A 
ATOM     67  F   UNL A   1      41.350  29.519  28.258  1.00  0.00    -0.203 F 
ATOM     68  C   UNL A   1      40.736  27.634  27.040  1.00  0.00     0.198 A 
ATOM     69  C   UNL A   1      39.552  25.846  28.055  1.00  0.00     0.198 A 
ATOM     70  F   UNL A   1      38.802  25.976  30.228  1.00  0.00    -0.203 F 
ATOM     71  F   UNL A   1      41.290  28.193  25.956  1.00  0.00    -0.200 F 
ATOM     72  C   UNL A   1      40.154  26.387  26.943  1.00  0.00     0.200 A 
ATOM     73  F   UNL A   1      38.975  24.637  27.981  1.00  0.00    -0.200 F 
ATOM     74  F   UNL A   1      40.156  25.720  25.780  1.00  0.00    -0.200 F 
ENDBRANCH  50  64
BRANCH  51  75
ATOM     75  C   UNL A   1      40.224  34.732  36.567  1.00  0.00     0.064 A 
ATOM     76  C   UNL A   1      39.266  33.998  37.307  1.00  0.00     0.173 A 
ATOM     77  C   UNL A   1      40.532  36.021  37.030  1.00  0.00     0.173 A 
ATOM     78  F   UNL A   1      38.947  32.747  36.933  1.00  0.00    -0.203 F 
ATOM     79  C   UNL A   1      38.771  34.462  38.527  1.00  0.00     0.198 A 
ATOM     80  C   UNL A   1      40.027  36.481  38.254  1.00  0.00     0.198 A 
ATOM     81  F   UNL A   1      41.442  36.767  36.389  1.00  0.00    -0.203 F 
ATOM     82  F   UNL A   1      38.005  33.660  39.283  1.00  0.00    -0.200 F 
ATOM     83  C   UNL A   1      39.188  35.685  39.019  1.00  0.00     0.200 A 
ATOM     84  F   UNL A   1      40.445  37.656  38.750  1.00  0.00    -0.200 F 
ATOM     85  F   UNL A   1      38.841  36.059  40.260  1.00  0.00    -0.200 F 
ENDBRANCH  51  75
BRANCH  63  86
ATOM     86  C   UNL A   1      42.981  28.125  35.503  1.00  0.00     0.064 A 
ATOM     87  C   UNL A   1      42.112  27.381  36.323  1.00  0.00     0.173 A 
ATOM     88  C   UNL A   1      44.183  27.481  35.140  1.00  0.00     0.173 A 
ATOM     89  F   UNL A   1      40.878  27.811  36.618  1.00  0.00    -0.203 F 
ATOM     90  C   UNL A   1      42.461  26.130  36.821  1.00  0.00     0.198 A 
ATOM     91  C   UNL A   1      44.493  26.197  35.578  1.00  0.00     0.198 A 
ATOM     92  F   UNL A   1      45.071  28.056  34.315  1.00  0.00    -0.203 F 
ATOM     93  F   UNL A   1      41.622  25.493  37.649  1.00  0.00    -0.200 F 
ATOM     94  C   UNL A   1      43.645  25.533  36.441  1.00  0.00     0.200 A 
ATOM     95  F   UNL A   1      45.607  25.598  35.137  1.00  0.00    -0.200 F 
ATOM     96  F   UNL A   1      43.956  24.309  36.884  1.00  0.00    -0.200 F 
ENDBRANCH  63  86
ENDBRANCH  37  38
ENDBRANCH  30  32
ENDBRANCH  29  30
ENDBRANCH  28  29
ENDBRANCH  27  28
ENDBRANCH  26  27
ENDBRANCH   1  26
TORSDOF 17
ENDMDL
MODEL 3
REMARK VINA RESULT:     -12.6      5.727     11.511
REMARK SMILES Cc1cc(C(=O)OCCOCCOC(=O)c2ccc(-c3c4nc(c(-c5c(F)c(F)c(F)c(F)c5F)c5ccc([nH]5)c(-c5c(F)c(F)c(F)c(F)c5F)c5nc(c(-c6c(F)c(F)c(F)c(F)c6F)c6ccc3[nH]6)C=C5)C=C4)cc2)ccc1NS(=O)(=O)c1c(F)cccc1F
REMARK SMILES IDX 9 1 8 2 7 3 5 4 6 5 4 6 1 7 2 8 3 9 81 10 80 11 79 12 82 13
REMARK SMILES IDX 83 15 84 16 85 17 86 18 87 19 92 20 88 21 89 22 91 23 93 24
REMARK SMILES IDX 90 25 10 26 11 27 12 28 13 29 14 30 15 31 16 32 17 33 78 34
REMARK SMILES IDX 18 35 77 36 19 37 20 38 21 39 71 40 22 41 76 42 70 43 72 44
REMARK SMILES IDX 23 45 75 46 69 47 68 48 24 50 56 51 36 52 55 53 37 54 40 55
REMARK SMILES IDX 54 56 73 57 38 58 39 59 53 61 74 62 41 63 25 64 26 65 34 66
REMARK SMILES IDX 27 67 28 68 32 69 35 70 29 71 30 72 33 73 31 74 57 75 58 76
REMARK SMILES IDX 66 77 59 78 60 79 64 80 67 81 61 82 62 83 65 84 63 85 42 86
REMARK SMILES IDX 43 87 51 88 44 89 45 90 49 91 52 92 46 93 47 94 50 95 48 96
REMARK H PARENT 82 14 72 49 40 60
REMARK Flexibility Score: inf
ROOT
ATOM      1  C   UNL A   1      40.913  19.909  25.753  1.00  0.00     0.202 C 
ENDROOT
BRANCH   1   2
ATOM      2  C   UNL A   1      40.350  21.169  26.337  1.00  0.00     0.261 C 
BRANCH   2   3
ATOM      3  O   UNL A   1      39.083  21.552  25.759  1.00  0.00    -0.460 OA
BRANCH   3   4
ATOM      4  C   UNL A   1      38.478  22.726  26.128  1.00  0.00     0.338 C 
ATOM      5  O   UNL A   1      38.932  23.668  26.712  1.00  0.00    -0.246 OA
BRANCH   4   6
ATOM      6  C   UNL A   1      37.138  22.692  25.509  1.00  0.00     0.060 A 
ATOM      7  C   UNL A   1      34.015  24.717  26.062  1.00  0.00     0.046 C 
ATOM      8  C   UNL A   1      35.063  23.895  25.370  1.00  0.00    -0.026 A 
ATOM      9  C   UNL A   1      36.132  23.420  26.135  1.00  0.00     0.021 A 
ATOM     10  C   UNL A   1      35.068  23.636  23.986  1.00  0.00     0.052 A 
ATOM     11  C   UNL A   1      35.857  22.599  23.487  1.00  0.00     0.028 A 
ATOM     12  C   UNL A   1      36.942  22.164  24.235  1.00  0.00     0.018 A 
BRANCH  10  13
ATOM     13  N   UNL A   1      34.528  24.636  23.124  1.00  0.00    -0.279 N 
ATOM     14  H   UNL A   1      35.087  25.431  22.968  1.00  0.00     0.180 HD
BRANCH  13  15
ATOM     15  S   UNL A   1      33.045  24.601  22.349  1.00  0.00     0.267 S 
ATOM     16  O   UNL A   1      33.278  25.173  21.038  1.00  0.00    -0.201 OA
ATOM     17  O   UNL A   1      32.562  23.245  22.504  1.00  0.00    -0.201 OA
BRANCH  15  18
ATOM     18  C   UNL A   1      31.891  25.639  23.180  1.00  0.00     0.158 A 
ATOM     19  C   UNL A   1      32.352  26.881  23.609  1.00  0.00     0.146 A 
ATOM     20  C   UNL A   1      30.622  25.230  23.562  1.00  0.00     0.146 A 
ATOM     21  F   UNL A   1      33.532  27.362  23.196  1.00  0.00    -0.205 F 
ATOM     22  C   UNL A   1      31.603  27.665  24.485  1.00  0.00     0.041 A 
ATOM     23  C   UNL A   1      29.871  25.995  24.464  1.00  0.00     0.041 A 
ATOM     24  F   UNL A   1      30.092  24.079  23.127  1.00  0.00    -0.205 F 
ATOM     25  C   UNL A   1      30.371  27.206  24.943  1.00  0.00     0.006 A 
ENDBRANCH  15  18
ENDBRANCH  13  15
ENDBRANCH  10  13
ENDBRANCH   4   6
ENDBRANCH   3   4
ENDBRANCH   2   3
ENDBRANCH   1   2
BRANCH   1  26
ATOM     26  O   UNL A   1      42.113  19.668  26.466  1.00  0.00    -0.374 OA
BRANCH  26  27
ATOM     27  C   UNL A   1      42.829  18.512  26.079  1.00  0.00     0.202 C 
BRANCH  27  28
ATOM     28  C   UNL A   1      44.231  18.828  25.545  1.00  0.00     0.261 C 
BRANCH  28  29
ATOM     29  O   UNL A   1      44.176  19.995  24.696  1.00  0.00    -0.460 OA
BRANCH  29  30
ATOM     30  C   UNL A   1      45.071  20.981  24.979  1.00  0.00     0.338 C 
ATOM     31  O   UNL A   1      46.255  20.812  25.222  1.00  0.00    -0.246 OA
BRANCH  30  32
ATOM     32  C   UNL A   1      44.345  22.258  25.239  1.00  0.00     0.060 A 
ATOM     33  C   UNL A   1      44.535  23.366  24.390  1.00  0.00     0.016 A 
ATOM     34  C   UNL A   1      43.760  22.439  26.489  1.00  0.00     0.016 A 
ATOM     35  C   UNL A   1      44.301  24.667  24.863  1.00  0.00     0.010 A 
ATOM     36  C   UNL A   1      43.642  23.720  26.982  1.00  0.00     0.010 A 
ATOM     37  C   UNL A   1      43.946  24.845  26.196  1.00  0.00    -0.014 A 
BRANCH  37  38
ATOM     38  C   UNL A   1      43.937  26.111  26.941  1.00  0.00     0.031 A 
ATOM     39  C   UNL A   1      42.630  26.791  27.127  1.00  0.00     0.074 A 
ATOM     40  C   UNL A   1      44.997  26.485  27.705  1.00  0.00     0.049 A 
ATOM     41  N   UNL A   1      42.496  27.914  27.738  1.00  0.00    -0.248 NA
ATOM     42  C   UNL A   1      41.352  26.292  26.615  1.00  0.00     0.031 C 
ATOM     43  C   UNL A   1      44.989  27.327  28.909  1.00  0.00     0.029 A 
ATOM     44  N   UNL A   1      46.359  26.157  27.589  1.00  0.00    -0.354 N 
ATOM     45  C   UNL A   1      41.164  28.108  27.999  1.00  0.00     0.074 A 
ATOM     46  C   UNL A   1      40.485  27.146  27.172  1.00  0.00     0.031 C 
ATOM     47  C   UNL A   1      46.244  27.698  29.215  1.00  0.00     0.029 A 
ATOM     48  C   UNL A   1      47.103  27.206  28.154  1.00  0.00     0.049 A 
ATOM     49  H   UNL A   1      46.725  25.338  27.184  1.00  0.00     0.167 HD
ATOM     50  C   UNL A   1      40.839  28.999  28.977  1.00  0.00     0.037 A 
ATOM     51  C   UNL A   1      47.991  27.910  27.406  1.00  0.00     0.037 A 
ATOM     52  C   UNL A   1      42.032  29.759  29.379  1.00  0.00     0.049 A 
ATOM     53  C   UNL A   1      47.495  29.320  27.333  1.00  0.00     0.074 A 
ATOM     54  C   UNL A   1      42.834  29.769  30.507  1.00  0.00     0.029 A 
ATOM     55  N   UNL A   1      42.739  30.456  28.394  1.00  0.00    -0.354 N 
ATOM     56  N   UNL A   1      46.231  29.615  27.478  1.00  0.00    -0.248 NA
ATOM     57  C   UNL A   1      48.350  30.496  27.253  1.00  0.00     0.031 C 
ATOM     58  C   UNL A   1      44.070  30.390  30.151  1.00  0.00     0.029 A 
ATOM     59  C   UNL A   1      44.007  30.795  28.824  1.00  0.00     0.049 A 
ATOM     60  H   UNL A   1      42.378  30.676  27.505  1.00  0.00     0.167 HD
ATOM     61  C   UNL A   1      46.105  30.956  27.644  1.00  0.00     0.074 A 
ATOM     62  C   UNL A   1      47.446  31.476  27.435  1.00  0.00     0.031 C 
ATOM     63  C   UNL A   1      44.919  31.544  27.960  1.00  0.00     0.037 A 
BRANCH  50  64
ATOM     64  C   UNL A   1      39.498  29.116  29.676  1.00  0.00     0.064 A 
ATOM     65  C   UNL A   1      38.405  29.714  29.008  1.00  0.00     0.173 A 
ATOM     66  C   UNL A   1      39.229  28.750  31.014  1.00  0.00     0.173 A 
ATOM     67  F   UNL A   1      38.513  30.136  27.741  1.00  0.00    -0.203 F 
ATOM     68  C   UNL A   1      37.161  29.917  29.621  1.00  0.00     0.198 A 
ATOM     69  C   UNL A   1      37.972  28.909  31.609  1.00  0.00     0.198 A 
ATOM     70  F   UNL A   1      40.175  28.276  31.828  1.00  0.00    -0.203 F 
ATOM     71  F   UNL A   1      36.179  30.530  28.946  1.00  0.00    -0.200 F 
ATOM     72  C   UNL A   1      36.940  29.500  30.917  1.00  0.00     0.200 A 
ATOM     73  F   UNL A   1      37.781  28.501  32.873  1.00  0.00    -0.200 F 
ATOM     74  F   UNL A   1      35.748  29.682  31.501  1.00  0.00    -0.200 F 
ENDBRANCH  50  64
BRANCH  51  75
ATOM     75  C   UNL A   1      48.643  27.051  26.376  1.00  0.00     0.064 A 
ATOM     76  C   UNL A   1      48.183  27.218  25.049  1.00  0.00     0.173 A 
ATOM     77  C   UNL A   1      49.947  26.558  26.539  1.00  0.00     0.173 A 
ATOM     78  F   UNL A   1      46.953  27.712  24.825  1.00  0.00    -0.203 F 
ATOM     79  C   UNL A   1      49.032  27.058  23.954  1.00  0.00     0.198 A 
ATOM     80  C   UNL A   1      50.794  26.396  25.434  1.00  0.00     0.198 A 
ATOM     81  F   UNL A   1      50.457  26.391  27.767  1.00  0.00    -0.203 F 
ATOM     82  F   UNL A   1      48.609  27.400  22.727  1.00  0.00    -0.200 F 
ATOM     83  C   UNL A   1      50.351  26.691  24.153  1.00  0.00     0.200 A 
ATOM     84  F   UNL A   1      52.080  26.064  25.620  1.00  0.00    -0.200 F 
ATOM     85  F   UNL A   1      51.208  26.693  23.121  1.00  0.00    -0.200 F 
ENDBRANCH  51  75
BRANCH  63  86
ATOM     86  C   UNL A   1      44.575  32.931  27.503  1.00  0.00     0.064 A 
ATOM     87  C   UNL A   1      44.012  33.197  26.240  1.00  0.00     0.173 A 
ATOM     88  C   UNL A   1      44.617  34.021  28.397  1.00  0.00     0.173 A 
ATOM     89  F   UNL A   1      43.774  32.220  25.354  1.00  0.00    -0.203 F 
ATOM     90  C   UNL A   1      43.611  34.475  25.867  1.00  0.00     0.198 A 
ATOM     91  C   UNL A   1      44.144  35.281  28.046  1.00  0.00     0.198 A 
ATOM     92  F   UNL A   1      45.075  33.889  29.651  1.00  0.00    -0.203 F 
ATOM     93  F   UNL A   1      43.139  34.683  24.630  1.00  0.00    -0.200 F 
ATOM     94  C   UNL A   1      43.667  35.515  26.772  1.00  0.00     0.200 A 
ATOM     95  F   UNL A   1      44.128  36.262  28.959  1.00  0.00    -0.200 F 
ATOM     96  F   UNL A   1      43.236  36.734  26.425  1.00  0.00    -0.200 F 
ENDBRANCH  63  86
ENDBRANCH  37  38
ENDBRANCH  30  32
ENDBRANCH  29  30
ENDBRANCH  28  29
ENDBRANCH  27  28
ENDBRANCH  26  27
ENDBRANCH   1  26
TORSDOF 17
ENDMDL
