MODEL 1
REMARK VINA RESULT:     -11.9      0.000      0.000
REMARK SMILES O=C(Cc1ccc(NC(=O)C2CCCC2)cc1)OCCOCCOC(=O)c1ccc(-c2c3nc(c(-c4c(F)c(F)c(F)c(F)c4F)c4ccc([nH]4)c(-c4c(F)c(F)c(F)c(F)c4F)c4nc(c(-c5c(F)c(F)c(F)c(F)c5F)c5ccc2[nH]5)C=C4)C=C3)cc1
REMARK SMILES IDX 20 1 19 2 18 3 2 4 1 5 3 6 4 7 5 8 17 9 6 10 16 11 7 12 8 13
REMARK SMILES IDX 9 14 10 16 11 17 12 18 15 19 13 20 14 21 21 22 22 23 23 24
REMARK SMILES IDX 24 25 25 26 26 27 27 28 28 29 89 30 29 31 88 32 30 33 31 34
REMARK SMILES IDX 32 35 82 36 33 37 87 38 81 39 83 40 34 41 86 42 80 43 79 44
REMARK SMILES IDX 35 46 67 47 47 48 66 49 48 50 51 51 65 52 84 53 49 54 50 55
REMARK SMILES IDX 64 57 85 58 52 59 36 60 37 61 45 62 38 63 39 64 43 65 46 66
REMARK SMILES IDX 40 67 41 68 44 69 42 70 68 71 69 72 77 73 70 74 71 75 75 76
REMARK SMILES IDX 78 77 72 78 73 79 76 80 74 81 53 82 54 83 62 84 55 85 56 86
REMARK SMILES IDX 60 87 63 88 57 89 58 90 61 91 59 92
REMARK H PARENT 8 15 83 45 51 56
REMARK Flexibility Score: inf
ROOT
ATOM      1  C   UNL A   1      46.014  19.568  36.874  1.00  0.00     0.202 C 
ENDROOT
BRANCH   1   2
ATOM      2  C   UNL A   1      46.672  19.497  38.251  1.00  0.00     0.261 C 
BRANCH   2   3
ATOM      3  O   UNL A   1      45.929  18.775  39.241  1.00  0.00    -0.463 OA
BRANCH   3   4
ATOM      4  C   UNL A   1      46.221  17.523  39.668  1.00  0.00     0.310 C 
ATOM      5  O   UNL A   1      47.255  17.341  40.313  1.00  0.00    -0.252 OA
BRANCH   4   6
ATOM      6  C   UNL A   1      45.350  16.343  39.262  1.00  0.00     0.158 C 
BRANCH   6   7
ATOM      7  C   UNL A   1      44.101  16.174  40.080  1.00  0.00    -0.037 A 
ATOM      8  C   UNL A   1      44.019  16.693  41.377  1.00  0.00     0.006 A 
ATOM      9  C   UNL A   1      43.046  15.400  39.596  1.00  0.00     0.006 A 
ATOM     10  C   UNL A   1      43.046  16.220  42.258  1.00  0.00     0.026 A 
ATOM     11  C   UNL A   1      42.032  14.994  40.459  1.00  0.00     0.026 A 
ATOM     12  C   UNL A   1      42.107  15.293  41.824  1.00  0.00     0.041 A 
BRANCH  12  13
ATOM     13  N   UNL A   1      41.230  14.598  42.660  1.00  0.00    -0.326 N 
ATOM     14  C   UNL A   1      41.307  13.435  43.359  1.00  0.00     0.227 C 
ATOM     15  H   UNL A   1      40.363  15.051  42.767  1.00  0.00     0.169 HD
ATOM     16  O   UNL A   1      40.304  13.149  44.030  1.00  0.00    -0.274 OA
BRANCH  14  17
ATOM     17  C   UNL A   1      42.473  12.449  43.360  1.00  0.00     0.079 C 
ATOM     18  C   UNL A   1      43.117  12.049  44.682  1.00  0.00     0.013 C 
ATOM     19  C   UNL A   1      42.186  11.169  42.588  1.00  0.00     0.013 C 
ATOM     20  C   UNL A   1      43.765  10.698  44.409  1.00  0.00     0.001 C 
ATOM     21  C   UNL A   1      42.981  10.060  43.269  1.00  0.00     0.001 C 
ENDBRANCH  14  17
ENDBRANCH  12  13
ENDBRANCH   6   7
ENDBRANCH   4   6
ENDBRANCH   3   4
ENDBRANCH   2   3
ENDBRANCH   1   2
BRANCH   1  22
ATOM     22  O   UNL A   1      46.824  20.003  35.784  1.00  0.00    -0.374 OA
BRANCH  22  23
ATOM     23  C   UNL A   1      46.489  21.282  35.229  1.00  0.00     0.202 C 
BRANCH  23  24
ATOM     24  C   UNL A   1      47.442  22.433  35.559  1.00  0.00     0.261 C 
BRANCH  24  25
ATOM     25  O   UNL A   1      47.101  23.627  34.843  1.00  0.00    -0.460 OA
BRANCH  25  26
ATOM     26  C   UNL A   1      47.241  24.762  35.565  1.00  0.00     0.338 C 
ATOM     27  O   UNL A   1      48.171  25.063  36.301  1.00  0.00    -0.246 OA
BRANCH  26  28
ATOM     28  C   UNL A   1      46.178  25.716  35.201  1.00  0.00     0.060 A 
ATOM     29  C   UNL A   1      44.860  25.243  35.236  1.00  0.00     0.016 A 
ATOM     30  C   UNL A   1      46.453  27.030  34.811  1.00  0.00     0.016 A 
ATOM     31  C   UNL A   1      43.822  26.053  34.796  1.00  0.00     0.010 A 
ATOM     32  C   UNL A   1      45.409  27.846  34.372  1.00  0.00     0.010 A 
ATOM     33  C   UNL A   1      44.099  27.339  34.312  1.00  0.00    -0.014 A 
BRANCH  33  34
ATOM     34  C   UNL A   1      43.036  28.063  33.580  1.00  0.00     0.031 A 
ATOM     35  C   UNL A   1      42.844  27.776  32.116  1.00  0.00     0.074 A 
ATOM     36  C   UNL A   1      42.206  28.894  34.233  1.00  0.00     0.049 A 
ATOM     37  N   UNL A   1      41.950  28.245  31.286  1.00  0.00    -0.248 NA
ATOM     38  C   UNL A   1      43.791  26.828  31.505  1.00  0.00     0.031 C 
ATOM     39  C   UNL A   1      42.289  29.223  35.654  1.00  0.00     0.029 A 
ATOM     40  N   UNL A   1      41.126  29.607  33.782  1.00  0.00    -0.354 N 
ATOM     41  C   UNL A   1      42.220  27.645  30.063  1.00  0.00     0.074 A 
ATOM     42  C   UNL A   1      43.391  26.817  30.243  1.00  0.00     0.031 C 
ATOM     43  C   UNL A   1      41.299  30.077  35.961  1.00  0.00     0.029 A 
ATOM     44  C   UNL A   1      40.532  30.373  34.753  1.00  0.00     0.049 A 
ATOM     45  H   UNL A   1      40.807  29.573  32.851  1.00  0.00     0.167 HD
ATOM     46  C   UNL A   1      41.535  27.757  28.899  1.00  0.00     0.037 A 
ATOM     47  C   UNL A   1      39.493  31.225  34.666  1.00  0.00     0.037 A 
ATOM     48  C   UNL A   1      40.376  28.592  28.728  1.00  0.00     0.049 A 
ATOM     49  C   UNL A   1      38.784  31.376  33.345  1.00  0.00     0.074 A 
ATOM     50  C   UNL A   1      39.611  28.789  27.593  1.00  0.00     0.029 A 
ATOM     51  N   UNL A   1      39.818  29.378  29.727  1.00  0.00    -0.354 N 
ATOM     52  N   UNL A   1      39.030  30.786  32.199  1.00  0.00    -0.248 NA
ATOM     53  C   UNL A   1      37.644  32.300  33.310  1.00  0.00     0.031 C 
ATOM     54  C   UNL A   1      38.620  29.731  27.891  1.00  0.00     0.029 A 
ATOM     55  C   UNL A   1      38.729  30.074  29.229  1.00  0.00     0.049 A 
ATOM     56  H   UNL A   1      40.146  29.432  30.654  1.00  0.00     0.167 HD
ATOM     57  C   UNL A   1      38.064  31.250  31.315  1.00  0.00     0.074 A 
ATOM     58  C   UNL A   1      37.209  32.145  32.068  1.00  0.00     0.031 C 
ATOM     59  C   UNL A   1      37.898  30.967  29.998  1.00  0.00     0.037 A 
BRANCH  46  60
ATOM     60  C   UNL A   1      42.034  26.970  27.722  1.00  0.00     0.064 A 
ATOM     61  C   UNL A   1      42.957  27.510  26.813  1.00  0.00     0.173 A 
ATOM     62  C   UNL A   1      41.610  25.649  27.515  1.00  0.00     0.173 A 
ATOM     63  F   UNL A   1      43.383  28.775  26.954  1.00  0.00    -0.203 F 
ATOM     64  C   UNL A   1      43.418  26.766  25.729  1.00  0.00     0.198 A 
ATOM     65  C   UNL A   1      42.096  24.897  26.448  1.00  0.00     0.198 A 
ATOM     66  F   UNL A   1      40.727  25.082  28.352  1.00  0.00    -0.203 F 
ATOM     67  F   UNL A   1      44.263  27.320  24.848  1.00  0.00    -0.200 F 
ATOM     68  C   UNL A   1      42.995  25.457  25.553  1.00  0.00     0.200 A 
ATOM     69  F   UNL A   1      41.695  23.628  26.286  1.00  0.00    -0.200 F 
ATOM     70  F   UNL A   1      43.446  24.739  24.515  1.00  0.00    -0.200 F 
ENDBRANCH  46  60
BRANCH  47  71
ATOM     71  C   UNL A   1      39.069  32.007  35.859  1.00  0.00     0.064 A 
ATOM     72  C   UNL A   1      38.206  31.464  36.821  1.00  0.00     0.173 A 
ATOM     73  C   UNL A   1      39.506  33.327  36.047  1.00  0.00     0.173 A 
ATOM     74  F   UNL A   1      37.744  30.213  36.677  1.00  0.00    -0.203 F 
ATOM     75  C   UNL A   1      37.774  32.220  37.909  1.00  0.00     0.198 A 
ATOM     76  C   UNL A   1      39.101  34.070  37.153  1.00  0.00     0.198 A 
ATOM     77  F   UNL A   1      40.336  33.894  35.158  1.00  0.00    -0.203 F 
ATOM     78  F   UNL A   1      36.904  31.696  38.782  1.00  0.00    -0.200 F 
ATOM     79  C   UNL A   1      38.226  33.521  38.077  1.00  0.00     0.200 A 
ATOM     80  F   UNL A   1      39.554  35.320  37.320  1.00  0.00    -0.200 F 
ATOM     81  F   UNL A   1      37.812  34.247  39.124  1.00  0.00    -0.200 F 
ENDBRANCH  47  71
BRANCH  59  82
ATOM     82  C   UNL A   1      36.734  31.618  29.305  1.00  0.00     0.064 A 
ATOM     83  C   UNL A   1      36.727  32.988  29.001  1.00  0.00     0.173 A 
ATOM     84  C   UNL A   1      35.612  30.860  28.936  1.00  0.00     0.173 A 
ATOM     85  F   UNL A   1      37.771  33.760  29.343  1.00  0.00    -0.203 F 
ATOM     86  C   UNL A   1      35.621  33.584  28.401  1.00  0.00     0.198 A 
ATOM     87  C   UNL A   1      34.524  31.452  28.300  1.00  0.00     0.198 A 
ATOM     88  F   UNL A   1      35.570  29.544  29.190  1.00  0.00    -0.203 F 
ATOM     89  F   UNL A   1      35.608  34.907  28.190  1.00  0.00    -0.200 F 
ATOM     90  C   UNL A   1      34.523  32.815  28.047  1.00  0.00     0.200 A 
ATOM     91  F   UNL A   1      33.470  30.704  27.943  1.00  0.00    -0.200 F 
ATOM     92  F   UNL A   1      33.458  33.391  27.474  1.00  0.00    -0.200 F 
ENDBRANCH  59  82
ENDBRANCH  33  34
ENDBRANCH  26  28
ENDBRANCH  25  26
ENDBRANCH  24  25
ENDBRANCH  23  24
ENDBRANCH  22  23
ENDBRANCH   1  22
TORSDOF 17
ENDMDL
MODEL 2
REMARK VINA RESULT:     -11.7      9.490     15.237
REMARK SMILES O=C(Cc1ccc(NC(=O)C2CCCC2)cc1)OCCOCCOC(=O)c1ccc(-c2c3nc(c(-c4c(F)c(F)c(F)c(F)c4F)c4ccc([nH]4)c(-c4c(F)c(F)c(F)c(F)c4F)c4nc(c(-c5c(F)c(F)c(F)c(F)c5F)c5ccc2[nH]5)C=C4)C=C3)cc1
REMARK SMILES IDX 20 1 19 2 18 3 2 4 1 5 3 6 4 7 5 8 17 9 6 10 16 11 7 12 8 13
REMARK SMILES IDX 9 14 10 16 11 17 12 18 15 19 13 20 14 21 21 22 22 23 23 24
REMARK SMILES IDX 24 25 25 26 26 27 27 28 28 29 89 30 29 31 88 32 30 33 31 34
REMARK SMILES IDX 32 35 82 36 33 37 87 38 81 39 83 40 34 41 86 42 80 43 79 44
REMARK SMILES IDX 35 46 67 47 47 48 66 49 48 50 51 51 65 52 84 53 49 54 50 55
REMARK SMILES IDX 64 57 85 58 52 59 36 60 37 61 45 62 38 63 39 64 43 65 46 66
REMARK SMILES IDX 40 67 41 68 44 69 42 70 68 71 69 72 77 73 70 74 71 75 75 76
REMARK SMILES IDX 78 77 72 78 73 79 76 80 74 81 53 82 54 83 62 84 55 85 56 86
REMARK SMILES IDX 60 87 63 88 57 89 58 90 61 91 59 92
REMARK H PARENT 8 15 83 45 51 56
REMARK Flexibility Score: inf
ROOT
ATOM      1  C   UNL A   1      33.641  34.530  29.382  1.00  0.00     0.202 C 
ENDROOT
BRANCH   1   2
ATOM      2  C   UNL A   1      34.379  33.279  28.907  1.00  0.00     0.261 C 
BRANCH   2   3
ATOM      3  O   UNL A   1      33.591  32.371  28.128  1.00  0.00    -0.463 OA
BRANCH   3   4
ATOM      4  C   UNL A   1      34.014  31.161  27.685  1.00  0.00     0.310 C 
ATOM      5  O   UNL A   1      35.002  30.648  28.212  1.00  0.00    -0.252 OA
BRANCH   4   6
ATOM      6  C   UNL A   1      33.353  30.502  26.483  1.00  0.00     0.158 C 
BRANCH   6   7
ATOM      7  C   UNL A   1      33.113  29.026  26.631  1.00  0.00    -0.037 A 
ATOM      8  C   UNL A   1      34.047  28.098  26.157  1.00  0.00     0.006 A 
ATOM      9  C   UNL A   1      31.902  28.562  27.143  1.00  0.00     0.006 A 
ATOM     10  C   UNL A   1      33.667  26.772  25.942  1.00  0.00     0.026 A 
ATOM     11  C   UNL A   1      31.558  27.220  27.001  1.00  0.00     0.026 A 
ATOM     12  C   UNL A   1      32.385  26.355  26.277  1.00  0.00     0.041 A 
BRANCH  12  13
ATOM     13  N   UNL A   1      31.831  25.123  25.917  1.00  0.00    -0.326 N 
ATOM     14  C   UNL A   1      30.993  24.713  24.929  1.00  0.00     0.227 C 
ATOM     15  H   UNL A   1      32.110  24.391  26.511  1.00  0.00     0.169 HD
ATOM     16  O   UNL A   1      30.740  23.499  24.916  1.00  0.00    -0.274 OA
BRANCH  14  17
ATOM     17  C   UNL A   1      30.317  25.596  23.883  1.00  0.00     0.079 C 
ATOM     18  C   UNL A   1      29.204  26.544  24.307  1.00  0.00     0.013 C 
ATOM     19  C   UNL A   1      31.299  26.396  23.038  1.00  0.00     0.013 C 
ATOM     20  C   UNL A   1      29.187  27.631  23.240  1.00  0.00     0.001 C 
ATOM     21  C   UNL A   1      30.593  27.692  22.656  1.00  0.00     0.001 C 
ENDBRANCH  14  17
ENDBRANCH  12  13
ENDBRANCH   6   7
ENDBRANCH   4   6
ENDBRANCH   3   4
ENDBRANCH   2   3
ENDBRANCH   1   2
BRANCH   1  22
ATOM     22  O   UNL A   1      33.433  34.672  30.785  1.00  0.00    -0.374 OA
BRANCH  22  23
ATOM     23  C   UNL A   1      34.604  34.569  31.605  1.00  0.00     0.202 C 
BRANCH  23  24
ATOM     24  C   UNL A   1      34.464  33.740  32.884  1.00  0.00     0.261 C 
BRANCH  24  25
ATOM     25  O   UNL A   1      35.002  32.422  32.726  1.00  0.00    -0.460 OA
BRANCH  25  26
ATOM     26  C   UNL A   1      36.185  32.229  33.352  1.00  0.00     0.338 C 
ATOM     27  O   UNL A   1      36.455  32.478  34.520  1.00  0.00    -0.246 OA
BRANCH  26  28
ATOM     28  C   UNL A   1      37.098  31.482  32.470  1.00  0.00     0.060 A 
ATOM     29  C   UNL A   1      38.195  30.854  33.075  1.00  0.00     0.016 A 
ATOM     30  C   UNL A   1      36.911  31.411  31.086  1.00  0.00     0.016 A 
ATOM     31  C   UNL A   1      39.155  30.230  32.289  1.00  0.00     0.010 A 
ATOM     32  C   UNL A   1      37.875  30.780  30.297  1.00  0.00     0.010 A 
ATOM     33  C   UNL A   1      39.026  30.238  30.894  1.00  0.00    -0.014 A 
BRANCH  33  34
ATOM     34  C   UNL A   1      40.191  29.837  30.074  1.00  0.00     0.031 A 
ATOM     35  C   UNL A   1      41.292  30.837  29.848  1.00  0.00     0.074 A 
ATOM     36  C   UNL A   1      40.300  28.579  29.616  1.00  0.00     0.049 A 
ATOM     37  N   UNL A   1      42.426  30.697  29.213  1.00  0.00    -0.248 NA
ATOM     38  C   UNL A   1      41.085  32.179  30.418  1.00  0.00     0.031 C 
ATOM     39  C   UNL A   1      39.303  27.526  29.799  1.00  0.00     0.029 A 
ATOM     40  N   UNL A   1      41.305  27.974  28.906  1.00  0.00    -0.354 N 
ATOM     41  C   UNL A   1      43.069  31.925  29.316  1.00  0.00     0.074 A 
ATOM     42  C   UNL A   1      42.179  32.814  30.027  1.00  0.00     0.031 C 
ATOM     43  C   UNL A   1      39.747  26.401  29.214  1.00  0.00     0.029 A 
ATOM     44  C   UNL A   1      41.044  26.664  28.596  1.00  0.00     0.049 A 
ATOM     45  H   UNL A   1      42.134  28.437  28.645  1.00  0.00     0.167 HD
ATOM     46  C   UNL A   1      44.302  32.270  28.875  1.00  0.00     0.037 A 
ATOM     47  C   UNL A   1      41.770  25.785  27.881  1.00  0.00     0.037 A 
ATOM     48  C   UNL A   1      45.176  31.380  28.158  1.00  0.00     0.049 A 
ATOM     49  C   UNL A   1      43.115  26.213  27.351  1.00  0.00     0.074 A 
ATOM     50  C   UNL A   1      46.441  31.625  27.657  1.00  0.00     0.029 A 
ATOM     51  N   UNL A   1      44.867  30.065  27.835  1.00  0.00    -0.354 N 
ATOM     52  N   UNL A   1      43.726  27.367  27.473  1.00  0.00    -0.248 NA
ATOM     53  C   UNL A   1      43.876  25.208  26.598  1.00  0.00     0.031 C 
ATOM     54  C   UNL A   1      46.878  30.477  26.987  1.00  0.00     0.029 A 
ATOM     55  C   UNL A   1      45.911  29.493  27.126  1.00  0.00     0.049 A 
ATOM     56  H   UNL A   1      44.030  29.605  28.076  1.00  0.00     0.167 HD
ATOM     57  C   UNL A   1      44.950  27.222  26.832  1.00  0.00     0.074 A 
ATOM     58  C   UNL A   1      45.006  25.856  26.351  1.00  0.00     0.031 C 
ATOM     59  C   UNL A   1      45.939  28.133  26.650  1.00  0.00     0.037 A 
BRANCH  46  60
ATOM     60  C   UNL A   1      44.768  33.672  29.144  1.00  0.00     0.064 A 
ATOM     61  C   UNL A   1      44.460  34.729  28.272  1.00  0.00     0.173 A 
ATOM     62  C   UNL A   1      45.504  33.971  30.299  1.00  0.00     0.173 A 
ATOM     63  F   UNL A   1      43.774  34.496  27.143  1.00  0.00    -0.203 F 
ATOM     64  C   UNL A   1      44.892  36.028  28.537  1.00  0.00     0.198 A 
ATOM     65  C   UNL A   1      45.907  35.276  30.577  1.00  0.00     0.198 A 
ATOM     66  F   UNL A   1      45.827  32.999  31.166  1.00  0.00    -0.203 F 
ATOM     67  F   UNL A   1      44.626  37.011  27.666  1.00  0.00    -0.200 F 
ATOM     68  C   UNL A   1      45.606  36.301  29.694  1.00  0.00     0.200 A 
ATOM     69  F   UNL A   1      46.588  35.540  31.701  1.00  0.00    -0.200 F 
ATOM     70  F   UNL A   1      46.013  37.551  29.953  1.00  0.00    -0.200 F 
ENDBRANCH  46  60
BRANCH  47  71
ATOM     71  C   UNL A   1      41.239  24.421  27.615  1.00  0.00     0.064 A 
ATOM     72  C   UNL A   1      41.803  23.286  28.213  1.00  0.00     0.173 A 
ATOM     73  C   UNL A   1      40.163  24.226  26.735  1.00  0.00     0.173 A 
ATOM     74  F   UNL A   1      42.846  23.417  29.046  1.00  0.00    -0.203 F 
ATOM     75  C   UNL A   1      41.331  22.008  27.920  1.00  0.00     0.198 A 
ATOM     76  C   UNL A   1      39.670  22.951  26.470  1.00  0.00     0.198 A 
ATOM     77  F   UNL A   1      39.584  25.279  26.138  1.00  0.00    -0.203 F 
ATOM     78  F   UNL A   1      41.927  20.937  28.462  1.00  0.00    -0.200 F 
ATOM     79  C   UNL A   1      40.262  21.841  27.053  1.00  0.00     0.200 A 
ATOM     80  F   UNL A   1      38.625  22.798  25.644  1.00  0.00    -0.200 F 
ATOM     81  F   UNL A   1      39.807  20.613  26.773  1.00  0.00    -0.200 F 
ENDBRANCH  47  71
BRANCH  59  82
ATOM     82  C   UNL A   1      47.169  27.666  25.923  1.00  0.00     0.064 A 
ATOM     83  C   UNL A   1      47.255  27.698  24.522  1.00  0.00     0.173 A 
ATOM     84  C   UNL A   1      48.277  27.184  26.636  1.00  0.00     0.173 A 
ATOM     85  F   UNL A   1      46.219  28.140  23.793  1.00  0.00    -0.203 F 
ATOM     86  C   UNL A   1      48.383  27.218  23.863  1.00  0.00     0.198 A 
ATOM     87  C   UNL A   1      49.419  26.742  25.975  1.00  0.00     0.198 A 
ATOM     88  F   UNL A   1      48.254  27.143  27.977  1.00  0.00    -0.203 F 
ATOM     89  F   UNL A   1      48.411  27.190  22.523  1.00  0.00    -0.200 F 
ATOM     90  C   UNL A   1      49.465  26.745  24.589  1.00  0.00     0.200 A 
ATOM     91  F   UNL A   1      50.471  26.301  26.679  1.00  0.00    -0.200 F 
ATOM     92  F   UNL A   1      50.549  26.280  23.952  1.00  0.00    -0.200 F 
ENDBRANCH  59  82
ENDBRANCH  33  34
ENDBRANCH  26  28
ENDBRANCH  25  26
ENDBRANCH  24  25
ENDBRANCH  23  24
ENDBRANCH  22  23
ENDBRANCH   1  22
TORSDOF 17
ENDMDL
MODEL 3
REMARK VINA RESULT:     -11.7      7.207     12.481
REMARK SMILES O=C(Cc1ccc(NC(=O)C2CCCC2)cc1)OCCOCCOC(=O)c1ccc(-c2c3nc(c(-c4c(F)c(F)c(F)c(F)c4F)c4ccc([nH]4)c(-c4c(F)c(F)c(F)c(F)c4F)c4nc(c(-c5c(F)c(F)c(F)c(F)c5F)c5ccc2[nH]5)C=C4)C=C3)cc1
REMARK SMILES IDX 20 1 19 2 18 3 2 4 1 5 3 6 4 7 5 8 17 9 6 10 16 11 7 12 8 13
REMARK SMILES IDX 9 14 10 16 11 17 12 18 15 19 13 20 14 21 21 22 22 23 23 24
REMARK SMILES IDX 24 25 25 26 26 27 27 28 28 29 89 30 29 31 88 32 30 33 31 34
REMARK SMILES IDX 32 35 82 36 33 37 87 38 81 39 83 40 34 41 86 42 80 43 79 44
REMARK SMILES IDX 35 46 67 47 47 48 66 49 48 50 51 51 65 52 84 53 49 54 50 55
REMARK SMILES IDX 64 57 85 58 52 59 36 60 37 61 45 62 38 63 39 64 43 65 46 66
REMARK SMILES IDX 40 67 41 68 44 69 42 70 68 71 69 72 77 73 70 74 71 75 75 76
REMARK SMILES IDX 78 77 72 78 73 79 76 80 74 81 53 82 54 83 62 84 55 85 56 86
REMARK SMILES IDX 60 87 63 88 57 89 58 90 61 91 59 92
REMARK H PARENT 8 15 83 45 51 56
REMARK Flexibility Score: inf
ROOT
ATOM      1  C   UNL A   1      41.073  20.305  26.152  1.00  0.00     0.202 C 
ENDROOT
BRANCH   1   2
ATOM      2  C   UNL A   1      40.294  21.620  26.143  1.00  0.00     0.261 C 
BRANCH   2   3
ATOM      3  O   UNL A   1      38.886  21.491  26.370  1.00  0.00    -0.463 OA
BRANCH   3   4
ATOM      4  C   UNL A   1      37.930  21.657  25.425  1.00  0.00     0.310 C 
ATOM      5  O   UNL A   1      37.615  20.696  24.722  1.00  0.00    -0.252 OA
BRANCH   4   6
ATOM      6  C   UNL A   1      37.337  23.033  25.156  1.00  0.00     0.158 C 
BRANCH   6   7
ATOM      7  C   UNL A   1      35.835  23.072  25.112  1.00  0.00    -0.037 A 
ATOM      8  C   UNL A   1      35.156  23.128  23.891  1.00  0.00     0.006 A 
ATOM      9  C   UNL A   1      35.103  23.166  26.296  1.00  0.00     0.006 A 
ATOM     10  C   UNL A   1      33.825  23.546  23.850  1.00  0.00     0.026 A 
ATOM     11  C   UNL A   1      33.754  23.504  26.251  1.00  0.00     0.026 A 
ATOM     12  C   UNL A   1      33.150  23.828  25.031  1.00  0.00     0.041 A 
BRANCH  12  13
ATOM     13  N   UNL A   1      31.900  24.449  25.104  1.00  0.00    -0.326 N 
ATOM     14  C   UNL A   1      31.488  25.734  25.259  1.00  0.00     0.227 C 
ATOM     15  H   UNL A   1      31.153  23.814  25.025  1.00  0.00     0.169 HD
ATOM     16  O   UNL A   1      30.259  25.905  25.248  1.00  0.00    -0.274 OA
BRANCH  14  17
ATOM     17  C   UNL A   1      32.376  26.956  25.483  1.00  0.00     0.079 C 
ATOM     18  C   UNL A   1      33.614  27.153  24.618  1.00  0.00     0.013 C 
ATOM     19  C   UNL A   1      31.610  28.271  25.486  1.00  0.00     0.013 C 
ATOM     20  C   UNL A   1      33.894  28.649  24.667  1.00  0.00     0.001 C 
ATOM     21  C   UNL A   1      32.561  29.333  24.945  1.00  0.00     0.001 C 
ENDBRANCH  14  17
ENDBRANCH  12  13
ENDBRANCH   6   7
ENDBRANCH   4   6
ENDBRANCH   3   4
ENDBRANCH   2   3
ENDBRANCH   1   2
BRANCH   1  22
ATOM     22  O   UNL A   1      42.384  20.318  25.592  1.00  0.00    -0.374 OA
BRANCH  22  23
ATOM     23  C   UNL A   1      43.216  21.421  25.973  1.00  0.00     0.202 C 
BRANCH  23  24
ATOM     24  C   UNL A   1      43.935  22.151  24.837  1.00  0.00     0.261 C 
BRANCH  24  25
ATOM     25  O   UNL A   1      43.343  23.428  24.566  1.00  0.00    -0.460 OA
BRANCH  25  26
ATOM     26  C   UNL A   1      44.084  24.479  24.986  1.00  0.00     0.338 C 
ATOM     27  O   UNL A   1      45.192  24.813  24.587  1.00  0.00    -0.246 OA
BRANCH  26  28
ATOM     28  C   UNL A   1      43.283  25.319  25.895  1.00  0.00     0.060 A 
ATOM     29  C   UNL A   1      43.762  26.609  26.156  1.00  0.00     0.016 A 
ATOM     30  C   UNL A   1      42.110  24.858  26.499  1.00  0.00     0.016 A 
ATOM     31  C   UNL A   1      43.119  27.410  27.090  1.00  0.00     0.010 A 
ATOM     32  C   UNL A   1      41.461  25.666  27.436  1.00  0.00     0.010 A 
ATOM     33  C   UNL A   1      41.997  26.921  27.772  1.00  0.00    -0.014 A 
BRANCH  33  34
ATOM     34  C   UNL A   1      41.514  27.661  28.959  1.00  0.00     0.031 A 
ATOM     35  C   UNL A   1      42.288  27.548  30.244  1.00  0.00     0.074 A 
ATOM     36  C   UNL A   1      40.455  28.483  28.864  1.00  0.00     0.049 A 
ATOM     37  N   UNL A   1      42.087  28.142  31.392  1.00  0.00    -0.248 NA
ATOM     38  C   UNL A   1      43.448  26.641  30.233  1.00  0.00     0.031 C 
ATOM     39  C   UNL A   1      39.651  28.684  27.660  1.00  0.00     0.029 A 
ATOM     40  N   UNL A   1      39.881  29.307  29.796  1.00  0.00    -0.354 N 
ATOM     41  C   UNL A   1      43.098  27.690  32.231  1.00  0.00     0.074 A 
ATOM     42  C   UNL A   1      43.879  26.733  31.481  1.00  0.00     0.031 C 
ATOM     43  C   UNL A   1      38.682  29.576  27.929  1.00  0.00     0.029 A 
ATOM     44  C   UNL A   1      38.786  29.986  29.327  1.00  0.00     0.049 A 
ATOM     45  H   UNL A   1      40.223  29.402  30.716  1.00  0.00     0.167 HD
ATOM     46  C   UNL A   1      43.361  28.060  33.507  1.00  0.00     0.037 A 
ATOM     47  C   UNL A   1      37.957  30.834  29.964  1.00  0.00     0.037 A 
ATOM     48  C   UNL A   1      42.570  29.005  34.249  1.00  0.00     0.049 A 
ATOM     49  C   UNL A   1      38.239  31.184  31.403  1.00  0.00     0.074 A 
ATOM     50  C   UNL A   1      42.740  29.446  35.548  1.00  0.00     0.029 A 
ATOM     51  N   UNL A   1      41.448  29.654  33.750  1.00  0.00    -0.354 N 
ATOM     52  N   UNL A   1      39.211  30.771  32.183  1.00  0.00    -0.248 NA
ATOM     53  C   UNL A   1      37.318  32.130  32.044  1.00  0.00     0.031 C 
ATOM     54  C   UNL A   1      41.693  30.323  35.853  1.00  0.00     0.029 A 
ATOM     55  C   UNL A   1      40.906  30.478  34.723  1.00  0.00     0.049 A 
ATOM     56  H   UNL A   1      41.091  29.546  32.839  1.00  0.00     0.167 HD
ATOM     57  C   UNL A   1      39.030  31.422  33.396  1.00  0.00     0.074 A 
ATOM     58  C   UNL A   1      37.875  32.282  33.237  1.00  0.00     0.031 C 
ATOM     59  C   UNL A   1      39.749  31.319  34.543  1.00  0.00     0.037 A 
BRANCH  46  60
ATOM     60  C   UNL A   1      44.544  27.427  34.182  1.00  0.00     0.064 A 
ATOM     61  C   UNL A   1      45.829  27.987  34.095  1.00  0.00     0.173 A 
ATOM     62  C   UNL A   1      44.389  26.264  34.951  1.00  0.00     0.173 A 
ATOM     63  F   UNL A   1      46.036  29.089  33.358  1.00  0.00    -0.203 F 
ATOM     64  C   UNL A   1      46.916  27.393  34.733  1.00  0.00     0.198 A 
ATOM     65  C   UNL A   1      45.473  25.691  35.613  1.00  0.00     0.198 A 
ATOM     66  F   UNL A   1      43.185  25.685  35.068  1.00  0.00    -0.203 F 
ATOM     67  F   UNL A   1      48.141  27.920  34.595  1.00  0.00    -0.200 F 
ATOM     68  C   UNL A   1      46.735  26.252  35.498  1.00  0.00     0.200 A 
ATOM     69  F   UNL A   1      45.294  24.594  36.362  1.00  0.00    -0.200 F 
ATOM     70  F   UNL A   1      47.781  25.687  36.120  1.00  0.00    -0.200 F 
ENDBRANCH  46  60
BRANCH  47  71
ATOM     71  C   UNL A   1      36.779  31.399  29.254  1.00  0.00     0.064 A 
ATOM     72  C   UNL A   1      35.669  30.606  28.930  1.00  0.00     0.173 A 
ATOM     73  C   UNL A   1      36.751  32.747  28.865  1.00  0.00     0.173 A 
ATOM     74  F   UNL A   1      35.655  29.306  29.262  1.00  0.00    -0.203 F 
ATOM     75  C   UNL A   1      34.590  31.131  28.221  1.00  0.00     0.198 A 
ATOM     76  C   UNL A   1      35.657  33.279  28.186  1.00  0.00     0.198 A 
ATOM     77  F   UNL A   1      37.785  33.551  29.153  1.00  0.00    -0.203 F 
ATOM     78  F   UNL A   1      33.569  30.336  27.874  1.00  0.00    -0.200 F 
ATOM     79  C   UNL A   1      34.583  32.469  27.854  1.00  0.00     0.200 A 
ATOM     80  F   UNL A   1      35.648  34.577  27.849  1.00  0.00    -0.200 F 
ATOM     81  F   UNL A   1      33.545  32.974  27.173  1.00  0.00    -0.200 F 
ENDBRANCH  47  71
BRANCH  59  82
ATOM     82  C   UNL A   1      39.314  32.176  35.698  1.00  0.00     0.064 A 
ATOM     83  C   UNL A   1      39.797  33.483  35.870  1.00  0.00     0.173 A 
ATOM     84  C   UNL A   1      38.400  31.686  36.643  1.00  0.00     0.173 A 
ATOM     85  F   UNL A   1      40.681  33.996  35.001  1.00  0.00    -0.203 F 
ATOM     86  C   UNL A   1      39.420  34.246  36.972  1.00  0.00     0.198 A 
ATOM     87  C   UNL A   1      37.995  32.466  37.722  1.00  0.00     0.198 A 
ATOM     88  F   UNL A   1      37.897  30.448  36.520  1.00  0.00    -0.203 F 
ATOM     89  F   UNL A   1      39.952  35.462  37.154  1.00  0.00    -0.200 F 
ATOM     90  C   UNL A   1      38.516  33.740  37.893  1.00  0.00     0.200 A 
ATOM     91  F   UNL A   1      37.109  31.982  38.603  1.00  0.00    -0.200 F 
ATOM     92  F   UNL A   1      38.158  34.475  38.955  1.00  0.00    -0.200 F 
ENDBRANCH  59  82
ENDBRANCH  33  34
ENDBRANCH  26  28
ENDBRANCH  25  26
ENDBRANCH  24  25
ENDBRANCH  23  24
ENDBRANCH  22  23
ENDBRANCH   1  22
TORSDOF 17
ENDMDL
