MODEL 1
REMARK VINA RESULT:     -12.3      0.000      0.000
REMARK SMILES COc1cccc(N2CCN(c3ccc(NC(=O)c4ccc(F)cc4)c(C(=O)OCCOCCOC(=O)c4ccc(-c5c6nc(c(-c7c(F)c(F)c(F)c(F)c7F)c7ccc([nH]7)c(-c7c(F)c(F)c(F)c(F)c7F)c7nc(c(-c8c(F)c(F)c(F)c(F)c8F)c8ccc5[nH]8)C=C7)C=C6)cc4)c3)CC2)c1
REMARK SMILES IDX 31 1 30 2 29 3 27 4 28 5 26 6 12 7 13 8 101 9 14 10 15 11
REMARK SMILES IDX 11 12 8 13 9 14 103 15 10 16 102 17 7 18 3 19 4 20 104 21
REMARK SMILES IDX 5 22 6 23 2 24 1 25 16 26 17 27 18 29 19 30 20 31 25 32
REMARK SMILES IDX 21 33 24 34 22 35 23 36 32 37 33 38 34 39 35 40 36 41 37 42
REMARK SMILES IDX 38 43 39 44 100 45 40 46 99 47 41 48 42 49 43 50 93 51 44 52
REMARK SMILES IDX 98 53 92 54 94 55 45 56 97 57 91 58 90 59 46 61 78 62 58 63
REMARK SMILES IDX 77 64 59 65 62 66 76 67 95 68 60 69 61 70 75 72 96 73 63 74
REMARK SMILES IDX 47 75 48 76 56 77 49 78 50 79 54 80 57 81 51 82 52 83 55 84
REMARK SMILES IDX 53 85 79 86 80 87 88 88 81 89 82 90 86 91 89 92 83 93 84 94
REMARK SMILES IDX 87 95 85 96 64 97 65 98 73 99 66 100 67 101 71 102 74 103
REMARK SMILES IDX 68 104 69 105 72 106 70 107
REMARK H PARENT 16 28 94 60 62 71
REMARK Flexibility Score: inf
ROOT
ATOM      1  C   UNL A   1      35.816  23.685  24.804  1.00  0.00     0.202 C 
ENDROOT
BRANCH   1   2
ATOM      2  C   UNL A   1      34.904  24.742  24.168  1.00  0.00     0.261 C 
BRANCH   2   3
ATOM      3  O   UNL A   1      34.366  24.283  22.916  1.00  0.00    -0.460 OA
BRANCH   3   4
ATOM      4  C   UNL A   1      33.540  25.152  22.281  1.00  0.00     0.340 C 
ATOM      5  O   UNL A   1      33.327  25.209  21.079  1.00  0.00    -0.246 OA
BRANCH   4   6
ATOM      6  C   UNL A   1      32.719  25.869  23.285  1.00  0.00     0.085 A 
ATOM      7  C   UNL A   1      32.488  27.752  24.840  1.00  0.00     0.038 A 
ATOM      8  C   UNL A   1      31.343  27.121  25.333  1.00  0.00     0.028 A 
ATOM      9  C   UNL A   1      33.184  27.085  23.824  1.00  0.00     0.043 A 
ATOM     10  C   UNL A   1      30.890  25.902  24.823  1.00  0.00     0.029 A 
ATOM     11  C   UNL A   1      31.520  25.292  23.743  1.00  0.00     0.056 A 
BRANCH   7  12
ATOM     12  N   UNL A   1      32.927  28.941  25.369  1.00  0.00    -0.368 N 
ATOM     13  N   UNL A   1      33.434  30.973  27.279  1.00  0.00    -0.368 N 
ATOM     14  C   UNL A   1      32.065  30.785  26.788  1.00  0.00     0.138 C 
ATOM     15  C   UNL A   1      34.317  29.800  27.240  1.00  0.00     0.138 C 
ATOM     16  C   UNL A   1      32.095  30.164  25.373  1.00  0.00     0.138 C 
ATOM     17  C   UNL A   1      34.311  29.151  25.839  1.00  0.00     0.138 C 
BRANCH  13  18
ATOM     18  C   UNL A   1      33.857  32.196  27.739  1.00  0.00     0.040 A 
ATOM     19  C   UNL A   1      33.359  34.446  28.537  1.00  0.00     0.120 A 
ATOM     20  C   UNL A   1      34.721  34.704  28.668  1.00  0.00     0.046 A 
ATOM     21  C   UNL A   1      32.935  33.206  28.051  1.00  0.00     0.072 A 
ATOM     22  C   UNL A   1      35.653  33.714  28.368  1.00  0.00     0.006 A 
ATOM     23  C   UNL A   1      35.218  32.465  27.921  1.00  0.00     0.026 A 
BRANCH  19  24
ATOM     24  O   UNL A   1      32.524  35.481  28.862  1.00  0.00    -0.497 OA
ATOM     25  C   UNL A   1      32.892  36.211  30.028  1.00  0.00     0.278 C 
ENDBRANCH  19  24
ENDBRANCH  13  18
ENDBRANCH   7  12
BRANCH  11  26
ATOM     26  N   UNL A   1      31.025  24.101  23.157  1.00  0.00    -0.321 N 
ATOM     27  C   UNL A   1      31.317  22.773  23.394  1.00  0.00     0.255 C 
ATOM     28  H   UNL A   1      30.351  24.246  22.455  1.00  0.00     0.170 HD
ATOM     29  O   UNL A   1      30.984  21.904  22.592  1.00  0.00    -0.269 OA
BRANCH  27  30
ATOM     30  C   UNL A   1      31.987  22.358  24.646  1.00  0.00     0.040 A 
ATOM     31  C   UNL A   1      32.715  21.162  24.655  1.00  0.00     0.017 A 
ATOM     32  C   UNL A   1      31.934  23.167  25.792  1.00  0.00     0.017 A 
ATOM     33  C   UNL A   1      33.462  20.822  25.782  1.00  0.00     0.040 A 
ATOM     34  C   UNL A   1      32.697  22.830  26.909  1.00  0.00     0.040 A 
ATOM     35  C   UNL A   1      33.462  21.668  26.889  1.00  0.00     0.123 A 
ATOM     36  F   UNL A   1      34.221  21.364  27.949  1.00  0.00    -0.207 F 
ENDBRANCH  27  30
ENDBRANCH  11  26
ENDBRANCH   4   6
ENDBRANCH   3   4
ENDBRANCH   2   3
ENDBRANCH   1   2
BRANCH   1  37
ATOM     37  O   UNL A   1      35.885  22.419  24.150  1.00  0.00    -0.374 OA
BRANCH  37  38
ATOM     38  C   UNL A   1      37.180  21.882  23.887  1.00  0.00     0.202 C 
BRANCH  38  39
ATOM     39  C   UNL A   1      37.699  20.800  24.841  1.00  0.00     0.261 C 
BRANCH  39  40
ATOM     40  O   UNL A   1      38.126  21.338  26.105  1.00  0.00    -0.460 OA
BRANCH  40  41
ATOM     41  C   UNL A   1      39.464  21.292  26.305  1.00  0.00     0.338 C 
ATOM     42  O   UNL A   1      40.244  20.438  25.914  1.00  0.00    -0.246 OA
BRANCH  41  43
ATOM     43  C   UNL A   1      39.926  22.536  26.945  1.00  0.00     0.060 A 
ATOM     44  C   UNL A   1      39.297  23.725  26.558  1.00  0.00     0.016 A 
ATOM     45  C   UNL A   1      41.003  22.558  27.834  1.00  0.00     0.016 A 
ATOM     46  C   UNL A   1      39.781  24.948  27.011  1.00  0.00     0.010 A 
ATOM     47  C   UNL A   1      41.490  23.789  28.287  1.00  0.00     0.010 A 
ATOM     48  C   UNL A   1      40.906  24.991  27.845  1.00  0.00    -0.014 A 
BRANCH  48  49
ATOM     49  C   UNL A   1      41.535  26.302  28.140  1.00  0.00     0.031 A 
ATOM     50  C   UNL A   1      42.902  26.604  27.592  1.00  0.00     0.074 A 
ATOM     51  C   UNL A   1      40.872  27.233  28.847  1.00  0.00     0.049 A 
ATOM     52  N   UNL A   1      43.625  27.691  27.709  1.00  0.00    -0.248 NA
ATOM     53  C   UNL A   1      43.546  25.537  26.810  1.00  0.00     0.031 C 
ATOM     54  C   UNL A   1      39.535  27.065  29.411  1.00  0.00     0.029 A 
ATOM     55  N   UNL A   1      41.235  28.504  29.211  1.00  0.00    -0.354 N 
ATOM     56  C   UNL A   1      44.805  27.436  27.023  1.00  0.00     0.074 A 
ATOM     57  C   UNL A   1      44.719  26.080  26.524  1.00  0.00     0.031 C 
ATOM     58  C   UNL A   1      39.191  28.191  30.058  1.00  0.00     0.029 A 
ATOM     59  C   UNL A   1      40.294  29.146  29.975  1.00  0.00     0.049 A 
ATOM     60  H   UNL A   1      42.090  28.917  28.949  1.00  0.00     0.167 HD
ATOM     61  C   UNL A   1      45.860  28.262  26.818  1.00  0.00     0.037 A 
ATOM     62  C   UNL A   1      40.328  30.360  30.557  1.00  0.00     0.037 A 
ATOM     63  C   UNL A   1      45.939  29.613  27.313  1.00  0.00     0.049 A 
ATOM     64  C   UNL A   1      41.529  31.245  30.352  1.00  0.00     0.074 A 
ATOM     65  C   UNL A   1      46.947  30.544  27.128  1.00  0.00     0.029 A 
ATOM     66  N   UNL A   1      44.975  30.223  28.105  1.00  0.00    -0.354 N 
ATOM     67  N   UNL A   1      42.621  31.015  29.663  1.00  0.00    -0.248 NA
ATOM     68  C   UNL A   1      41.497  32.565  30.996  1.00  0.00     0.031 C 
ATOM     69  C   UNL A   1      46.623  31.692  27.858  1.00  0.00     0.029 A 
ATOM     70  C   UNL A   1      45.382  31.505  28.444  1.00  0.00     0.049 A 
ATOM     71  H   UNL A   1      44.128  29.807  28.384  1.00  0.00     0.167 HD
ATOM     72  C   UNL A   1      43.393  32.165  29.770  1.00  0.00     0.074 A 
ATOM     73  C   UNL A   1      42.632  33.100  30.573  1.00  0.00     0.031 C 
ATOM     74  C   UNL A   1      44.619  32.424  29.251  1.00  0.00     0.037 A 
BRANCH  61  75
ATOM     75  C   UNL A   1      47.030  27.717  26.049  1.00  0.00     0.064 A 
ATOM     76  C   UNL A   1      47.096  27.785  24.649  1.00  0.00     0.173 A 
ATOM     77  C   UNL A   1      48.113  27.137  26.728  1.00  0.00     0.173 A 
ATOM     78  F   UNL A   1      46.084  28.318  23.950  1.00  0.00    -0.203 F 
ATOM     79  C   UNL A   1      48.187  27.265  23.956  1.00  0.00     0.198 A 
ATOM     80  C   UNL A   1      49.217  26.647  26.034  1.00  0.00     0.198 A 
ATOM     81  F   UNL A   1      48.104  27.049  28.066  1.00  0.00    -0.203 F 
ATOM     82  F   UNL A   1      48.205  27.292  22.617  1.00  0.00    -0.200 F 
ATOM     83  C   UNL A   1      49.249  26.703  24.649  1.00  0.00     0.200 A 
ATOM     84  F   UNL A   1      50.247  26.117  26.707  1.00  0.00    -0.200 F 
ATOM     85  F   UNL A   1      50.300  26.206  23.983  1.00  0.00    -0.200 F 
ENDBRANCH  61  75
BRANCH  62  86
ATOM     86  C   UNL A   1      39.186  30.808  31.396  1.00  0.00     0.064 A 
ATOM     87  C   UNL A   1      38.137  31.564  30.858  1.00  0.00     0.173 A 
ATOM     88  C   UNL A   1      39.126  30.489  32.762  1.00  0.00     0.173 A 
ATOM     89  F   UNL A   1      38.160  31.914  29.564  1.00  0.00    -0.203 F 
ATOM     90  C   UNL A   1      37.080  32.001  31.656  1.00  0.00     0.198 A 
ATOM     91  C   UNL A   1      38.054  30.898  33.552  1.00  0.00     0.198 A 
ATOM     92  F   UNL A   1      40.103  29.765  33.327  1.00  0.00    -0.203 F 
ATOM     93  F   UNL A   1      36.114  32.763  31.126  1.00  0.00    -0.200 F 
ATOM     94  C   UNL A   1      37.036  31.660  33.000  1.00  0.00     0.200 A 
ATOM     95  F   UNL A   1      38.008  30.553  34.845  1.00  0.00    -0.200 F 
ATOM     96  F   UNL A   1      36.016  32.074  33.764  1.00  0.00    -0.200 F 
ENDBRANCH  62  86
BRANCH  74  97
ATOM     97  C   UNL A   1      45.203  33.785  29.513  1.00  0.00     0.064 A 
ATOM     98  C   UNL A   1      44.952  34.874  28.664  1.00  0.00     0.173 A 
ATOM     99  C   UNL A   1      46.013  34.007  30.638  1.00  0.00     0.173 A 
ATOM    100  F   UNL A   1      44.195  34.715  27.568  1.00  0.00    -0.203 F 
ATOM    101  C   UNL A   1      45.522  36.122  28.909  1.00  0.00     0.198 A 
ATOM    102  C   UNL A   1      46.551  35.264  30.899  1.00  0.00     0.198 A 
ATOM    103  F   UNL A   1      46.278  33.005  31.488  1.00  0.00    -0.203 F 
ATOM    104  F   UNL A   1      45.320  37.129  28.049  1.00  0.00    -0.200 F 
ATOM    105  C   UNL A   1      46.316  36.317  30.029  1.00  0.00     0.200 A 
ATOM    106  F   UNL A   1      47.305  35.455  31.991  1.00  0.00    -0.200 F 
ATOM    107  F   UNL A   1      46.863  37.518  30.262  1.00  0.00    -0.200 F 
ENDBRANCH  74  97
ENDBRANCH  48  49
ENDBRANCH  41  43
ENDBRANCH  40  41
ENDBRANCH  39  40
ENDBRANCH  38  39
ENDBRANCH  37  38
ENDBRANCH   1  37
TORSDOF 19
ENDMDL
MODEL 2
REMARK VINA RESULT:     -11.8      4.552     10.974
REMARK SMILES COc1cccc(N2CCN(c3ccc(NC(=O)c4ccc(F)cc4)c(C(=O)OCCOCCOC(=O)c4ccc(-c5c6nc(c(-c7c(F)c(F)c(F)c(F)c7F)c7ccc([nH]7)c(-c7c(F)c(F)c(F)c(F)c7F)c7nc(c(-c8c(F)c(F)c(F)c(F)c8F)c8ccc5[nH]8)C=C7)C=C6)cc4)c3)CC2)c1
REMARK SMILES IDX 31 1 30 2 29 3 27 4 28 5 26 6 12 7 13 8 101 9 14 10 15 11
REMARK SMILES IDX 11 12 8 13 9 14 103 15 10 16 102 17 7 18 3 19 4 20 104 21
REMARK SMILES IDX 5 22 6 23 2 24 1 25 16 26 17 27 18 29 19 30 20 31 25 32
REMARK SMILES IDX 21 33 24 34 22 35 23 36 32 37 33 38 34 39 35 40 36 41 37 42
REMARK SMILES IDX 38 43 39 44 100 45 40 46 99 47 41 48 42 49 43 50 93 51 44 52
REMARK SMILES IDX 98 53 92 54 94 55 45 56 97 57 91 58 90 59 46 61 78 62 58 63
REMARK SMILES IDX 77 64 59 65 62 66 76 67 95 68 60 69 61 70 75 72 96 73 63 74
REMARK SMILES IDX 47 75 48 76 56 77 49 78 50 79 54 80 57 81 51 82 52 83 55 84
REMARK SMILES IDX 53 85 79 86 80 87 88 88 81 89 82 90 86 91 89 92 83 93 84 94
REMARK SMILES IDX 87 95 85 96 64 97 65 98 73 99 66 100 67 101 71 102 74 103
REMARK SMILES IDX 68 104 69 105 72 106 70 107
REMARK H PARENT 16 28 94 60 62 71
REMARK Flexibility Score: inf
ROOT
ATOM      1  C   UNL A   1      34.604  30.872  27.845  1.00  0.00     0.202 C 
ENDROOT
BRANCH   1   2
ATOM      2  C   UNL A   1      35.399  29.727  27.207  1.00  0.00     0.261 C 
BRANCH   2   3
ATOM      3  O   UNL A   1      34.610  28.527  27.121  1.00  0.00    -0.460 OA
BRANCH   3   4
ATOM      4  C   UNL A   1      34.144  28.222  25.885  1.00  0.00     0.340 C 
ATOM      5  O   UNL A   1      34.715  28.416  24.822  1.00  0.00    -0.246 OA
BRANCH   4   6
ATOM      6  C   UNL A   1      32.937  27.372  26.014  1.00  0.00     0.085 A 
ATOM      7  C   UNL A   1      31.894  25.166  25.760  1.00  0.00     0.038 A 
ATOM      8  C   UNL A   1      30.668  25.789  26.005  1.00  0.00     0.028 A 
ATOM      9  C   UNL A   1      33.024  25.993  25.741  1.00  0.00     0.043 A 
ATOM     10  C   UNL A   1      30.567  27.161  26.249  1.00  0.00     0.029 A 
ATOM     11  C   UNL A   1      31.701  27.963  26.335  1.00  0.00     0.056 A 
BRANCH   7  12
ATOM     12  N   UNL A   1      31.968  23.819  25.503  1.00  0.00    -0.368 N 
ATOM     13  N   UNL A   1      32.829  21.378  24.346  1.00  0.00    -0.368 N 
ATOM     14  C   UNL A   1      32.002  22.290  23.549  1.00  0.00     0.138 C 
ATOM     15  C   UNL A   1      33.639  21.983  25.413  1.00  0.00     0.138 C 
ATOM     16  C   UNL A   1      31.127  23.158  24.483  1.00  0.00     0.138 C 
ATOM     17  C   UNL A   1      32.775  22.887  26.317  1.00  0.00     0.138 C 
BRANCH  13  18
ATOM     18  C   UNL A   1      32.826  20.027  24.102  1.00  0.00     0.040 A 
ATOM     19  C   UNL A   1      33.223  17.740  24.846  1.00  0.00     0.120 A 
ATOM     20  C   UNL A   1      32.830  17.262  23.599  1.00  0.00     0.046 A 
ATOM     21  C   UNL A   1      33.242  19.117  25.083  1.00  0.00     0.072 A 
ATOM     22  C   UNL A   1      32.407  18.148  22.612  1.00  0.00     0.006 A 
ATOM     23  C   UNL A   1      32.393  19.519  22.871  1.00  0.00     0.026 A 
BRANCH  19  24
ATOM     24  O   UNL A   1      33.615  16.789  25.750  1.00  0.00    -0.497 OA
ATOM     25  C   UNL A   1      34.587  15.866  25.272  1.00  0.00     0.278 C 
ENDBRANCH  19  24
ENDBRANCH  13  18
ENDBRANCH   7  12
BRANCH  11  26
ATOM     26  N   UNL A   1      31.625  29.339  26.667  1.00  0.00    -0.321 N 
ATOM     27  C   UNL A   1      31.318  30.449  25.908  1.00  0.00     0.255 C 
ATOM     28  H   UNL A   1      31.829  29.538  27.609  1.00  0.00     0.170 HD
ATOM     29  O   UNL A   1      31.577  31.579  26.315  1.00  0.00    -0.269 OA
BRANCH  27  30
ATOM     30  C   UNL A   1      30.619  30.309  24.612  1.00  0.00     0.040 A 
ATOM     31  C   UNL A   1      29.529  31.145  24.341  1.00  0.00     0.017 A 
ATOM     32  C   UNL A   1      31.065  29.389  23.650  1.00  0.00     0.017 A 
ATOM     33  C   UNL A   1      28.942  31.121  23.077  1.00  0.00     0.040 A 
ATOM     34  C   UNL A   1      30.486  29.383  22.381  1.00  0.00     0.040 A 
ATOM     35  C   UNL A   1      29.439  30.256  22.104  1.00  0.00     0.123 A 
ATOM     36  F   UNL A   1      28.907  30.273  20.876  1.00  0.00    -0.207 F 
ENDBRANCH  27  30
ENDBRANCH  11  26
ENDBRANCH   4   6
ENDBRANCH   3   4
ENDBRANCH   2   3
ENDBRANCH   1   2
BRANCH   1  37
ATOM     37  O   UNL A   1      35.331  32.056  28.172  1.00  0.00    -0.374 OA
BRANCH  37  38
ATOM     38  C   UNL A   1      34.809  33.299  27.708  1.00  0.00     0.202 C 
BRANCH  38  39
ATOM     39  C   UNL A   1      33.462  33.755  28.282  1.00  0.00     0.261 C 
BRANCH  39  40
ATOM     40  O   UNL A   1      33.551  35.024  28.953  1.00  0.00    -0.460 OA
BRANCH  40  41
ATOM     41  C   UNL A   1      33.283  34.971  30.279  1.00  0.00     0.338 C 
ATOM     42  O   UNL A   1      32.234  35.256  30.836  1.00  0.00    -0.246 OA
BRANCH  41  43
ATOM     43  C   UNL A   1      34.405  34.348  31.002  1.00  0.00     0.060 A 
ATOM     44  C   UNL A   1      35.676  34.902  30.808  1.00  0.00     0.016 A 
ATOM     45  C   UNL A   1      34.242  33.199  31.778  1.00  0.00     0.016 A 
ATOM     46  C   UNL A   1      36.798  34.275  31.340  1.00  0.00     0.010 A 
ATOM     47  C   UNL A   1      35.372  32.568  32.311  1.00  0.00     0.010 A 
ATOM     48  C   UNL A   1      36.658  33.081  32.060  1.00  0.00    -0.014 A 
BRANCH  48  49
ATOM     49  C   UNL A   1      37.874  32.317  32.431  1.00  0.00     0.031 A 
ATOM     50  C   UNL A   1      38.559  32.609  33.738  1.00  0.00     0.074 A 
ATOM     51  C   UNL A   1      38.333  31.337  31.634  1.00  0.00     0.049 A 
ATOM     52  N   UNL A   1      39.618  32.048  34.266  1.00  0.00    -0.248 NA
ATOM     53  C   UNL A   1      37.976  33.682  34.558  1.00  0.00     0.031 C 
ATOM     54  C   UNL A   1      37.743  30.947  30.356  1.00  0.00     0.029 A 
ATOM     55  N   UNL A   1      39.404  30.492  31.784  1.00  0.00    -0.354 N 
ATOM     56  C   UNL A   1      39.829  32.701  35.474  1.00  0.00     0.074 A 
ATOM     57  C   UNL A   1      38.812  33.726  35.583  1.00  0.00     0.031 C 
ATOM     58  C   UNL A   1      38.464  29.941  29.833  1.00  0.00     0.029 A 
ATOM     59  C   UNL A   1      39.580  29.637  30.726  1.00  0.00     0.049 A 
ATOM     60  H   UNL A   1      39.990  30.499  32.576  1.00  0.00     0.167 HD
ATOM     61  C   UNL A   1      40.778  32.461  36.411  1.00  0.00     0.037 A 
ATOM     62  C   UNL A   1      40.544  28.725  30.497  1.00  0.00     0.037 A 
ATOM     63  C   UNL A   1      41.786  31.437  36.300  1.00  0.00     0.049 A 
ATOM     64  C   UNL A   1      41.615  28.505  31.533  1.00  0.00     0.074 A 
ATOM     65  C   UNL A   1      42.768  31.089  37.211  1.00  0.00     0.029 A 
ATOM     66  N   UNL A   1      41.949  30.604  35.201  1.00  0.00    -0.354 N 
ATOM     67  N   UNL A   1      41.780  29.095  32.693  1.00  0.00    -0.248 NA
ATOM     68  C   UNL A   1      42.626  27.483  31.233  1.00  0.00     0.031 C 
ATOM     69  C   UNL A   1      43.562  30.090  36.638  1.00  0.00     0.029 A 
ATOM     70  C   UNL A   1      43.036  29.767  35.398  1.00  0.00     0.049 A 
ATOM     71  H   UNL A   1      41.377  30.607  34.400  1.00  0.00     0.167 HD
ATOM     72  C   UNL A   1      42.896  28.501  33.270  1.00  0.00     0.074 A 
ATOM     73  C   UNL A   1      43.353  27.488  32.341  1.00  0.00     0.031 C 
ATOM     74  C   UNL A   1      43.487  28.768  34.461  1.00  0.00     0.037 A 
BRANCH  61  75
ATOM     75  C   UNL A   1      40.791  33.342  37.627  1.00  0.00     0.064 A 
ATOM     76  C   UNL A   1      39.906  33.144  38.698  1.00  0.00     0.173 A 
ATOM     77  C   UNL A   1      41.721  34.389  37.732  1.00  0.00     0.173 A 
ATOM     78  F   UNL A   1      38.990  32.166  38.646  1.00  0.00    -0.203 F 
ATOM     79  C   UNL A   1      39.931  33.979  39.813  1.00  0.00     0.198 A 
ATOM     80  C   UNL A   1      41.764  35.201  38.863  1.00  0.00     0.198 A 
ATOM     81  F   UNL A   1      42.593  34.621  36.740  1.00  0.00    -0.203 F 
ATOM     82  F   UNL A   1      39.041  33.805  40.800  1.00  0.00    -0.200 F 
ATOM     83  C   UNL A   1      40.863  35.003  39.897  1.00  0.00     0.200 A 
ATOM     84  F   UNL A   1      42.675  36.181  38.947  1.00  0.00    -0.200 F 
ATOM     85  F   UNL A   1      40.889  35.803  40.972  1.00  0.00    -0.200 F 
ENDBRANCH  61  75
BRANCH  62  86
ATOM     86  C   UNL A   1      40.543  27.955  29.226  1.00  0.00     0.064 A 
ATOM     87  C   UNL A   1      41.309  28.362  28.126  1.00  0.00     0.173 A 
ATOM     88  C   UNL A   1      39.767  26.794  29.086  1.00  0.00     0.173 A 
ATOM     89  F   UNL A   1      42.049  29.478  28.202  1.00  0.00    -0.203 F 
ATOM     90  C   UNL A   1      41.286  27.649  26.928  1.00  0.00     0.198 A 
ATOM     91  C   UNL A   1      39.769  26.063  27.900  1.00  0.00     0.198 A 
ATOM     92  F   UNL A   1      39.017  26.359  30.110  1.00  0.00    -0.203 F 
ATOM     93  F   UNL A   1      41.991  28.086  25.877  1.00  0.00    -0.200 F 
ATOM     94  C   UNL A   1      40.522  26.496  26.820  1.00  0.00     0.200 A 
ATOM     95  F   UNL A   1      39.042  24.942  27.805  1.00  0.00    -0.200 F 
ATOM     96  F   UNL A   1      40.507  25.806  25.671  1.00  0.00    -0.200 F 
ENDBRANCH  62  86
BRANCH  74  97
ATOM     97  C   UNL A   1      44.679  27.933  34.839  1.00  0.00     0.064 A 
ATOM     98  C   UNL A   1      45.990  28.334  34.539  1.00  0.00     0.173 A 
ATOM     99  C   UNL A   1      44.509  26.719  35.524  1.00  0.00     0.173 A 
ATOM    100  F   UNL A   1      46.210  29.479  33.874  1.00  0.00    -0.203 F 
ATOM    101  C   UNL A   1      47.081  27.535  34.874  1.00  0.00     0.198 A 
ATOM    102  C   UNL A   1      45.604  25.940  35.890  1.00  0.00     0.198 A 
ATOM    103  F   UNL A   1      43.280  26.290  35.845  1.00  0.00    -0.203 F 
ATOM    104  F   UNL A   1      48.318  27.910  34.520  1.00  0.00    -0.200 F 
ATOM    105  C   UNL A   1      46.887  26.342  35.554  1.00  0.00     0.200 A 
ATOM    106  F   UNL A   1      45.416  24.795  36.562  1.00  0.00    -0.200 F 
ATOM    107  F   UNL A   1      47.938  25.575  35.876  1.00  0.00    -0.200 F 
ENDBRANCH  74  97
ENDBRANCH  48  49
ENDBRANCH  41  43
ENDBRANCH  40  41
ENDBRANCH  39  40
ENDBRANCH  38  39
ENDBRANCH  37  38
ENDBRANCH   1  37
TORSDOF 19
ENDMDL
MODEL 3
REMARK VINA RESULT:     -11.5      6.544     12.248
REMARK SMILES COc1cccc(N2CCN(c3ccc(NC(=O)c4ccc(F)cc4)c(C(=O)OCCOCCOC(=O)c4ccc(-c5c6nc(c(-c7c(F)c(F)c(F)c(F)c7F)c7ccc([nH]7)c(-c7c(F)c(F)c(F)c(F)c7F)c7nc(c(-c8c(F)c(F)c(F)c(F)c8F)c8ccc5[nH]8)C=C7)C=C6)cc4)c3)CC2)c1
REMARK SMILES IDX 31 1 30 2 29 3 27 4 28 5 26 6 12 7 13 8 101 9 14 10 15 11
REMARK SMILES IDX 11 12 8 13 9 14 103 15 10 16 102 17 7 18 3 19 4 20 104 21
REMARK SMILES IDX 5 22 6 23 2 24 1 25 16 26 17 27 18 29 19 30 20 31 25 32
REMARK SMILES IDX 21 33 24 34 22 35 23 36 32 37 33 38 34 39 35 40 36 41 37 42
REMARK SMILES IDX 38 43 39 44 100 45 40 46 99 47 41 48 42 49 43 50 93 51 44 52
REMARK SMILES IDX 98 53 92 54 94 55 45 56 97 57 91 58 90 59 46 61 78 62 58 63
REMARK SMILES IDX 77 64 59 65 62 66 76 67 95 68 60 69 61 70 75 72 96 73 63 74
REMARK SMILES IDX 47 75 48 76 56 77 49 78 50 79 54 80 57 81 51 82 52 83 55 84
REMARK SMILES IDX 53 85 79 86 80 87 88 88 81 89 82 90 86 91 89 92 83 93 84 94
REMARK SMILES IDX 87 95 85 96 64 97 65 98 73 99 66 100 67 101 71 102 74 103
REMARK SMILES IDX 68 104 69 105 72 106 70 107
REMARK H PARENT 16 28 94 60 62 71
REMARK Flexibility Score: inf
ROOT
ATOM      1  C   UNL A   1      33.254  36.300  29.102  1.00  0.00     0.202 C 
ENDROOT
BRANCH   1   2
ATOM      2  C   UNL A   1      34.471  35.691  28.395  1.00  0.00     0.261 C 
BRANCH   2   3
ATOM      3  O   UNL A   1      34.481  34.258  28.513  1.00  0.00    -0.460 OA
BRANCH   3   4
ATOM      4  C   UNL A   1      35.637  33.717  28.971  1.00  0.00     0.340 C 
ATOM      5  O   UNL A   1      36.392  34.203  29.800  1.00  0.00    -0.246 OA
BRANCH   4   6
ATOM      6  C   UNL A   1      35.734  32.311  28.512  1.00  0.00     0.085 A 
ATOM      7  C   UNL A   1      34.620  30.329  27.591  1.00  0.00     0.038 A 
ATOM      8  C   UNL A   1      35.794  29.622  27.864  1.00  0.00     0.028 A 
ATOM      9  C   UNL A   1      34.604  31.681  27.954  1.00  0.00     0.043 A 
ATOM     10  C   UNL A   1      36.910  30.231  28.441  1.00  0.00     0.029 A 
ATOM     11  C   UNL A   1      36.931  31.598  28.705  1.00  0.00     0.056 A 
BRANCH   7  12
ATOM     12  N   UNL A   1      33.527  29.706  27.039  1.00  0.00    -0.368 N 
ATOM     13  N   UNL A   1      31.920  28.350  25.138  1.00  0.00    -0.368 N 
ATOM     14  C   UNL A   1      32.195  29.777  24.948  1.00  0.00     0.138 C 
ATOM     15  C   UNL A   1      32.911  27.583  25.906  1.00  0.00     0.138 C 
ATOM     16  C   UNL A   1      32.473  30.446  26.313  1.00  0.00     0.138 C 
ATOM     17  C   UNL A   1      33.225  28.275  27.249  1.00  0.00     0.138 C 
BRANCH  13  18
ATOM     18  C   UNL A   1      30.781  27.776  24.628  1.00  0.00     0.040 A 
ATOM     19  C   UNL A   1      28.757  27.927  23.279  1.00  0.00     0.120 A 
ATOM     20  C   UNL A   1      28.445  26.607  23.594  1.00  0.00     0.046 A 
ATOM     21  C   UNL A   1      29.907  28.511  23.815  1.00  0.00     0.072 A 
ATOM     22  C   UNL A   1      29.303  25.857  24.395  1.00  0.00     0.006 A 
ATOM     23  C   UNL A   1      30.469  26.438  24.894  1.00  0.00     0.026 A 
BRANCH  19  24
ATOM     24  O   UNL A   1      27.854  28.576  22.480  1.00  0.00    -0.497 OA
ATOM     25  C   UNL A   1      27.348  29.796  23.009  1.00  0.00     0.278 C 
ENDBRANCH  19  24
ENDBRANCH  13  18
ENDBRANCH   7  12
BRANCH  11  26
ATOM     26  N   UNL A   1      38.084  32.249  29.210  1.00  0.00    -0.321 N 
ATOM     27  C   UNL A   1      38.829  32.038  30.352  1.00  0.00     0.255 C 
ATOM     28  H   UNL A   1      38.413  32.984  28.644  1.00  0.00     0.170 HD
ATOM     29  O   UNL A   1      39.625  32.885  30.747  1.00  0.00    -0.269 OA
BRANCH  27  30
ATOM     30  C   UNL A   1      38.728  30.763  31.096  1.00  0.00     0.040 A 
ATOM     31  C   UNL A   1      37.638  30.568  31.953  1.00  0.00     0.017 A 
ATOM     32  C   UNL A   1      39.680  29.747  30.913  1.00  0.00     0.017 A 
ATOM     33  C   UNL A   1      37.454  29.325  32.557  1.00  0.00     0.040 A 
ATOM     34  C   UNL A   1      39.480  28.501  31.507  1.00  0.00     0.040 A 
ATOM     35  C   UNL A   1      38.365  28.299  32.313  1.00  0.00     0.123 A 
ATOM     36  F   UNL A   1      38.156  27.092  32.854  1.00  0.00    -0.207 F 
ENDBRANCH  27  30
ENDBRANCH  11  26
ENDBRANCH   4   6
ENDBRANCH   3   4
ENDBRANCH   2   3
ENDBRANCH   1   2
BRANCH   1  37
ATOM     37  O   UNL A   1      32.626  35.501  30.103  1.00  0.00    -0.374 OA
BRANCH  37  38
ATOM     38  C   UNL A   1      32.740  35.932  31.458  1.00  0.00     0.202 C 
BRANCH  38  39
ATOM     39  C   UNL A   1      34.091  35.719  32.152  1.00  0.00     0.261 C 
BRANCH  39  40
ATOM     40  O   UNL A   1      34.019  34.747  33.209  1.00  0.00    -0.460 OA
BRANCH  40  41
ATOM     41  C   UNL A   1      34.768  33.638  32.996  1.00  0.00     0.338 C 
ATOM     42  O   UNL A   1      34.594  32.777  32.148  1.00  0.00    -0.246 OA
BRANCH  41  43
ATOM     43  C   UNL A   1      35.973  33.667  33.842  1.00  0.00     0.060 A 
ATOM     44  C   UNL A   1      37.204  33.823  33.195  1.00  0.00     0.016 A 
ATOM     45  C   UNL A   1      35.916  33.459  35.222  1.00  0.00     0.016 A 
ATOM     46  C   UNL A   1      38.389  33.711  33.916  1.00  0.00     0.010 A 
ATOM     47  C   UNL A   1      37.109  33.344  35.946  1.00  0.00     0.010 A 
ATOM     48  C   UNL A   1      38.350  33.429  35.288  1.00  0.00    -0.014 A 
BRANCH  48  49
ATOM     49  C   UNL A   1      39.614  33.100  35.992  1.00  0.00     0.031 A 
ATOM     50  C   UNL A   1      40.235  34.118  36.909  1.00  0.00     0.074 A 
ATOM     51  C   UNL A   1      40.176  31.887  35.854  1.00  0.00     0.049 A 
ATOM     52  N   UNL A   1      41.321  34.031  37.635  1.00  0.00    -0.248 NA
ATOM     53  C   UNL A   1      39.541  35.411  37.017  1.00  0.00     0.031 C 
ATOM     54  C   UNL A   1      39.657  30.811  35.013  1.00  0.00     0.029 A 
ATOM     55  N   UNL A   1      41.308  31.357  36.420  1.00  0.00    -0.354 N 
ATOM     56  C   UNL A   1      41.442  35.255  38.282  1.00  0.00     0.074 A 
ATOM     57  C   UNL A   1      40.342  36.081  37.832  1.00  0.00     0.031 C 
ATOM     58  C   UNL A   1      40.473  29.749  35.112  1.00  0.00     0.029 A 
ATOM     59  C   UNL A   1      41.584  30.081  36.002  1.00  0.00     0.049 A 
ATOM     60  H   UNL A   1      41.868  31.847  37.065  1.00  0.00     0.167 HD
ATOM     61  C   UNL A   1      42.381  35.649  39.177  1.00  0.00     0.037 A 
ATOM     62  C   UNL A   1      42.626  29.278  36.290  1.00  0.00     0.037 A 
ATOM     63  C   UNL A   1      43.472  34.823  39.624  1.00  0.00     0.049 A 
ATOM     64  C   UNL A   1      43.681  29.754  37.254  1.00  0.00     0.074 A 
ATOM     65  C   UNL A   1      44.453  35.115  40.556  1.00  0.00     0.029 A 
ATOM     66  N   UNL A   1      43.735  33.540  39.160  1.00  0.00    -0.354 N 
ATOM     67  N   UNL A   1      43.764  30.895  37.896  1.00  0.00    -0.248 NA
ATOM     68  C   UNL A   1      44.782  28.825  37.543  1.00  0.00     0.031 C 
ATOM     69  C   UNL A   1      45.343  34.038  40.609  1.00  0.00     0.029 A 
ATOM     70  C   UNL A   1      44.882  33.044  39.761  1.00  0.00     0.049 A 
ATOM     71  H   UNL A   1      43.188  33.055  38.501  1.00  0.00     0.167 HD
ATOM     72  C   UNL A   1      44.908  30.812  38.680  1.00  0.00     0.074 A 
ATOM     73  C   UNL A   1      45.473  29.499  38.450  1.00  0.00     0.031 C 
ATOM     74  C   UNL A   1      45.441  31.738  39.517  1.00  0.00     0.037 A 
BRANCH  61  75
ATOM     75  C   UNL A   1      42.286  37.051  39.709  1.00  0.00     0.064 A 
ATOM     76  C   UNL A   1      42.963  38.122  39.106  1.00  0.00     0.173 A 
ATOM     77  C   UNL A   1      41.484  37.330  40.827  1.00  0.00     0.173 A 
ATOM     78  F   UNL A   1      43.752  37.910  38.043  1.00  0.00    -0.203 F 
ATOM     79  C   UNL A   1      42.868  39.413  39.622  1.00  0.00     0.198 A 
ATOM     80  C   UNL A   1      41.364  38.627  41.320  1.00  0.00     0.198 A 
ATOM     81  F   UNL A   1      40.810  36.345  41.439  1.00  0.00    -0.203 F 
ATOM     82  F   UNL A   1      43.567  40.410  39.064  1.00  0.00    -0.200 F 
ATOM     83  C   UNL A   1      42.063  39.665  40.724  1.00  0.00     0.200 A 
ATOM     84  F   UNL A   1      40.576  38.871  42.375  1.00  0.00    -0.200 F 
ATOM     85  F   UNL A   1      41.968  40.908  41.217  1.00  0.00    -0.200 F 
ENDBRANCH  61  75
BRANCH  62  86
ATOM     86  C   UNL A   1      42.726  27.940  35.651  1.00  0.00     0.064 A 
ATOM     87  C   UNL A   1      42.015  26.840  36.147  1.00  0.00     0.173 A 
ATOM     88  C   UNL A   1      43.544  27.736  34.529  1.00  0.00     0.173 A 
ATOM     89  F   UNL A   1      41.238  26.979  37.231  1.00  0.00    -0.203 F 
ATOM     90  C   UNL A   1      42.130  25.582  35.557  1.00  0.00     0.198 A 
ATOM     91  C   UNL A   1      43.634  26.485  33.920  1.00  0.00     0.198 A 
ATOM     92  F   UNL A   1      44.245  28.756  34.013  1.00  0.00    -0.203 F 
ATOM     93  F   UNL A   1      41.475  24.537  36.080  1.00  0.00    -0.200 F 
ATOM     94  C   UNL A   1      42.934  25.409  34.440  1.00  0.00     0.200 A 
ATOM     95  F   UNL A   1      44.400  26.327  32.832  1.00  0.00    -0.200 F 
ATOM     96  F   UNL A   1      43.038  24.201  33.869  1.00  0.00    -0.200 F 
ENDBRANCH  62  86
BRANCH  74  97
ATOM     97  C   UNL A   1      46.686  31.351  40.265  1.00  0.00     0.064 A 
ATOM     98  C   UNL A   1      46.632  30.701  41.507  1.00  0.00     0.173 A 
ATOM     99  C   UNL A   1      47.954  31.623  39.725  1.00  0.00     0.173 A 
ATOM    100  F   UNL A   1      45.447  30.429  42.076  1.00  0.00    -0.203 F 
ATOM    101  C   UNL A   1      47.797  30.374  42.198  1.00  0.00     0.198 A 
ATOM    102  C   UNL A   1      49.116  31.262  40.401  1.00  0.00     0.198 A 
ATOM    103  F   UNL A   1      48.065  32.234  38.537  1.00  0.00    -0.203 F 
ATOM    104  F   UNL A   1      47.718  29.811  43.412  1.00  0.00    -0.200 F 
ATOM    105  C   UNL A   1      49.037  30.649  41.642  1.00  0.00     0.200 A 
ATOM    106  F   UNL A   1      50.313  31.514  39.854  1.00  0.00    -0.200 F 
ATOM    107  F   UNL A   1      50.156  30.333  42.308  1.00  0.00    -0.200 F 
ENDBRANCH  74  97
ENDBRANCH  48  49
ENDBRANCH  41  43
ENDBRANCH  40  41
ENDBRANCH  39  40
ENDBRANCH  38  39
ENDBRANCH  37  38
ENDBRANCH   1  37
TORSDOF 19
ENDMDL
