MODEL 1
REMARK VINA RESULT:     -12.0      0.000      0.000
REMARK SMILES Cc1cc(Cl)c(C)c2c1O[C@H](C(F)(F)F)C(C(=O)OCCOCCOC(=O)c1ccc(-c3c4nc(c(-c5c(F)c(F)c(F)c(F)c5F)c5ccc([nH]5)c(-c5c(F)c(F)c(F)c(F)c5F)c5nc(c(-c6c(F)c(F)c(F)c(F)c6F)c6ccc3[nH]6)C=C5)C=C4)cc1)=C2
REMARK SMILES IDX 23 1 22 2 21 3 20 4 19 5 17 6 18 7 16 8 1 9 2 10 3 11 9 12
REMARK SMILES IDX 4 13 8 14 10 15 5 16 6 17 91 18 11 19 7 20 12 21 13 22 14 23
REMARK SMILES IDX 15 24 24 25 25 26 26 27 27 28 28 29 29 30 90 31 30 32 89 33
REMARK SMILES IDX 31 34 32 35 33 36 83 37 34 38 88 39 82 40 84 41 35 42 87 43
REMARK SMILES IDX 81 44 80 45 36 47 68 48 48 49 67 50 49 51 52 52 66 53 85 54
REMARK SMILES IDX 50 55 51 56 65 58 86 59 53 60 37 61 38 62 46 63 39 64 40 65
REMARK SMILES IDX 44 66 47 67 41 68 42 69 45 70 43 71 69 72 70 73 78 74 71 75
REMARK SMILES IDX 72 76 76 77 79 78 73 79 74 80 77 81 75 82 54 83 55 84 63 85
REMARK SMILES IDX 56 86 57 87 61 88 64 89 58 90 59 91 62 92 60 93
REMARK H PARENT 84 46 52 57
REMARK Flexibility Score: inf
ROOT
ATOM      1  C   UNL A   1      31.399  31.538  26.481  1.00  0.00     0.202 C 
ENDROOT
BRANCH   1   2
ATOM      2  O   UNL A   1      32.113  30.406  26.981  1.00  0.00    -0.374 OA
BRANCH   2   3
ATOM      3  C   UNL A   1      33.008  29.742  26.091  1.00  0.00     0.202 C 
BRANCH   3   4
ATOM      4  C   UNL A   1      33.323  28.280  26.415  1.00  0.00     0.261 C 
BRANCH   4   5
ATOM      5  O   UNL A   1      32.539  27.383  25.610  1.00  0.00    -0.460 OA
BRANCH   5   6
ATOM      6  C   UNL A   1      33.207  26.835  24.568  1.00  0.00     0.338 C 
ATOM      7  O   UNL A   1      33.770  27.430  23.663  1.00  0.00    -0.246 OA
BRANCH   6   8
ATOM      8  C   UNL A   1      33.271  25.370  24.729  1.00  0.00     0.087 C 
ATOM      9  C   UNL A   1      32.470  20.319  24.446  1.00  0.00     0.048 C 
ATOM     10  C   UNL A   1      33.650  21.216  24.700  1.00  0.00    -0.007 A 
ATOM     11  C   UNL A   1      34.926  20.643  24.754  1.00  0.00     0.028 A 
ATOM     12  C   UNL A   1      33.529  22.610  24.796  1.00  0.00     0.131 A 
ATOM     13  C   UNL A   1      36.063  21.433  24.944  1.00  0.00     0.045 A 
ATOM     14  C   UNL A   1      34.671  23.416  24.945  1.00  0.00     0.022 A 
ATOM     15  O   UNL A   1      32.256  23.109  24.741  1.00  0.00    -0.475 OA
ATOM     16  Cl  UNL A   1      37.580  20.603  25.002  1.00  0.00    -0.084 Cl
ATOM     17  C   UNL A   1      35.958  22.829  25.059  1.00  0.00    -0.021 A 
ATOM     18  C   UNL A   1      34.498  24.865  24.902  1.00  0.00     0.027 C 
ATOM     19  C   UNL A   1      32.028  24.539  24.667  1.00  0.00     0.316 C 
ATOM     20  C   UNL A   1      37.173  23.698  25.288  1.00  0.00     0.047 C 
BRANCH  19  21
ATOM     21  C   UNL A   1      31.179  24.818  23.419  1.00  0.00     0.430 C 
ATOM     22  F   UNL A   1      31.961  25.011  22.329  1.00  0.00    -0.167 F 
ATOM     23  F   UNL A   1      30.360  23.781  23.123  1.00  0.00    -0.167 F 
ATOM     24  F   UNL A   1      30.406  25.916  23.565  1.00  0.00    -0.167 F 
ENDBRANCH  19  21
ENDBRANCH   6   8
ENDBRANCH   5   6
ENDBRANCH   4   5
ENDBRANCH   3   4
ENDBRANCH   2   3
ENDBRANCH   1   2
BRANCH   1  25
ATOM     25  C   UNL A   1      31.937  32.920  26.876  1.00  0.00     0.261 C 
BRANCH  25  26
ATOM     26  O   UNL A   1      32.825  32.844  28.009  1.00  0.00    -0.460 OA
BRANCH  26  27
ATOM     27  C   UNL A   1      33.898  33.666  27.945  1.00  0.00     0.338 C 
ATOM     28  O   UNL A   1      33.900  34.877  27.784  1.00  0.00    -0.246 OA
BRANCH  27  29
ATOM     29  C   UNL A   1      35.123  32.922  28.283  1.00  0.00     0.060 A 
ATOM     30  C   UNL A   1      34.984  31.577  28.652  1.00  0.00     0.016 A 
ATOM     31  C   UNL A   1      36.370  33.549  28.334  1.00  0.00     0.016 A 
ATOM     32  C   UNL A   1      36.085  30.865  29.120  1.00  0.00     0.010 A 
ATOM     33  C   UNL A   1      37.472  32.836  28.818  1.00  0.00     0.010 A 
ATOM     34  C   UNL A   1      37.326  31.505  29.247  1.00  0.00    -0.014 A 
BRANCH  34  35
ATOM     35  C   UNL A   1      38.419  30.823  29.979  1.00  0.00     0.031 A 
ATOM     36  C   UNL A   1      38.653  31.170  31.423  1.00  0.00     0.074 A 
ATOM     37  C   UNL A   1      39.157  29.871  29.384  1.00  0.00     0.049 A 
ATOM     38  N   UNL A   1      39.548  30.703  32.255  1.00  0.00    -0.248 NA
ATOM     39  C   UNL A   1      37.751  32.175  32.010  1.00  0.00     0.031 C 
ATOM     40  C   UNL A   1      38.986  29.410  28.009  1.00  0.00     0.029 A 
ATOM     41  N   UNL A   1      40.195  29.116  29.868  1.00  0.00    -0.354 N 
ATOM     42  C   UNL A   1      39.314  31.349  33.462  1.00  0.00     0.074 A 
ATOM     43  C   UNL A   1      38.215  32.266  33.248  1.00  0.00     0.031 C 
ATOM     44  C   UNL A   1      39.890  28.448  27.757  1.00  0.00     0.029 A 
ATOM     45  C   UNL A   1      40.720  28.246  28.944  1.00  0.00     0.049 A 
ATOM     46  H   UNL A   1      40.531  29.190  30.790  1.00  0.00     0.167 HD
ATOM     47  C   UNL A   1      39.948  31.180  34.646  1.00  0.00     0.037 A 
ATOM     48  C   UNL A   1      41.759  27.395  29.046  1.00  0.00     0.037 A 
ATOM     49  C   UNL A   1      41.042  30.271  34.857  1.00  0.00     0.049 A 
ATOM     50  C   UNL A   1      42.513  27.298  30.347  1.00  0.00     0.074 A 
ATOM     51  C   UNL A   1      41.751  30.030  36.021  1.00  0.00     0.029 A 
ATOM     52  N   UNL A   1      41.591  29.456  33.877  1.00  0.00    -0.354 N 
ATOM     53  N   UNL A   1      42.282  27.907  31.484  1.00  0.00    -0.248 NA
ATOM     54  C   UNL A   1      43.674  26.396  30.376  1.00  0.00     0.031 C 
ATOM     55  C   UNL A   1      42.757  29.101  35.735  1.00  0.00     0.029 A 
ATOM     56  C   UNL A   1      42.646  28.730  34.404  1.00  0.00     0.049 A 
ATOM     57  H   UNL A   1      41.277  29.403  32.945  1.00  0.00     0.167 HD
ATOM     58  C   UNL A   1      43.251  27.450  32.368  1.00  0.00     0.074 A 
ATOM     59  C   UNL A   1      44.067  26.502  31.639  1.00  0.00     0.031 C 
ATOM     60  C   UNL A   1      43.448  27.789  33.665  1.00  0.00     0.037 A 
BRANCH  47  61
ATOM     61  C   UNL A   1      39.482  32.004  35.808  1.00  0.00     0.064 A 
ATOM     62  C   UNL A   1      38.434  31.574  36.635  1.00  0.00     0.173 A 
ATOM     63  C   UNL A   1      40.125  33.207  36.131  1.00  0.00     0.173 A 
ATOM     64  F   UNL A   1      37.778  30.437  36.358  1.00  0.00    -0.203 F 
ATOM     65  C   UNL A   1      38.037  32.328  37.737  1.00  0.00     0.198 A 
ATOM     66  C   UNL A   1      39.742  33.946  37.248  1.00  0.00     0.198 A 
ATOM     67  F   UNL A   1      41.134  33.660  35.373  1.00  0.00    -0.203 F 
ATOM     68  F   UNL A   1      37.013  31.915  38.496  1.00  0.00    -0.200 F 
ATOM     69  C   UNL A   1      38.697  33.507  38.047  1.00  0.00     0.200 A 
ATOM     70  F   UNL A   1      40.387  35.081  37.552  1.00  0.00    -0.200 F 
ATOM     71  F   UNL A   1      38.323  34.225  39.116  1.00  0.00    -0.200 F 
ENDBRANCH  47  61
BRANCH  48  72
ATOM     72  C   UNL A   1      42.149  26.566  27.877  1.00  0.00     0.064 A 
ATOM     73  C   UNL A   1      43.121  27.008  26.971  1.00  0.00     0.173 A 
ATOM     74  C   UNL A   1      41.560  25.315  27.644  1.00  0.00     0.173 A 
ATOM     75  F   UNL A   1      43.693  28.210  27.138  1.00  0.00    -0.203 F 
ATOM     76  C   UNL A   1      43.487  26.234  25.873  1.00  0.00     0.198 A 
ATOM     77  C   UNL A   1      41.944  24.529  26.559  1.00  0.00     0.198 A 
ATOM     78  F   UNL A   1      40.620  24.848  28.479  1.00  0.00    -0.203 F 
ATOM     79  F   UNL A   1      44.395  26.694  25.003  1.00  0.00    -0.200 F 
ATOM     80  C   UNL A   1      42.903  24.991  25.672  1.00  0.00     0.200 A 
ATOM     81  F   UNL A   1      41.384  23.326  26.373  1.00  0.00    -0.200 F 
ATOM     82  F   UNL A   1      43.261  24.242  24.620  1.00  0.00    -0.200 F 
ENDBRANCH  48  72
BRANCH  60  83
ATOM     83  C   UNL A   1      44.578  27.125  34.395  1.00  0.00     0.064 A 
ATOM     84  C   UNL A   1      45.843  27.724  34.482  1.00  0.00     0.173 A 
ATOM     85  C   UNL A   1      44.373  25.918  35.080  1.00  0.00     0.173 A 
ATOM     86  F   UNL A   1      46.092  28.873  33.834  1.00  0.00    -0.203 F 
ATOM     87  C   UNL A   1      46.865  27.133  35.221  1.00  0.00     0.198 A 
ATOM     88  C   UNL A   1      45.389  25.343  35.839  1.00  0.00     0.198 A 
ATOM     89  F   UNL A   1      43.179  25.309  35.036  1.00  0.00    -0.203 F 
ATOM     90  F   UNL A   1      48.074  27.708  35.267  1.00  0.00    -0.200 F 
ATOM     91  C   UNL A   1      46.635  25.949  35.906  1.00  0.00     0.200 A 
ATOM     92  F   UNL A   1      45.160  24.208  36.514  1.00  0.00    -0.200 F 
ATOM     93  F   UNL A   1      47.614  25.392  36.630  1.00  0.00    -0.200 F 
ENDBRANCH  60  83
ENDBRANCH  34  35
ENDBRANCH  27  29
ENDBRANCH  26  27
ENDBRANCH  25  26
ENDBRANCH   1  25
TORSDOF 15
ENDMDL
MODEL 2
REMARK VINA RESULT:     -12.0      1.510      7.582
REMARK SMILES Cc1cc(Cl)c(C)c2c1O[C@H](C(F)(F)F)C(C(=O)OCCOCCOC(=O)c1ccc(-c3c4nc(c(-c5c(F)c(F)c(F)c(F)c5F)c5ccc([nH]5)c(-c5c(F)c(F)c(F)c(F)c5F)c5nc(c(-c6c(F)c(F)c(F)c(F)c6F)c6ccc3[nH]6)C=C5)C=C4)cc1)=C2
REMARK SMILES IDX 23 1 22 2 21 3 20 4 19 5 17 6 18 7 16 8 1 9 2 10 3 11 9 12
REMARK SMILES IDX 4 13 8 14 10 15 5 16 6 17 91 18 11 19 7 20 12 21 13 22 14 23
REMARK SMILES IDX 15 24 24 25 25 26 26 27 27 28 28 29 29 30 90 31 30 32 89 33
REMARK SMILES IDX 31 34 32 35 33 36 83 37 34 38 88 39 82 40 84 41 35 42 87 43
REMARK SMILES IDX 81 44 80 45 36 47 68 48 48 49 67 50 49 51 52 52 66 53 85 54
REMARK SMILES IDX 50 55 51 56 65 58 86 59 53 60 37 61 38 62 46 63 39 64 40 65
REMARK SMILES IDX 44 66 47 67 41 68 42 69 45 70 43 71 69 72 70 73 78 74 71 75
REMARK SMILES IDX 72 76 76 77 79 78 73 79 74 80 77 81 75 82 54 83 55 84 63 85
REMARK SMILES IDX 56 86 57 87 61 88 64 89 58 90 59 91 62 92 60 93
REMARK H PARENT 84 46 52 57
REMARK Flexibility Score: inf
ROOT
ATOM      1  C   UNL A   1      31.379  29.072  25.355  1.00  0.00     0.202 C 
ENDROOT
BRANCH   1   2
ATOM      2  O   UNL A   1      31.423  29.001  23.929  1.00  0.00    -0.374 OA
BRANCH   2   3
ATOM      3  C   UNL A   1      30.612  28.018  23.289  1.00  0.00     0.202 C 
BRANCH   3   4
ATOM      4  C   UNL A   1      31.189  27.385  22.021  1.00  0.00     0.261 C 
BRANCH   4   5
ATOM      5  O   UNL A   1      31.568  26.017  22.243  1.00  0.00    -0.460 OA
BRANCH   5   6
ATOM      6  C   UNL A   1      32.873  25.750  22.002  1.00  0.00     0.338 C 
ATOM      7  O   UNL A   1      33.619  26.359  21.251  1.00  0.00    -0.246 OA
BRANCH   6   8
ATOM      8  C   UNL A   1      33.333  24.658  22.880  1.00  0.00     0.087 C 
ATOM      9  C   UNL A   1      34.914  21.825  26.844  1.00  0.00     0.048 C 
ATOM     10  C   UNL A   1      34.156  21.577  25.570  1.00  0.00    -0.007 A 
ATOM     11  C   UNL A   1      33.569  20.321  25.374  1.00  0.00     0.028 A 
ATOM     12  C   UNL A   1      33.941  22.581  24.614  1.00  0.00     0.131 A 
ATOM     13  C   UNL A   1      32.816  20.047  24.229  1.00  0.00     0.045 A 
ATOM     14  C   UNL A   1      33.150  22.327  23.479  1.00  0.00     0.022 A 
ATOM     15  O   UNL A   1      34.544  23.784  24.858  1.00  0.00    -0.475 OA
ATOM     16  Cl  UNL A   1      32.152  18.454  24.102  1.00  0.00    -0.084 Cl
ATOM     17  C   UNL A   1      32.605  21.036  23.254  1.00  0.00    -0.021 A 
ATOM     18  C   UNL A   1      32.848  23.445  22.590  1.00  0.00     0.027 C 
ATOM     19  C   UNL A   1      34.257  24.935  24.025  1.00  0.00     0.316 C 
ATOM     20  C   UNL A   1      31.814  20.753  21.998  1.00  0.00     0.047 C 
BRANCH  19  21
ATOM     21  C   UNL A   1      33.764  26.068  24.936  1.00  0.00     0.430 C 
ATOM     22  F   UNL A   1      33.961  27.279  24.359  1.00  0.00    -0.167 F 
ATOM     23  F   UNL A   1      32.437  25.974  25.187  1.00  0.00    -0.167 F 
ATOM     24  F   UNL A   1      34.403  26.077  26.127  1.00  0.00    -0.167 F 
ENDBRANCH  19  21
ENDBRANCH   6   8
ENDBRANCH   5   6
ENDBRANCH   4   5
ENDBRANCH   3   4
ENDBRANCH   2   3
ENDBRANCH   1   2
BRANCH   1  25
ATOM     25  C   UNL A   1      31.775  30.412  25.989  1.00  0.00     0.261 C 
BRANCH  25  26
ATOM     26  O   UNL A   1      33.197  30.503  26.202  1.00  0.00    -0.460 OA
BRANCH  26  27
ATOM     27  C   UNL A   1      33.574  31.409  27.134  1.00  0.00     0.338 C 
ATOM     28  O   UNL A   1      32.904  32.314  27.607  1.00  0.00    -0.246 OA
BRANCH  27  29
ATOM     29  C   UNL A   1      34.899  31.055  27.673  1.00  0.00     0.060 A 
ATOM     30  C   UNL A   1      35.149  29.703  27.941  1.00  0.00     0.016 A 
ATOM     31  C   UNL A   1      35.841  32.033  28.001  1.00  0.00     0.016 A 
ATOM     32  C   UNL A   1      36.325  29.327  28.584  1.00  0.00     0.010 A 
ATOM     33  C   UNL A   1      37.015  31.654  28.659  1.00  0.00     0.010 A 
ATOM     34  C   UNL A   1      37.245  30.305  28.986  1.00  0.00    -0.014 A 
BRANCH  34  35
ATOM     35  C   UNL A   1      38.358  29.926  29.886  1.00  0.00     0.031 A 
ATOM     36  C   UNL A   1      39.413  28.983  29.379  1.00  0.00     0.074 A 
ATOM     37  C   UNL A   1      38.458  30.455  31.118  1.00  0.00     0.049 A 
ATOM     38  N   UNL A   1      40.471  28.514  29.990  1.00  0.00    -0.248 NA
ATOM     39  C   UNL A   1      39.258  28.508  27.994  1.00  0.00     0.031 C 
ATOM     40  C   UNL A   1      37.529  31.421  31.697  1.00  0.00     0.029 A 
ATOM     41  N   UNL A   1      39.396  30.256  32.099  1.00  0.00    -0.354 N 
ATOM     42  C   UNL A   1      41.110  27.699  29.064  1.00  0.00     0.074 A 
ATOM     43  C   UNL A   1      40.305  27.707  27.862  1.00  0.00     0.031 C 
ATOM     44  C   UNL A   1      37.944  31.733  32.937  1.00  0.00     0.029 A 
ATOM     45  C   UNL A   1      39.150  30.967  33.247  1.00  0.00     0.049 A 
ATOM     46  H   UNL A   1      40.172  29.660  31.990  1.00  0.00     0.167 HD
ATOM     47  C   UNL A   1      42.272  27.018  29.201  1.00  0.00     0.037 A 
ATOM     48  C   UNL A   1      39.818  30.986  34.417  1.00  0.00     0.037 A 
ATOM     49  C   UNL A   1      43.070  27.007  30.398  1.00  0.00     0.049 A 
ATOM     50  C   UNL A   1      41.055  30.141  34.577  1.00  0.00     0.074 A 
ATOM     51  C   UNL A   1      44.262  26.346  30.633  1.00  0.00     0.029 A 
ATOM     52  N   UNL A   1      42.750  27.687  31.564  1.00  0.00    -0.354 N 
ATOM     53  N   UNL A   1      41.656  29.378  33.696  1.00  0.00    -0.248 NA
ATOM     54  C   UNL A   1      41.706  30.158  35.896  1.00  0.00     0.031 C 
ATOM     55  C   UNL A   1      44.643  26.591  31.957  1.00  0.00     0.029 A 
ATOM     56  C   UNL A   1      43.711  27.440  32.531  1.00  0.00     0.049 A 
ATOM     57  H   UNL A   1      41.959  28.259  31.687  1.00  0.00     0.167 HD
ATOM     58  C   UNL A   1      42.761  28.841  34.344  1.00  0.00     0.074 A 
ATOM     59  C   UNL A   1      42.757  29.376  35.690  1.00  0.00     0.031 C 
ATOM     60  C   UNL A   1      43.693  27.981  33.867  1.00  0.00     0.037 A 
BRANCH  47  61
ATOM     61  C   UNL A   1      42.750  26.216  28.029  1.00  0.00     0.064 A 
ATOM     62  C   UNL A   1      42.345  24.886  27.839  1.00  0.00     0.173 A 
ATOM     63  C   UNL A   1      43.576  26.798  27.057  1.00  0.00     0.173 A 
ATOM     64  F   UNL A   1      41.566  24.281  28.748  1.00  0.00    -0.203 F 
ATOM     65  C   UNL A   1      42.761  24.164  26.723  1.00  0.00     0.198 A 
ATOM     66  C   UNL A   1      43.971  26.081  25.930  1.00  0.00     0.198 A 
ATOM     67  F   UNL A   1      43.989  28.067  27.192  1.00  0.00    -0.203 F 
ATOM     68  F   UNL A   1      42.388  22.885  26.577  1.00  0.00    -0.200 F 
ATOM     69  C   UNL A   1      43.566  24.765  25.766  1.00  0.00     0.200 A 
ATOM     70  F   UNL A   1      44.741  26.665  25.002  1.00  0.00    -0.200 F 
ATOM     71  F   UNL A   1      43.955  24.072  24.686  1.00  0.00    -0.200 F 
ENDBRANCH  47  61
BRANCH  48  72
ATOM     72  C   UNL A   1      39.329  31.837  35.531  1.00  0.00     0.064 A 
ATOM     73  C   UNL A   1      38.428  31.336  36.479  1.00  0.00     0.173 A 
ATOM     74  C   UNL A   1      39.753  33.166  35.672  1.00  0.00     0.173 A 
ATOM     75  F   UNL A   1      37.973  30.078  36.370  1.00  0.00    -0.203 F 
ATOM     76  C   UNL A   1      37.965  32.132  37.524  1.00  0.00     0.198 A 
ATOM     77  C   UNL A   1      39.309  33.955  36.731  1.00  0.00     0.198 A 
ATOM     78  F   UNL A   1      40.610  33.696  34.787  1.00  0.00    -0.203 F 
ATOM     79  F   UNL A   1      37.078  31.639  38.398  1.00  0.00    -0.200 F 
ATOM     80  C   UNL A   1      38.412  33.439  37.654  1.00  0.00     0.200 A 
ATOM     81  F   UNL A   1      39.749  35.215  36.857  1.00  0.00    -0.200 F 
ATOM     82  F   UNL A   1      37.973  34.203  38.663  1.00  0.00    -0.200 F 
ENDBRANCH  48  72
BRANCH  60  83
ATOM     83  C   UNL A   1      44.800  27.569  34.792  1.00  0.00     0.064 A 
ATOM     84  C   UNL A   1      44.703  26.411  35.576  1.00  0.00     0.173 A 
ATOM     85  C   UNL A   1      46.000  28.294  34.835  1.00  0.00     0.173 A 
ATOM     86  F   UNL A   1      43.570  25.690  35.578  1.00  0.00    -0.203 F 
ATOM     87  C   UNL A   1      45.764  26.000  36.378  1.00  0.00     0.198 A 
ATOM     88  C   UNL A   1      47.069  27.866  35.618  1.00  0.00     0.198 A 
ATOM     89  F   UNL A   1      46.147  29.404  34.097  1.00  0.00    -0.203 F 
ATOM     90  F   UNL A   1      45.639  24.905  37.142  1.00  0.00    -0.200 F 
ATOM     91  C   UNL A   1      46.948  26.721  36.392  1.00  0.00     0.200 A 
ATOM     92  F   UNL A   1      48.218  28.555  35.618  1.00  0.00    -0.200 F 
ATOM     93  F   UNL A   1      47.974  26.313  37.151  1.00  0.00    -0.200 F 
ENDBRANCH  60  83
ENDBRANCH  34  35
ENDBRANCH  27  29
ENDBRANCH  26  27
ENDBRANCH  25  26
ENDBRANCH   1  25
TORSDOF 15
ENDMDL
MODEL 3
REMARK VINA RESULT:     -12.0      3.291      8.506
REMARK SMILES Cc1cc(Cl)c(C)c2c1O[C@H](C(F)(F)F)C(C(=O)OCCOCCOC(=O)c1ccc(-c3c4nc(c(-c5c(F)c(F)c(F)c(F)c5F)c5ccc([nH]5)c(-c5c(F)c(F)c(F)c(F)c5F)c5nc(c(-c6c(F)c(F)c(F)c(F)c6F)c6ccc3[nH]6)C=C5)C=C4)cc1)=C2
REMARK SMILES IDX 23 1 22 2 21 3 20 4 19 5 17 6 18 7 16 8 1 9 2 10 3 11 9 12
REMARK SMILES IDX 4 13 8 14 10 15 5 16 6 17 91 18 11 19 7 20 12 21 13 22 14 23
REMARK SMILES IDX 15 24 24 25 25 26 26 27 27 28 28 29 29 30 90 31 30 32 89 33
REMARK SMILES IDX 31 34 32 35 33 36 83 37 34 38 88 39 82 40 84 41 35 42 87 43
REMARK SMILES IDX 81 44 80 45 36 47 68 48 48 49 67 50 49 51 52 52 66 53 85 54
REMARK SMILES IDX 50 55 51 56 65 58 86 59 53 60 37 61 38 62 46 63 39 64 40 65
REMARK SMILES IDX 44 66 47 67 41 68 42 69 45 70 43 71 69 72 70 73 78 74 71 75
REMARK SMILES IDX 72 76 76 77 79 78 73 79 74 80 77 81 75 82 54 83 55 84 63 85
REMARK SMILES IDX 56 86 57 87 61 88 64 89 58 90 59 91 62 92 60 93
REMARK H PARENT 84 46 52 57
REMARK Flexibility Score: inf
ROOT
ATOM      1  C   UNL A   1      41.834  21.559  26.710  1.00  0.00     0.202 C 
ENDROOT
BRANCH   1   2
ATOM      2  O   UNL A   1      40.592  21.169  26.121  1.00  0.00    -0.374 OA
BRANCH   2   3
ATOM      3  C   UNL A   1      39.483  22.053  26.265  1.00  0.00     0.202 C 
BRANCH   3   4
ATOM      4  C   UNL A   1      38.258  21.749  25.401  1.00  0.00     0.261 C 
BRANCH   4   5
ATOM      5  O   UNL A   1      37.334  22.850  25.392  1.00  0.00    -0.460 OA
BRANCH   5   6
ATOM      6  C   UNL A   1      36.589  22.948  24.267  1.00  0.00     0.338 C 
ATOM      7  O   UNL A   1      36.966  22.768  23.120  1.00  0.00    -0.246 OA
BRANCH   6   8
ATOM      8  C   UNL A   1      35.178  23.198  24.619  1.00  0.00     0.087 C 
ATOM      9  C   UNL A   1      30.353  22.821  26.297  1.00  0.00     0.048 C 
ATOM     10  C   UNL A   1      31.351  23.929  26.110  1.00  0.00    -0.007 A 
ATOM     11  C   UNL A   1      31.042  25.199  26.610  1.00  0.00     0.028 A 
ATOM     12  C   UNL A   1      32.613  23.718  25.534  1.00  0.00     0.131 A 
ATOM     13  C   UNL A   1      31.948  26.258  26.503  1.00  0.00     0.045 A 
ATOM     14  C   UNL A   1      33.548  24.766  25.460  1.00  0.00     0.022 A 
ATOM     15  O   UNL A   1      32.854  22.458  25.059  1.00  0.00    -0.475 OA
ATOM     16  Cl  UNL A   1      31.442  27.779  27.153  1.00  0.00    -0.084 Cl
ATOM     17  C   UNL A   1      33.209  26.067  25.914  1.00  0.00    -0.021 A 
ATOM     18  C   UNL A   1      34.890  24.454  24.976  1.00  0.00     0.027 C 
ATOM     19  C   UNL A   1      34.176  22.087  24.594  1.00  0.00     0.316 C 
ATOM     20  C   UNL A   1      34.194  27.203  25.768  1.00  0.00     0.047 C 
BRANCH  19  21
ATOM     21  C   UNL A   1      34.626  20.851  25.387  1.00  0.00     0.430 C 
ATOM     22  F   UNL A   1      35.551  20.139  24.698  1.00  0.00    -0.167 F 
ATOM     23  F   UNL A   1      35.202  21.188  26.565  1.00  0.00    -0.167 F 
ATOM     24  F   UNL A   1      33.596  20.020  25.662  1.00  0.00    -0.167 F 
ENDBRANCH  19  21
ENDBRANCH   6   8
ENDBRANCH   5   6
ENDBRANCH   4   5
ENDBRANCH   3   4
ENDBRANCH   2   3
ENDBRANCH   1   2
BRANCH   1  25
ATOM     25  C   UNL A   1      42.943  22.001  25.748  1.00  0.00     0.261 C 
BRANCH  25  26
ATOM     26  O   UNL A   1      42.552  23.153  24.975  1.00  0.00    -0.460 OA
BRANCH  26  27
ATOM     27  C   UNL A   1      43.354  24.234  25.122  1.00  0.00     0.338 C 
ATOM     28  O   UNL A   1      44.397  24.474  24.534  1.00  0.00    -0.246 OA
BRANCH  27  29
ATOM     29  C   UNL A   1      42.703  25.228  25.994  1.00  0.00     0.060 A 
ATOM     30  C   UNL A   1      43.458  26.341  26.384  1.00  0.00     0.016 A 
ATOM     31  C   UNL A   1      41.415  25.028  26.497  1.00  0.00     0.016 A 
ATOM     32  C   UNL A   1      42.946  27.236  27.320  1.00  0.00     0.010 A 
ATOM     33  C   UNL A   1      40.909  25.921  27.447  1.00  0.00     0.010 A 
ATOM     34  C   UNL A   1      41.686  27.006  27.889  1.00  0.00    -0.014 A 
BRANCH  34  35
ATOM     35  C   UNL A   1      41.263  27.811  29.058  1.00  0.00     0.031 A 
ATOM     36  C   UNL A   1      42.057  27.717  30.331  1.00  0.00     0.074 A 
ATOM     37  C   UNL A   1      40.220  28.655  28.972  1.00  0.00     0.049 A 
ATOM     38  N   UNL A   1      41.870  28.326  31.474  1.00  0.00    -0.248 NA
ATOM     39  C   UNL A   1      43.224  26.820  30.311  1.00  0.00     0.031 C 
ATOM     40  C   UNL A   1      39.410  28.873  27.777  1.00  0.00     0.029 A 
ATOM     41  N   UNL A   1      39.670  29.490  29.912  1.00  0.00    -0.354 N 
ATOM     42  C   UNL A   1      42.897  27.893  32.304  1.00  0.00     0.074 A 
ATOM     43  C   UNL A   1      43.684  26.944  31.547  1.00  0.00     0.031 C 
ATOM     44  C   UNL A   1      38.464  29.786  28.054  1.00  0.00     0.029 A 
ATOM     45  C   UNL A   1      38.584  30.193  29.453  1.00  0.00     0.049 A 
ATOM     46  H   UNL A   1      40.021  29.577  30.827  1.00  0.00     0.167 HD
ATOM     47  C   UNL A   1      43.166  28.267  33.576  1.00  0.00     0.037 A 
ATOM     48  C   UNL A   1      37.775  31.058  30.096  1.00  0.00     0.037 A 
ATOM     49  C   UNL A   1      42.380  29.207  34.329  1.00  0.00     0.049 A 
ATOM     50  C   UNL A   1      38.038  31.381  31.544  1.00  0.00     0.074 A 
ATOM     51  C   UNL A   1      42.573  29.649  35.626  1.00  0.00     0.029 A 
ATOM     52  N   UNL A   1      41.246  29.848  33.851  1.00  0.00    -0.354 N 
ATOM     53  N   UNL A   1      39.013  30.973  32.319  1.00  0.00    -0.248 NA
ATOM     54  C   UNL A   1      37.085  32.285  32.206  1.00  0.00     0.031 C 
ATOM     55  C   UNL A   1      41.530  30.524  35.949  1.00  0.00     0.029 A 
ATOM     56  C   UNL A   1      40.714  30.662  34.838  1.00  0.00     0.049 A 
ATOM     57  H   UNL A   1      40.874  29.740  32.946  1.00  0.00     0.167 HD
ATOM     58  C   UNL A   1      38.805  31.581  33.550  1.00  0.00     0.074 A 
ATOM     59  C   UNL A   1      37.616  32.398  33.416  1.00  0.00     0.031 C 
ATOM     60  C   UNL A   1      39.531  31.470  34.689  1.00  0.00     0.037 A 
BRANCH  47  61
ATOM     61  C   UNL A   1      44.357  27.649  34.245  1.00  0.00     0.064 A 
ATOM     62  C   UNL A   1      45.624  28.247  34.179  1.00  0.00     0.173 A 
ATOM     63  C   UNL A   1      44.220  26.479  35.005  1.00  0.00     0.173 A 
ATOM     64  F   UNL A   1      45.809  29.359  33.452  1.00  0.00    -0.203 F 
ATOM     65  C   UNL A   1      46.714  27.686  34.839  1.00  0.00     0.198 A 
ATOM     66  C   UNL A   1      45.306  25.934  35.684  1.00  0.00     0.198 A 
ATOM     67  F   UNL A   1      43.028  25.870  35.101  1.00  0.00    -0.203 F 
ATOM     68  F   UNL A   1      47.924  28.256  34.737  1.00  0.00    -0.200 F 
ATOM     69  C   UNL A   1      46.553  26.536  35.597  1.00  0.00     0.200 A 
ATOM     70  F   UNL A   1      45.147  24.829  36.424  1.00  0.00    -0.200 F 
ATOM     71  F   UNL A   1      47.601  26.005  36.243  1.00  0.00    -0.200 F 
ENDBRANCH  47  61
BRANCH  48  72
ATOM     72  C   UNL A   1      36.637  31.680  29.372  1.00  0.00     0.064 A 
ATOM     73  C   UNL A   1      35.525  30.919  28.988  1.00  0.00     0.173 A 
ATOM     74  C   UNL A   1      36.637  33.045  29.051  1.00  0.00     0.173 A 
ATOM     75  F   UNL A   1      35.492  29.604  29.249  1.00  0.00    -0.203 F 
ATOM     76  C   UNL A   1      34.458  31.499  28.306  1.00  0.00     0.198 A 
ATOM     77  C   UNL A   1      35.558  33.630  28.391  1.00  0.00     0.198 A 
ATOM     78  F   UNL A   1      37.681  33.815  29.391  1.00  0.00    -0.203 F 
ATOM     79  F   UNL A   1      33.421  30.743  27.922  1.00  0.00    -0.200 F 
ATOM     80  C   UNL A   1      34.471  32.856  28.016  1.00  0.00     0.200 A 
ATOM     81  F   UNL A   1      35.572  34.941  28.119  1.00  0.00    -0.200 F 
ATOM     82  F   UNL A   1      33.440  33.414  27.367  1.00  0.00    -0.200 F 
ENDBRANCH  48  72
BRANCH  60  83
ATOM     83  C   UNL A   1      39.080  32.258  35.883  1.00  0.00     0.064 A 
ATOM     84  C   UNL A   1      38.257  31.688  36.865  1.00  0.00     0.173 A 
ATOM     85  C   UNL A   1      39.539  33.568  36.088  1.00  0.00     0.173 A 
ATOM     86  F   UNL A   1      37.783  30.442  36.708  1.00  0.00    -0.203 F 
ATOM     87  C   UNL A   1      37.901  32.406  38.004  1.00  0.00     0.198 A 
ATOM     88  C   UNL A   1      39.203  34.273  37.241  1.00  0.00     0.198 A 
ATOM     89  F   UNL A   1      40.335  34.155  35.183  1.00  0.00    -0.203 F 
ATOM     90  F   UNL A   1      37.090  31.852  38.916  1.00  0.00    -0.200 F 
ATOM     91  C   UNL A   1      38.382  33.692  38.196  1.00  0.00     0.200 A 
ATOM     92  F   UNL A   1      39.681  35.510  37.432  1.00  0.00    -0.200 F 
ATOM     93  F   UNL A   1      38.053  34.374  39.301  1.00  0.00    -0.200 F 
ENDBRANCH  60  83
ENDBRANCH  34  35
ENDBRANCH  27  29
ENDBRANCH  26  27
ENDBRANCH  25  26
ENDBRANCH   1  25
TORSDOF 15
ENDMDL
