MODEL 1
REMARK VINA RESULT:     -10.9      0.000      0.000
REMARK SMILES O=C(OCCOCCOC(=O)c1sccc1NS(=O)(=O)N1CCCC1)c1ccc(-c2c3nc(c(-c4c(F)c(F)c(F)c(F)c4F)c4ccc([nH]4)c(-c4c(F)c(F)c(F)c(F)c4F)c4nc(c(-c5c(F)c(F)c(F)c(F)c5F)c5ccc2[nH]5)C=C4)C=C3)cc1
REMARK SMILES IDX 7 1 6 2 5 3 4 4 3 5 2 6 1 7 26 8 27 9 88 10 28 11 87 12
REMARK SMILES IDX 29 13 30 14 31 15 81 16 32 17 86 18 80 19 82 20 33 21 85 22
REMARK SMILES IDX 79 23 78 24 34 26 66 27 46 28 65 29 47 30 50 31 64 32 83 33
REMARK SMILES IDX 48 34 49 35 63 37 84 38 51 39 35 40 36 41 44 42 37 43 38 44
REMARK SMILES IDX 42 45 45 46 39 47 40 48 43 49 41 50 67 51 68 52 76 53 69 54
REMARK SMILES IDX 70 55 74 56 77 57 71 58 72 59 75 60 73 61 52 62 53 63 61 64
REMARK SMILES IDX 54 65 55 66 59 67 62 68 56 69 57 70 60 71 58 72 8 73 9 74
REMARK SMILES IDX 10 75 11 76 12 77 13 78 16 79 14 80 15 81 17 82 18 84 19 85
REMARK SMILES IDX 20 86 21 87 22 88 25 89 23 90 24 91
REMARK H PARENT 82 25 50 36 17 83
REMARK Flexibility Score: inf
ROOT
ATOM      1  C   UNL A   1      32.267  30.027  26.995  1.00  0.00     0.202 C 
ENDROOT
BRANCH   1   2
ATOM      2  O   UNL A   1      31.413  30.864  26.202  1.00  0.00    -0.374 OA
BRANCH   2   3
ATOM      3  C   UNL A   1      31.348  32.236  26.608  1.00  0.00     0.202 C 
BRANCH   3   4
ATOM      4  C   UNL A   1      32.618  32.795  27.253  1.00  0.00     0.261 C 
BRANCH   4   5
ATOM      5  O   UNL A   1      32.359  34.090  27.817  1.00  0.00    -0.460 OA
BRANCH   5   6
ATOM      6  C   UNL A   1      33.080  34.761  28.743  1.00  0.00     0.338 C 
ATOM      7  O   UNL A   1      32.764  35.919  29.009  1.00  0.00    -0.246 OA
BRANCH   6   8
ATOM      8  C   UNL A   1      34.260  34.178  29.453  1.00  0.00     0.060 A 
ATOM      9  C   UNL A   1      35.595  34.418  29.125  1.00  0.00     0.016 A 
ATOM     10  C   UNL A   1      33.994  33.399  30.594  1.00  0.00     0.016 A 
ATOM     11  C   UNL A   1      36.634  33.836  29.837  1.00  0.00     0.010 A 
ATOM     12  C   UNL A   1      35.034  32.858  31.355  1.00  0.00     0.010 A 
ATOM     13  C   UNL A   1      36.360  33.057  30.959  1.00  0.00    -0.014 A 
BRANCH  13  14
ATOM     14  C   UNL A   1      37.491  32.411  31.650  1.00  0.00     0.031 A 
ATOM     15  C   UNL A   1      38.271  31.360  30.925  1.00  0.00     0.074 A 
ATOM     16  C   UNL A   1      37.876  32.870  32.854  1.00  0.00     0.049 A 
ATOM     17  N   UNL A   1      39.308  30.674  31.325  1.00  0.00    -0.248 NA
ATOM     18  C   UNL A   1      37.834  31.050  29.554  1.00  0.00     0.031 C 
ATOM     19  C   UNL A   1      37.232  33.965  33.581  1.00  0.00     0.029 A 
ATOM     20  N   UNL A   1      38.920  32.503  33.660  1.00  0.00    -0.354 N 
ATOM     21  C   UNL A   1      39.633  29.838  30.266  1.00  0.00     0.074 A 
ATOM     22  C   UNL A   1      38.683  30.095  29.207  1.00  0.00     0.031 C 
ATOM     23  C   UNL A   1      37.919  34.208  34.708  1.00  0.00     0.029 A 
ATOM     24  C   UNL A   1      39.011  33.246  34.812  1.00  0.00     0.049 A 
ATOM     25  H   UNL A   1      39.546  31.777  33.435  1.00  0.00     0.167 HD
ATOM     26  C   UNL A   1      40.638  28.935  30.196  1.00  0.00     0.037 A 
ATOM     27  C   UNL A   1      39.872  33.137  35.839  1.00  0.00     0.037 A 
ATOM     28  C   UNL A   1      41.567  28.696  31.267  1.00  0.00     0.049 A 
ATOM     29  C   UNL A   1      40.925  32.065  35.769  1.00  0.00     0.074 A 
ATOM     30  C   UNL A   1      42.583  27.762  31.344  1.00  0.00     0.029 A 
ATOM     31  N   UNL A   1      41.584  29.410  32.458  1.00  0.00    -0.354 N 
ATOM     32  N   UNL A   1      41.193  31.233  34.790  1.00  0.00    -0.248 NA
ATOM     33  C   UNL A   1      41.781  31.901  36.950  1.00  0.00     0.031 C 
ATOM     34  C   UNL A   1      43.189  27.886  32.600  1.00  0.00     0.029 A 
ATOM     35  C   UNL A   1      42.582  28.927  33.287  1.00  0.00     0.049 A 
ATOM     36  H   UNL A   1      40.974  30.151  32.682  1.00  0.00     0.167 HD
ATOM     37  C   UNL A   1      42.257  30.458  35.227  1.00  0.00     0.074 A 
ATOM     38  C   UNL A   1      42.597  30.935  36.554  1.00  0.00     0.031 C 
ATOM     39  C   UNL A   1      42.892  29.437  34.598  1.00  0.00     0.037 A 
BRANCH  26  40
ATOM     40  C   UNL A   1      40.719  28.108  28.947  1.00  0.00     0.064 A 
ATOM     41  C   UNL A   1      41.519  28.485  27.857  1.00  0.00     0.173 A 
ATOM     42  C   UNL A   1      39.944  26.946  28.821  1.00  0.00     0.173 A 
ATOM     43  F   UNL A   1      42.257  29.604  27.916  1.00  0.00    -0.203 F 
ATOM     44  C   UNL A   1      41.512  27.747  26.675  1.00  0.00     0.198 A 
ATOM     45  C   UNL A   1      39.958  26.198  27.647  1.00  0.00     0.198 A 
ATOM     46  F   UNL A   1      39.155  26.547  29.831  1.00  0.00    -0.203 F 
ATOM     47  F   UNL A   1      42.233  28.161  25.625  1.00  0.00    -0.200 F 
ATOM     48  C   UNL A   1      40.733  26.603  26.573  1.00  0.00     0.200 A 
ATOM     49  F   UNL A   1      39.204  25.093  27.549  1.00  0.00    -0.200 F 
ATOM     50  F   UNL A   1      40.715  25.904  25.429  1.00  0.00    -0.200 F 
ENDBRANCH  26  40
BRANCH  27  51
ATOM     51  C   UNL A   1      39.756  34.038  37.017  1.00  0.00     0.064 A 
ATOM     52  C   UNL A   1      38.938  33.709  38.105  1.00  0.00     0.173 A 
ATOM     53  C   UNL A   1      40.456  35.254  37.076  1.00  0.00     0.173 A 
ATOM     54  F   UNL A   1      38.228  32.571  38.090  1.00  0.00    -0.203 F 
ATOM     55  C   UNL A   1      38.812  34.564  39.200  1.00  0.00     0.198 A 
ATOM     56  C   UNL A   1      40.354  36.094  38.183  1.00  0.00     0.198 A 
ATOM     57  F   UNL A   1      41.251  35.621  36.060  1.00  0.00    -0.203 F 
ATOM     58  F   UNL A   1      37.987  34.246  40.206  1.00  0.00    -0.200 F 
ATOM     59  C   UNL A   1      39.527  35.753  39.240  1.00  0.00     0.200 A 
ATOM     60  F   UNL A   1      41.056  37.235  38.222  1.00  0.00    -0.200 F 
ATOM     61  F   UNL A   1      39.408  36.574  40.293  1.00  0.00    -0.200 F 
ENDBRANCH  27  51
BRANCH  39  62
ATOM     62  C   UNL A   1      44.030  28.797  35.332  1.00  0.00     0.064 A 
ATOM     63  C   UNL A   1      43.822  27.736  36.223  1.00  0.00     0.173 A 
ATOM     64  C   UNL A   1      45.347  29.228  35.110  1.00  0.00     0.173 A 
ATOM     65  F   UNL A   1      42.578  27.303  36.479  1.00  0.00    -0.203 F 
ATOM     66  C   UNL A   1      44.892  27.140  36.883  1.00  0.00     0.198 A 
ATOM     67  C   UNL A   1      46.416  28.612  35.751  1.00  0.00     0.198 A 
ATOM     68  F   UNL A   1      45.594  30.238  34.261  1.00  0.00    -0.203 F 
ATOM     69  F   UNL A   1      44.668  26.155  37.763  1.00  0.00    -0.200 F 
ATOM     70  C   UNL A   1      46.187  27.574  36.641  1.00  0.00     0.200 A 
ATOM     71  F   UNL A   1      47.668  29.023  35.507  1.00  0.00    -0.200 F 
ATOM     72  F   UNL A   1      47.217  26.993  37.272  1.00  0.00    -0.200 F 
ENDBRANCH  39  62
ENDBRANCH  13  14
ENDBRANCH   6   8
ENDBRANCH   5   6
ENDBRANCH   4   5
ENDBRANCH   3   4
ENDBRANCH   2   3
ENDBRANCH   1   2
BRANCH   1  73
ATOM     73  C   UNL A   1      33.367  29.432  26.104  1.00  0.00     0.261 C 
BRANCH  73  74
ATOM     74  O   UNL A   1      33.048  29.735  24.733  1.00  0.00    -0.459 OA
BRANCH  74  75
ATOM     75  C   UNL A   1      33.278  28.683  23.885  1.00  0.00     0.350 C 
ATOM     76  O   UNL A   1      34.277  28.592  23.180  1.00  0.00    -0.245 OA
BRANCH  75  77
ATOM     77  C   UNL A   1      32.282  27.662  24.130  1.00  0.00     0.136 A 
ATOM     78  S   UNL A   1      32.806  26.036  24.325  1.00  0.00    -0.135 S 
ATOM     79  C   UNL A   1      30.917  27.780  24.345  1.00  0.00     0.075 A 
ATOM     80  C   UNL A   1      31.311  25.574  25.003  1.00  0.00     0.068 A 
ATOM     81  C   UNL A   1      30.408  26.609  24.981  1.00  0.00     0.039 A 
BRANCH  79  82
ATOM     82  N   UNL A   1      30.114  28.934  24.161  1.00  0.00    -0.269 N 
ATOM     83  H   UNL A   1      30.171  29.692  24.786  1.00  0.00     0.181 HD
BRANCH  82  84
ATOM     84  S   UNL A   1      29.048  28.978  22.830  1.00  0.00     0.301 S 
ATOM     85  O   UNL A   1      29.888  28.845  21.662  1.00  0.00    -0.189 OA
ATOM     86  O   UNL A   1      27.980  28.043  23.092  1.00  0.00    -0.189 OA
BRANCH  84  87
ATOM     87  N   UNL A   1      28.442  30.517  22.867  1.00  0.00    -0.185 NA
ATOM     88  C   UNL A   1      27.780  31.117  21.713  1.00  0.00     0.104 C 
ATOM     89  C   UNL A   1      28.929  31.536  23.794  1.00  0.00     0.104 C 
ATOM     90  C   UNL A   1      28.369  32.514  21.625  1.00  0.00     0.018 C 
ATOM     91  C   UNL A   1      28.806  32.859  23.042  1.00  0.00     0.018 C 
ENDBRANCH  84  87
ENDBRANCH  82  84
ENDBRANCH  79  82
ENDBRANCH  75  77
ENDBRANCH  74  75
ENDBRANCH  73  74
ENDBRANCH   1  73
TORSDOF 17
ENDMDL
MODEL 2
REMARK VINA RESULT:     -10.4      1.898      7.732
REMARK SMILES O=C(OCCOCCOC(=O)c1sccc1NS(=O)(=O)N1CCCC1)c1ccc(-c2c3nc(c(-c4c(F)c(F)c(F)c(F)c4F)c4ccc([nH]4)c(-c4c(F)c(F)c(F)c(F)c4F)c4nc(c(-c5c(F)c(F)c(F)c(F)c5F)c5ccc2[nH]5)C=C4)C=C3)cc1
REMARK SMILES IDX 7 1 6 2 5 3 4 4 3 5 2 6 1 7 26 8 27 9 88 10 28 11 87 12
REMARK SMILES IDX 29 13 30 14 31 15 81 16 32 17 86 18 80 19 82 20 33 21 85 22
REMARK SMILES IDX 79 23 78 24 34 26 66 27 46 28 65 29 47 30 50 31 64 32 83 33
REMARK SMILES IDX 48 34 49 35 63 37 84 38 51 39 35 40 36 41 44 42 37 43 38 44
REMARK SMILES IDX 42 45 45 46 39 47 40 48 43 49 41 50 67 51 68 52 76 53 69 54
REMARK SMILES IDX 70 55 74 56 77 57 71 58 72 59 75 60 73 61 52 62 53 63 61 64
REMARK SMILES IDX 54 65 55 66 59 67 62 68 56 69 57 70 60 71 58 72 8 73 9 74
REMARK SMILES IDX 10 75 11 76 12 77 13 78 16 79 14 80 15 81 17 82 18 84 19 85
REMARK SMILES IDX 20 86 21 87 22 88 25 89 23 90 24 91
REMARK H PARENT 82 25 50 36 17 83
REMARK Flexibility Score: inf
ROOT
ATOM      1  C   UNL A   1      32.136  29.008  27.197  1.00  0.00     0.202 C 
ENDROOT
BRANCH   1   2
ATOM      2  O   UNL A   1      31.422  29.368  26.006  1.00  0.00    -0.374 OA
BRANCH   2   3
ATOM      3  C   UNL A   1      31.401  30.768  25.701  1.00  0.00     0.202 C 
BRANCH   3   4
ATOM      4  C   UNL A   1      31.679  31.704  26.880  1.00  0.00     0.261 C 
BRANCH   4   5
ATOM      5  O   UNL A   1      32.940  32.367  26.700  1.00  0.00    -0.460 OA
BRANCH   5   6
ATOM      6  C   UNL A   1      33.710  32.971  27.632  1.00  0.00     0.338 C 
ATOM      7  O   UNL A   1      33.444  34.127  27.957  1.00  0.00    -0.246 OA
BRANCH   6   8
ATOM      8  C   UNL A   1      34.885  32.315  28.284  1.00  0.00     0.060 A 
ATOM      9  C   UNL A   1      34.916  30.998  28.745  1.00  0.00     0.016 A 
ATOM     10  C   UNL A   1      36.074  33.064  28.354  1.00  0.00     0.016 A 
ATOM     11  C   UNL A   1      36.050  30.464  29.341  1.00  0.00     0.010 A 
ATOM     12  C   UNL A   1      37.240  32.515  28.896  1.00  0.00     0.010 A 
ATOM     13  C   UNL A   1      37.220  31.216  29.414  1.00  0.00    -0.014 A 
BRANCH  13  14
ATOM     14  C   UNL A   1      38.382  30.630  30.107  1.00  0.00     0.031 A 
ATOM     15  C   UNL A   1      38.612  30.976  31.545  1.00  0.00     0.074 A 
ATOM     16  C   UNL A   1      39.125  29.703  29.477  1.00  0.00     0.049 A 
ATOM     17  N   UNL A   1      39.552  30.568  32.355  1.00  0.00    -0.248 NA
ATOM     18  C   UNL A   1      37.640  31.894  32.161  1.00  0.00     0.031 C 
ATOM     19  C   UNL A   1      38.899  29.232  28.109  1.00  0.00     0.029 A 
ATOM     20  N   UNL A   1      40.191  28.963  29.913  1.00  0.00    -0.354 N 
ATOM     21  C   UNL A   1      39.298  31.195  33.566  1.00  0.00     0.074 A 
ATOM     22  C   UNL A   1      38.121  32.015  33.388  1.00  0.00     0.031 C 
ATOM     23  C   UNL A   1      39.775  28.254  27.831  1.00  0.00     0.029 A 
ATOM     24  C   UNL A   1      40.661  28.075  28.976  1.00  0.00     0.049 A 
ATOM     25  H   UNL A   1      40.582  29.057  30.812  1.00  0.00     0.167 HD
ATOM     26  C   UNL A   1      39.996  31.091  34.721  1.00  0.00     0.037 A 
ATOM     27  C   UNL A   1      41.707  27.231  29.040  1.00  0.00     0.037 A 
ATOM     28  C   UNL A   1      41.167  30.270  34.870  1.00  0.00     0.049 A 
ATOM     29  C   UNL A   1      42.515  27.202  30.308  1.00  0.00     0.074 A 
ATOM     30  C   UNL A   1      42.000  30.134  35.964  1.00  0.00     0.029 A 
ATOM     31  N   UNL A   1      41.669  29.441  33.874  1.00  0.00    -0.354 N 
ATOM     32  N   UNL A   1      42.309  27.842  31.435  1.00  0.00    -0.248 NA
ATOM     33  C   UNL A   1      43.711  26.351  30.310  1.00  0.00     0.031 C 
ATOM     34  C   UNL A   1      43.029  29.251  35.617  1.00  0.00     0.029 A 
ATOM     35  C   UNL A   1      42.812  28.802  34.322  1.00  0.00     0.049 A 
ATOM     36  H   UNL A   1      41.271  29.326  32.981  1.00  0.00     0.167 HD
ATOM     37  C   UNL A   1      43.336  27.462  32.286  1.00  0.00     0.074 A 
ATOM     38  C   UNL A   1      44.154  26.518  31.549  1.00  0.00     0.031 C 
ATOM     39  C   UNL A   1      43.591  27.862  33.557  1.00  0.00     0.037 A 
BRANCH  26  40
ATOM     40  C   UNL A   1      39.537  31.941  35.868  1.00  0.00     0.064 A 
ATOM     41  C   UNL A   1      38.505  31.535  36.728  1.00  0.00     0.173 A 
ATOM     42  C   UNL A   1      40.107  33.205  36.079  1.00  0.00     0.173 A 
ATOM     43  F   UNL A   1      37.907  30.347  36.550  1.00  0.00    -0.203 F 
ATOM     44  C   UNL A   1      38.037  32.377  37.734  1.00  0.00     0.198 A 
ATOM     45  C   UNL A   1      39.654  34.035  37.101  1.00  0.00     0.198 A 
ATOM     46  F   UNL A   1      41.091  33.645  35.280  1.00  0.00    -0.203 F 
ATOM     47  F   UNL A   1      37.007  31.996  38.501  1.00  0.00    -0.200 F 
ATOM     48  C   UNL A   1      38.613  33.626  37.920  1.00  0.00     0.200 A 
ATOM     49  F   UNL A   1      40.211  35.241  37.280  1.00  0.00    -0.200 F 
ATOM     50  F   UNL A   1      38.151  34.442  38.878  1.00  0.00    -0.200 F 
ENDBRANCH  26  40
BRANCH  27  51
ATOM     51  C   UNL A   1      42.059  26.379  27.873  1.00  0.00     0.064 A 
ATOM     52  C   UNL A   1      41.412  25.159  27.643  1.00  0.00     0.173 A 
ATOM     53  C   UNL A   1      43.058  26.766  26.965  1.00  0.00     0.173 A 
ATOM     54  F   UNL A   1      40.467  24.731  28.493  1.00  0.00    -0.203 F 
ATOM     55  C   UNL A   1      41.757  24.350  26.559  1.00  0.00     0.198 A 
ATOM     56  C   UNL A   1      43.382  25.973  25.865  1.00  0.00     0.198 A 
ATOM     57  F   UNL A   1      43.713  27.923  27.138  1.00  0.00    -0.203 F 
ATOM     58  F   UNL A   1      41.155  23.167  26.390  1.00  0.00    -0.200 F 
ATOM     59  C   UNL A   1      42.738  24.762  25.668  1.00  0.00     0.200 A 
ATOM     60  F   UNL A   1      44.320  26.381  25.001  1.00  0.00    -0.200 F 
ATOM     61  F   UNL A   1      43.069  23.987  24.626  1.00  0.00    -0.200 F 
ENDBRANCH  27  51
BRANCH  39  62
ATOM     62  C   UNL A   1      44.785  27.253  34.228  1.00  0.00     0.064 A 
ATOM     63  C   UNL A   1      44.693  26.041  34.925  1.00  0.00     0.173 A 
ATOM     64  C   UNL A   1      46.040  27.873  34.137  1.00  0.00     0.173 A 
ATOM     65  F   UNL A   1      43.509  25.421  35.050  1.00  0.00    -0.203 F 
ATOM     66  C   UNL A   1      45.815  25.479  35.526  1.00  0.00     0.198 A 
ATOM     67  C   UNL A   1      47.164  27.295  34.717  1.00  0.00     0.198 A 
ATOM     68  F   UNL A   1      46.175  29.033  33.476  1.00  0.00    -0.203 F 
ATOM     69  F   UNL A   1      45.699  24.340  36.224  1.00  0.00    -0.200 F 
ATOM     70  C   UNL A   1      47.049  26.102  35.416  1.00  0.00     0.200 A 
ATOM     71  F   UNL A   1      48.358  27.892  34.600  1.00  0.00    -0.200 F 
ATOM     72  F   UNL A   1      48.130  25.556  35.990  1.00  0.00    -0.200 F 
ENDBRANCH  39  62
ENDBRANCH  13  14
ENDBRANCH   6   8
ENDBRANCH   5   6
ENDBRANCH   4   5
ENDBRANCH   3   4
ENDBRANCH   2   3
ENDBRANCH   1   2
BRANCH   1  73
ATOM     73  C   UNL A   1      33.190  27.943  26.856  1.00  0.00     0.261 C 
BRANCH  73  74
ATOM     74  O   UNL A   1      32.503  26.723  26.518  1.00  0.00    -0.459 OA
BRANCH  74  75
ATOM     75  C   UNL A   1      33.201  25.945  25.632  1.00  0.00     0.350 C 
ATOM     76  O   UNL A   1      34.398  25.705  25.744  1.00  0.00    -0.245 OA
BRANCH  75  77
ATOM     77  C   UNL A   1      32.265  25.325  24.718  1.00  0.00     0.136 A 
ATOM     78  S   UNL A   1      32.409  23.639  24.414  1.00  0.00    -0.135 S 
ATOM     79  C   UNL A   1      31.150  25.857  24.086  1.00  0.00     0.075 A 
ATOM     80  C   UNL A   1      30.846  23.568  23.738  1.00  0.00     0.068 A 
ATOM     81  C   UNL A   1      30.277  24.816  23.653  1.00  0.00     0.039 A 
BRANCH  79  82
ATOM     82  N   UNL A   1      30.774  27.222  24.010  1.00  0.00    -0.269 N 
ATOM     83  H   UNL A   1      30.408  27.687  24.796  1.00  0.00     0.181 HD
BRANCH  82  84
ATOM     84  S   UNL A   1      30.970  28.039  22.525  1.00  0.00     0.301 S 
ATOM     85  O   UNL A   1      32.036  28.988  22.749  1.00  0.00    -0.189 OA
ATOM     86  O   UNL A   1      31.065  27.042  21.485  1.00  0.00    -0.189 OA
BRANCH  84  87
ATOM     87  N   UNL A   1      29.554  28.874  22.350  1.00  0.00    -0.185 NA
ATOM     88  C   UNL A   1      29.527  30.291  22.001  1.00  0.00     0.104 C 
ATOM     89  C   UNL A   1      28.305  28.456  22.985  1.00  0.00     0.104 C 
ATOM     90  C   UNL A   1      28.502  30.892  22.946  1.00  0.00     0.018 C 
ATOM     91  C   UNL A   1      27.559  29.751  23.301  1.00  0.00     0.018 C 
ENDBRANCH  84  87
ENDBRANCH  82  84
ENDBRANCH  79  82
ENDBRANCH  75  77
ENDBRANCH  74  75
ENDBRANCH  73  74
ENDBRANCH   1  73
TORSDOF 17
ENDMDL
MODEL 3
REMARK VINA RESULT:     -10.3      2.314      7.829
REMARK SMILES O=C(OCCOCCOC(=O)c1sccc1NS(=O)(=O)N1CCCC1)c1ccc(-c2c3nc(c(-c4c(F)c(F)c(F)c(F)c4F)c4ccc([nH]4)c(-c4c(F)c(F)c(F)c(F)c4F)c4nc(c(-c5c(F)c(F)c(F)c(F)c5F)c5ccc2[nH]5)C=C4)C=C3)cc1
REMARK SMILES IDX 7 1 6 2 5 3 4 4 3 5 2 6 1 7 26 8 27 9 88 10 28 11 87 12
REMARK SMILES IDX 29 13 30 14 31 15 81 16 32 17 86 18 80 19 82 20 33 21 85 22
REMARK SMILES IDX 79 23 78 24 34 26 66 27 46 28 65 29 47 30 50 31 64 32 83 33
REMARK SMILES IDX 48 34 49 35 63 37 84 38 51 39 35 40 36 41 44 42 37 43 38 44
REMARK SMILES IDX 42 45 45 46 39 47 40 48 43 49 41 50 67 51 68 52 76 53 69 54
REMARK SMILES IDX 70 55 74 56 77 57 71 58 72 59 75 60 73 61 52 62 53 63 61 64
REMARK SMILES IDX 54 65 55 66 59 67 62 68 56 69 57 70 60 71 58 72 8 73 9 74
REMARK SMILES IDX 10 75 11 76 12 77 13 78 16 79 14 80 15 81 17 82 18 84 19 85
REMARK SMILES IDX 20 86 21 87 22 88 25 89 23 90 24 91
REMARK H PARENT 82 25 50 36 17 83
REMARK Flexibility Score: inf
ROOT
ATOM      1  C   UNL A   1      32.974  28.814  27.320  1.00  0.00     0.202 C 
ENDROOT
BRANCH   1   2
ATOM      2  O   UNL A   1      31.865  29.711  27.156  1.00  0.00    -0.374 OA
BRANCH   2   3
ATOM      3  C   UNL A   1      32.141  30.894  26.397  1.00  0.00     0.202 C 
BRANCH   3   4
ATOM      4  C   UNL A   1      31.479  32.176  26.908  1.00  0.00     0.261 C 
BRANCH   4   5
ATOM      5  O   UNL A   1      32.435  33.248  26.939  1.00  0.00    -0.460 OA
BRANCH   5   6
ATOM      6  C   UNL A   1      33.101  33.746  28.005  1.00  0.00     0.338 C 
ATOM      7  O   UNL A   1      32.718  34.806  28.496  1.00  0.00    -0.246 OA
BRANCH   6   8
ATOM      8  C   UNL A   1      34.297  33.086  28.615  1.00  0.00     0.060 A 
ATOM      9  C   UNL A   1      34.367  31.744  28.993  1.00  0.00     0.016 A 
ATOM     10  C   UNL A   1      35.463  33.864  28.730  1.00  0.00     0.016 A 
ATOM     11  C   UNL A   1      35.518  31.208  29.555  1.00  0.00     0.010 A 
ATOM     12  C   UNL A   1      36.646  33.317  29.236  1.00  0.00     0.010 A 
ATOM     13  C   UNL A   1      36.665  31.989  29.674  1.00  0.00    -0.014 A 
BRANCH  13  14
ATOM     14  C   UNL A   1      37.845  31.395  30.329  1.00  0.00     0.031 A 
ATOM     15  C   UNL A   1      38.072  31.664  31.783  1.00  0.00     0.074 A 
ATOM     16  C   UNL A   1      38.610  30.526  29.644  1.00  0.00     0.049 A 
ATOM     17  N   UNL A   1      39.026  31.236  32.565  1.00  0.00    -0.248 NA
ATOM     18  C   UNL A   1      37.079  32.519  32.453  1.00  0.00     0.031 C 
ATOM     19  C   UNL A   1      38.391  30.129  28.252  1.00  0.00     0.029 A 
ATOM     20  N   UNL A   1      39.697  29.791  30.034  1.00  0.00    -0.354 N 
ATOM     21  C   UNL A   1      38.760  31.786  33.812  1.00  0.00     0.074 A 
ATOM     22  C   UNL A   1      37.562  32.583  33.684  1.00  0.00     0.031 C 
ATOM     23  C   UNL A   1      39.291  29.192  27.916  1.00  0.00     0.029 A 
ATOM     24  C   UNL A   1      40.187  28.972  29.047  1.00  0.00     0.049 A 
ATOM     25  H   UNL A   1      40.090  29.845  30.935  1.00  0.00     0.167 HD
ATOM     26  C   UNL A   1      39.466  31.634  34.957  1.00  0.00     0.037 A 
ATOM     27  C   UNL A   1      41.255  28.154  29.059  1.00  0.00     0.037 A 
ATOM     28  C   UNL A   1      40.659  30.839  35.055  1.00  0.00     0.049 A 
ATOM     29  C   UNL A   1      42.070  28.074  30.321  1.00  0.00     0.074 A 
ATOM     30  C   UNL A   1      41.500  30.662  36.137  1.00  0.00     0.029 A 
ATOM     31  N   UNL A   1      41.179  30.082  34.012  1.00  0.00    -0.354 N 
ATOM     32  N   UNL A   1      41.851  28.643  31.484  1.00  0.00    -0.248 NA
ATOM     33  C   UNL A   1      43.288  27.257  30.271  1.00  0.00     0.031 C 
ATOM     34  C   UNL A   1      42.551  29.829  35.737  1.00  0.00     0.029 A 
ATOM     35  C   UNL A   1      42.341  29.449  34.419  1.00  0.00     0.049 A 
ATOM     36  H   UNL A   1      40.781  30.007  33.114  1.00  0.00     0.167 HD
ATOM     37  C   UNL A   1      42.892  28.243  32.308  1.00  0.00     0.074 A 
ATOM     38  C   UNL A   1      43.731  27.365  31.516  1.00  0.00     0.031 C 
ATOM     39  C   UNL A   1      43.142  28.575  33.599  1.00  0.00     0.037 A 
BRANCH  26  40
ATOM     40  C   UNL A   1      38.990  32.405  36.152  1.00  0.00     0.064 A 
ATOM     41  C   UNL A   1      39.408  33.721  36.402  1.00  0.00     0.173 A 
ATOM     42  C   UNL A   1      38.141  31.798  37.088  1.00  0.00     0.173 A 
ATOM     43  F   UNL A   1      40.244  34.337  35.552  1.00  0.00    -0.203 F 
ATOM     44  C   UNL A   1      39.022  34.387  37.563  1.00  0.00     0.198 A 
ATOM     45  C   UNL A   1      37.737  32.475  38.236  1.00  0.00     0.198 A 
ATOM     46  F   UNL A   1      37.719  30.538  36.902  1.00  0.00    -0.203 F 
ATOM     47  F   UNL A   1      39.485  35.619  37.813  1.00  0.00    -0.200 F 
ATOM     48  C   UNL A   1      38.185  33.764  38.478  1.00  0.00     0.200 A 
ATOM     49  F   UNL A   1      36.929  31.871  39.119  1.00  0.00    -0.200 F 
ATOM     50  F   UNL A   1      37.828  34.400  39.602  1.00  0.00    -0.200 F 
ENDBRANCH  26  40
BRANCH  27  51
ATOM     51  C   UNL A   1      41.625  27.380  27.844  1.00  0.00     0.064 A 
ATOM     52  C   UNL A   1      41.129  26.088  27.626  1.00  0.00     0.173 A 
ATOM     53  C   UNL A   1      42.490  27.916  26.876  1.00  0.00     0.173 A 
ATOM     54  F   UNL A   1      40.318  25.521  28.532  1.00  0.00    -0.203 F 
ATOM     55  C   UNL A   1      41.493  25.355  26.497  1.00  0.00     0.198 A 
ATOM     56  C   UNL A   1      42.829  27.195  25.732  1.00  0.00     0.198 A 
ATOM     57  F   UNL A   1      42.997  29.146  27.034  1.00  0.00    -0.203 F 
ATOM     58  F   UNL A   1      41.041  24.105  26.337  1.00  0.00    -0.200 F 
ATOM     59  C   UNL A   1      42.338  25.912  25.547  1.00  0.00     0.200 A 
ATOM     60  F   UNL A   1      43.635  27.742  24.813  1.00  0.00    -0.200 F 
ATOM     61  F   UNL A   1      42.686  25.209  24.461  1.00  0.00    -0.200 F 
ENDBRANCH  27  51
BRANCH  39  62
ATOM     62  C   UNL A   1      44.354  27.962  34.231  1.00  0.00     0.064 A 
ATOM     63  C   UNL A   1      44.324  26.666  34.763  1.00  0.00     0.173 A 
ATOM     64  C   UNL A   1      45.566  28.666  34.267  1.00  0.00     0.173 A 
ATOM     65  F   UNL A   1      43.182  25.961  34.765  1.00  0.00    -0.203 F 
ATOM     66  C   UNL A   1      45.464  26.103  35.330  1.00  0.00     0.198 A 
ATOM     67  C   UNL A   1      46.709  28.090  34.809  1.00  0.00     0.198 A 
ATOM     68  F   UNL A   1      45.641  29.908  33.765  1.00  0.00    -0.203 F 
ATOM     69  F   UNL A   1      45.405  24.879  35.871  1.00  0.00    -0.200 F 
ATOM     70  C   UNL A   1      46.656  26.812  35.346  1.00  0.00     0.200 A 
ATOM     71  F   UNL A   1      47.863  28.772  34.814  1.00  0.00    -0.200 F 
ATOM     72  F   UNL A   1      47.754  26.265  35.885  1.00  0.00    -0.200 F 
ENDBRANCH  39  62
ENDBRANCH  13  14
ENDBRANCH   6   8
ENDBRANCH   5   6
ENDBRANCH   4   5
ENDBRANCH   3   4
ENDBRANCH   2   3
ENDBRANCH   1   2
BRANCH   1  73
ATOM     73  C   UNL A   1      33.322  28.183  25.963  1.00  0.00     0.261 C 
BRANCH  73  74
ATOM     74  O   UNL A   1      33.966  26.918  26.208  1.00  0.00    -0.459 OA
BRANCH  74  75
ATOM     75  C   UNL A   1      34.002  26.114  25.099  1.00  0.00     0.350 C 
ATOM     76  O   UNL A   1      33.962  26.545  23.952  1.00  0.00    -0.245 OA
BRANCH  75  77
ATOM     77  C   UNL A   1      34.295  24.758  25.516  1.00  0.00     0.136 A 
ATOM     78  S   UNL A   1      35.797  24.064  25.050  1.00  0.00    -0.135 S 
ATOM     79  C   UNL A   1      33.586  23.910  26.353  1.00  0.00     0.075 A 
ATOM     80  C   UNL A   1      35.645  22.817  26.202  1.00  0.00     0.068 A 
ATOM     81  C   UNL A   1      34.432  22.873  26.847  1.00  0.00     0.039 A 
BRANCH  79  82
ATOM     82  N   UNL A   1      32.267  24.088  26.841  1.00  0.00    -0.269 N 
ATOM     83  H   UNL A   1      32.092  24.663  27.620  1.00  0.00     0.181 HD
BRANCH  82  84
ATOM     84  S   UNL A   1      30.990  23.281  26.048  1.00  0.00     0.301 S 
ATOM     85  O   UNL A   1      31.628  22.318  25.179  1.00  0.00    -0.189 OA
ATOM     86  O   UNL A   1      30.041  22.866  27.053  1.00  0.00    -0.189 OA
BRANCH  84  87
ATOM     87  N   UNL A   1      30.308  24.460  25.110  1.00  0.00    -0.185 NA
ATOM     88  C   UNL A   1      30.500  24.509  23.664  1.00  0.00     0.104 C 
ATOM     89  C   UNL A   1      29.911  25.762  25.641  1.00  0.00     0.104 C 
ATOM     90  C   UNL A   1      30.799  25.969  23.374  1.00  0.00     0.018 C 
ATOM     91  C   UNL A   1      30.135  26.751  24.499  1.00  0.00     0.018 C 
ENDBRANCH  84  87
ENDBRANCH  82  84
ENDBRANCH  79  82
ENDBRANCH  75  77
ENDBRANCH  74  75
ENDBRANCH  73  74
ENDBRANCH   1  73
TORSDOF 17
ENDMDL
