MODEL 1
REMARK VINA RESULT:     -10.7      0.000      0.000
REMARK SMILES COc1ccc(OCC(=O)N/N=C(/C)C(=O)OCCOCCOC(=O)c2ccc(-c3c4nc(c(-c5c(F)c(F)c(F)c(F)c5F)c5ccc([nH]5)c(-c5c(F)c(F)c(F)c(F)c5F)c5nc(c(-c6c(F)c(F)c(F)c(F)c6F)c6ccc3[nH]6)C=C5)C=C4)cc2)cc1
REMARK SMILES IDX 18 1 17 2 15 3 16 4 13 5 12 6 14 7 11 8 9 9 10 10 8 12 7 13
REMARK SMILES IDX 6 14 3 15 4 16 90 17 5 18 89 19 2 20 1 21 19 22 20 23 21 24
REMARK SMILES IDX 22 25 23 26 24 27 25 28 26 29 27 30 88 31 28 32 87 33 29 34
REMARK SMILES IDX 30 35 31 36 81 37 32 38 86 39 80 40 82 41 33 42 85 43 79 44
REMARK SMILES IDX 78 45 34 47 66 48 46 49 65 50 47 51 50 52 64 53 83 54 48 55
REMARK SMILES IDX 49 56 63 58 84 59 51 60 35 61 36 62 44 63 37 64 38 65 42 66
REMARK SMILES IDX 45 67 39 68 40 69 43 70 41 71 67 72 68 73 76 74 69 75 70 76
REMARK SMILES IDX 74 77 77 78 71 79 72 80 75 81 73 82 52 83 53 84 61 85 54 86
REMARK SMILES IDX 55 87 59 88 62 89 56 90 57 91 60 92 58 93
REMARK H PARENT 11 11 82 46 50 57
REMARK Flexibility Score: inf
ROOT
ATOM      1  C   UNL A   1      31.900  28.455  26.483  1.00  0.00     0.261 C 
ENDROOT
BRANCH   1   2
ATOM      2  O   UNL A   1      32.843  27.415  26.726  1.00  0.00    -0.459 OA
BRANCH   2   3
ATOM      3  C   UNL A   1      33.545  26.970  25.667  1.00  0.00     0.354 C 
ATOM      4  O   UNL A   1      34.025  27.604  24.749  1.00  0.00    -0.245 OA
BRANCH   3   5
ATOM      5  C   UNL A   1      33.466  25.473  25.678  1.00  0.00     0.142 C 
ATOM      6  N   UNL A   1      32.495  24.674  25.999  1.00  0.00    -0.170 NA
ATOM      7  C   UNL A   1      34.755  24.827  25.223  1.00  0.00     0.077 C 
BRANCH   6   8
ATOM      8  N   UNL A   1      31.234  24.837  26.461  1.00  0.00    -0.244 N 
ATOM      9  C   UNL A   1      30.006  25.263  26.045  1.00  0.00     0.277 C 
ATOM     10  O   UNL A   1      29.082  25.201  26.869  1.00  0.00    -0.269 OA
ATOM     11  H   UNL A   1      31.187  24.556  27.403  1.00  0.00     0.193 HD
BRANCH   9  12
ATOM     12  C   UNL A   1      29.706  25.700  24.635  1.00  0.00     0.331 C 
BRANCH  12  13
ATOM     13  O   UNL A   1      30.572  26.635  24.040  1.00  0.00    -0.484 OA
BRANCH  13  14
ATOM     14  C   UNL A   1      30.010  27.679  23.376  1.00  0.00     0.120 A 
ATOM     15  C   UNL A   1      28.622  29.718  22.062  1.00  0.00     0.119 A 
ATOM     16  C   UNL A   1      27.929  28.773  22.816  1.00  0.00     0.050 A 
ATOM     17  C   UNL A   1      30.017  29.668  22.010  1.00  0.00     0.050 A 
ATOM     18  C   UNL A   1      28.622  27.761  23.475  1.00  0.00     0.050 A 
ATOM     19  C   UNL A   1      30.711  28.649  22.666  1.00  0.00     0.050 A 
BRANCH  15  20
ATOM     20  O   UNL A   1      27.841  30.649  21.437  1.00  0.00    -0.497 OA
ATOM     21  C   UNL A   1      28.146  32.005  21.740  1.00  0.00     0.278 C 
ENDBRANCH  15  20
ENDBRANCH  13  14
ENDBRANCH  12  13
ENDBRANCH   9  12
ENDBRANCH   6   8
ENDBRANCH   3   5
ENDBRANCH   2   3
ENDBRANCH   1   2
BRANCH   1  22
ATOM     22  C   UNL A   1      32.263  29.747  27.242  1.00  0.00     0.202 C 
BRANCH  22  23
ATOM     23  O   UNL A   1      32.403  30.995  26.566  1.00  0.00    -0.374 OA
BRANCH  23  24
ATOM     24  C   UNL A   1      31.546  32.102  26.848  1.00  0.00     0.202 C 
BRANCH  24  25
ATOM     25  C   UNL A   1      32.158  33.451  27.217  1.00  0.00     0.261 C 
BRANCH  25  26
ATOM     26  O   UNL A   1      33.051  33.359  28.329  1.00  0.00    -0.460 OA
BRANCH  26  27
ATOM     27  C   UNL A   1      34.175  34.099  28.185  1.00  0.00     0.338 C 
ATOM     28  O   UNL A   1      34.260  35.302  28.012  1.00  0.00    -0.246 OA
BRANCH  27  29
ATOM     29  C   UNL A   1      35.344  33.253  28.463  1.00  0.00     0.060 A 
ATOM     30  C   UNL A   1      35.099  31.939  28.882  1.00  0.00     0.016 A 
ATOM     31  C   UNL A   1      36.645  33.752  28.366  1.00  0.00     0.016 A 
ATOM     32  C   UNL A   1      36.158  31.133  29.274  1.00  0.00     0.010 A 
ATOM     33  C   UNL A   1      37.706  32.948  28.775  1.00  0.00     0.010 A 
ATOM     34  C   UNL A   1      37.454  31.658  29.274  1.00  0.00    -0.014 A 
BRANCH  34  35
ATOM     35  C   UNL A   1      38.506  30.932  30.009  1.00  0.00     0.031 A 
ATOM     36  C   UNL A   1      38.692  31.243  31.465  1.00  0.00     0.074 A 
ATOM     37  C   UNL A   1      39.228  29.980  29.397  1.00  0.00     0.049 A 
ATOM     38  N   UNL A   1      39.544  30.743  32.321  1.00  0.00    -0.248 NA
ATOM     39  C   UNL A   1      37.791  32.260  32.037  1.00  0.00     0.031 C 
ATOM     40  C   UNL A   1      39.079  29.577  28.001  1.00  0.00     0.029 A 
ATOM     41  N   UNL A   1      40.227  29.179  29.879  1.00  0.00    -0.354 N 
ATOM     42  C   UNL A   1      39.283  31.383  33.526  1.00  0.00     0.074 A 
ATOM     43  C   UNL A   1      38.220  32.332  33.287  1.00  0.00     0.031 C 
ATOM     44  C   UNL A   1      39.966  28.602  27.734  1.00  0.00     0.029 A 
ATOM     45  C   UNL A   1      40.758  28.340  28.934  1.00  0.00     0.049 A 
ATOM     46  H   UNL A   1      40.536  29.204  30.814  1.00  0.00     0.167 HD
ATOM     47  C   UNL A   1      39.875  31.183  34.726  1.00  0.00     0.037 A 
ATOM     48  C   UNL A   1      41.780  27.471  29.035  1.00  0.00     0.037 A 
ATOM     49  C   UNL A   1      40.937  30.237  34.940  1.00  0.00     0.049 A 
ATOM     50  C   UNL A   1      42.467  27.316  30.367  1.00  0.00     0.074 A 
ATOM     51  C   UNL A   1      41.621  29.954  36.109  1.00  0.00     0.029 A 
ATOM     52  N   UNL A   1      41.473  29.422  33.953  1.00  0.00    -0.354 N 
ATOM     53  N   UNL A   1      42.212  27.914  31.506  1.00  0.00    -0.248 NA
ATOM     54  C   UNL A   1      43.578  26.359  30.428  1.00  0.00     0.031 C 
ATOM     55  C   UNL A   1      42.602  29.000  35.817  1.00  0.00     0.029 A 
ATOM     56  C   UNL A   1      42.492  28.647  34.480  1.00  0.00     0.049 A 
ATOM     57  H   UNL A   1      41.173  29.399  33.015  1.00  0.00     0.167 HD
ATOM     58  C   UNL A   1      43.105  27.383  32.427  1.00  0.00     0.074 A 
ATOM     59  C   UNL A   1      43.901  26.404  31.713  1.00  0.00     0.031 C 
ATOM     60  C   UNL A   1      43.256  27.673  33.743  1.00  0.00     0.037 A 
BRANCH  47  61
ATOM     61  C   UNL A   1      39.405  32.021  35.878  1.00  0.00     0.064 A 
ATOM     62  C   UNL A   1      39.979  33.270  36.165  1.00  0.00     0.173 A 
ATOM     63  C   UNL A   1      38.359  31.576  36.700  1.00  0.00     0.173 A 
ATOM     64  F   UNL A   1      40.998  33.731  35.423  1.00  0.00    -0.203 F 
ATOM     65  C   UNL A   1      39.539  34.030  37.246  1.00  0.00     0.198 A 
ATOM     66  C   UNL A   1      37.902  32.352  37.762  1.00  0.00     0.198 A 
ATOM     67  F   UNL A   1      37.779  30.388  36.473  1.00  0.00    -0.203 F 
ATOM     68  F   UNL A   1      40.135  35.195  37.531  1.00  0.00    -0.200 F 
ATOM     69  C   UNL A   1      38.496  33.573  38.039  1.00  0.00     0.200 A 
ATOM     70  F   UNL A   1      36.889  31.913  38.522  1.00  0.00    -0.200 F 
ATOM     71  F   UNL A   1      38.070  34.308  39.077  1.00  0.00    -0.200 F 
ENDBRANCH  47  61
BRANCH  48  72
ATOM     72  C   UNL A   1      42.210  26.686  27.850  1.00  0.00     0.064 A 
ATOM     73  C   UNL A   1      43.189  27.175  26.974  1.00  0.00     0.173 A 
ATOM     74  C   UNL A   1      41.644  25.436  27.561  1.00  0.00     0.173 A 
ATOM     75  F   UNL A   1      43.746  28.374  27.195  1.00  0.00    -0.203 F 
ATOM     76  C   UNL A   1      43.570  26.452  25.845  1.00  0.00     0.198 A 
ATOM     77  C   UNL A   1      42.046  24.700  26.448  1.00  0.00     0.198 A 
ATOM     78  F   UNL A   1      40.703  24.921  28.369  1.00  0.00    -0.203 F 
ATOM     79  F   UNL A   1      44.475  26.964  24.998  1.00  0.00    -0.200 F 
ATOM     80  C   UNL A   1      43.002  25.214  25.586  1.00  0.00     0.200 A 
ATOM     81  F   UNL A   1      41.504  23.499  26.210  1.00  0.00    -0.200 F 
ATOM     82  F   UNL A   1      43.370  24.519  24.501  1.00  0.00    -0.200 F 
ENDBRANCH  48  72
BRANCH  60  83
ATOM     83  C   UNL A   1      44.287  26.887  34.500  1.00  0.00     0.064 A 
ATOM     84  C   UNL A   1      45.604  27.343  34.648  1.00  0.00     0.173 A 
ATOM     85  C   UNL A   1      43.937  25.673  35.112  1.00  0.00     0.173 A 
ATOM     86  F   UNL A   1      45.989  28.492  34.070  1.00  0.00    -0.203 F 
ATOM     87  C   UNL A   1      46.544  26.596  35.351  1.00  0.00     0.198 A 
ATOM     88  C   UNL A   1      44.872  24.945  35.843  1.00  0.00     0.198 A 
ATOM     89  F   UNL A   1      42.688  25.199  35.010  1.00  0.00    -0.203 F 
ATOM     90  F   UNL A   1      47.813  27.023  35.431  1.00  0.00    -0.200 F 
ATOM     91  C   UNL A   1      46.176  25.402  35.953  1.00  0.00     0.200 A 
ATOM     92  F   UNL A   1      44.510  23.799  36.438  1.00  0.00    -0.200 F 
ATOM     93  F   UNL A   1      47.082  24.685  36.632  1.00  0.00    -0.200 F 
ENDBRANCH  60  83
ENDBRANCH  34  35
ENDBRANCH  27  29
ENDBRANCH  26  27
ENDBRANCH  25  26
ENDBRANCH  24  25
ENDBRANCH  23  24
ENDBRANCH  22  23
ENDBRANCH   1  22
TORSDOF 19
ENDMDL
MODEL 2
REMARK VINA RESULT:     -10.7      5.195     10.893
REMARK SMILES COc1ccc(OCC(=O)N/N=C(/C)C(=O)OCCOCCOC(=O)c2ccc(-c3c4nc(c(-c5c(F)c(F)c(F)c(F)c5F)c5ccc([nH]5)c(-c5c(F)c(F)c(F)c(F)c5F)c5nc(c(-c6c(F)c(F)c(F)c(F)c6F)c6ccc3[nH]6)C=C5)C=C4)cc2)cc1
REMARK SMILES IDX 18 1 17 2 15 3 16 4 13 5 12 6 14 7 11 8 9 9 10 10 8 12 7 13
REMARK SMILES IDX 6 14 3 15 4 16 90 17 5 18 89 19 2 20 1 21 19 22 20 23 21 24
REMARK SMILES IDX 22 25 23 26 24 27 25 28 26 29 27 30 88 31 28 32 87 33 29 34
REMARK SMILES IDX 30 35 31 36 81 37 32 38 86 39 80 40 82 41 33 42 85 43 79 44
REMARK SMILES IDX 78 45 34 47 66 48 46 49 65 50 47 51 50 52 64 53 83 54 48 55
REMARK SMILES IDX 49 56 63 58 84 59 51 60 35 61 36 62 44 63 37 64 38 65 42 66
REMARK SMILES IDX 45 67 39 68 40 69 43 70 41 71 67 72 68 73 76 74 69 75 70 76
REMARK SMILES IDX 74 77 77 78 71 79 72 80 75 81 73 82 52 83 53 84 61 85 54 86
REMARK SMILES IDX 55 87 59 88 62 89 56 90 57 91 60 92 58 93
REMARK H PARENT 11 11 82 46 50 57
REMARK Flexibility Score: inf
ROOT
ATOM      1  C   UNL A   1      35.992  23.272  24.026  1.00  0.00     0.261 C 
ENDROOT
BRANCH   1   2
ATOM      2  O   UNL A   1      35.196  24.405  24.363  1.00  0.00    -0.459 OA
BRANCH   2   3
ATOM      3  C   UNL A   1      34.097  24.620  23.617  1.00  0.00     0.354 C 
ATOM      4  O   UNL A   1      34.007  24.766  22.414  1.00  0.00    -0.245 OA
BRANCH   3   5
ATOM      5  C   UNL A   1      32.961  24.876  24.562  1.00  0.00     0.142 C 
ATOM      6  N   UNL A   1      32.660  24.329  25.699  1.00  0.00    -0.170 NA
ATOM      7  C   UNL A   1      32.042  25.971  24.071  1.00  0.00     0.077 C 
BRANCH   6   8
ATOM      8  N   UNL A   1      33.186  23.336  26.453  1.00  0.00    -0.244 N 
ATOM      9  C   UNL A   1      33.393  21.988  26.424  1.00  0.00     0.277 C 
ATOM     10  O   UNL A   1      33.976  21.489  27.398  1.00  0.00    -0.269 OA
ATOM     11  H   UNL A   1      33.534  23.708  27.296  1.00  0.00     0.193 HD
BRANCH   9  12
ATOM     12  C   UNL A   1      33.043  21.113  25.250  1.00  0.00     0.331 C 
BRANCH  12  13
ATOM     13  O   UNL A   1      34.074  20.349  24.670  1.00  0.00    -0.484 OA
BRANCH  13  14
ATOM     14  C   UNL A   1      33.956  18.997  24.714  1.00  0.00     0.120 A 
ATOM     15  C   UNL A   1      33.485  16.250  24.928  1.00  0.00     0.119 A 
ATOM     16  C   UNL A   1      32.486  17.160  25.270  1.00  0.00     0.050 A 
ATOM     17  C   UNL A   1      34.703  16.720  24.431  1.00  0.00     0.050 A 
ATOM     18  C   UNL A   1      32.720  18.528  25.157  1.00  0.00     0.050 A 
ATOM     19  C   UNL A   1      34.939  18.093  24.324  1.00  0.00     0.050 A 
BRANCH  15  20
ATOM     20  O   UNL A   1      33.158  14.935  25.103  1.00  0.00    -0.497 OA
ATOM     21  C   UNL A   1      32.023  14.692  25.925  1.00  0.00     0.278 C 
ENDBRANCH  15  20
ENDBRANCH  13  14
ENDBRANCH  12  13
ENDBRANCH   9  12
ENDBRANCH   6   8
ENDBRANCH   3   5
ENDBRANCH   2   3
ENDBRANCH   1   2
BRANCH   1  22
ATOM     22  C   UNL A   1      36.892  22.834  25.199  1.00  0.00     0.202 C 
BRANCH  22  23
ATOM     23  O   UNL A   1      36.998  21.466  25.587  1.00  0.00    -0.374 OA
BRANCH  23  24
ATOM     24  C   UNL A   1      37.714  20.515  24.797  1.00  0.00     0.202 C 
BRANCH  24  25
ATOM     25  C   UNL A   1      38.942  19.825  25.384  1.00  0.00     0.261 C 
BRANCH  25  26
ATOM     26  O   UNL A   1      39.371  20.424  26.608  1.00  0.00    -0.460 OA
BRANCH  26  27
ATOM     27  C   UNL A   1      40.694  20.711  26.637  1.00  0.00     0.338 C 
ATOM     28  O   UNL A   1      41.608  20.067  26.152  1.00  0.00    -0.246 OA
BRANCH  27  29
ATOM     29  C   UNL A   1      40.879  22.057  27.195  1.00  0.00     0.060 A 
ATOM     30  C   UNL A   1      40.186  23.107  26.580  1.00  0.00     0.016 A 
ATOM     31  C   UNL A   1      41.752  22.291  28.260  1.00  0.00     0.016 A 
ATOM     32  C   UNL A   1      40.414  24.414  26.986  1.00  0.00     0.010 A 
ATOM     33  C   UNL A   1      41.994  23.604  28.656  1.00  0.00     0.010 A 
ATOM     34  C   UNL A   1      41.361  24.665  27.984  1.00  0.00    -0.014 A 
BRANCH  34  35
ATOM     35  C   UNL A   1      41.846  26.046  28.161  1.00  0.00     0.031 A 
ATOM     36  C   UNL A   1      43.188  26.400  27.589  1.00  0.00     0.074 A 
ATOM     37  C   UNL A   1      41.076  26.964  28.764  1.00  0.00     0.049 A 
ATOM     38  N   UNL A   1      43.829  27.539  27.614  1.00  0.00    -0.248 NA
ATOM     39  C   UNL A   1      43.907  25.320  26.890  1.00  0.00     0.031 C 
ATOM     40  C   UNL A   1      39.740  26.721  29.303  1.00  0.00     0.029 A 
ATOM     41  N   UNL A   1      41.311  28.288  29.018  1.00  0.00    -0.354 N 
ATOM     42  C   UNL A   1      45.021  27.312  26.938  1.00  0.00     0.074 A 
ATOM     43  C   UNL A   1      45.034  25.921  26.545  1.00  0.00     0.031 C 
ATOM     44  C   UNL A   1      39.272  27.864  29.834  1.00  0.00     0.029 A 
ATOM     45  C   UNL A   1      40.289  28.904  29.694  1.00  0.00     0.049 A 
ATOM     46  H   UNL A   1      42.134  28.753  28.743  1.00  0.00     0.167 HD
ATOM     47  C   UNL A   1      46.009  28.194  26.663  1.00  0.00     0.037 A 
ATOM     48  C   UNL A   1      40.203  30.164  30.157  1.00  0.00     0.037 A 
ATOM     49  C   UNL A   1      45.979  29.573  27.070  1.00  0.00     0.049 A 
ATOM     50  C   UNL A   1      41.348  31.109  29.896  1.00  0.00     0.074 A 
ATOM     51  C   UNL A   1      46.926  30.559  26.858  1.00  0.00     0.029 A 
ATOM     52  N   UNL A   1      44.941  30.159  27.782  1.00  0.00    -0.354 N 
ATOM     53  N   UNL A   1      42.469  30.894  29.249  1.00  0.00    -0.248 NA
ATOM     54  C   UNL A   1      41.211  32.472  30.422  1.00  0.00     0.031 C 
ATOM     55  C   UNL A   1      46.480  31.729  27.482  1.00  0.00     0.029 A 
ATOM     56  C   UNL A   1      45.230  31.489  28.033  1.00  0.00     0.049 A 
ATOM     57  H   UNL A   1      44.119  29.696  28.066  1.00  0.00     0.167 HD
ATOM     58  C   UNL A   1      43.155  32.102  29.260  1.00  0.00     0.074 A 
ATOM     59  C   UNL A   1      42.315  33.047  29.968  1.00  0.00     0.031 C 
ATOM     60  C   UNL A   1      44.367  32.406  28.732  1.00  0.00     0.037 A 
BRANCH  47  61
ATOM     61  C   UNL A   1      47.207  27.683  25.918  1.00  0.00     0.064 A 
ATOM     62  C   UNL A   1      47.270  27.705  24.516  1.00  0.00     0.173 A 
ATOM     63  C   UNL A   1      48.312  27.174  26.616  1.00  0.00     0.173 A 
ATOM     64  F   UNL A   1      46.230  28.160  23.801  1.00  0.00    -0.203 F 
ATOM     65  C   UNL A   1      48.385  27.214  23.841  1.00  0.00     0.198 A 
ATOM     66  C   UNL A   1      49.437  26.711  25.939  1.00  0.00     0.198 A 
ATOM     67  F   UNL A   1      48.302  27.125  27.957  1.00  0.00    -0.203 F 
ATOM     68  F   UNL A   1      48.401  27.198  22.501  1.00  0.00    -0.200 F 
ATOM     69  C   UNL A   1      49.470  26.724  24.553  1.00  0.00     0.200 A 
ATOM     70  F   UNL A   1      50.488  26.246  26.628  1.00  0.00    -0.200 F 
ATOM     71  F   UNL A   1      50.545  26.257  23.902  1.00  0.00    -0.200 F 
ENDBRANCH  47  61
BRANCH  48  72
ATOM     72  C   UNL A   1      38.998  30.601  30.907  1.00  0.00     0.064 A 
ATOM     73  C   UNL A   1      38.947  30.523  32.305  1.00  0.00     0.173 A 
ATOM     74  C   UNL A   1      37.868  31.098  30.240  1.00  0.00     0.173 A 
ATOM     75  F   UNL A   1      39.995  30.037  32.986  1.00  0.00    -0.203 F 
ATOM     76  C   UNL A   1      37.804  30.905  33.006  1.00  0.00     0.198 A 
ATOM     77  C   UNL A   1      36.737  31.506  30.944  1.00  0.00     0.198 A 
ATOM     78  F   UNL A   1      37.866  31.195  28.902  1.00  0.00    -0.203 F 
ATOM     79  F   UNL A   1      37.765  30.775  34.340  1.00  0.00    -0.200 F 
ATOM     80  C   UNL A   1      36.703  31.401  32.325  1.00  0.00     0.200 A 
ATOM     81  F   UNL A   1      35.681  31.997  30.283  1.00  0.00    -0.200 F 
ATOM     82  F   UNL A   1      35.605  31.769  33.000  1.00  0.00    -0.200 F 
ENDBRANCH  48  72
BRANCH  60  83
ATOM     83  C   UNL A   1      44.828  33.829  28.861  1.00  0.00     0.064 A 
ATOM     84  C   UNL A   1      44.511  34.799  27.901  1.00  0.00     0.173 A 
ATOM     85  C   UNL A   1      45.571  34.229  29.983  1.00  0.00     0.173 A 
ATOM     86  F   UNL A   1      43.814  34.463  26.805  1.00  0.00    -0.203 F 
ATOM     87  C   UNL A   1      44.952  36.112  28.040  1.00  0.00     0.198 A 
ATOM     88  C   UNL A   1      45.982  35.550  30.134  1.00  0.00     0.198 A 
ATOM     89  F   UNL A   1      45.890  33.341  30.935  1.00  0.00    -0.203 F 
ATOM     90  F   UNL A   1      44.688  37.011  27.081  1.00  0.00    -0.200 F 
ATOM     91  C   UNL A   1      45.681  36.487  29.158  1.00  0.00     0.200 A 
ATOM     92  F   UNL A   1      46.672  35.914  31.225  1.00  0.00    -0.200 F 
ATOM     93  F   UNL A   1      46.102  37.753  29.292  1.00  0.00    -0.200 F 
ENDBRANCH  60  83
ENDBRANCH  34  35
ENDBRANCH  27  29
ENDBRANCH  26  27
ENDBRANCH  25  26
ENDBRANCH  24  25
ENDBRANCH  23  24
ENDBRANCH  22  23
ENDBRANCH   1  22
TORSDOF 19
ENDMDL
MODEL 3
REMARK VINA RESULT:     -10.6      4.325      9.918
REMARK SMILES COc1ccc(OCC(=O)N/N=C(/C)C(=O)OCCOCCOC(=O)c2ccc(-c3c4nc(c(-c5c(F)c(F)c(F)c(F)c5F)c5ccc([nH]5)c(-c5c(F)c(F)c(F)c(F)c5F)c5nc(c(-c6c(F)c(F)c(F)c(F)c6F)c6ccc3[nH]6)C=C5)C=C4)cc2)cc1
REMARK SMILES IDX 18 1 17 2 15 3 16 4 13 5 12 6 14 7 11 8 9 9 10 10 8 12 7 13
REMARK SMILES IDX 6 14 3 15 4 16 90 17 5 18 89 19 2 20 1 21 19 22 20 23 21 24
REMARK SMILES IDX 22 25 23 26 24 27 25 28 26 29 27 30 88 31 28 32 87 33 29 34
REMARK SMILES IDX 30 35 31 36 81 37 32 38 86 39 80 40 82 41 33 42 85 43 79 44
REMARK SMILES IDX 78 45 34 47 66 48 46 49 65 50 47 51 50 52 64 53 83 54 48 55
REMARK SMILES IDX 49 56 63 58 84 59 51 60 35 61 36 62 44 63 37 64 38 65 42 66
REMARK SMILES IDX 45 67 39 68 40 69 43 70 41 71 67 72 68 73 76 74 69 75 70 76
REMARK SMILES IDX 74 77 77 78 71 79 72 80 75 81 73 82 52 83 53 84 61 85 54 86
REMARK SMILES IDX 55 87 59 88 62 89 56 90 57 91 60 92 58 93
REMARK H PARENT 11 11 82 46 50 57
REMARK Flexibility Score: inf
ROOT
ATOM      1  C   UNL A   1      32.301  21.867  25.158  1.00  0.00     0.261 C 
ENDROOT
BRANCH   1   2
ATOM      2  O   UNL A   1      32.461  23.268  25.361  1.00  0.00    -0.459 OA
BRANCH   2   3
ATOM      3  C   UNL A   1      31.507  23.892  26.075  1.00  0.00     0.354 C 
ATOM      4  O   UNL A   1      31.166  23.700  27.225  1.00  0.00    -0.245 OA
BRANCH   3   5
ATOM      5  C   UNL A   1      30.742  24.766  25.126  1.00  0.00     0.142 C 
ATOM      6  N   UNL A   1      30.824  24.902  23.839  1.00  0.00    -0.170 NA
ATOM      7  C   UNL A   1      29.704  25.608  25.833  1.00  0.00     0.077 C 
BRANCH   6   8
ATOM      8  N   UNL A   1      31.605  24.373  22.869  1.00  0.00    -0.244 N 
ATOM      9  C   UNL A   1      32.807  24.577  22.256  1.00  0.00     0.277 C 
ATOM     10  O   UNL A   1      33.135  23.765  21.379  1.00  0.00    -0.269 OA
ATOM     11  H   UNL A   1      31.162  23.585  22.478  1.00  0.00     0.193 HD
BRANCH   9  12
ATOM     12  C   UNL A   1      33.777  25.658  22.655  1.00  0.00     0.331 C 
BRANCH  12  13
ATOM     13  O   UNL A   1      34.070  25.804  24.024  1.00  0.00    -0.484 OA
BRANCH  13  14
ATOM     14  C   UNL A   1      33.722  26.974  24.621  1.00  0.00     0.120 A 
ATOM     15  C   UNL A   1      33.009  29.251  26.075  1.00  0.00     0.119 A 
ATOM     16  C   UNL A   1      33.401  28.090  26.740  1.00  0.00     0.050 A 
ATOM     17  C   UNL A   1      33.023  29.282  24.679  1.00  0.00     0.050 A 
ATOM     18  C   UNL A   1      33.761  26.959  26.014  1.00  0.00     0.050 A 
ATOM     19  C   UNL A   1      33.379  28.145  23.952  1.00  0.00     0.050 A 
BRANCH  15  20
ATOM     20  O   UNL A   1      32.651  30.292  26.886  1.00  0.00    -0.497 OA
ATOM     21  C   UNL A   1      33.729  30.988  27.498  1.00  0.00     0.278 C 
ENDBRANCH  15  20
ENDBRANCH  13  14
ENDBRANCH  12  13
ENDBRANCH   9  12
ENDBRANCH   6   8
ENDBRANCH   3   5
ENDBRANCH   2   3
ENDBRANCH   1   2
BRANCH   1  22
ATOM     22  C   UNL A   1      33.529  21.072  25.648  1.00  0.00     0.202 C 
BRANCH  22  23
ATOM     23  O   UNL A   1      34.762  21.090  24.932  1.00  0.00    -0.374 OA
BRANCH  23  24
ATOM     24  C   UNL A   1      35.974  21.544  25.537  1.00  0.00     0.202 C 
BRANCH  24  25
ATOM     25  C   UNL A   1      37.278  20.803  25.253  1.00  0.00     0.261 C 
BRANCH  25  26
ATOM     26  O   UNL A   1      38.400  21.685  25.176  1.00  0.00    -0.460 OA
BRANCH  26  27
ATOM     27  C   UNL A   1      39.376  21.400  26.069  1.00  0.00     0.338 C 
ATOM     28  O   UNL A   1      39.991  20.355  26.194  1.00  0.00    -0.246 OA
BRANCH  27  29
ATOM     29  C   UNL A   1      39.748  22.631  26.780  1.00  0.00     0.060 A 
ATOM     30  C   UNL A   1      39.045  23.797  26.454  1.00  0.00     0.016 A 
ATOM     31  C   UNL A   1      40.796  22.651  27.704  1.00  0.00     0.016 A 
ATOM     32  C   UNL A   1      39.431  25.010  27.003  1.00  0.00     0.010 A 
ATOM     33  C   UNL A   1      41.194  23.872  28.243  1.00  0.00     0.010 A 
ATOM     34  C   UNL A   1      40.542  25.054  27.853  1.00  0.00    -0.014 A 
BRANCH  34  35
ATOM     35  C   UNL A   1      41.150  26.365  28.146  1.00  0.00     0.031 A 
ATOM     36  C   UNL A   1      42.563  26.603  27.700  1.00  0.00     0.074 A 
ATOM     37  C   UNL A   1      40.430  27.329  28.742  1.00  0.00     0.049 A 
ATOM     38  N   UNL A   1      43.313  27.664  27.841  1.00  0.00    -0.248 NA
ATOM     39  C   UNL A   1      43.222  25.488  26.996  1.00  0.00     0.031 C 
ATOM     40  C   UNL A   1      39.037  27.202  29.162  1.00  0.00     0.029 A 
ATOM     41  N   UNL A   1      40.778  28.605  29.090  1.00  0.00    -0.354 N 
ATOM     42  C   UNL A   1      44.527  27.345  27.246  1.00  0.00     0.074 A 
ATOM     43  C   UNL A   1      44.430  25.982  26.774  1.00  0.00     0.031 C 
ATOM     44  C   UNL A   1      38.647  28.360  29.723  1.00  0.00     0.029 A 
ATOM     45  C   UNL A   1      39.773  29.292  29.722  1.00  0.00     0.049 A 
ATOM     46  H   UNL A   1      41.664  28.994  28.907  1.00  0.00     0.167 HD
ATOM     47  C   UNL A   1      45.619  28.130  27.099  1.00  0.00     0.037 A 
ATOM     48  C   UNL A   1      39.779  30.529  30.250  1.00  0.00     0.037 A 
ATOM     49  C   UNL A   1      45.697  29.482  27.583  1.00  0.00     0.049 A 
ATOM     50  C   UNL A   1      41.032  31.358  30.133  1.00  0.00     0.074 A 
ATOM     51  C   UNL A   1      46.754  30.370  27.502  1.00  0.00     0.029 A 
ATOM     52  N   UNL A   1      44.670  30.138  28.247  1.00  0.00    -0.354 N 
ATOM     53  N   UNL A   1      42.175  31.058  29.562  1.00  0.00    -0.248 NA
ATOM     54  C   UNL A   1      40.992  32.700  30.727  1.00  0.00     0.031 C 
ATOM     55  C   UNL A   1      46.381  31.548  28.158  1.00  0.00     0.029 A 
ATOM     56  C   UNL A   1      45.072  31.415  28.598  1.00  0.00     0.049 A 
ATOM     57  H   UNL A   1      43.784  29.751  28.440  1.00  0.00     0.167 HD
ATOM     58  C   UNL A   1      42.977  32.183  29.696  1.00  0.00     0.074 A 
ATOM     59  C   UNL A   1      42.183  33.176  30.394  1.00  0.00     0.031 C 
ATOM     60  C   UNL A   1      44.253  32.383  29.281  1.00  0.00     0.037 A 
BRANCH  47  61
ATOM     61  C   UNL A   1      46.815  27.531  26.419  1.00  0.00     0.064 A 
ATOM     62  C   UNL A   1      47.814  26.857  27.139  1.00  0.00     0.173 A 
ATOM     63  C   UNL A   1      46.960  27.623  25.027  1.00  0.00     0.173 A 
ATOM     64  F   UNL A   1      47.735  26.760  28.475  1.00  0.00    -0.203 F 
ATOM     65  C   UNL A   1      48.924  26.318  26.492  1.00  0.00     0.198 A 
ATOM     66  C   UNL A   1      48.056  27.059  24.380  1.00  0.00     0.198 A 
ATOM     67  F   UNL A   1      46.037  28.262  24.292  1.00  0.00    -0.203 F 
ATOM     68  F   UNL A   1      49.889  25.722  27.206  1.00  0.00    -0.200 F 
ATOM     69  C   UNL A   1      49.040  26.413  25.113  1.00  0.00     0.200 A 
ATOM     70  F   UNL A   1      48.163  27.144  23.047  1.00  0.00    -0.200 F 
ATOM     71  F   UNL A   1      50.106  25.890  24.491  1.00  0.00    -0.200 F 
ENDBRANCH  47  61
BRANCH  48  72
ATOM     72  C   UNL A   1      38.568  31.054  30.931  1.00  0.00     0.064 A 
ATOM     73  C   UNL A   1      38.424  30.968  32.322  1.00  0.00     0.173 A 
ATOM     74  C   UNL A   1      37.524  31.644  30.203  1.00  0.00     0.173 A 
ATOM     75  F   UNL A   1      39.385  30.394  33.060  1.00  0.00    -0.203 F 
ATOM     76  C   UNL A   1      37.273  31.432  32.956  1.00  0.00     0.198 A 
ATOM     77  C   UNL A   1      36.387  32.135  30.841  1.00  0.00     0.198 A 
ATOM     78  F   UNL A   1      37.613  31.753  28.868  1.00  0.00    -0.203 F 
ATOM     79  F   UNL A   1      37.140  31.295  34.283  1.00  0.00    -0.200 F 
ATOM     80  C   UNL A   1      36.258  32.020  32.216  1.00  0.00     0.200 A 
ATOM     81  F   UNL A   1      35.415  32.713  30.123  1.00  0.00    -0.200 F 
ATOM     82  F   UNL A   1      35.153  32.468  32.827  1.00  0.00    -0.200 F 
ENDBRANCH  48  72
BRANCH  60  83
ATOM     83  C   UNL A   1      44.845  33.739  29.529  1.00  0.00     0.064 A 
ATOM     84  C   UNL A   1      45.545  34.037  30.706  1.00  0.00     0.173 A 
ATOM     85  C   UNL A   1      44.735  34.745  28.556  1.00  0.00     0.173 A 
ATOM     86  F   UNL A   1      45.667  33.113  31.672  1.00  0.00    -0.203 F 
ATOM     87  C   UNL A   1      46.084  35.303  30.916  1.00  0.00     0.198 A 
ATOM     88  C   UNL A   1      45.303  35.999  28.755  1.00  0.00     0.198 A 
ATOM     89  F   UNL A   1      44.084  34.507  27.408  1.00  0.00    -0.203 F 
ATOM     90  F   UNL A   1      46.699  35.584  32.074  1.00  0.00    -0.200 F 
ATOM     91  C   UNL A   1      45.968  36.280  29.939  1.00  0.00     0.200 A 
ATOM     92  F   UNL A   1      45.204  36.937  27.802  1.00  0.00    -0.200 F 
ATOM     93  F   UNL A   1      46.490  37.498  30.141  1.00  0.00    -0.200 F 
ENDBRANCH  60  83
ENDBRANCH  34  35
ENDBRANCH  27  29
ENDBRANCH  26  27
ENDBRANCH  25  26
ENDBRANCH  24  25
ENDBRANCH  23  24
ENDBRANCH  22  23
ENDBRANCH   1  22
TORSDOF 19
ENDMDL
