MODEL 1
REMARK VINA RESULT:     -11.9      0.000      0.000
REMARK SMILES Cc1nc(=O)[nH]c(C)c1CC(=O)Nc1sccc1C(=O)OCCOCCOC(=O)c1ccc(-c2c3nc(c(-c4c(F)c(F)c(F)c(F)c4F)c4ccc([nH]4)c(-c4c(F)c(F)c(F)c(F)c4F)c4nc(c(-c5c(F)c(F)c(F)c(F)c5F)c5ccc2[nH]5)C=C4)C=C3)cc1
REMARK SMILES IDX 23 1 22 2 21 3 19 4 20 5 18 6 14 7 15 8 16 9 17 10 13 11
REMARK SMILES IDX 11 12 12 13 10 15 9 16 1 17 2 18 3 19 4 20 7 21 5 22 6 23
REMARK SMILES IDX 8 24 24 26 25 27 26 28 27 29 28 30 29 31 30 32 31 33 92 34
REMARK SMILES IDX 32 35 91 36 33 37 34 38 35 39 85 40 36 41 90 42 84 43 86 44
REMARK SMILES IDX 37 45 89 46 83 47 82 48 38 50 70 51 50 52 69 53 51 54 54 55
REMARK SMILES IDX 68 56 87 57 52 58 53 59 67 61 88 62 55 63 39 64 40 65 48 66
REMARK SMILES IDX 41 67 42 68 46 69 49 70 43 71 44 72 47 73 45 74 71 75 72 76
REMARK SMILES IDX 80 77 73 78 74 79 78 80 81 81 75 82 76 83 79 84 77 85 56 86
REMARK SMILES IDX 57 87 65 88 58 89 59 90 63 91 66 92 60 93 61 94 64 95 62 96
REMARK H PARENT 13 14 6 25 86 49 54 60
REMARK Flexibility Score: inf
ROOT
ATOM      1  C   UNL A   1      31.779  29.476  26.876  1.00  0.00     0.202 C 
ENDROOT
BRANCH   1   2
ATOM      2  C   UNL A   1      32.192  28.303  25.975  1.00  0.00     0.261 C 
BRANCH   2   3
ATOM      3  O   UNL A   1      33.136  27.308  26.403  1.00  0.00    -0.460 OA
BRANCH   3   4
ATOM      4  C   UNL A   1      33.654  26.542  25.397  1.00  0.00     0.341 C 
ATOM      5  O   UNL A   1      33.944  26.985  24.291  1.00  0.00    -0.246 OA
BRANCH   4   6
ATOM      6  C   UNL A   1      33.930  25.151  25.751  1.00  0.00     0.094 A 
ATOM      7  C   UNL A   1      33.155  24.284  26.495  1.00  0.00     0.110 A 
ATOM      8  S   UNL A   1      33.958  22.836  26.895  1.00  0.00    -0.126 S 
ATOM      9  C   UNL A   1      35.247  23.200  25.835  1.00  0.00     0.068 A 
ATOM     10  C   UNL A   1      35.125  24.469  25.316  1.00  0.00     0.029 A 
BRANCH   7  11
ATOM     11  N   UNL A   1      31.885  24.351  27.003  1.00  0.00    -0.317 N 
ATOM     12  C   UNL A   1      30.730  24.070  26.321  1.00  0.00     0.229 C 
ATOM     13  O   UNL A   1      29.648  24.284  26.876  1.00  0.00    -0.274 OA
ATOM     14  H   UNL A   1      31.793  24.627  27.944  1.00  0.00     0.170 HD
BRANCH  12  15
ATOM     15  C   UNL A   1      30.782  23.328  24.980  1.00  0.00     0.139 C 
BRANCH  15  16
ATOM     16  C   UNL A   1      31.348  24.048  23.794  1.00  0.00     0.002 A 
ATOM     17  C   UNL A   1      32.894  22.004  23.230  1.00  0.00     0.067 C 
ATOM     18  C   UNL A   1      32.438  23.424  22.960  1.00  0.00     0.049 A 
ATOM     19  N   UNL A   1      33.054  24.014  21.987  1.00  0.00    -0.198 NA
ATOM     20  C   UNL A   1      32.692  25.281  21.649  1.00  0.00     0.345 A 
ATOM     21  C   UNL A   1      30.940  25.244  23.333  1.00  0.00     0.022 A 
ATOM     22  O   UNL A   1      33.278  25.954  20.799  1.00  0.00    -0.246 OA
ATOM     23  N   UNL A   1      31.598  25.815  22.274  1.00  0.00    -0.310 N 
ATOM     24  C   UNL A   1      29.837  26.070  23.938  1.00  0.00     0.065 C 
ATOM     25  H   UNL A   1      31.255  26.676  21.936  1.00  0.00     0.171 HD
ENDBRANCH  15  16
ENDBRANCH  12  15
ENDBRANCH   7  11
ENDBRANCH   4   6
ENDBRANCH   3   4
ENDBRANCH   2   3
ENDBRANCH   1   2
BRANCH   1  26
ATOM     26  O   UNL A   1      32.377  30.749  26.797  1.00  0.00    -0.374 OA
BRANCH  26  27
ATOM     27  C   UNL A   1      31.580  31.914  26.863  1.00  0.00     0.202 C 
BRANCH  27  28
ATOM     28  C   UNL A   1      32.218  33.288  27.118  1.00  0.00     0.261 C 
BRANCH  28  29
ATOM     29  O   UNL A   1      33.019  33.403  28.306  1.00  0.00    -0.460 OA
BRANCH  29  30
ATOM     30  C   UNL A   1      34.185  34.071  28.145  1.00  0.00     0.338 C 
ATOM     31  O   UNL A   1      34.337  35.267  27.968  1.00  0.00    -0.246 OA
BRANCH  30  32
ATOM     32  C   UNL A   1      35.322  33.154  28.340  1.00  0.00     0.060 A 
ATOM     33  C   UNL A   1      35.067  31.810  28.649  1.00  0.00     0.016 A 
ATOM     34  C   UNL A   1      36.623  33.655  28.375  1.00  0.00     0.016 A 
ATOM     35  C   UNL A   1      36.109  30.971  29.038  1.00  0.00     0.010 A 
ATOM     36  C   UNL A   1      37.664  32.823  28.793  1.00  0.00     0.010 A 
ATOM     37  C   UNL A   1      37.401  31.492  29.170  1.00  0.00    -0.014 A 
BRANCH  37  38
ATOM     38  C   UNL A   1      38.418  30.726  29.928  1.00  0.00     0.031 A 
ATOM     39  C   UNL A   1      38.597  31.038  31.389  1.00  0.00     0.074 A 
ATOM     40  C   UNL A   1      39.148  29.763  29.343  1.00  0.00     0.049 A 
ATOM     41  N   UNL A   1      39.464  30.562  32.245  1.00  0.00    -0.248 NA
ATOM     42  C   UNL A   1      37.667  32.026  31.962  1.00  0.00     0.031 C 
ATOM     43  C   UNL A   1      39.016  29.328  27.955  1.00  0.00     0.029 A 
ATOM     44  N   UNL A   1      40.158  28.984  29.849  1.00  0.00    -0.354 N 
ATOM     45  C   UNL A   1      39.198  31.205  33.447  1.00  0.00     0.074 A 
ATOM     46  C   UNL A   1      38.101  32.116  33.209  1.00  0.00     0.031 C 
ATOM     47  C   UNL A   1      39.924  28.366  27.715  1.00  0.00     0.029 A 
ATOM     48  C   UNL A   1      40.725  28.150  28.919  1.00  0.00     0.049 A 
ATOM     49  H   UNL A   1      40.449  29.022  30.789  1.00  0.00     0.167 HD
ATOM     50  C   UNL A   1      39.816  31.048  34.642  1.00  0.00     0.037 A 
ATOM     51  C   UNL A   1      41.789  27.330  29.027  1.00  0.00     0.037 A 
ATOM     52  C   UNL A   1      40.908  30.139  34.869  1.00  0.00     0.049 A 
ATOM     53  C   UNL A   1      42.518  27.241  30.345  1.00  0.00     0.074 A 
ATOM     54  C   UNL A   1      41.592  29.887  36.044  1.00  0.00     0.029 A 
ATOM     55  N   UNL A   1      41.486  29.342  33.890  1.00  0.00    -0.354 N 
ATOM     56  N   UNL A   1      42.252  27.834  31.484  1.00  0.00    -0.248 NA
ATOM     57  C   UNL A   1      43.700  26.367  30.389  1.00  0.00     0.031 C 
ATOM     58  C   UNL A   1      42.627  28.990  35.762  1.00  0.00     0.029 A 
ATOM     59  C   UNL A   1      42.542  28.626  34.428  1.00  0.00     0.049 A 
ATOM     60  H   UNL A   1      41.188  29.293  32.954  1.00  0.00     0.167 HD
ATOM     61  C   UNL A   1      43.206  27.379  32.387  1.00  0.00     0.074 A 
ATOM     62  C   UNL A   1      44.052  26.452  31.664  1.00  0.00     0.031 C 
ATOM     63  C   UNL A   1      43.367  27.697  33.696  1.00  0.00     0.037 A 
BRANCH  50  64
ATOM     64  C   UNL A   1      39.359  31.916  35.780  1.00  0.00     0.064 A 
ATOM     65  C   UNL A   1      38.373  31.499  36.687  1.00  0.00     0.173 A 
ATOM     66  C   UNL A   1      39.934  33.181  35.975  1.00  0.00     0.173 A 
ATOM     67  F   UNL A   1      37.779  30.306  36.538  1.00  0.00    -0.203 F 
ATOM     68  C   UNL A   1      37.959  32.330  37.727  1.00  0.00     0.198 A 
ATOM     69  C   UNL A   1      39.542  33.994  37.035  1.00  0.00     0.198 A 
ATOM     70  F   UNL A   1      40.883  33.629  35.139  1.00  0.00    -0.203 F 
ATOM     71  F   UNL A   1      36.975  31.934  38.548  1.00  0.00    -0.200 F 
ATOM     72  C   UNL A   1      38.548  33.573  37.904  1.00  0.00     0.200 A 
ATOM     73  F   UNL A   1      40.123  35.188  37.211  1.00  0.00    -0.200 F 
ATOM     74  F   UNL A   1      38.153  34.367  38.907  1.00  0.00    -0.200 F 
ENDBRANCH  50  64
BRANCH  51  75
ATOM     75  C   UNL A   1      42.241  26.533  27.855  1.00  0.00     0.064 A 
ATOM     76  C   UNL A   1      43.213  27.031  26.975  1.00  0.00     0.173 A 
ATOM     77  C   UNL A   1      41.693  25.273  27.572  1.00  0.00     0.173 A 
ATOM     78  F   UNL A   1      43.747  28.243  27.185  1.00  0.00    -0.203 F 
ATOM     79  C   UNL A   1      43.607  26.308  25.851  1.00  0.00     0.198 A 
ATOM     80  C   UNL A   1      42.110  24.537  26.465  1.00  0.00     0.198 A 
ATOM     81  F   UNL A   1      40.753  24.752  28.376  1.00  0.00    -0.203 F 
ATOM     82  F   UNL A   1      44.500  26.831  25.001  1.00  0.00    -0.200 F 
ATOM     83  C   UNL A   1      43.060  25.059  25.600  1.00  0.00     0.200 A 
ATOM     84  F   UNL A   1      41.587  23.326  26.232  1.00  0.00    -0.200 F 
ATOM     85  F   UNL A   1      43.440  24.363  24.521  1.00  0.00    -0.200 F 
ENDBRANCH  51  75
BRANCH  63  86
ATOM     86  C   UNL A   1      44.465  27.000  34.449  1.00  0.00     0.064 A 
ATOM     87  C   UNL A   1      45.741  27.566  34.594  1.00  0.00     0.173 A 
ATOM     88  C   UNL A   1      44.221  25.766  35.074  1.00  0.00     0.173 A 
ATOM     89  F   UNL A   1      46.032  28.736  34.005  1.00  0.00    -0.203 F 
ATOM     90  C   UNL A   1      46.738  26.909  35.311  1.00  0.00     0.198 A 
ATOM     91  C   UNL A   1      45.209  25.131  35.821  1.00  0.00     0.198 A 
ATOM     92  F   UNL A   1      43.016  25.185  34.976  1.00  0.00    -0.203 F 
ATOM     93  F   UNL A   1      47.964  27.443  35.391  1.00  0.00    -0.200 F 
ATOM     94  C   UNL A   1      46.469  25.698  35.931  1.00  0.00     0.200 A 
ATOM     95  F   UNL A   1      44.940  23.970  36.434  1.00  0.00    -0.200 F 
ATOM     96  F   UNL A   1      47.426  25.073  36.630  1.00  0.00    -0.200 F 
ENDBRANCH  63  86
ENDBRANCH  37  38
ENDBRANCH  30  32
ENDBRANCH  29  30
ENDBRANCH  28  29
ENDBRANCH  27  28
ENDBRANCH  26  27
ENDBRANCH   1  26
TORSDOF 17
ENDMDL
MODEL 2
REMARK VINA RESULT:     -11.5      1.548      7.622
REMARK SMILES Cc1nc(=O)[nH]c(C)c1CC(=O)Nc1sccc1C(=O)OCCOCCOC(=O)c1ccc(-c2c3nc(c(-c4c(F)c(F)c(F)c(F)c4F)c4ccc([nH]4)c(-c4c(F)c(F)c(F)c(F)c4F)c4nc(c(-c5c(F)c(F)c(F)c(F)c5F)c5ccc2[nH]5)C=C4)C=C3)cc1
REMARK SMILES IDX 23 1 22 2 21 3 19 4 20 5 18 6 14 7 15 8 16 9 17 10 13 11
REMARK SMILES IDX 11 12 12 13 10 15 9 16 1 17 2 18 3 19 4 20 7 21 5 22 6 23
REMARK SMILES IDX 8 24 24 26 25 27 26 28 27 29 28 30 29 31 30 32 31 33 92 34
REMARK SMILES IDX 32 35 91 36 33 37 34 38 35 39 85 40 36 41 90 42 84 43 86 44
REMARK SMILES IDX 37 45 89 46 83 47 82 48 38 50 70 51 50 52 69 53 51 54 54 55
REMARK SMILES IDX 68 56 87 57 52 58 53 59 67 61 88 62 55 63 39 64 40 65 48 66
REMARK SMILES IDX 41 67 42 68 46 69 49 70 43 71 44 72 47 73 45 74 71 75 72 76
REMARK SMILES IDX 80 77 73 78 74 79 78 80 81 81 75 82 76 83 79 84 77 85 56 86
REMARK SMILES IDX 57 87 65 88 58 89 59 90 63 91 66 92 60 93 61 94 64 95 62 96
REMARK H PARENT 13 14 6 25 86 49 54 60
REMARK Flexibility Score: inf
ROOT
ATOM      1  C   UNL A   1      30.650  28.723  23.776  1.00  0.00     0.202 C 
ENDROOT
BRANCH   1   2
ATOM      2  C   UNL A   1      30.084  27.299  23.865  1.00  0.00     0.261 C 
BRANCH   2   3
ATOM      3  O   UNL A   1      30.781  26.166  23.322  1.00  0.00    -0.460 OA
BRANCH   3   4
ATOM      4  C   UNL A   1      31.976  25.888  23.925  1.00  0.00     0.341 C 
ATOM      5  O   UNL A   1      33.038  26.399  23.589  1.00  0.00    -0.246 OA
BRANCH   4   6
ATOM      6  C   UNL A   1      31.899  24.991  25.076  1.00  0.00     0.094 A 
ATOM      7  C   UNL A   1      32.932  24.428  25.798  1.00  0.00     0.110 A 
ATOM      8  S   UNL A   1      32.415  23.236  26.899  1.00  0.00    -0.126 S 
ATOM      9  C   UNL A   1      30.777  23.652  26.657  1.00  0.00     0.068 A 
ATOM     10  C   UNL A   1      30.639  24.572  25.643  1.00  0.00     0.029 A 
BRANCH   7  11
ATOM     11  N   UNL A   1      34.291  24.607  25.799  1.00  0.00    -0.317 N 
ATOM     12  C   UNL A   1      35.197  23.880  25.073  1.00  0.00     0.229 C 
ATOM     13  O   UNL A   1      36.401  24.079  25.260  1.00  0.00    -0.274 OA
ATOM     14  H   UNL A   1      34.649  25.322  26.374  1.00  0.00     0.170 HD
BRANCH  12  15
ATOM     15  C   UNL A   1      34.728  22.985  23.919  1.00  0.00     0.139 C 
BRANCH  15  16
ATOM     16  C   UNL A   1      34.158  21.640  24.254  1.00  0.00     0.002 A 
ATOM     17  C   UNL A   1      31.946  22.200  22.960  1.00  0.00     0.067 C 
ATOM     18  C   UNL A   1      32.759  21.268  23.836  1.00  0.00     0.049 A 
ATOM     19  N   UNL A   1      32.153  20.174  24.170  1.00  0.00    -0.198 NA
ATOM     20  C   UNL A   1      32.814  19.260  24.931  1.00  0.00     0.345 A 
ATOM     21  C   UNL A   1      34.809  20.647  24.888  1.00  0.00     0.022 A 
ATOM     22  O   UNL A   1      32.291  18.234  25.371  1.00  0.00    -0.246 OA
ATOM     23  N   UNL A   1      34.138  19.489  25.188  1.00  0.00    -0.310 N 
ATOM     24  C   UNL A   1      36.232  20.721  25.373  1.00  0.00     0.065 C 
ATOM     25  H   UNL A   1      34.649  18.766  25.621  1.00  0.00     0.171 HD
ENDBRANCH  15  16
ENDBRANCH  12  15
ENDBRANCH   7  11
ENDBRANCH   4   6
ENDBRANCH   3   4
ENDBRANCH   2   3
ENDBRANCH   1   2
BRANCH   1  26
ATOM     26  O   UNL A   1      31.249  29.378  24.870  1.00  0.00    -0.374 OA
BRANCH  26  27
ATOM     27  C   UNL A   1      30.928  30.724  25.154  1.00  0.00     0.202 C 
BRANCH  27  28
ATOM     28  C   UNL A   1      31.400  31.385  26.459  1.00  0.00     0.261 C 
BRANCH  28  29
ATOM     29  O   UNL A   1      32.716  31.025  26.910  1.00  0.00    -0.460 OA
BRANCH  29  30
ATOM     30  C   UNL A   1      33.434  32.043  27.440  1.00  0.00     0.338 C 
ATOM     31  O   UNL A   1      33.045  33.166  27.710  1.00  0.00    -0.246 OA
BRANCH  30  32
ATOM     32  C   UNL A   1      34.788  31.575  27.788  1.00  0.00     0.060 A 
ATOM     33  C   UNL A   1      34.990  30.214  28.055  1.00  0.00     0.016 A 
ATOM     34  C   UNL A   1      35.811  32.499  28.002  1.00  0.00     0.016 A 
ATOM     35  C   UNL A   1      36.204  29.776  28.581  1.00  0.00     0.010 A 
ATOM     36  C   UNL A   1      37.017  32.066  28.557  1.00  0.00     0.010 A 
ATOM     37  C   UNL A   1      37.198  30.711  28.890  1.00  0.00    -0.014 A 
BRANCH  37  38
ATOM     38  C   UNL A   1      38.316  30.313  29.779  1.00  0.00     0.031 A 
ATOM     39  C   UNL A   1      39.334  29.341  29.246  1.00  0.00     0.074 A 
ATOM     40  C   UNL A   1      38.438  30.817  31.017  1.00  0.00     0.049 A 
ATOM     41  N   UNL A   1      40.354  28.787  29.848  1.00  0.00    -0.248 NA
ATOM     42  C   UNL A   1      39.176  28.941  27.838  1.00  0.00     0.031 C 
ATOM     43  C   UNL A   1      37.553  31.813  31.615  1.00  0.00     0.029 A 
ATOM     44  N   UNL A   1      39.357  30.545  31.999  1.00  0.00    -0.354 N 
ATOM     45  C   UNL A   1      40.945  27.959  28.901  1.00  0.00     0.074 A 
ATOM     46  C   UNL A   1      40.163  28.071  27.691  1.00  0.00     0.031 C 
ATOM     47  C   UNL A   1      37.965  32.060  32.871  1.00  0.00     0.029 A 
ATOM     48  C   UNL A   1      39.115  31.209  33.175  1.00  0.00     0.049 A 
ATOM     49  H   UNL A   1      40.117  29.931  31.872  1.00  0.00     0.167 HD
ATOM     50  C   UNL A   1      42.043  27.177  29.033  1.00  0.00     0.037 A 
ATOM     51  C   UNL A   1      39.737  31.113  34.366  1.00  0.00     0.037 A 
ATOM     52  C   UNL A   1      42.814  27.072  30.243  1.00  0.00     0.049 A 
ATOM     53  C   UNL A   1      40.902  30.165  34.513  1.00  0.00     0.074 A 
ATOM     54  C   UNL A   1      43.955  26.326  30.478  1.00  0.00     0.029 A 
ATOM     55  N   UNL A   1      42.512  27.727  31.430  1.00  0.00    -0.354 N 
ATOM     56  N   UNL A   1      41.470  29.399  33.613  1.00  0.00    -0.248 NA
ATOM     57  C   UNL A   1      41.510  30.067  35.849  1.00  0.00     0.031 C 
ATOM     58  C   UNL A   1      44.303  26.474  31.825  1.00  0.00     0.029 A 
ATOM     59  C   UNL A   1      43.423  27.371  32.411  1.00  0.00     0.049 A 
ATOM     60  H   UNL A   1      41.762  28.350  31.555  1.00  0.00     0.167 HD
ATOM     61  C   UNL A   1      42.522  28.760  34.259  1.00  0.00     0.074 A 
ATOM     62  C   UNL A   1      42.517  29.235  35.627  1.00  0.00     0.031 C 
ATOM     63  C   UNL A   1      43.412  27.863  33.765  1.00  0.00     0.037 A 
BRANCH  50  64
ATOM     64  C   UNL A   1      42.441  26.333  27.856  1.00  0.00     0.064 A 
ATOM     65  C   UNL A   1      41.850  25.087  27.599  1.00  0.00     0.173 A 
ATOM     66  C   UNL A   1      43.417  26.791  26.959  1.00  0.00     0.173 A 
ATOM     67  F   UNL A   1      40.922  24.593  28.433  1.00  0.00    -0.203 F 
ATOM     68  C   UNL A   1      42.246  24.317  26.506  1.00  0.00     0.198 A 
ATOM     69  C   UNL A   1      43.787  26.035  25.849  1.00  0.00     0.198 A 
ATOM     70  F   UNL A   1      44.013  27.977  27.155  1.00  0.00    -0.203 F 
ATOM     71  F   UNL A   1      41.708  23.105  26.312  1.00  0.00    -0.200 F 
ATOM     72  C   UNL A   1      43.208  24.795  25.629  1.00  0.00     0.200 A 
ATOM     73  F   UNL A   1      44.706  26.506  24.997  1.00  0.00    -0.200 F 
ATOM     74  F   UNL A   1      43.583  24.057  24.576  1.00  0.00    -0.200 F 
ENDBRANCH  50  64
BRANCH  51  75
ATOM     75  C   UNL A   1      39.270  31.925  35.521  1.00  0.00     0.064 A 
ATOM     76  C   UNL A   1      39.765  33.219  35.742  1.00  0.00     0.173 A 
ATOM     77  C   UNL A   1      38.342  31.418  36.444  1.00  0.00     0.173 A 
ATOM     78  F   UNL A   1      40.675  33.738  34.905  1.00  0.00    -0.203 F 
ATOM     79  C   UNL A   1      39.364  33.966  36.848  1.00  0.00     0.198 A 
ATOM     80  C   UNL A   1      37.917  32.179  37.532  1.00  0.00     0.198 A 
ATOM     81  F   UNL A   1      37.841  30.184  36.285  1.00  0.00    -0.203 F 
ATOM     82  F   UNL A   1      39.892  35.178  37.060  1.00  0.00    -0.200 F 
ATOM     83  C   UNL A   1      38.436  33.448  37.738  1.00  0.00     0.200 A 
ATOM     84  F   UNL A   1      37.013  31.679  38.383  1.00  0.00    -0.200 F 
ATOM     85  F   UNL A   1      38.049  34.168  38.799  1.00  0.00    -0.200 F 
ENDBRANCH  51  75
BRANCH  63  86
ATOM     86  C   UNL A   1      44.490  27.373  34.692  1.00  0.00     0.064 A 
ATOM     87  C   UNL A   1      44.352  26.188  35.429  1.00  0.00     0.173 A 
ATOM     88  C   UNL A   1      45.697  28.080  34.807  1.00  0.00     0.173 A 
ATOM     89  F   UNL A   1      43.213  25.481  35.367  1.00  0.00    -0.203 F 
ATOM     90  C   UNL A   1      45.372  25.745  36.268  1.00  0.00     0.198 A 
ATOM     91  C   UNL A   1      46.728  27.615  35.619  1.00  0.00     0.198 A 
ATOM     92  F   UNL A   1      45.885  29.215  34.116  1.00  0.00    -0.203 F 
ATOM     93  F   UNL A   1      45.197  24.638  37.004  1.00  0.00    -0.200 F 
ATOM     94  C   UNL A   1      46.561  26.453  36.355  1.00  0.00     0.200 A 
ATOM     95  F   UNL A   1      47.882  28.291  35.686  1.00  0.00    -0.200 F 
ATOM     96  F   UNL A   1      47.545  26.019  37.155  1.00  0.00    -0.200 F 
ENDBRANCH  63  86
ENDBRANCH  37  38
ENDBRANCH  30  32
ENDBRANCH  29  30
ENDBRANCH  28  29
ENDBRANCH  27  28
ENDBRANCH  26  27
ENDBRANCH   1  26
TORSDOF 17
ENDMDL
MODEL 3
REMARK VINA RESULT:     -11.5      1.464      7.524
REMARK SMILES Cc1nc(=O)[nH]c(C)c1CC(=O)Nc1sccc1C(=O)OCCOCCOC(=O)c1ccc(-c2c3nc(c(-c4c(F)c(F)c(F)c(F)c4F)c4ccc([nH]4)c(-c4c(F)c(F)c(F)c(F)c4F)c4nc(c(-c5c(F)c(F)c(F)c(F)c5F)c5ccc2[nH]5)C=C4)C=C3)cc1
REMARK SMILES IDX 23 1 22 2 21 3 19 4 20 5 18 6 14 7 15 8 16 9 17 10 13 11
REMARK SMILES IDX 11 12 12 13 10 15 9 16 1 17 2 18 3 19 4 20 7 21 5 22 6 23
REMARK SMILES IDX 8 24 24 26 25 27 26 28 27 29 28 30 29 31 30 32 31 33 92 34
REMARK SMILES IDX 32 35 91 36 33 37 34 38 35 39 85 40 36 41 90 42 84 43 86 44
REMARK SMILES IDX 37 45 89 46 83 47 82 48 38 50 70 51 50 52 69 53 51 54 54 55
REMARK SMILES IDX 68 56 87 57 52 58 53 59 67 61 88 62 55 63 39 64 40 65 48 66
REMARK SMILES IDX 41 67 42 68 46 69 49 70 43 71 44 72 47 73 45 74 71 75 72 76
REMARK SMILES IDX 80 77 73 78 74 79 78 80 81 81 75 82 76 83 79 84 77 85 56 86
REMARK SMILES IDX 57 87 65 88 58 89 59 90 63 91 66 92 60 93 61 94 64 95 62 96
REMARK H PARENT 13 14 6 25 86 49 54 60
REMARK Flexibility Score: inf
ROOT
ATOM      1  C   UNL A   1      33.424  29.735  26.005  1.00  0.00     0.202 C 
ENDROOT
BRANCH   1   2
ATOM      2  C   UNL A   1      33.522  28.372  26.706  1.00  0.00     0.261 C 
BRANCH   2   3
ATOM      3  O   UNL A   1      32.863  27.202  26.196  1.00  0.00    -0.460 OA
BRANCH   3   4
ATOM      4  C   UNL A   1      33.598  26.477  25.300  1.00  0.00     0.341 C 
ATOM      5  O   UNL A   1      34.028  26.938  24.250  1.00  0.00    -0.246 OA
BRANCH   4   6
ATOM      6  C   UNL A   1      33.921  25.115  25.718  1.00  0.00     0.094 A 
ATOM      7  C   UNL A   1      33.176  24.256  26.501  1.00  0.00     0.110 A 
ATOM      8  S   UNL A   1      34.029  22.857  26.967  1.00  0.00    -0.126 S 
ATOM      9  C   UNL A   1      35.305  23.216  25.891  1.00  0.00     0.068 A 
ATOM     10  C   UNL A   1      35.140  24.455  25.314  1.00  0.00     0.029 A 
BRANCH   7  11
ATOM     11  N   UNL A   1      31.904  24.302  27.007  1.00  0.00    -0.317 N 
ATOM     12  C   UNL A   1      30.757  23.995  26.325  1.00  0.00     0.229 C 
ATOM     13  O   UNL A   1      29.669  24.191  26.876  1.00  0.00    -0.274 OA
ATOM     14  H   UNL A   1      31.805  24.582  27.946  1.00  0.00     0.170 HD
BRANCH  12  15
ATOM     15  C   UNL A   1      30.825  23.244  24.988  1.00  0.00     0.139 C 
BRANCH  15  16
ATOM     16  C   UNL A   1      31.380  23.967  23.799  1.00  0.00     0.002 A 
ATOM     17  C   UNL A   1      32.980  21.957  23.263  1.00  0.00     0.067 C 
ATOM     18  C   UNL A   1      32.490  23.363  22.977  1.00  0.00     0.049 A 
ATOM     19  N   UNL A   1      33.096  23.959  22.001  1.00  0.00    -0.198 NA
ATOM     20  C   UNL A   1      32.704  25.214  21.649  1.00  0.00     0.345 A 
ATOM     21  C   UNL A   1      30.944  25.149  23.324  1.00  0.00     0.022 A 
ATOM     22  O   UNL A   1      33.278  25.893  20.796  1.00  0.00    -0.246 OA
ATOM     23  N   UNL A   1      31.593  25.726  22.263  1.00  0.00    -0.310 N 
ATOM     24  C   UNL A   1      29.817  25.952  23.915  1.00  0.00     0.065 C 
ATOM     25  H   UNL A   1      31.232  26.574  21.915  1.00  0.00     0.171 HD
ENDBRANCH  15  16
ENDBRANCH  12  15
ENDBRANCH   7  11
ENDBRANCH   4   6
ENDBRANCH   3   4
ENDBRANCH   2   3
ENDBRANCH   1   2
BRANCH   1  26
ATOM     26  O   UNL A   1      32.199  30.393  25.781  1.00  0.00    -0.374 OA
BRANCH  26  27
ATOM     27  C   UNL A   1      31.605  31.158  26.811  1.00  0.00     0.202 C 
BRANCH  27  28
ATOM     28  C   UNL A   1      31.964  32.640  26.994  1.00  0.00     0.261 C 
BRANCH  28  29
ATOM     29  O   UNL A   1      33.255  32.913  27.563  1.00  0.00    -0.460 OA
BRANCH  29  30
ATOM     30  C   UNL A   1      33.311  34.014  28.348  1.00  0.00     0.338 C 
ATOM     31  O   UNL A   1      32.528  34.947  28.376  1.00  0.00    -0.246 OA
BRANCH  30  32
ATOM     32  C   UNL A   1      34.424  33.892  29.307  1.00  0.00     0.060 A 
ATOM     33  C   UNL A   1      35.724  34.203  28.885  1.00  0.00     0.016 A 
ATOM     34  C   UNL A   1      34.203  33.323  30.562  1.00  0.00     0.016 A 
ATOM     35  C   UNL A   1      36.815  33.905  29.699  1.00  0.00     0.010 A 
ATOM     36  C   UNL A   1      35.297  32.997  31.366  1.00  0.00     0.010 A 
ATOM     37  C   UNL A   1      36.607  33.246  30.916  1.00  0.00    -0.014 A 
BRANCH  37  38
ATOM     38  C   UNL A   1      37.755  32.600  31.596  1.00  0.00     0.031 A 
ATOM     39  C   UNL A   1      38.422  31.438  30.911  1.00  0.00     0.074 A 
ATOM     40  C   UNL A   1      38.209  33.047  32.778  1.00  0.00     0.049 A 
ATOM     41  N   UNL A   1      39.391  30.665  31.331  1.00  0.00    -0.248 NA
ATOM     42  C   UNL A   1      37.925  31.103  29.566  1.00  0.00     0.031 C 
ATOM     43  C   UNL A   1      37.687  34.202  33.501  1.00  0.00     0.029 A 
ATOM     44  N   UNL A   1      39.212  32.565  33.582  1.00  0.00    -0.354 N 
ATOM     45  C   UNL A   1      39.603  29.743  30.313  1.00  0.00     0.074 A 
ATOM     46  C   UNL A   1      38.655  30.041  29.263  1.00  0.00     0.031 C 
ATOM     47  C   UNL A   1      38.367  34.334  34.654  1.00  0.00     0.029 A 
ATOM     48  C   UNL A   1      39.340  33.249  34.765  1.00  0.00     0.049 A 
ATOM     49  H   UNL A   1      39.783  31.803  33.334  1.00  0.00     0.167 HD
ATOM     50  C   UNL A   1      40.510  28.739  30.262  1.00  0.00     0.037 A 
ATOM     51  C   UNL A   1      40.134  33.001  35.825  1.00  0.00     0.037 A 
ATOM     52  C   UNL A   1      41.449  28.449  31.313  1.00  0.00     0.049 A 
ATOM     53  C   UNL A   1      41.071  31.819  35.781  1.00  0.00     0.074 A 
ATOM     54  C   UNL A   1      42.423  27.468  31.355  1.00  0.00     0.029 A 
ATOM     55  N   UNL A   1      41.519  29.135  32.518  1.00  0.00    -0.354 N 
ATOM     56  N   UNL A   1      41.284  30.962  34.811  1.00  0.00    -0.248 NA
ATOM     57  C   UNL A   1      41.878  31.570  36.985  1.00  0.00     0.031 C 
ATOM     58  C   UNL A   1      43.036  27.516  32.611  1.00  0.00     0.029 A 
ATOM     59  C   UNL A   1      42.495  28.574  33.325  1.00  0.00     0.049 A 
ATOM     60  H   UNL A   1      40.958  29.906  32.762  1.00  0.00     0.167 HD
ATOM     61  C   UNL A   1      42.272  30.099  35.271  1.00  0.00     0.074 A 
ATOM     62  C   UNL A   1      42.623  30.542  36.604  1.00  0.00     0.031 C 
ATOM     63  C   UNL A   1      42.840  29.037  34.646  1.00  0.00     0.037 A 
BRANCH  50  64
ATOM     64  C   UNL A   1      40.491  27.846  29.054  1.00  0.00     0.064 A 
ATOM     65  C   UNL A   1      41.279  28.108  27.922  1.00  0.00     0.173 A 
ATOM     66  C   UNL A   1      39.684  26.699  29.038  1.00  0.00     0.173 A 
ATOM     67  F   UNL A   1      42.057  29.199  27.877  1.00  0.00    -0.203 F 
ATOM     68  C   UNL A   1      41.233  27.270  26.808  1.00  0.00     0.198 A 
ATOM     69  C   UNL A   1      39.666  25.847  27.937  1.00  0.00     0.198 A 
ATOM     70  F   UNL A   1      38.912  26.400  30.094  1.00  0.00    -0.203 F 
ATOM     71  F   UNL A   1      41.951  27.570  25.717  1.00  0.00    -0.200 F 
ATOM     72  C   UNL A   1      40.433  26.138  26.820  1.00  0.00     0.200 A 
ATOM     73  F   UNL A   1      38.902  24.746  27.957  1.00  0.00    -0.200 F 
ATOM     74  F   UNL A   1      40.395  25.331  25.751  1.00  0.00    -0.200 F 
ENDBRANCH  50  64
BRANCH  51  75
ATOM     75  C   UNL A   1      40.075  33.878  37.024  1.00  0.00     0.064 A 
ATOM     76  C   UNL A   1      39.162  33.626  38.059  1.00  0.00     0.173 A 
ATOM     77  C   UNL A   1      40.907  35.000  37.151  1.00  0.00     0.173 A 
ATOM     78  F   UNL A   1      38.324  32.582  37.972  1.00  0.00    -0.203 F 
ATOM     79  C   UNL A   1      39.071  34.471  39.163  1.00  0.00     0.198 A 
ATOM     80  C   UNL A   1      40.839  35.826  38.271  1.00  0.00     0.198 A 
ATOM     81  F   UNL A   1      41.794  35.292  36.188  1.00  0.00    -0.203 F 
ATOM     82  F   UNL A   1      38.155  34.234  40.111  1.00  0.00    -0.200 F 
ATOM     83  C   UNL A   1      39.914  35.566  39.272  1.00  0.00     0.200 A 
ATOM     84  F   UNL A   1      41.661  36.877  38.378  1.00  0.00    -0.200 F 
ATOM     85  F   UNL A   1      39.829  36.377  40.335  1.00  0.00    -0.200 F 
ENDBRANCH  51  75
BRANCH  63  86
ATOM     86  C   UNL A   1      43.937  28.309  35.372  1.00  0.00     0.064 A 
ATOM     87  C   UNL A   1      43.676  27.203  36.195  1.00  0.00     0.173 A 
ATOM     88  C   UNL A   1      45.275  28.700  35.205  1.00  0.00     0.173 A 
ATOM     89  F   UNL A   1      42.414  26.797  36.401  1.00  0.00    -0.203 F 
ATOM     90  C   UNL A   1      44.711  26.535  36.844  1.00  0.00     0.198 A 
ATOM     91  C   UNL A   1      46.310  28.006  35.826  1.00  0.00     0.198 A 
ATOM     92  F   UNL A   1      45.582  29.745  34.421  1.00  0.00    -0.203 F 
ATOM     93  F   UNL A   1      44.433  25.514  37.667  1.00  0.00    -0.200 F 
ATOM     94  C   UNL A   1      46.026  26.930  36.652  1.00  0.00     0.200 A 
ATOM     95  F   UNL A   1      47.580  28.379  35.624  1.00  0.00    -0.200 F 
ATOM     96  F   UNL A   1      47.021  26.279  37.270  1.00  0.00    -0.200 F 
ENDBRANCH  63  86
ENDBRANCH  37  38
ENDBRANCH  30  32
ENDBRANCH  29  30
ENDBRANCH  28  29
ENDBRANCH  27  28
ENDBRANCH  26  27
ENDBRANCH   1  26
TORSDOF 17
ENDMDL
