MODEL 1
REMARK VINA RESULT:     -12.2      0.000      0.000
REMARK SMILES O=C(Cn1cnc(-c2ccccc2)c1-c1ccccc1)OCCOCCOC(=O)c1ccc(-c2c3nc(c(-c4c(F)c(F)c(F)c(F)c4F)c4ccc([nH]4)c(-c4c(F)c(F)c(F)c(F)c4F)c4nc(c(-c5c(F)c(F)c(F)c(F)c5F)c5ccc2[nH]5)C=C4)C=C3)cc1
REMARK SMILES IDX 24 1 23 2 22 3 21 4 2 5 1 6 3 7 4 8 5 9 14 10 6 11 7 12
REMARK SMILES IDX 15 13 16 14 20 15 17 16 19 17 18 18 8 19 9 20 13 21 10 22
REMARK SMILES IDX 12 23 11 24 25 25 26 26 27 27 28 28 29 29 30 30 31 31 92 32
REMARK SMILES IDX 32 33 91 34 33 35 34 36 35 37 85 38 36 39 90 40 84 41 86 42
REMARK SMILES IDX 37 43 89 44 83 45 82 46 38 48 70 49 50 50 69 51 51 52 54 53
REMARK SMILES IDX 68 54 87 55 52 56 53 57 67 59 88 60 55 61 39 62 40 63 48 64
REMARK SMILES IDX 41 65 42 66 46 67 49 68 43 69 44 70 47 71 45 72 71 73 72 74
REMARK SMILES IDX 80 75 73 76 74 77 78 78 81 79 75 80 76 81 79 82 77 83 56 84
REMARK SMILES IDX 57 85 65 86 58 87 59 88 63 89 66 90 60 91 61 92 64 93 62 94
REMARK H PARENT 86 47 54 58
REMARK Flexibility Score: inf
ROOT
ATOM      1  O   UNL A   1      36.449  21.040  25.664  1.00  0.00    -0.374 OA
ENDROOT
BRANCH   1   2
ATOM      2  C   UNL A   1      35.307  20.644  24.918  1.00  0.00     0.202 C 
BRANCH   2   3
ATOM      3  C   UNL A   1      34.203  21.657  24.625  1.00  0.00     0.261 C 
BRANCH   3   4
ATOM      4  O   UNL A   1      34.105  22.759  25.535  1.00  0.00    -0.462 OA
BRANCH   4   5
ATOM      5  C   UNL A   1      33.341  22.813  26.651  1.00  0.00     0.326 C 
ATOM      6  O   UNL A   1      33.384  21.864  27.437  1.00  0.00    -0.250 OA
BRANCH   5   7
ATOM      7  C   UNL A   1      32.309  23.899  26.844  1.00  0.00     0.246 C 
BRANCH   7   8
ATOM      8  N   UNL A   1      31.661  24.414  25.659  1.00  0.00    -0.319 N 
ATOM      9  C   UNL A   1      30.978  23.653  24.750  1.00  0.00     0.201 A 
ATOM     10  C   UNL A   1      31.568  25.732  25.281  1.00  0.00     0.076 A 
ATOM     11  N   UNL A   1      30.416  24.401  23.830  1.00  0.00    -0.236 NA
ATOM     12  C   UNL A   1      30.770  25.689  24.151  1.00  0.00     0.096 A 
BRANCH  10  13
ATOM     13  C   UNL A   1      32.168  26.833  26.019  1.00  0.00     0.000 A 
ATOM     14  C   UNL A   1      33.490  27.205  25.770  1.00  0.00     0.010 A 
ATOM     15  C   UNL A   1      31.399  27.575  26.925  1.00  0.00     0.010 A 
ATOM     16  C   UNL A   1      34.027  28.331  26.392  1.00  0.00     0.001 A 
ATOM     17  C   UNL A   1      31.932  28.709  27.535  1.00  0.00     0.001 A 
ATOM     18  C   UNL A   1      33.243  29.090  27.264  1.00  0.00     0.000 A 
ENDBRANCH  10  13
BRANCH  12  19
ATOM     19  C   UNL A   1      30.272  26.857  23.467  1.00  0.00     0.002 A 
ATOM     20  C   UNL A   1      28.914  27.170  23.564  1.00  0.00     0.010 A 
ATOM     21  C   UNL A   1      31.147  27.729  22.810  1.00  0.00     0.010 A 
ATOM     22  C   UNL A   1      28.443  28.380  23.059  1.00  0.00     0.001 A 
ATOM     23  C   UNL A   1      30.673  28.936  22.302  1.00  0.00     0.001 A 
ATOM     24  C   UNL A   1      29.325  29.267  22.441  1.00  0.00     0.000 A 
ENDBRANCH  12  19
ENDBRANCH   7   8
ENDBRANCH   5   7
ENDBRANCH   4   5
ENDBRANCH   3   4
ENDBRANCH   2   3
ENDBRANCH   1   2
BRANCH   1  25
ATOM     25  C   UNL A   1      37.685  21.389  25.046  1.00  0.00     0.202 C 
BRANCH  25  26
ATOM     26  C   UNL A   1      38.995  21.446  25.804  1.00  0.00     0.261 C 
BRANCH  26  27
ATOM     27  O   UNL A   1      39.132  22.618  26.584  1.00  0.00    -0.460 OA
BRANCH  27  28
ATOM     28  C   UNL A   1      40.357  22.704  27.142  1.00  0.00     0.338 C 
ATOM     29  O   UNL A   1      40.959  21.829  27.736  1.00  0.00    -0.246 OA
BRANCH  28  30
ATOM     30  C   UNL A   1      40.768  24.105  27.152  1.00  0.00     0.060 A 
ATOM     31  C   UNL A   1      41.760  24.415  28.079  1.00  0.00     0.016 A 
ATOM     32  C   UNL A   1      39.925  25.074  26.585  1.00  0.00     0.016 A 
ATOM     33  C   UNL A   1      41.756  25.675  28.618  1.00  0.00     0.010 A 
ATOM     34  C   UNL A   1      39.912  26.330  27.137  1.00  0.00     0.010 A 
ATOM     35  C   UNL A   1      40.777  26.582  28.196  1.00  0.00    -0.014 A 
BRANCH  35  36
ATOM     36  C   UNL A   1      40.785  27.873  28.833  1.00  0.00     0.031 A 
ATOM     37  C   UNL A   1      41.866  28.738  28.327  1.00  0.00     0.074 A 
ATOM     38  C   UNL A   1      39.884  28.245  29.754  1.00  0.00     0.049 A 
ATOM     39  N   UNL A   1      42.918  29.131  28.961  1.00  0.00    -0.248 NA
ATOM     40  C   UNL A   1      41.862  29.047  26.890  1.00  0.00     0.031 C 
ATOM     41  C   UNL A   1      38.622  27.598  30.112  1.00  0.00     0.029 A 
ATOM     42  N   UNL A   1      39.887  29.373  30.509  1.00  0.00    -0.354 N 
ATOM     43  C   UNL A   1      43.634  29.890  28.045  1.00  0.00     0.074 A 
ATOM     44  C   UNL A   1      43.042  29.649  26.756  1.00  0.00     0.031 C 
ATOM     45  C   UNL A   1      37.887  28.457  30.856  1.00  0.00     0.029 A 
ATOM     46  C   UNL A   1      38.679  29.648  31.123  1.00  0.00     0.049 A 
ATOM     47  H   UNL A   1      40.682  29.945  30.611  1.00  0.00     0.167 HD
ATOM     48  C   UNL A   1      44.494  30.853  28.468  1.00  0.00     0.037 A 
ATOM     49  C   UNL A   1      38.353  30.817  31.724  1.00  0.00     0.037 A 
ATOM     50  C   UNL A   1      44.892  30.624  29.836  1.00  0.00     0.049 A 
ATOM     51  C   UNL A   1      39.619  31.538  32.025  1.00  0.00     0.074 A 
ATOM     52  C   UNL A   1      45.551  29.604  30.494  1.00  0.00     0.029 A 
ATOM     53  N   UNL A   1      44.284  31.370  30.815  1.00  0.00    -0.354 N 
ATOM     54  N   UNL A   1      40.479  31.162  32.930  1.00  0.00    -0.248 NA
ATOM     55  C   UNL A   1      40.137  32.463  31.026  1.00  0.00     0.031 C 
ATOM     56  C   UNL A   1      44.945  29.532  31.782  1.00  0.00     0.029 A 
ATOM     57  C   UNL A   1      43.976  30.534  31.856  1.00  0.00     0.049 A 
ATOM     58  H   UNL A   1      44.102  32.337  30.777  1.00  0.00     0.167 HD
ATOM     59  C   UNL A   1      41.721  31.446  32.380  1.00  0.00     0.074 A 
ATOM     60  C   UNL A   1      41.446  32.350  31.268  1.00  0.00     0.031 C 
ATOM     61  C   UNL A   1      42.815  30.696  32.700  1.00  0.00     0.037 A 
BRANCH  48  62
ATOM     62  C   UNL A   1      44.637  32.193  27.788  1.00  0.00     0.064 A 
ATOM     63  C   UNL A   1      45.774  32.423  26.989  1.00  0.00     0.173 A 
ATOM     64  C   UNL A   1      43.889  33.346  28.122  1.00  0.00     0.173 A 
ATOM     65  F   UNL A   1      46.563  31.406  26.612  1.00  0.00    -0.203 F 
ATOM     66  C   UNL A   1      46.188  33.712  26.648  1.00  0.00     0.198 A 
ATOM     67  C   UNL A   1      44.275  34.626  27.731  1.00  0.00     0.198 A 
ATOM     68  F   UNL A   1      42.823  33.311  28.926  1.00  0.00    -0.203 F 
ATOM     69  F   UNL A   1      47.354  33.888  26.012  1.00  0.00    -0.200 F 
ATOM     70  C   UNL A   1      45.445  34.813  27.028  1.00  0.00     0.200 A 
ATOM     71  F   UNL A   1      43.544  35.680  28.122  1.00  0.00    -0.200 F 
ATOM     72  F   UNL A   1      45.875  36.053  26.765  1.00  0.00    -0.200 F 
ENDBRANCH  48  62
BRANCH  49  73
ATOM     73  C   UNL A   1      37.031  31.482  31.787  1.00  0.00     0.064 A 
ATOM     74  C   UNL A   1      36.504  31.915  33.014  1.00  0.00     0.173 A 
ATOM     75  C   UNL A   1      36.384  31.949  30.627  1.00  0.00     0.173 A 
ATOM     76  F   UNL A   1      37.087  31.550  34.166  1.00  0.00    -0.203 F 
ATOM     77  C   UNL A   1      35.416  32.791  33.076  1.00  0.00     0.198 A 
ATOM     78  C   UNL A   1      35.291  32.813  30.690  1.00  0.00     0.198 A 
ATOM     79  F   UNL A   1      36.858  31.658  29.407  1.00  0.00    -0.203 F 
ATOM     80  F   UNL A   1      34.987  33.238  34.264  1.00  0.00    -0.200 F 
ATOM     81  C   UNL A   1      34.817  33.246  31.914  1.00  0.00     0.200 A 
ATOM     82  F   UNL A   1      34.742  33.273  29.556  1.00  0.00    -0.200 F 
ATOM     83  F   UNL A   1      33.816  34.134  31.971  1.00  0.00    -0.200 F 
ENDBRANCH  49  73
BRANCH  61  84
ATOM     84  C   UNL A   1      42.711  29.789  33.893  1.00  0.00     0.064 A 
ATOM     85  C   UNL A   1      42.169  28.492  33.852  1.00  0.00     0.173 A 
ATOM     86  C   UNL A   1      43.303  30.203  35.094  1.00  0.00     0.173 A 
ATOM     87  F   UNL A   1      41.679  27.983  32.714  1.00  0.00    -0.203 F 
ATOM     88  C   UNL A   1      42.174  27.673  34.981  1.00  0.00     0.198 A 
ATOM     89  C   UNL A   1      43.343  29.369  36.206  1.00  0.00     0.198 A 
ATOM     90  F   UNL A   1      43.886  31.411  35.174  1.00  0.00    -0.203 F 
ATOM     91  F   UNL A   1      41.632  26.447  34.923  1.00  0.00    -0.200 F 
ATOM     92  C   UNL A   1      42.768  28.109  36.153  1.00  0.00     0.200 A 
ATOM     93  F   UNL A   1      43.963  29.775  37.322  1.00  0.00    -0.200 F 
ATOM     94  F   UNL A   1      42.810  27.307  37.226  1.00  0.00    -0.200 F 
ENDBRANCH  61  84
ENDBRANCH  35  36
ENDBRANCH  28  30
ENDBRANCH  27  28
ENDBRANCH  26  27
ENDBRANCH  25  26
ENDBRANCH   1  25
TORSDOF 17
ENDMDL
MODEL 2
REMARK VINA RESULT:     -12.2      1.498      2.661
REMARK SMILES O=C(Cn1cnc(-c2ccccc2)c1-c1ccccc1)OCCOCCOC(=O)c1ccc(-c2c3nc(c(-c4c(F)c(F)c(F)c(F)c4F)c4ccc([nH]4)c(-c4c(F)c(F)c(F)c(F)c4F)c4nc(c(-c5c(F)c(F)c(F)c(F)c5F)c5ccc2[nH]5)C=C4)C=C3)cc1
REMARK SMILES IDX 24 1 23 2 22 3 21 4 2 5 1 6 3 7 4 8 5 9 14 10 6 11 7 12
REMARK SMILES IDX 15 13 16 14 20 15 17 16 19 17 18 18 8 19 9 20 13 21 10 22
REMARK SMILES IDX 12 23 11 24 25 25 26 26 27 27 28 28 29 29 30 30 31 31 92 32
REMARK SMILES IDX 32 33 91 34 33 35 34 36 35 37 85 38 36 39 90 40 84 41 86 42
REMARK SMILES IDX 37 43 89 44 83 45 82 46 38 48 70 49 50 50 69 51 51 52 54 53
REMARK SMILES IDX 68 54 87 55 52 56 53 57 67 59 88 60 55 61 39 62 40 63 48 64
REMARK SMILES IDX 41 65 42 66 46 67 49 68 43 69 44 70 47 71 45 72 71 73 72 74
REMARK SMILES IDX 80 75 73 76 74 77 78 78 81 79 75 80 76 81 79 82 77 83 56 84
REMARK SMILES IDX 57 85 65 86 58 87 59 88 63 89 66 90 60 91 61 92 64 93 62 94
REMARK H PARENT 86 47 54 58
REMARK Flexibility Score: inf
ROOT
ATOM      1  O   UNL A   1      36.855  22.607  25.503  1.00  0.00    -0.374 OA
ENDROOT
BRANCH   1   2
ATOM      2  C   UNL A   1      36.495  23.467  24.431  1.00  0.00     0.202 C 
BRANCH   2   3
ATOM      3  C   UNL A   1      35.485  22.997  23.387  1.00  0.00     0.261 C 
BRANCH   3   4
ATOM      4  O   UNL A   1      34.741  24.029  22.727  1.00  0.00    -0.462 OA
BRANCH   4   5
ATOM      5  C   UNL A   1      33.445  23.965  22.345  1.00  0.00     0.326 C 
ATOM      6  O   UNL A   1      32.990  22.873  21.997  1.00  0.00    -0.250 OA
BRANCH   5   7
ATOM      7  C   UNL A   1      32.621  25.216  22.151  1.00  0.00     0.246 C 
BRANCH   7   8
ATOM      8  N   UNL A   1      33.068  26.413  22.826  1.00  0.00    -0.319 N 
ATOM      9  C   UNL A   1      33.656  27.482  22.208  1.00  0.00     0.201 A 
ATOM     10  C   UNL A   1      32.926  26.704  24.161  1.00  0.00     0.076 A 
ATOM     11  N   UNL A   1      33.868  28.463  23.055  1.00  0.00    -0.236 NA
ATOM     12  C   UNL A   1      33.416  27.995  24.265  1.00  0.00     0.096 A 
BRANCH  10  13
ATOM     13  C   UNL A   1      32.327  25.800  25.131  1.00  0.00     0.000 A 
ATOM     14  C   UNL A   1      30.942  25.772  25.300  1.00  0.00     0.010 A 
ATOM     15  C   UNL A   1      33.129  24.897  25.840  1.00  0.00     0.010 A 
ATOM     16  C   UNL A   1      30.361  24.826  26.144  1.00  0.00     0.001 A 
ATOM     17  C   UNL A   1      32.546  23.942  26.672  1.00  0.00     0.001 A 
ATOM     18  C   UNL A   1      31.162  23.904  26.818  1.00  0.00     0.000 A 
ENDBRANCH  10  13
BRANCH  12  19
ATOM     19  C   UNL A   1      33.349  28.792  25.465  1.00  0.00     0.002 A 
ATOM     20  C   UNL A   1      34.404  28.728  26.379  1.00  0.00     0.010 A 
ATOM     21  C   UNL A   1      32.305  29.702  25.663  1.00  0.00     0.010 A 
ATOM     22  C   UNL A   1      34.444  29.613  27.454  1.00  0.00     0.001 A 
ATOM     23  C   UNL A   1      32.346  30.583  26.741  1.00  0.00     0.001 A 
ATOM     24  C   UNL A   1      33.424  30.548  27.626  1.00  0.00     0.000 A 
ENDBRANCH  12  19
ENDBRANCH   7   8
ENDBRANCH   5   7
ENDBRANCH   4   5
ENDBRANCH   3   4
ENDBRANCH   2   3
ENDBRANCH   1   2
BRANCH   1  25
ATOM     25  C   UNL A   1      37.814  21.562  25.358  1.00  0.00     0.202 C 
BRANCH  25  26
ATOM     26  C   UNL A   1      39.122  21.536  26.122  1.00  0.00     0.261 C 
BRANCH  26  27
ATOM     27  O   UNL A   1      39.442  22.780  26.712  1.00  0.00    -0.460 OA
BRANCH  27  28
ATOM     28  C   UNL A   1      40.762  22.882  26.975  1.00  0.00     0.338 C 
ATOM     29  O   UNL A   1      41.501  22.004  27.378  1.00  0.00    -0.246 OA
BRANCH  28  30
ATOM     30  C   UNL A   1      41.136  24.292  26.946  1.00  0.00     0.060 A 
ATOM     31  C   UNL A   1      42.017  24.682  27.953  1.00  0.00     0.016 A 
ATOM     32  C   UNL A   1      40.336  25.204  26.238  1.00  0.00     0.016 A 
ATOM     33  C   UNL A   1      41.926  25.969  28.414  1.00  0.00     0.010 A 
ATOM     34  C   UNL A   1      40.235  26.487  26.712  1.00  0.00     0.010 A 
ATOM     35  C   UNL A   1      40.976  26.823  27.839  1.00  0.00    -0.014 A 
BRANCH  35  36
ATOM     36  C   UNL A   1      40.886  28.147  28.398  1.00  0.00     0.031 A 
ATOM     37  C   UNL A   1      41.982  29.020  27.941  1.00  0.00     0.074 A 
ATOM     38  C   UNL A   1      39.893  28.537  29.210  1.00  0.00     0.049 A 
ATOM     39  N   UNL A   1      42.959  29.485  28.643  1.00  0.00    -0.248 NA
ATOM     40  C   UNL A   1      42.102  29.248  26.494  1.00  0.00     0.031 C 
ATOM     41  C   UNL A   1      38.624  27.866  29.490  1.00  0.00     0.029 A 
ATOM     42  N   UNL A   1      39.793  29.705  29.894  1.00  0.00    -0.354 N 
ATOM     43  C   UNL A   1      43.733  30.218  27.752  1.00  0.00     0.074 A 
ATOM     44  C   UNL A   1      43.269  29.884  26.432  1.00  0.00     0.031 C 
ATOM     45  C   UNL A   1      37.798  28.739  30.113  1.00  0.00     0.029 A 
ATOM     46  C   UNL A   1      38.525  29.971  30.380  1.00  0.00     0.049 A 
ATOM     47  H   UNL A   1      40.557  30.310  30.034  1.00  0.00     0.167 HD
ATOM     48  C   UNL A   1      44.520  31.233  28.194  1.00  0.00     0.037 A 
ATOM     49  C   UNL A   1      38.110  31.159  30.879  1.00  0.00     0.037 A 
ATOM     50  C   UNL A   1      44.797  31.095  29.603  1.00  0.00     0.049 A 
ATOM     51  C   UNL A   1      39.320  31.940  31.250  1.00  0.00     0.074 A 
ATOM     52  C   UNL A   1      45.424  30.137  30.376  1.00  0.00     0.029 A 
ATOM     53  N   UNL A   1      44.079  31.872  30.477  1.00  0.00    -0.354 N 
ATOM     54  N   UNL A   1      40.104  31.646  32.250  1.00  0.00    -0.248 NA
ATOM     55  C   UNL A   1      39.899  32.826  30.249  1.00  0.00     0.031 C 
ATOM     56  C   UNL A   1      44.705  30.115  31.607  1.00  0.00     0.029 A 
ATOM     57  C   UNL A   1      43.703  31.084  31.534  1.00  0.00     0.049 A 
ATOM     58  H   UNL A   1      43.872  32.828  30.366  1.00  0.00     0.167 HD
ATOM     59  C   UNL A   1      41.382  31.944  31.798  1.00  0.00     0.074 A 
ATOM     60  C   UNL A   1      41.183  32.773  30.615  1.00  0.00     0.031 C 
ATOM     61  C   UNL A   1      42.464  31.252  32.259  1.00  0.00     0.037 A 
BRANCH  48  62
ATOM     62  C   UNL A   1      44.685  32.537  27.451  1.00  0.00     0.064 A 
ATOM     63  C   UNL A   1      45.877  32.756  26.735  1.00  0.00     0.173 A 
ATOM     64  C   UNL A   1      43.883  33.684  27.658  1.00  0.00     0.173 A 
ATOM     65  F   UNL A   1      46.719  31.744  26.481  1.00  0.00    -0.203 F 
ATOM     66  C   UNL A   1      46.284  34.037  26.354  1.00  0.00     0.198 A 
ATOM     67  C   UNL A   1      44.267  34.951  27.227  1.00  0.00     0.198 A 
ATOM     68  F   UNL A   1      42.756  33.661  28.375  1.00  0.00    -0.203 F 
ATOM     69  F   UNL A   1      47.493  34.211  25.804  1.00  0.00    -0.200 F 
ATOM     70  C   UNL A   1      45.485  35.134  26.610  1.00  0.00     0.200 A 
ATOM     71  F   UNL A   1      43.480  36.002  27.498  1.00  0.00    -0.200 F 
ATOM     72  F   UNL A   1      45.904  36.370  26.311  1.00  0.00    -0.200 F 
ENDBRANCH  48  62
BRANCH  49  73
ATOM     73  C   UNL A   1      36.768  31.778  30.784  1.00  0.00     0.064 A 
ATOM     74  C   UNL A   1      36.023  32.057  31.941  1.00  0.00     0.173 A 
ATOM     75  C   UNL A   1      36.306  32.357  29.586  1.00  0.00     0.173 A 
ATOM     76  F   UNL A   1      36.419  31.580  33.130  1.00  0.00    -0.203 F 
ATOM     77  C   UNL A   1      34.902  32.892  31.906  1.00  0.00     0.198 A 
ATOM     78  C   UNL A   1      35.180  33.180  29.551  1.00  0.00     0.198 A 
ATOM     79  F   UNL A   1      36.991  32.218  28.442  1.00  0.00    -0.203 F 
ATOM     80  F   UNL A   1      34.259  33.192  33.044  1.00  0.00    -0.200 F 
ATOM     81  C   UNL A   1      34.489  33.460  30.714  1.00  0.00     0.200 A 
ATOM     82  F   UNL A   1      34.811  33.751  28.395  1.00  0.00    -0.200 F 
ATOM     83  F   UNL A   1      33.453  34.311  30.691  1.00  0.00    -0.200 F 
ENDBRANCH  49  73
BRANCH  61  84
ATOM     84  C   UNL A   1      42.279  30.409  33.489  1.00  0.00     0.064 A 
ATOM     85  C   UNL A   1      42.397  30.896  34.802  1.00  0.00     0.173 A 
ATOM     86  C   UNL A   1      41.837  29.089  33.326  1.00  0.00     0.173 A 
ATOM     87  F   UNL A   1      42.712  32.175  35.040  1.00  0.00    -0.203 F 
ATOM     88  C   UNL A   1      42.136  30.076  35.900  1.00  0.00     0.198 A 
ATOM     89  C   UNL A   1      41.538  28.286  34.423  1.00  0.00     0.198 A 
ATOM     90  F   UNL A   1      41.653  28.589  32.094  1.00  0.00    -0.203 F 
ATOM     91  F   UNL A   1      42.275  30.557  37.145  1.00  0.00    -0.200 F 
ATOM     92  C   UNL A   1      41.699  28.776  35.709  1.00  0.00     0.200 A 
ATOM     93  F   UNL A   1      41.067  27.047  34.232  1.00  0.00    -0.200 F 
ATOM     94  F   UNL A   1      41.408  28.001  36.763  1.00  0.00    -0.200 F 
ENDBRANCH  61  84
ENDBRANCH  35  36
ENDBRANCH  28  30
ENDBRANCH  27  28
ENDBRANCH  26  27
ENDBRANCH  25  26
ENDBRANCH   1  25
TORSDOF 17
ENDMDL
MODEL 3
REMARK VINA RESULT:     -12.1      3.287      8.909
REMARK SMILES O=C(Cn1cnc(-c2ccccc2)c1-c1ccccc1)OCCOCCOC(=O)c1ccc(-c2c3nc(c(-c4c(F)c(F)c(F)c(F)c4F)c4ccc([nH]4)c(-c4c(F)c(F)c(F)c(F)c4F)c4nc(c(-c5c(F)c(F)c(F)c(F)c5F)c5ccc2[nH]5)C=C4)C=C3)cc1
REMARK SMILES IDX 24 1 23 2 22 3 21 4 2 5 1 6 3 7 4 8 5 9 14 10 6 11 7 12
REMARK SMILES IDX 15 13 16 14 20 15 17 16 19 17 18 18 8 19 9 20 13 21 10 22
REMARK SMILES IDX 12 23 11 24 25 25 26 26 27 27 28 28 29 29 30 30 31 31 92 32
REMARK SMILES IDX 32 33 91 34 33 35 34 36 35 37 85 38 36 39 90 40 84 41 86 42
REMARK SMILES IDX 37 43 89 44 83 45 82 46 38 48 70 49 50 50 69 51 51 52 54 53
REMARK SMILES IDX 68 54 87 55 52 56 53 57 67 59 88 60 55 61 39 62 40 63 48 64
REMARK SMILES IDX 41 65 42 66 46 67 49 68 43 69 44 70 47 71 45 72 71 73 72 74
REMARK SMILES IDX 80 75 73 76 74 77 78 78 81 79 75 80 76 81 79 82 77 83 56 84
REMARK SMILES IDX 57 85 65 86 58 87 59 88 63 89 66 90 60 91 61 92 64 93 62 94
REMARK H PARENT 86 47 54 58
REMARK Flexibility Score: inf
ROOT
ATOM      1  O   UNL A   1      31.868  29.488  26.062  1.00  0.00    -0.374 OA
ENDROOT
BRANCH   1   2
ATOM      2  C   UNL A   1      32.578  29.347  24.840  1.00  0.00     0.202 C 
BRANCH   2   3
ATOM      3  C   UNL A   1      32.561  28.012  24.100  1.00  0.00     0.261 C 
BRANCH   3   4
ATOM      4  O   UNL A   1      33.048  26.883  24.835  1.00  0.00    -0.462 OA
BRANCH   4   5
ATOM      5  C   UNL A   1      32.642  25.599  24.697  1.00  0.00     0.326 C 
ATOM      6  O   UNL A   1      32.180  25.244  23.611  1.00  0.00    -0.250 OA
BRANCH   5   7
ATOM      7  C   UNL A   1      32.561  24.669  25.885  1.00  0.00     0.246 C 
BRANCH   7   8
ATOM      8  N   UNL A   1      32.273  23.278  25.617  1.00  0.00    -0.319 N 
ATOM      9  C   UNL A   1      31.047  22.692  25.771  1.00  0.00     0.201 A 
ATOM     10  C   UNL A   1      33.144  22.342  25.114  1.00  0.00     0.076 A 
ATOM     11  N   UNL A   1      31.062  21.445  25.361  1.00  0.00    -0.236 NA
ATOM     12  C   UNL A   1      32.352  21.219  24.949  1.00  0.00     0.096 A 
BRANCH  10  13
ATOM     13  C   UNL A   1      34.542  22.612  24.813  1.00  0.00     0.000 A 
ATOM     14  C   UNL A   1      35.498  22.571  25.829  1.00  0.00     0.010 A 
ATOM     15  C   UNL A   1      34.947  22.834  23.490  1.00  0.00     0.010 A 
ATOM     16  C   UNL A   1      36.850  22.714  25.521  1.00  0.00     0.001 A 
ATOM     17  C   UNL A   1      36.300  22.963  23.181  1.00  0.00     0.001 A 
ATOM     18  C   UNL A   1      37.251  22.897  24.196  1.00  0.00     0.000 A 
ENDBRANCH  10  13
BRANCH  12  19
ATOM     19  C   UNL A   1      32.795  20.003  24.311  1.00  0.00     0.002 A 
ATOM     20  C   UNL A   1      33.773  19.228  24.939  1.00  0.00     0.010 A 
ATOM     21  C   UNL A   1      32.179  19.542  23.143  1.00  0.00     0.010 A 
ATOM     22  C   UNL A   1      34.091  17.969  24.433  1.00  0.00     0.001 A 
ATOM     23  C   UNL A   1      32.501  18.285  22.637  1.00  0.00     0.001 A 
ATOM     24  C   UNL A   1      33.444  17.494  23.292  1.00  0.00     0.000 A 
ENDBRANCH  12  19
ENDBRANCH   7   8
ENDBRANCH   5   7
ENDBRANCH   4   5
ENDBRANCH   3   4
ENDBRANCH   2   3
ENDBRANCH   1   2
BRANCH   1  25
ATOM     25  C   UNL A   1      32.478  29.989  27.249  1.00  0.00     0.202 C 
BRANCH  25  26
ATOM     26  C   UNL A   1      33.353  31.226  27.263  1.00  0.00     0.261 C 
BRANCH  26  27
ATOM     27  O   UNL A   1      34.735  30.926  27.242  1.00  0.00    -0.460 OA
BRANCH  27  28
ATOM     28  C   UNL A   1      35.453  31.839  27.928  1.00  0.00     0.338 C 
ATOM     29  O   UNL A   1      35.480  33.042  27.747  1.00  0.00    -0.246 OA
BRANCH  28  30
ATOM     30  C   UNL A   1      36.410  31.136  28.778  1.00  0.00     0.060 A 
ATOM     31  C   UNL A   1      37.589  31.835  29.030  1.00  0.00     0.016 A 
ATOM     32  C   UNL A   1      36.300  29.745  28.936  1.00  0.00     0.016 A 
ATOM     33  C   UNL A   1      38.732  31.105  29.220  1.00  0.00     0.010 A 
ATOM     34  C   UNL A   1      37.449  29.016  29.110  1.00  0.00     0.010 A 
ATOM     35  C   UNL A   1      38.653  29.708  29.172  1.00  0.00    -0.014 A 
BRANCH  35  36
ATOM     36  C   UNL A   1      39.893  28.992  29.324  1.00  0.00     0.031 A 
ATOM     37  C   UNL A   1      40.258  28.804  30.739  1.00  0.00     0.074 A 
ATOM     38  C   UNL A   1      40.604  28.523  28.288  1.00  0.00     0.049 A 
ATOM     39  N   UNL A   1      41.238  29.350  31.376  1.00  0.00    -0.248 NA
ATOM     40  C   UNL A   1      39.311  28.065  31.586  1.00  0.00     0.031 C 
ATOM     41  C   UNL A   1      40.203  28.395  26.888  1.00  0.00     0.029 A 
ATOM     42  N   UNL A   1      41.841  27.966  28.316  1.00  0.00    -0.354 N 
ATOM     43  C   UNL A   1      41.134  28.883  32.679  1.00  0.00     0.074 A 
ATOM     44  C   UNL A   1      39.842  28.260  32.791  1.00  0.00     0.031 C 
ATOM     45  C   UNL A   1      41.096  27.602  26.250  1.00  0.00     0.029 A 
ATOM     46  C   UNL A   1      42.182  27.282  27.164  1.00  0.00     0.049 A 
ATOM     47  H   UNL A   1      42.444  28.043  29.091  1.00  0.00     0.167 HD
ATOM     48  C   UNL A   1      42.228  28.826  33.482  1.00  0.00     0.037 A 
ATOM     49  C   UNL A   1      43.241  26.449  27.030  1.00  0.00     0.037 A 
ATOM     50  C   UNL A   1      43.263  29.710  33.006  1.00  0.00     0.049 A 
ATOM     51  C   UNL A   1      44.201  26.761  28.123  1.00  0.00     0.074 A 
ATOM     52  C   UNL A   1      43.356  31.074  32.809  1.00  0.00     0.029 A 
ATOM     53  N   UNL A   1      44.307  29.158  32.305  1.00  0.00    -0.354 N 
ATOM     54  N   UNL A   1      44.905  27.857  28.189  1.00  0.00    -0.248 NA
ATOM     55  C   UNL A   1      44.077  26.028  29.375  1.00  0.00     0.031 C 
ATOM     56  C   UNL A   1      44.173  31.234  31.651  1.00  0.00     0.029 A 
ATOM     57  C   UNL A   1      44.566  29.963  31.227  1.00  0.00     0.049 A 
ATOM     58  H   UNL A   1      44.786  28.330  32.537  1.00  0.00     0.167 HD
ATOM     59  C   UNL A   1      44.943  28.172  29.540  1.00  0.00     0.074 A 
ATOM     60  C   UNL A   1      44.524  26.956  30.226  1.00  0.00     0.031 C 
ATOM     61  C   UNL A   1      45.033  29.470  29.952  1.00  0.00     0.037 A 
BRANCH  48  62
ATOM     62  C   UNL A   1      42.499  27.684  34.433  1.00  0.00     0.064 A 
ATOM     63  C   UNL A   1      43.035  26.490  33.914  1.00  0.00     0.173 A 
ATOM     64  C   UNL A   1      41.980  27.595  35.745  1.00  0.00     0.173 A 
ATOM     65  F   UNL A   1      43.552  26.453  32.677  1.00  0.00    -0.203 F 
ATOM     66  C   UNL A   1      42.957  25.282  34.610  1.00  0.00     0.198 A 
ATOM     67  C   UNL A   1      41.955  26.399  36.459  1.00  0.00     0.198 A 
ATOM     68  F   UNL A   1      41.376  28.617  36.358  1.00  0.00    -0.203 F 
ATOM     69  F   UNL A   1      43.350  24.148  34.016  1.00  0.00    -0.200 F 
ATOM     70  C   UNL A   1      42.408  25.235  35.877  1.00  0.00     0.200 A 
ATOM     71  F   UNL A   1      41.407  26.376  37.682  1.00  0.00    -0.200 F 
ATOM     72  F   UNL A   1      42.266  24.068  36.518  1.00  0.00    -0.200 F 
ENDBRANCH  48  62
BRANCH  49  73
ATOM     73  C   UNL A   1      43.346  25.218  26.213  1.00  0.00     0.064 A 
ATOM     74  C   UNL A   1      44.393  25.055  25.293  1.00  0.00     0.173 A 
ATOM     75  C   UNL A   1      42.588  24.069  26.511  1.00  0.00     0.173 A 
ATOM     76  F   UNL A   1      45.189  26.090  24.986  1.00  0.00    -0.203 F 
ATOM     77  C   UNL A   1      44.685  23.810  24.729  1.00  0.00     0.198 A 
ATOM     78  C   UNL A   1      42.873  22.830  25.938  1.00  0.00     0.198 A 
ATOM     79  F   UNL A   1      41.619  24.101  27.436  1.00  0.00    -0.203 F 
ATOM     80  F   UNL A   1      45.737  23.680  23.908  1.00  0.00    -0.200 F 
ATOM     81  C   UNL A   1      43.932  22.697  25.060  1.00  0.00     0.200 A 
ATOM     82  F   UNL A   1      42.157  21.753  26.294  1.00  0.00    -0.200 F 
ATOM     83  F   UNL A   1      44.251  21.492  24.569  1.00  0.00    -0.200 F 
ENDBRANCH  49  73
BRANCH  61  84
ATOM     84  C   UNL A   1      45.420  30.500  28.927  1.00  0.00     0.064 A 
ATOM     85  C   UNL A   1      46.747  30.854  28.629  1.00  0.00     0.173 A 
ATOM     86  C   UNL A   1      44.409  31.052  28.129  1.00  0.00     0.173 A 
ATOM     87  F   UNL A   1      47.775  30.291  29.276  1.00  0.00    -0.203 F 
ATOM     88  C   UNL A   1      47.039  31.762  27.612  1.00  0.00     0.198 A 
ATOM     89  C   UNL A   1      44.706  31.926  27.088  1.00  0.00     0.198 A 
ATOM     90  F   UNL A   1      43.127  30.706  28.332  1.00  0.00    -0.203 F 
ATOM     91  F   UNL A   1      48.312  32.101  27.359  1.00  0.00    -0.200 F 
ATOM     92  C   UNL A   1      46.019  32.290  26.837  1.00  0.00     0.200 A 
ATOM     93  F   UNL A   1      43.721  32.394  26.310  1.00  0.00    -0.200 F 
ATOM     94  F   UNL A   1      46.302  33.131  25.833  1.00  0.00    -0.200 F 
ENDBRANCH  61  84
ENDBRANCH  35  36
ENDBRANCH  28  30
ENDBRANCH  27  28
ENDBRANCH  26  27
ENDBRANCH  25  26
ENDBRANCH   1  25
TORSDOF 17
ENDMDL
