MODEL 1
REMARK VINA RESULT:      -8.4      0.000      0.000
REMARK SMILES CC(C)(Cn1ccc(=O)nc1SCC(=O)OCCOCCOC(=O)c1ccc(-c2c3nc(c(-c4c(F)c(F)c(F)c(F)c4F)c4ccc([nH]4)c(-c4c(F)c(F)c(F)c(F)c4F)c4nc(c(-c5c(F)c(F)c(F)c(F)c5F)c5ccc2[nH]5)C=C4)C=C3)cc1)S(C)(=O)=O
REMARK SMILES IDX 17 1 16 2 14 3 15 4 13 5 12 6 11 7 5 8 6 9 7 10 10 11 8 12
REMARK SMILES IDX 9 13 4 14 2 15 1 16 3 17 88 18 89 19 90 20 91 21 18 22 19 23
REMARK SMILES IDX 20 24 21 25 22 26 23 27 24 28 25 29 26 30 87 31 27 32 86 33
REMARK SMILES IDX 28 34 29 35 30 36 80 37 31 38 85 39 79 40 81 41 32 42 84 43
REMARK SMILES IDX 78 44 77 45 33 47 65 48 45 49 64 50 46 51 49 52 63 53 82 54
REMARK SMILES IDX 47 55 48 56 62 58 83 59 50 60 34 61 35 62 43 63 36 64 37 65
REMARK SMILES IDX 41 66 44 67 38 68 39 69 42 70 40 71 66 72 67 73 75 74 68 75
REMARK SMILES IDX 69 76 73 77 76 78 70 79 71 80 74 81 72 82 51 83 52 84 60 85
REMARK SMILES IDX 53 86 54 87 58 88 61 89 55 90 56 91 59 92 57 93
REMARK H PARENT 81 46 49 57
REMARK Flexibility Score: inf
ROOT
ATOM      1  C   UNL A   1      38.007  32.947  37.178  1.00  0.00     0.261 C 
ENDROOT
BRANCH   1   2
ATOM      2  O   UNL A   1      37.418  31.959  36.300  1.00  0.00    -0.463 OA
BRANCH   2   3
ATOM      3  C   UNL A   1      38.287  31.073  35.745  1.00  0.00     0.316 C 
ATOM      4  O   UNL A   1      39.141  30.458  36.381  1.00  0.00    -0.251 OA
BRANCH   3   5
ATOM      5  C   UNL A   1      38.197  30.908  34.249  1.00  0.00     0.200 C 
BRANCH   5   6
ATOM      6  S   UNL A   1      38.822  32.197  33.212  1.00  0.00    -0.076 SA
BRANCH   6   7
ATOM      7  C   UNL A   1      38.047  32.425  31.652  1.00  0.00     0.172 A 
ATOM      8  N   UNL A   1      37.122  33.398  31.225  1.00  0.00    -0.326 N 
ATOM      9  C   UNL A   1      37.044  33.563  29.839  1.00  0.00     0.094 A 
ATOM     10  C   UNL A   1      37.608  32.736  28.961  1.00  0.00     0.091 A 
ATOM     11  N   UNL A   1      38.565  31.549  30.840  1.00  0.00    -0.185 NA
ATOM     12  C   UNL A   1      38.264  31.538  29.508  1.00  0.00     0.273 A 
ATOM     13  O   UNL A   1      38.570  30.632  28.742  1.00  0.00    -0.267 OA
BRANCH   8  14
ATOM     14  C   UNL A   1      36.468  34.424  32.050  1.00  0.00     0.146 C 
BRANCH  14  15
ATOM     15  C   UNL A   1      35.101  34.085  32.675  1.00  0.00     0.084 C 
ATOM     16  C   UNL A   1      34.587  32.678  32.362  1.00  0.00     0.030 C 
ATOM     17  C   UNL A   1      35.301  34.202  34.214  1.00  0.00     0.030 C 
BRANCH  15  18
ATOM     18  S   UNL A   1      33.834  35.339  32.244  1.00  0.00     0.154 S 
ATOM     19  C   UNL A   1      33.700  35.431  30.470  1.00  0.00     0.158 C 
ATOM     20  O   UNL A   1      32.556  34.839  32.716  1.00  0.00    -0.229 OA
ATOM     21  O   UNL A   1      34.314  36.632  32.699  1.00  0.00    -0.229 OA
ENDBRANCH  15  18
ENDBRANCH  14  15
ENDBRANCH   8  14
ENDBRANCH   6   7
ENDBRANCH   5   6
ENDBRANCH   3   5
ENDBRANCH   2   3
ENDBRANCH   1   2
BRANCH   1  22
ATOM     22  C   UNL A   1      37.938  32.598  38.671  1.00  0.00     0.202 C 
BRANCH  22  23
ATOM     23  O   UNL A   1      39.121  32.729  39.455  1.00  0.00    -0.374 OA
BRANCH  23  24
ATOM     24  C   UNL A   1      39.207  33.838  40.332  1.00  0.00     0.202 C 
BRANCH  24  25
ATOM     25  C   UNL A   1      40.256  34.907  40.024  1.00  0.00     0.261 C 
BRANCH  25  26
ATOM     26  O   UNL A   1      39.886  35.822  39.005  1.00  0.00    -0.460 OA
BRANCH  26  27
ATOM     27  C   UNL A   1      40.910  36.554  38.516  1.00  0.00     0.338 C 
ATOM     28  O   UNL A   1      41.462  37.519  39.014  1.00  0.00    -0.246 OA
BRANCH  27  29
ATOM     29  C   UNL A   1      41.386  35.850  37.328  1.00  0.00     0.060 A 
ATOM     30  C   UNL A   1      42.746  35.585  37.160  1.00  0.00     0.016 A 
ATOM     31  C   UNL A   1      40.441  35.506  36.357  1.00  0.00     0.016 A 
ATOM     32  C   UNL A   1      43.162  34.940  36.001  1.00  0.00     0.010 A 
ATOM     33  C   UNL A   1      40.860  34.869  35.199  1.00  0.00     0.010 A 
ATOM     34  C   UNL A   1      42.217  34.562  35.029  1.00  0.00    -0.014 A 
BRANCH  34  35
ATOM     35  C   UNL A   1      42.609  33.691  33.906  1.00  0.00     0.031 A 
ATOM     36  C   UNL A   1      42.840  34.247  32.539  1.00  0.00     0.074 A 
ATOM     37  C   UNL A   1      42.677  32.370  34.151  1.00  0.00     0.049 A 
ATOM     38  N   UNL A   1      43.150  33.612  31.439  1.00  0.00    -0.248 NA
ATOM     39  C   UNL A   1      42.693  35.702  32.378  1.00  0.00     0.031 C 
ATOM     40  C   UNL A   1      42.423  31.747  35.454  1.00  0.00     0.029 A 
ATOM     41  N   UNL A   1      42.967  31.316  33.328  1.00  0.00    -0.354 N 
ATOM     42  C   UNL A   1      43.255  34.587  30.458  1.00  0.00     0.074 A 
ATOM     43  C   UNL A   1      42.925  35.853  31.079  1.00  0.00     0.031 C 
ATOM     44  C   UNL A   1      42.596  30.422  35.348  1.00  0.00     0.029 A 
ATOM     45  C   UNL A   1      42.931  30.101  33.966  1.00  0.00     0.049 A 
ATOM     46  H   UNL A   1      43.181  31.420  32.373  1.00  0.00     0.167 HD
ATOM     47  C   UNL A   1      43.620  34.426  29.165  1.00  0.00     0.037 A 
ATOM     48  C   UNL A   1      43.140  28.864  33.481  1.00  0.00     0.037 A 
ATOM     49  C   UNL A   1      43.927  33.149  28.572  1.00  0.00     0.049 A 
ATOM     50  C   UNL A   1      43.489  28.719  32.026  1.00  0.00     0.074 A 
ATOM     51  C   UNL A   1      44.324  32.873  27.275  1.00  0.00     0.029 A 
ATOM     52  N   UNL A   1      43.867  31.932  29.239  1.00  0.00    -0.354 N 
ATOM     53  N   UNL A   1      43.648  29.651  31.119  1.00  0.00    -0.248 NA
ATOM     54  C   UNL A   1      43.690  27.353  31.529  1.00  0.00     0.031 C 
ATOM     55  C   UNL A   1      44.454  31.489  27.144  1.00  0.00     0.029 A 
ATOM     56  C   UNL A   1      44.198  30.903  28.373  1.00  0.00     0.049 A 
ATOM     57  H   UNL A   1      43.627  31.819  30.187  1.00  0.00     0.167 HD
ATOM     58  C   UNL A   1      43.995  28.990  29.951  1.00  0.00     0.074 A 
ATOM     59  C   UNL A   1      44.042  27.577  30.271  1.00  0.00     0.031 C 
ATOM     60  C   UNL A   1      44.247  29.505  28.722  1.00  0.00     0.037 A 
BRANCH  47  61
ATOM     61  C   UNL A   1      43.730  35.648  28.301  1.00  0.00     0.064 A 
ATOM     62  C   UNL A   1      42.594  36.236  27.724  1.00  0.00     0.173 A 
ATOM     63  C   UNL A   1      44.961  36.302  28.134  1.00  0.00     0.173 A 
ATOM     64  F   UNL A   1      41.395  35.647  27.845  1.00  0.00    -0.203 F 
ATOM     65  C   UNL A   1      42.686  37.427  27.008  1.00  0.00     0.198 A 
ATOM     66  C   UNL A   1      45.045  37.508  27.441  1.00  0.00     0.198 A 
ATOM     67  F   UNL A   1      46.079  35.787  28.669  1.00  0.00    -0.203 F 
ATOM     68  F   UNL A   1      41.590  37.955  26.447  1.00  0.00    -0.200 F 
ATOM     69  C   UNL A   1      43.909  38.069  26.879  1.00  0.00     0.200 A 
ATOM     70  F   UNL A   1      46.226  38.134  27.329  1.00  0.00    -0.200 F 
ATOM     71  F   UNL A   1      43.991  39.228  26.211  1.00  0.00    -0.200 F 
ENDBRANCH  47  61
BRANCH  48  72
ATOM     72  C   UNL A   1      43.065  27.691  34.387  1.00  0.00     0.064 A 
ATOM     73  C   UNL A   1      44.186  27.284  35.122  1.00  0.00     0.173 A 
ATOM     74  C   UNL A   1      41.876  26.966  34.557  1.00  0.00     0.173 A 
ATOM     75  F   UNL A   1      45.349  27.937  34.985  1.00  0.00    -0.203 F 
ATOM     76  C   UNL A   1      44.127  26.184  35.976  1.00  0.00     0.198 A 
ATOM     77  C   UNL A   1      41.809  25.887  35.436  1.00  0.00     0.198 A 
ATOM     78  F   UNL A   1      40.770  27.320  33.886  1.00  0.00    -0.203 F 
ATOM     79  F   UNL A   1      45.228  25.790  36.632  1.00  0.00    -0.200 F 
ATOM     80  C   UNL A   1      42.938  25.492  36.137  1.00  0.00     0.200 A 
ATOM     81  F   UNL A   1      40.652  25.234  35.606  1.00  0.00    -0.200 F 
ATOM     82  F   UNL A   1      42.880  24.439  36.965  1.00  0.00    -0.200 F 
ENDBRANCH  48  72
BRANCH  60  83
ATOM     83  C   UNL A   1      44.621  28.538  27.636  1.00  0.00     0.064 A 
ATOM     84  C   UNL A   1      43.666  28.037  26.741  1.00  0.00     0.173 A 
ATOM     85  C   UNL A   1      45.962  28.170  27.444  1.00  0.00     0.173 A 
ATOM     86  F   UNL A   1      42.369  28.348  26.892  1.00  0.00    -0.203 F 
ATOM     87  C   UNL A   1      44.037  27.188  25.702  1.00  0.00     0.198 A 
ATOM     88  C   UNL A   1      46.333  27.350  26.383  1.00  0.00     0.198 A 
ATOM     89  F   UNL A   1      46.915  28.630  28.269  1.00  0.00    -0.203 F 
ATOM     90  F   UNL A   1      43.102  26.689  24.882  1.00  0.00    -0.200 F 
ATOM     91  C   UNL A   1      45.370  26.856  25.517  1.00  0.00     0.200 A 
ATOM     92  F   UNL A   1      47.625  27.047  26.194  1.00  0.00    -0.200 F 
ATOM     93  F   UNL A   1      45.728  26.057  24.502  1.00  0.00    -0.200 F 
ENDBRANCH  60  83
ENDBRANCH  34  35
ENDBRANCH  27  29
ENDBRANCH  26  27
ENDBRANCH  25  26
ENDBRANCH  24  25
ENDBRANCH  23  24
ENDBRANCH  22  23
ENDBRANCH   1  22
TORSDOF 19
ENDMDL
MODEL 2
REMARK VINA RESULT:      -8.2      6.349     10.846
REMARK SMILES CC(C)(Cn1ccc(=O)nc1SCC(=O)OCCOCCOC(=O)c1ccc(-c2c3nc(c(-c4c(F)c(F)c(F)c(F)c4F)c4ccc([nH]4)c(-c4c(F)c(F)c(F)c(F)c4F)c4nc(c(-c5c(F)c(F)c(F)c(F)c5F)c5ccc2[nH]5)C=C4)C=C3)cc1)S(C)(=O)=O
REMARK SMILES IDX 17 1 16 2 14 3 15 4 13 5 12 6 11 7 5 8 6 9 7 10 10 11 8 12
REMARK SMILES IDX 9 13 4 14 2 15 1 16 3 17 88 18 89 19 90 20 91 21 18 22 19 23
REMARK SMILES IDX 20 24 21 25 22 26 23 27 24 28 25 29 26 30 87 31 27 32 86 33
REMARK SMILES IDX 28 34 29 35 30 36 80 37 31 38 85 39 79 40 81 41 32 42 84 43
REMARK SMILES IDX 78 44 77 45 33 47 65 48 45 49 64 50 46 51 49 52 63 53 82 54
REMARK SMILES IDX 47 55 48 56 62 58 83 59 50 60 34 61 35 62 43 63 36 64 37 65
REMARK SMILES IDX 41 66 44 67 38 68 39 69 42 70 40 71 66 72 67 73 75 74 68 75
REMARK SMILES IDX 69 76 73 77 76 78 70 79 71 80 74 81 72 82 51 83 52 84 60 85
REMARK SMILES IDX 53 86 54 87 58 88 61 89 55 90 56 91 59 92 57 93
REMARK H PARENT 81 46 49 57
REMARK Flexibility Score: inf
ROOT
ATOM      1  C   UNL A   1      35.161  25.350  26.194  1.00  0.00     0.261 C 
ENDROOT
BRANCH   1   2
ATOM      2  O   UNL A   1      35.290  23.974  25.764  1.00  0.00    -0.463 OA
BRANCH   2   3
ATOM      3  C   UNL A   1      36.332  23.715  24.931  1.00  0.00     0.316 C 
ATOM      4  O   UNL A   1      37.511  23.730  25.279  1.00  0.00    -0.251 OA
BRANCH   3   5
ATOM      5  C   UNL A   1      35.975  23.451  23.489  1.00  0.00     0.200 C 
BRANCH   5   6
ATOM      6  S   UNL A   1      34.304  23.033  23.090  1.00  0.00    -0.076 SA
BRANCH   6   7
ATOM      7  C   UNL A   1      33.526  21.797  24.066  1.00  0.00     0.172 A 
ATOM      8  N   UNL A   1      32.262  21.784  24.687  1.00  0.00    -0.326 N 
ATOM      9  C   UNL A   1      31.779  20.512  25.006  1.00  0.00     0.094 A 
ATOM     10  C   UNL A   1      32.516  19.404  24.952  1.00  0.00     0.091 A 
ATOM     11  N   UNL A   1      34.311  20.757  24.056  1.00  0.00    -0.185 NA
ATOM     12  C   UNL A   1      33.941  19.572  24.626  1.00  0.00     0.273 A 
ATOM     13  O   UNL A   1      34.703  18.631  24.811  1.00  0.00    -0.267 OA
BRANCH   8  14
ATOM     14  C   UNL A   1      31.302  22.895  24.769  1.00  0.00     0.146 C 
BRANCH  14  15
ATOM     15  C   UNL A   1      30.910  23.409  26.168  1.00  0.00     0.084 C 
ATOM     16  C   UNL A   1      29.837  22.577  26.876  1.00  0.00     0.030 C 
ATOM     17  C   UNL A   1      32.212  23.353  27.017  1.00  0.00     0.030 C 
BRANCH  15  18
ATOM     18  S   UNL A   1      30.421  25.176  26.124  1.00  0.00     0.154 S 
ATOM     19  C   UNL A   1      30.523  25.757  24.443  1.00  0.00     0.158 C 
ATOM     20  O   UNL A   1      29.018  25.244  26.486  1.00  0.00    -0.229 OA
ATOM     21  O   UNL A   1      31.400  25.928  26.891  1.00  0.00    -0.229 OA
ENDBRANCH  15  18
ENDBRANCH  14  15
ENDBRANCH   8  14
ENDBRANCH   6   7
ENDBRANCH   5   6
ENDBRANCH   3   5
ENDBRANCH   2   3
ENDBRANCH   1   2
BRANCH   1  22
ATOM     22  C   UNL A   1      34.238  26.210  25.319  1.00  0.00     0.202 C 
BRANCH  22  23
ATOM     23  O   UNL A   1      33.819  27.479  25.816  1.00  0.00    -0.374 OA
BRANCH  23  24
ATOM     24  C   UNL A   1      33.588  28.508  24.871  1.00  0.00     0.202 C 
BRANCH  24  25
ATOM     25  C   UNL A   1      32.921  29.791  25.368  1.00  0.00     0.261 C 
BRANCH  25  26
ATOM     26  O   UNL A   1      32.917  29.947  26.778  1.00  0.00    -0.460 OA
BRANCH  26  27
ATOM     27  C   UNL A   1      33.430  31.120  27.208  1.00  0.00     0.338 C 
ATOM     28  O   UNL A   1      32.898  32.215  27.249  1.00  0.00    -0.246 OA
BRANCH  27  29
ATOM     29  C   UNL A   1      34.721  30.804  27.814  1.00  0.00     0.060 A 
ATOM     30  C   UNL A   1      35.733  31.764  27.864  1.00  0.00     0.016 A 
ATOM     31  C   UNL A   1      34.914  29.504  28.288  1.00  0.00     0.016 A 
ATOM     32  C   UNL A   1      36.958  31.415  28.422  1.00  0.00     0.010 A 
ATOM     33  C   UNL A   1      36.138  29.156  28.837  1.00  0.00     0.010 A 
ATOM     34  C   UNL A   1      37.154  30.117  28.928  1.00  0.00    -0.014 A 
BRANCH  34  35
ATOM     35  C   UNL A   1      38.360  29.798  29.714  1.00  0.00     0.031 A 
ATOM     36  C   UNL A   1      39.380  28.830  29.207  1.00  0.00     0.074 A 
ATOM     37  C   UNL A   1      38.464  30.358  30.932  1.00  0.00     0.049 A 
ATOM     38  N   UNL A   1      40.472  28.413  29.791  1.00  0.00    -0.248 NA
ATOM     39  C   UNL A   1      39.141  28.243  27.880  1.00  0.00     0.031 C 
ATOM     40  C   UNL A   1      37.485  31.283  31.513  1.00  0.00     0.029 A 
ATOM     41  N   UNL A   1      39.421  30.234  31.902  1.00  0.00    -0.354 N 
ATOM     42  C   UNL A   1      41.063  27.530  28.900  1.00  0.00     0.074 A 
ATOM     43  C   UNL A   1      40.183  27.430  27.754  1.00  0.00     0.031 C 
ATOM     44  C   UNL A   1      37.907  31.663  32.727  1.00  0.00     0.029 A 
ATOM     45  C   UNL A   1      39.160  30.979  33.024  1.00  0.00     0.049 A 
ATOM     46  H   UNL A   1      40.219  29.666  31.803  1.00  0.00     0.167 HD
ATOM     47  C   UNL A   1      42.247  26.887  29.030  1.00  0.00     0.037 A 
ATOM     48  C   UNL A   1      39.856  31.089  34.169  1.00  0.00     0.037 A 
ATOM     49  C   UNL A   1      43.094  26.995  30.191  1.00  0.00     0.049 A 
ATOM     50  C   UNL A   1      41.139  30.318  34.301  1.00  0.00     0.074 A 
ATOM     51  C   UNL A   1      44.322  26.401  30.420  1.00  0.00     0.029 A 
ATOM     52  N   UNL A   1      42.796  27.747  31.320  1.00  0.00    -0.354 N 
ATOM     53  N   UNL A   1      41.723  29.534  33.428  1.00  0.00    -0.248 NA
ATOM     54  C   UNL A   1      41.861  30.448  35.571  1.00  0.00     0.031 C 
ATOM     55  C   UNL A   1      44.742  26.751  31.706  1.00  0.00     0.029 A 
ATOM     56  C   UNL A   1      43.807  27.611  32.257  1.00  0.00     0.049 A 
ATOM     57  H   UNL A   1      41.986  28.295  31.437  1.00  0.00     0.167 HD
ATOM     58  C   UNL A   1      42.894  29.099  34.030  1.00  0.00     0.074 A 
ATOM     59  C   UNL A   1      42.946  29.723  35.337  1.00  0.00     0.031 C 
ATOM     60  C   UNL A   1      43.838  28.254  33.548  1.00  0.00     0.037 A 
BRANCH  47  61
ATOM     61  C   UNL A   1      42.716  26.027  27.893  1.00  0.00     0.064 A 
ATOM     62  C   UNL A   1      43.600  26.525  26.923  1.00  0.00     0.173 A 
ATOM     63  C   UNL A   1      42.369  24.669  27.827  1.00  0.00     0.173 A 
ATOM     64  F   UNL A   1      43.957  27.818  26.935  1.00  0.00    -0.203 F 
ATOM     65  C   UNL A   1      44.115  25.697  25.928  1.00  0.00     0.198 A 
ATOM     66  C   UNL A   1      42.907  23.838  26.846  1.00  0.00     0.198 A 
ATOM     67  F   UNL A   1      41.531  24.140  28.731  1.00  0.00    -0.203 F 
ATOM     68  F   UNL A   1      44.939  26.202  25.000  1.00  0.00    -0.200 F 
ATOM     69  C   UNL A   1      43.778  24.352  25.898  1.00  0.00     0.200 A 
ATOM     70  F   UNL A   1      42.591  22.535  26.828  1.00  0.00    -0.200 F 
ATOM     71  F   UNL A   1      44.294  23.551  24.955  1.00  0.00    -0.200 F 
ENDBRANCH  47  61
BRANCH  48  72
ATOM     72  C   UNL A   1      39.374  31.990  35.246  1.00  0.00     0.064 A 
ATOM     73  C   UNL A   1      39.730  33.346  35.257  1.00  0.00     0.173 A 
ATOM     74  C   UNL A   1      38.533  31.530  36.270  1.00  0.00     0.173 A 
ATOM     75  F   UNL A   1      40.540  33.832  34.305  1.00  0.00    -0.203 F 
ATOM     76  C   UNL A   1      39.282  34.200  36.261  1.00  0.00     0.198 A 
ATOM     77  C   UNL A   1      38.059  32.393  37.257  1.00  0.00     0.198 A 
ATOM     78  F   UNL A   1      38.153  30.243  36.302  1.00  0.00    -0.203 F 
ATOM     79  F   UNL A   1      39.675  35.482  36.271  1.00  0.00    -0.200 F 
ATOM     80  C   UNL A   1      38.442  33.725  37.256  1.00  0.00     0.200 A 
ATOM     81  F   UNL A   1      37.231  31.934  38.204  1.00  0.00    -0.200 F 
ATOM     82  F   UNL A   1      38.005  34.550  38.218  1.00  0.00    -0.200 F 
ENDBRANCH  48  72
BRANCH  60  83
ATOM     83  C   UNL A   1      45.022  27.974  34.427  1.00  0.00     0.064 A 
ATOM     84  C   UNL A   1      46.154  28.801  34.416  1.00  0.00     0.173 A 
ATOM     85  C   UNL A   1      44.990  26.912  35.343  1.00  0.00     0.173 A 
ATOM     86  F   UNL A   1      46.239  29.821  33.548  1.00  0.00    -0.203 F 
ATOM     87  C   UNL A   1      47.220  28.564  35.280  1.00  0.00     0.198 A 
ATOM     88  C   UNL A   1      46.042  26.700  36.229  1.00  0.00     0.198 A 
ATOM     89  F   UNL A   1      43.926  26.098  35.399  1.00  0.00    -0.203 F 
ATOM     90  F   UNL A   1      48.309  29.343  35.224  1.00  0.00    -0.200 F 
ATOM     91  C   UNL A   1      47.158  27.523  36.193  1.00  0.00     0.200 A 
ATOM     92  F   UNL A   1      45.971  25.706  37.125  1.00  0.00    -0.200 F 
ATOM     93  F   UNL A   1      48.175  27.311  37.039  1.00  0.00    -0.200 F 
ENDBRANCH  60  83
ENDBRANCH  34  35
ENDBRANCH  27  29
ENDBRANCH  26  27
ENDBRANCH  25  26
ENDBRANCH  24  25
ENDBRANCH  23  24
ENDBRANCH  22  23
ENDBRANCH   1  22
TORSDOF 19
ENDMDL
MODEL 3
REMARK VINA RESULT:      -7.8      7.862     12.782
REMARK SMILES CC(C)(Cn1ccc(=O)nc1SCC(=O)OCCOCCOC(=O)c1ccc(-c2c3nc(c(-c4c(F)c(F)c(F)c(F)c4F)c4ccc([nH]4)c(-c4c(F)c(F)c(F)c(F)c4F)c4nc(c(-c5c(F)c(F)c(F)c(F)c5F)c5ccc2[nH]5)C=C4)C=C3)cc1)S(C)(=O)=O
REMARK SMILES IDX 17 1 16 2 14 3 15 4 13 5 12 6 11 7 5 8 6 9 7 10 10 11 8 12
REMARK SMILES IDX 9 13 4 14 2 15 1 16 3 17 88 18 89 19 90 20 91 21 18 22 19 23
REMARK SMILES IDX 20 24 21 25 22 26 23 27 24 28 25 29 26 30 87 31 27 32 86 33
REMARK SMILES IDX 28 34 29 35 30 36 80 37 31 38 85 39 79 40 81 41 32 42 84 43
REMARK SMILES IDX 78 44 77 45 33 47 65 48 45 49 64 50 46 51 49 52 63 53 82 54
REMARK SMILES IDX 47 55 48 56 62 58 83 59 50 60 34 61 35 62 43 63 36 64 37 65
REMARK SMILES IDX 41 66 44 67 38 68 39 69 42 70 40 71 66 72 67 73 75 74 68 75
REMARK SMILES IDX 69 76 73 77 76 78 70 79 71 80 74 81 72 82 51 83 52 84 60 85
REMARK SMILES IDX 53 86 54 87 58 88 61 89 55 90 56 91 59 92 57 93
REMARK H PARENT 81 46 49 57
REMARK Flexibility Score: inf
ROOT
ATOM      1  C   UNL A   1      38.693  23.372  26.174  1.00  0.00     0.261 C 
ENDROOT
BRANCH   1   2
ATOM      2  O   UNL A   1      38.100  22.208  25.552  1.00  0.00    -0.463 OA
BRANCH   2   3
ATOM      3  C   UNL A   1      36.831  22.368  25.093  1.00  0.00     0.316 C 
ATOM      4  O   UNL A   1      36.481  22.127  23.940  1.00  0.00    -0.251 OA
BRANCH   3   5
ATOM      5  C   UNL A   1      35.838  22.931  26.079  1.00  0.00     0.200 C 
BRANCH   5   6
ATOM      6  S   UNL A   1      34.361  22.018  26.415  1.00  0.00    -0.076 SA
BRANCH   6   7
ATOM      7  C   UNL A   1      33.199  21.854  25.108  1.00  0.00     0.172 A 
ATOM      8  N   UNL A   1      32.405  22.824  24.464  1.00  0.00    -0.326 N 
ATOM      9  C   UNL A   1      31.932  22.450  23.203  1.00  0.00     0.094 A 
ATOM     10  C   UNL A   1      32.012  21.212  22.718  1.00  0.00     0.091 A 
ATOM     11  N   UNL A   1      33.248  20.615  24.711  1.00  0.00    -0.185 NA
ATOM     12  C   UNL A   1      32.549  20.181  23.620  1.00  0.00     0.273 A 
ATOM     13  O   UNL A   1      32.409  19.002  23.318  1.00  0.00    -0.267 OA
BRANCH   8  14
ATOM     14  C   UNL A   1      32.265  24.241  24.829  1.00  0.00     0.146 C 
BRANCH  14  15
ATOM     15  C   UNL A   1      33.098  25.274  24.046  1.00  0.00     0.084 C 
ATOM     16  C   UNL A   1      33.917  26.228  24.918  1.00  0.00     0.030 C 
ATOM     17  C   UNL A   1      34.081  24.446  23.171  1.00  0.00     0.030 C 
BRANCH  15  18
ATOM     18  S   UNL A   1      32.060  26.220  22.866  1.00  0.00     0.154 S 
ATOM     19  C   UNL A   1      32.548  25.796  21.206  1.00  0.00     0.158 C 
ATOM     20  O   UNL A   1      30.697  25.744  23.015  1.00  0.00    -0.229 OA
ATOM     21  O   UNL A   1      32.355  27.631  23.045  1.00  0.00    -0.229 OA
ENDBRANCH  15  18
ENDBRANCH  14  15
ENDBRANCH   8  14
ENDBRANCH   6   7
ENDBRANCH   5   6
ENDBRANCH   3   5
ENDBRANCH   2   3
ENDBRANCH   1   2
BRANCH   1  22
ATOM     22  C   UNL A   1      39.730  23.059  27.261  1.00  0.00     0.202 C 
BRANCH  22  23
ATOM     23  O   UNL A   1      40.178  21.714  27.405  1.00  0.00    -0.374 OA
BRANCH  23  24
ATOM     24  C   UNL A   1      41.158  21.249  26.493  1.00  0.00     0.202 C 
BRANCH  24  25
ATOM     25  C   UNL A   1      42.612  21.231  26.964  1.00  0.00     0.261 C 
BRANCH  25  26
ATOM     26  O   UNL A   1      43.255  22.496  26.945  1.00  0.00    -0.460 OA
BRANCH  26  27
ATOM     27  C   UNL A   1      43.343  23.093  28.153  1.00  0.00     0.338 C 
ATOM     28  O   UNL A   1      42.976  22.676  29.237  1.00  0.00    -0.246 OA
BRANCH  27  29
ATOM     29  C   UNL A   1      44.154  24.292  27.959  1.00  0.00     0.060 A 
ATOM     30  C   UNL A   1      44.656  24.992  29.057  1.00  0.00     0.016 A 
ATOM     31  C   UNL A   1      44.359  24.730  26.648  1.00  0.00     0.016 A 
ATOM     32  C   UNL A   1      45.398  26.145  28.831  1.00  0.00     0.010 A 
ATOM     33  C   UNL A   1      45.093  25.885  26.426  1.00  0.00     0.010 A 
ATOM     34  C   UNL A   1      45.636  26.581  27.515  1.00  0.00    -0.014 A 
BRANCH  34  35
ATOM     35  C   UNL A   1      46.595  27.669  27.251  1.00  0.00     0.031 A 
ATOM     36  C   UNL A   1      48.058  27.396  27.120  1.00  0.00     0.074 A 
ATOM     37  C   UNL A   1      46.104  28.921  27.205  1.00  0.00     0.049 A 
ATOM     38  N   UNL A   1      49.034  28.244  26.927  1.00  0.00    -0.248 NA
ATOM     39  C   UNL A   1      48.487  25.994  27.233  1.00  0.00     0.031 C 
ATOM     40  C   UNL A   1      44.689  29.270  27.365  1.00  0.00     0.029 A 
ATOM     41  N   UNL A   1      46.726  30.125  27.022  1.00  0.00    -0.354 N 
ATOM     42  C   UNL A   1      50.191  27.481  26.875  1.00  0.00     0.074 A 
ATOM     43  C   UNL A   1      49.805  26.105  27.108  1.00  0.00     0.031 C 
ATOM     44  C   UNL A   1      44.549  30.597  27.246  1.00  0.00     0.029 A 
ATOM     45  C   UNL A   1      45.864  31.192  27.042  1.00  0.00     0.049 A 
ATOM     46  H   UNL A   1      47.697  30.217  26.887  1.00  0.00     0.167 HD
ATOM     47  C   UNL A   1      51.454  27.904  26.629  1.00  0.00     0.037 A 
ATOM     48  C   UNL A   1      46.114  32.508  26.917  1.00  0.00     0.037 A 
ATOM     49  C   UNL A   1      51.809  29.284  26.416  1.00  0.00     0.049 A 
ATOM     50  C   UNL A   1      47.535  32.946  26.699  1.00  0.00     0.074 A 
ATOM     51  C   UNL A   1      53.054  29.821  26.142  1.00  0.00     0.029 A 
ATOM     52  N   UNL A   1      50.915  30.346  26.458  1.00  0.00    -0.354 N 
ATOM     53  N   UNL A   1      48.616  32.213  26.589  1.00  0.00    -0.248 NA
ATOM     54  C   UNL A   1      47.772  34.390  26.587  1.00  0.00     0.031 C 
ATOM     55  C   UNL A   1      52.923  31.210  26.069  1.00  0.00     0.029 A 
ATOM     56  C   UNL A   1      51.587  31.537  26.237  1.00  0.00     0.049 A 
ATOM     57  H   UNL A   1      49.948  30.265  26.619  1.00  0.00     0.167 HD
ATOM     58  C   UNL A   1      49.657  33.102  26.365  1.00  0.00     0.074 A 
ATOM     59  C   UNL A   1      49.072  34.428  26.337  1.00  0.00     0.031 C 
ATOM     60  C   UNL A   1      50.978  32.844  26.203  1.00  0.00     0.037 A 
BRANCH  47  61
ATOM     61  C   UNL A   1      52.544  26.876  26.553  1.00  0.00     0.064 A 
ATOM     62  C   UNL A   1      53.421  26.666  27.628  1.00  0.00     0.173 A 
ATOM     63  C   UNL A   1      52.651  26.020  25.446  1.00  0.00     0.173 A 
ATOM     64  F   UNL A   1      53.368  27.462  28.707  1.00  0.00    -0.203 F 
ATOM     65  C   UNL A   1      54.366  25.643  27.596  1.00  0.00     0.198 A 
ATOM     66  C   UNL A   1      53.579  24.981  25.428  1.00  0.00     0.198 A 
ATOM     67  F   UNL A   1      51.835  26.173  24.392  1.00  0.00    -0.203 F 
ATOM     68  F   UNL A   1      55.207  25.479  28.626  1.00  0.00    -0.200 F 
ATOM     69  C   UNL A   1      54.435  24.794  26.502  1.00  0.00     0.200 A 
ATOM     70  F   UNL A   1      53.635  24.152  24.376  1.00  0.00    -0.200 F 
ATOM     71  F   UNL A   1      55.328  23.795  26.484  1.00  0.00    -0.200 F 
ENDBRANCH  47  61
BRANCH  48  72
ATOM     72  C   UNL A   1      44.994  33.482  26.951  1.00  0.00     0.064 A 
ATOM     73  C   UNL A   1      44.247  33.753  25.797  1.00  0.00     0.173 A 
ATOM     74  C   UNL A   1      44.629  34.143  28.133  1.00  0.00     0.173 A 
ATOM     75  F   UNL A   1      44.564  33.154  24.639  1.00  0.00    -0.203 F 
ATOM     76  C   UNL A   1      43.194  34.664  25.818  1.00  0.00     0.198 A 
ATOM     77  C   UNL A   1      43.554  35.030  28.160  1.00  0.00     0.198 A 
ATOM     78  F   UNL A   1      45.304  33.912  29.270  1.00  0.00    -0.203 F 
ATOM     79  F   UNL A   1      42.526  34.937  24.688  1.00  0.00    -0.200 F 
ATOM     80  C   UNL A   1      42.844  35.296  27.000  1.00  0.00     0.200 A 
ATOM     81  F   UNL A   1      43.206  35.623  29.310  1.00  0.00    -0.200 F 
ATOM     82  F   UNL A   1      41.825  36.167  27.021  1.00  0.00    -0.200 F 
ENDBRANCH  48  72
BRANCH  60  83
ATOM     83  C   UNL A   1      51.881  34.017  25.956  1.00  0.00     0.064 A 
ATOM     84  C   UNL A   1      52.422  34.760  27.015  1.00  0.00     0.173 A 
ATOM     85  C   UNL A   1      52.267  34.353  24.649  1.00  0.00     0.173 A 
ATOM     86  F   UNL A   1      52.073  34.487  28.281  1.00  0.00    -0.203 F 
ATOM     87  C   UNL A   1      53.306  35.808  26.773  1.00  0.00     0.198 A 
ATOM     88  C   UNL A   1      53.178  35.378  24.414  1.00  0.00     0.198 A 
ATOM     89  F   UNL A   1      51.784  33.666  23.604  1.00  0.00    -0.203 F 
ATOM     90  F   UNL A   1      53.781  36.530  27.797  1.00  0.00    -0.200 F 
ATOM     91  C   UNL A   1      53.693  36.108  25.476  1.00  0.00     0.200 A 
ATOM     92  F   UNL A   1      53.565  35.653  23.161  1.00  0.00    -0.200 F 
ATOM     93  F   UNL A   1      54.561  37.102  25.246  1.00  0.00    -0.200 F 
ENDBRANCH  60  83
ENDBRANCH  34  35
ENDBRANCH  27  29
ENDBRANCH  26  27
ENDBRANCH  25  26
ENDBRANCH  24  25
ENDBRANCH  23  24
ENDBRANCH  22  23
ENDBRANCH   1  22
TORSDOF 19
ENDMDL
