MODEL 1
REMARK VINA RESULT:     -11.4      0.000      0.000
REMARK SMILES COc1ccc(-c2cccc(/C=C\C(=O)OCCOCCOC(=O)c3ccc(-c4c5nc(c(-c6c(F)c(F)c(F)c(F)c6F)c6ccc([nH]6)c(-c6c(F)c(F)c(F)c(F)c6F)c6nc(c(-c7c(F)c(F)c(F)c(F)c7F)c7ccc4[nH]7)C=C6)C=C5)cc3)c2)c(Cl)c1OC
REMARK SMILES IDX 18 1 17 2 16 3 14 4 15 5 13 6 12 7 11 8 7 9 8 10 88 11 9 12
REMARK SMILES IDX 10 13 6 14 3 15 4 16 91 17 5 18 89 19 90 20 2 21 1 22 92 23
REMARK SMILES IDX 93 24 19 25 20 26 21 27 22 28 23 29 24 30 25 31 26 32 87 33
REMARK SMILES IDX 27 34 86 35 28 36 29 37 30 38 80 39 31 40 85 41 79 42 81 43
REMARK SMILES IDX 32 44 84 45 78 46 77 47 33 49 65 50 45 51 64 52 46 53 49 54
REMARK SMILES IDX 63 55 82 56 47 57 48 58 62 60 83 61 50 62 34 63 35 64 43 65
REMARK SMILES IDX 36 66 37 67 41 68 44 69 38 70 39 71 42 72 40 73 66 74 67 75
REMARK SMILES IDX 75 76 68 77 69 78 73 79 76 80 70 81 71 82 74 83 72 84 51 85
REMARK SMILES IDX 52 86 60 87 53 88 54 89 58 90 61 91 55 92 56 93 59 94 57 95
REMARK H PARENT 81 48 49 59
REMARK Flexibility Score: inf
ROOT
ATOM      1  C   UNL A   1      33.879  33.276  28.144  1.00  0.00     0.202 C 
ENDROOT
BRANCH   1   2
ATOM      2  C   UNL A   1      34.054  31.751  28.246  1.00  0.00     0.261 C 
BRANCH   2   3
ATOM      3  O   UNL A   1      33.242  31.093  27.256  1.00  0.00    -0.460 OA
BRANCH   3   4
ATOM      4  C   UNL A   1      33.415  29.772  27.081  1.00  0.00     0.330 C 
ATOM      5  O   UNL A   1      34.441  29.226  26.702  1.00  0.00    -0.247 OA
BRANCH   4   6
ATOM      6  C   UNL A   1      32.257  28.977  27.563  1.00  0.00     0.094 C 
ATOM      7  C   UNL A   1      31.563  27.926  27.085  1.00  0.00     0.015 C 
BRANCH   7   8
ATOM      8  C   UNL A   1      31.732  27.086  25.888  1.00  0.00    -0.025 A 
ATOM      9  C   UNL A   1      32.757  25.117  24.857  1.00  0.00    -0.016 A 
ATOM     10  C   UNL A   1      32.135  25.427  23.644  1.00  0.00     0.009 A 
ATOM     11  C   UNL A   1      32.583  25.976  25.959  1.00  0.00     0.017 A 
ATOM     12  C   UNL A   1      31.263  26.500  23.573  1.00  0.00     0.001 A 
ATOM     13  C   UNL A   1      31.015  27.267  24.708  1.00  0.00     0.008 A 
BRANCH   9  14
ATOM     14  C   UNL A   1      33.511  23.862  24.977  1.00  0.00     0.004 A 
ATOM     15  C   UNL A   1      34.996  21.498  25.033  1.00  0.00     0.162 A 
ATOM     16  C   UNL A   1      35.588  22.682  24.589  1.00  0.00     0.051 A 
ATOM     17  C   UNL A   1      33.640  21.453  25.439  1.00  0.00     0.180 A 
ATOM     18  C   UNL A   1      34.853  23.859  24.574  1.00  0.00     0.014 A 
ATOM     19  C   UNL A   1      32.898  22.649  25.404  1.00  0.00     0.094 A 
ATOM     20  Cl  UNL A   1      31.200  22.726  25.802  1.00  0.00    -0.079 Cl
BRANCH  15  21
ATOM     21  O   UNL A   1      35.690  20.306  25.014  1.00  0.00    -0.493 OA
ATOM     22  C   UNL A   1      37.093  20.453  24.825  1.00  0.00     0.278 C 
ENDBRANCH  15  21
BRANCH  17  23
ATOM     23  O   UNL A   1      33.248  20.191  25.805  1.00  0.00    -0.491 OA
ATOM     24  C   UNL A   1      32.532  19.337  24.934  1.00  0.00     0.278 C 
ENDBRANCH  17  23
ENDBRANCH   9  14
ENDBRANCH   7   8
ENDBRANCH   4   6
ENDBRANCH   3   4
ENDBRANCH   2   3
ENDBRANCH   1   2
BRANCH   1  25
ATOM     25  O   UNL A   1      34.642  34.019  29.098  1.00  0.00    -0.374 OA
BRANCH  25  26
ATOM     26  C   UNL A   1      33.924  34.577  30.199  1.00  0.00     0.202 C 
BRANCH  26  27
ATOM     27  C   UNL A   1      34.465  34.186  31.578  1.00  0.00     0.261 C 
BRANCH  27  28
ATOM     28  O   UNL A   1      34.749  32.775  31.645  1.00  0.00    -0.460 OA
BRANCH  28  29
ATOM     29  C   UNL A   1      35.711  32.423  32.529  1.00  0.00     0.338 C 
ATOM     30  O   UNL A   1      35.666  32.497  33.744  1.00  0.00    -0.246 OA
BRANCH  29  31
ATOM     31  C   UNL A   1      36.819  31.760  31.815  1.00  0.00     0.060 A 
ATOM     32  C   UNL A   1      37.848  31.211  32.590  1.00  0.00     0.016 A 
ATOM     33  C   UNL A   1      36.880  31.703  30.420  1.00  0.00     0.016 A 
ATOM     34  C   UNL A   1      38.954  30.626  31.974  1.00  0.00     0.010 A 
ATOM     35  C   UNL A   1      37.990  31.115  29.803  1.00  0.00     0.010 A 
ATOM     36  C   UNL A   1      39.044  30.593  30.576  1.00  0.00    -0.014 A 
BRANCH  36  37
ATOM     37  C   UNL A   1      40.283  30.098  29.925  1.00  0.00     0.031 A 
ATOM     38  C   UNL A   1      41.436  31.042  29.727  1.00  0.00     0.074 A 
ATOM     39  C   UNL A   1      40.387  28.818  29.526  1.00  0.00     0.049 A 
ATOM     40  N   UNL A   1      42.593  30.832  29.152  1.00  0.00    -0.248 NA
ATOM     41  C   UNL A   1      41.263  32.405  30.251  1.00  0.00     0.031 C 
ATOM     42  C   UNL A   1      39.360  27.792  29.697  1.00  0.00     0.029 A 
ATOM     43  N   UNL A   1      41.410  28.163  28.884  1.00  0.00    -0.354 N 
ATOM     44  C   UNL A   1      43.283  32.033  29.243  1.00  0.00     0.074 A 
ATOM     45  C   UNL A   1      42.403  32.978  29.897  1.00  0.00     0.031 C 
ATOM     46  C   UNL A   1      39.793  26.643  29.153  1.00  0.00     0.029 A 
ATOM     47  C   UNL A   1      41.118  26.857  28.574  1.00  0.00     0.049 A 
ATOM     48  H   UNL A   1      42.270  28.590  28.666  1.00  0.00     0.167 HD
ATOM     49  C   UNL A   1      44.540  32.318  28.829  1.00  0.00     0.037 A 
ATOM     50  C   UNL A   1      41.831  25.946  27.883  1.00  0.00     0.037 A 
ATOM     51  C   UNL A   1      45.415  31.378  28.178  1.00  0.00     0.049 A 
ATOM     52  C   UNL A   1      43.195  26.313  27.359  1.00  0.00     0.074 A 
ATOM     53  C   UNL A   1      46.718  31.565  27.752  1.00  0.00     0.029 A 
ATOM     54  N   UNL A   1      45.070  30.076  27.846  1.00  0.00    -0.354 N 
ATOM     55  N   UNL A   1      43.857  27.437  27.487  1.00  0.00    -0.248 NA
ATOM     56  C   UNL A   1      43.913  25.281  26.597  1.00  0.00     0.031 C 
ATOM     57  C   UNL A   1      47.142  30.396  27.110  1.00  0.00     0.029 A 
ATOM     58  C   UNL A   1      46.123  29.461  27.188  1.00  0.00     0.049 A 
ATOM     59  H   UNL A   1      44.204  29.652  28.048  1.00  0.00     0.167 HD
ATOM     60  C   UNL A   1      45.075  27.240  26.849  1.00  0.00     0.074 A 
ATOM     61  C   UNL A   1      45.068  25.883  26.346  1.00  0.00     0.031 C 
ATOM     62  C   UNL A   1      46.106  28.107  26.694  1.00  0.00     0.037 A 
BRANCH  49  63
ATOM     63  C   UNL A   1      45.043  33.716  29.047  1.00  0.00     0.064 A 
ATOM     64  C   UNL A   1      45.673  34.095  30.241  1.00  0.00     0.173 A 
ATOM     65  C   UNL A   1      44.931  34.676  28.030  1.00  0.00     0.173 A 
ATOM     66  F   UNL A   1      45.794  33.218  31.249  1.00  0.00    -0.203 F 
ATOM     67  C   UNL A   1      46.149  35.392  30.419  1.00  0.00     0.198 A 
ATOM     68  C   UNL A   1      45.435  35.962  28.200  1.00  0.00     0.198 A 
ATOM     69  F   UNL A   1      44.343  34.363  26.865  1.00  0.00    -0.203 F 
ATOM     70  F   UNL A   1      46.708  35.745  31.585  1.00  0.00    -0.200 F 
ATOM     71  C   UNL A   1      46.038  36.321  29.396  1.00  0.00     0.200 A 
ATOM     72  F   UNL A   1      45.339  36.855  27.204  1.00  0.00    -0.200 F 
ATOM     73  F   UNL A   1      46.505  37.566  29.565  1.00  0.00    -0.200 F 
ENDBRANCH  49  63
BRANCH  50  74
ATOM     74  C   UNL A   1      41.263  24.594  27.635  1.00  0.00     0.064 A 
ATOM     75  C   UNL A   1      41.806  23.456  28.247  1.00  0.00     0.173 A 
ATOM     76  C   UNL A   1      40.177  24.411  26.766  1.00  0.00     0.173 A 
ATOM     77  F   UNL A   1      42.860  23.575  29.067  1.00  0.00    -0.203 F 
ATOM     78  C   UNL A   1      41.298  22.185  27.984  1.00  0.00     0.198 A 
ATOM     79  C   UNL A   1      39.650  23.144  26.527  1.00  0.00     0.198 A 
ATOM     80  F   UNL A   1      39.618  25.468  26.156  1.00  0.00    -0.203 F 
ATOM     81  F   UNL A   1      41.866  21.109  28.546  1.00  0.00    -0.200 F 
ATOM     82  C   UNL A   1      40.217  22.031  27.129  1.00  0.00     0.200 A 
ATOM     83  F   UNL A   1      38.596  23.002  25.711  1.00  0.00    -0.200 F 
ATOM     84  F   UNL A   1      39.726  20.809  26.879  1.00  0.00    -0.200 F 
ENDBRANCH  50  74
BRANCH  62  85
ATOM     85  C   UNL A   1      47.327  27.609  25.974  1.00  0.00     0.064 A 
ATOM     86  C   UNL A   1      47.419  27.634  24.574  1.00  0.00     0.173 A 
ATOM     87  C   UNL A   1      48.438  27.143  26.695  1.00  0.00     0.173 A 
ATOM     88  F   UNL A   1      46.380  28.055  23.837  1.00  0.00    -0.203 F 
ATOM     89  C   UNL A   1      48.567  27.190  23.924  1.00  0.00     0.198 A 
ATOM     90  C   UNL A   1      49.596  26.730  26.043  1.00  0.00     0.198 A 
ATOM     91  F   UNL A   1      48.405  27.104  28.036  1.00  0.00    -0.203 F 
ATOM     92  F   UNL A   1      48.615  27.180  22.585  1.00  0.00    -0.200 F 
ATOM     93  C   UNL A   1      49.658  26.746  24.658  1.00  0.00     0.200 A 
ATOM     94  F   UNL A   1      50.653  26.315  26.755  1.00  0.00    -0.200 F 
ATOM     95  F   UNL A   1      50.766  26.329  24.031  1.00  0.00    -0.200 F 
ENDBRANCH  62  85
ENDBRANCH  36  37
ENDBRANCH  29  31
ENDBRANCH  28  29
ENDBRANCH  27  28
ENDBRANCH  26  27
ENDBRANCH  25  26
ENDBRANCH   1  25
TORSDOF 18
ENDMDL
MODEL 2
REMARK VINA RESULT:     -10.6      5.042     10.348
REMARK SMILES COc1ccc(-c2cccc(/C=C\C(=O)OCCOCCOC(=O)c3ccc(-c4c5nc(c(-c6c(F)c(F)c(F)c(F)c6F)c6ccc([nH]6)c(-c6c(F)c(F)c(F)c(F)c6F)c6nc(c(-c7c(F)c(F)c(F)c(F)c7F)c7ccc4[nH]7)C=C6)C=C5)cc3)c2)c(Cl)c1OC
REMARK SMILES IDX 18 1 17 2 16 3 14 4 15 5 13 6 12 7 11 8 7 9 8 10 88 11 9 12
REMARK SMILES IDX 10 13 6 14 3 15 4 16 91 17 5 18 89 19 90 20 2 21 1 22 92 23
REMARK SMILES IDX 93 24 19 25 20 26 21 27 22 28 23 29 24 30 25 31 26 32 87 33
REMARK SMILES IDX 27 34 86 35 28 36 29 37 30 38 80 39 31 40 85 41 79 42 81 43
REMARK SMILES IDX 32 44 84 45 78 46 77 47 33 49 65 50 45 51 64 52 46 53 49 54
REMARK SMILES IDX 63 55 82 56 47 57 48 58 62 60 83 61 50 62 34 63 35 64 43 65
REMARK SMILES IDX 36 66 37 67 41 68 44 69 38 70 39 71 42 72 40 73 66 74 67 75
REMARK SMILES IDX 75 76 68 77 69 78 73 79 76 80 70 81 71 82 74 83 72 84 51 85
REMARK SMILES IDX 52 86 60 87 53 88 54 89 58 90 61 91 55 92 56 93 59 94 57 95
REMARK H PARENT 81 48 49 59
REMARK Flexibility Score: inf
ROOT
ATOM      1  C   UNL A   1      44.735  22.663  27.785  1.00  0.00     0.202 C 
ENDROOT
BRANCH   1   2
ATOM      2  C   UNL A   1      43.337  22.585  27.152  1.00  0.00     0.261 C 
BRANCH   2   3
ATOM      3  O   UNL A   1      42.452  21.826  27.998  1.00  0.00    -0.460 OA
BRANCH   3   4
ATOM      4  C   UNL A   1      41.142  21.832  27.699  1.00  0.00     0.330 C 
ATOM      5  O   UNL A   1      40.388  20.872  27.760  1.00  0.00    -0.247 OA
BRANCH   4   6
ATOM      6  C   UNL A   1      40.625  23.198  27.430  1.00  0.00     0.094 C 
ATOM      7  C   UNL A   1      39.534  23.695  26.816  1.00  0.00     0.015 C 
BRANCH   7   8
ATOM      8  C   UNL A   1      38.356  23.053  26.209  1.00  0.00    -0.025 A 
ATOM      9  C   UNL A   1      35.948  23.112  25.778  1.00  0.00    -0.016 A 
ATOM     10  C   UNL A   1      36.039  21.892  25.100  1.00  0.00     0.009 A 
ATOM     11  C   UNL A   1      37.104  23.661  26.364  1.00  0.00     0.017 A 
ATOM     12  C   UNL A   1      37.277  21.302  24.909  1.00  0.00     0.001 A 
ATOM     13  C   UNL A   1      38.422  21.924  25.398  1.00  0.00     0.008 A 
BRANCH   9  14
ATOM     14  C   UNL A   1      34.667  23.831  25.793  1.00  0.00     0.004 A 
ATOM     15  C   UNL A   1      32.322  25.346  25.866  1.00  0.00     0.162 A 
ATOM     16  C   UNL A   1      33.415  25.788  25.117  1.00  0.00     0.051 A 
ATOM     17  C   UNL A   1      32.375  24.148  26.619  1.00  0.00     0.180 A 
ATOM     18  C   UNL A   1      34.575  25.028  25.071  1.00  0.00     0.014 A 
ATOM     19  C   UNL A   1      33.562  23.392  26.579  1.00  0.00     0.094 A 
ATOM     20  Cl  UNL A   1      33.796  21.938  27.517  1.00  0.00    -0.079 Cl
BRANCH  15  21
ATOM     21  O   UNL A   1      31.176  26.105  25.966  1.00  0.00    -0.493 OA
ATOM     22  C   UNL A   1      30.457  26.237  24.744  1.00  0.00     0.278 C 
ENDBRANCH  15  21
BRANCH  17  23
ATOM     23  O   UNL A   1      31.213  23.914  27.308  1.00  0.00    -0.491 OA
ATOM     24  C   UNL A   1      30.237  22.994  26.859  1.00  0.00     0.278 C 
ENDBRANCH  17  23
ENDBRANCH   9  14
ENDBRANCH   7   8
ENDBRANCH   4   6
ENDBRANCH   3   4
ENDBRANCH   2   3
ENDBRANCH   1   2
BRANCH   1  25
ATOM     25  O   UNL A   1      45.769  23.055  26.879  1.00  0.00    -0.374 OA
BRANCH  25  26
ATOM     26  C   UNL A   1      45.751  22.451  25.585  1.00  0.00     0.202 C 
BRANCH  26  27
ATOM     27  C   UNL A   1      45.896  23.435  24.420  1.00  0.00     0.261 C 
BRANCH  27  28
ATOM     28  O   UNL A   1      45.024  24.570  24.584  1.00  0.00    -0.460 OA
BRANCH  28  29
ATOM     29  C   UNL A   1      45.639  25.721  24.943  1.00  0.00     0.338 C 
ATOM     30  O   UNL A   1      46.638  26.214  24.451  1.00  0.00    -0.246 OA
BRANCH  29  31
ATOM     31  C   UNL A   1      44.823  26.421  25.954  1.00  0.00     0.060 A 
ATOM     32  C   UNL A   1      45.090  27.779  26.170  1.00  0.00     0.016 A 
ATOM     33  C   UNL A   1      43.842  25.768  26.704  1.00  0.00     0.016 A 
ATOM     34  C   UNL A   1      44.396  28.482  27.154  1.00  0.00     0.010 A 
ATOM     35  C   UNL A   1      43.146  26.474  27.692  1.00  0.00     0.010 A 
ATOM     36  C   UNL A   1      43.434  27.830  27.937  1.00  0.00    -0.014 A 
BRANCH  36  37
ATOM     37  C   UNL A   1      42.800  28.542  29.076  1.00  0.00     0.031 A 
ATOM     38  C   UNL A   1      43.530  28.629  30.387  1.00  0.00     0.074 A 
ATOM     39  C   UNL A   1      41.592  29.117  28.941  1.00  0.00     0.049 A 
ATOM     40  N   UNL A   1      43.149  29.169  31.516  1.00  0.00    -0.248 NA
ATOM     41  C   UNL A   1      44.874  28.030  30.428  1.00  0.00     0.031 C 
ATOM     42  C   UNL A   1      40.798  29.140  27.713  1.00  0.00     0.029 A 
ATOM     43  N   UNL A   1      40.815  29.787  29.854  1.00  0.00    -0.354 N 
ATOM     44  C   UNL A   1      44.201  28.973  32.401  1.00  0.00     0.074 A 
ATOM     45  C   UNL A   1      45.222  28.236  31.689  1.00  0.00     0.031 C 
ATOM     46  C   UNL A   1      39.638  29.771  27.954  1.00  0.00     0.029 A 
ATOM     47  C   UNL A   1      39.594  30.175  29.359  1.00  0.00     0.049 A 
ATOM     48  H   UNL A   1      41.106  29.971  30.777  1.00  0.00     0.167 HD
ATOM     49  C   UNL A   1      44.308  29.383  33.688  1.00  0.00     0.037 A 
ATOM     50  C   UNL A   1      38.554  30.770  29.974  1.00  0.00     0.037 A 
ATOM     51  C   UNL A   1      43.293  30.116  34.396  1.00  0.00     0.049 A 
ATOM     52  C   UNL A   1      38.666  31.141  31.429  1.00  0.00     0.074 A 
ATOM     53  C   UNL A   1      43.325  30.603  35.691  1.00  0.00     0.029 A 
ATOM     54  N   UNL A   1      42.054  30.457  33.873  1.00  0.00    -0.354 N 
ATOM     55  N   UNL A   1      39.680  30.991  32.247  1.00  0.00    -0.248 NA
ATOM     56  C   UNL A   1      37.488  31.769  32.048  1.00  0.00     0.031 C 
ATOM     57  C   UNL A   1      42.085  31.187  35.971  1.00  0.00     0.029 A 
ATOM     58  C   UNL A   1      41.301  31.116  34.831  1.00  0.00     0.049 A 
ATOM     59  H   UNL A   1      41.754  30.259  32.956  1.00  0.00     0.167 HD
ATOM     60  C   UNL A   1      39.275  31.528  33.463  1.00  0.00     0.074 A 
ATOM     61  C   UNL A   1      37.928  32.022  33.273  1.00  0.00     0.031 C 
ATOM     62  C   UNL A   1      39.960  31.605  34.630  1.00  0.00     0.037 A 
BRANCH  49  63
ATOM     63  C   UNL A   1      45.566  29.026  34.426  1.00  0.00     0.064 A 
ATOM     64  C   UNL A   1      45.683  27.830  35.150  1.00  0.00     0.173 A 
ATOM     65  C   UNL A   1      46.683  29.874  34.374  1.00  0.00     0.173 A 
ATOM     66  F   UNL A   1      44.640  26.992  35.241  1.00  0.00    -0.203 F 
ATOM     67  C   UNL A   1      46.865  27.508  35.813  1.00  0.00     0.198 A 
ATOM     68  C   UNL A   1      47.872  29.534  35.014  1.00  0.00     0.198 A 
ATOM     69  F   UNL A   1      46.627  31.027  33.690  1.00  0.00    -0.203 F 
ATOM     70  F   UNL A   1      46.939  26.381  36.535  1.00  0.00    -0.200 F 
ATOM     71  C   UNL A   1      47.960  28.355  35.738  1.00  0.00     0.200 A 
ATOM     72  F   UNL A   1      48.934  30.348  34.928  1.00  0.00    -0.200 F 
ATOM     73  F   UNL A   1      49.098  28.039  36.370  1.00  0.00    -0.200 F 
ENDBRANCH  49  63
BRANCH  50  74
ATOM     74  C   UNL A   1      37.303  31.042  29.217  1.00  0.00     0.064 A 
ATOM     75  C   UNL A   1      37.008  32.328  28.742  1.00  0.00     0.173 A 
ATOM     76  C   UNL A   1      36.367  30.026  28.969  1.00  0.00     0.173 A 
ATOM     77  F   UNL A   1      37.859  33.339  28.974  1.00  0.00    -0.203 F 
ATOM     78  C   UNL A   1      35.818  32.592  28.067  1.00  0.00     0.198 A 
ATOM     79  C   UNL A   1      35.192  30.284  28.269  1.00  0.00     0.198 A 
ATOM     80  F   UNL A   1      36.601  28.777  29.400  1.00  0.00    -0.203 F 
ATOM     81  F   UNL A   1      35.541  33.840  27.665  1.00  0.00    -0.200 F 
ATOM     82  C   UNL A   1      34.914  31.569  27.826  1.00  0.00     0.200 A 
ATOM     83  F   UNL A   1      34.328  29.289  28.025  1.00  0.00    -0.200 F 
ATOM     84  F   UNL A   1      33.771  31.821  27.173  1.00  0.00    -0.200 F 
ENDBRANCH  50  74
BRANCH  62  85
ATOM     85  C   UNL A   1      39.276  32.270  35.792  1.00  0.00     0.064 A 
ATOM     86  C   UNL A   1      38.422  31.561  36.649  1.00  0.00     0.173 A 
ATOM     87  C   UNL A   1      39.515  33.624  36.077  1.00  0.00     0.173 A 
ATOM     88  F   UNL A   1      38.149  30.269  36.412  1.00  0.00    -0.203 F 
ATOM     89  C   UNL A   1      37.814  32.188  37.734  1.00  0.00     0.198 A 
ATOM     90  C   UNL A   1      38.931  34.240  37.181  1.00  0.00     0.198 A 
ATOM     91  F   UNL A   1      40.328  34.347  35.292  1.00  0.00    -0.203 F 
ATOM     92  F   UNL A   1      36.967  31.501  38.512  1.00  0.00    -0.200 F 
ATOM     93  C   UNL A   1      38.076  33.523  38.004  1.00  0.00     0.200 A 
ATOM     94  F   UNL A   1      39.195  35.525  37.448  1.00  0.00    -0.200 F 
ATOM     95  F   UNL A   1      37.498  34.122  39.055  1.00  0.00    -0.200 F 
ENDBRANCH  62  85
ENDBRANCH  36  37
ENDBRANCH  29  31
ENDBRANCH  28  29
ENDBRANCH  27  28
ENDBRANCH  26  27
ENDBRANCH  25  26
ENDBRANCH   1  25
TORSDOF 18
ENDMDL
MODEL 3
REMARK VINA RESULT:     -10.2      4.375     10.147
REMARK SMILES COc1ccc(-c2cccc(/C=C\C(=O)OCCOCCOC(=O)c3ccc(-c4c5nc(c(-c6c(F)c(F)c(F)c(F)c6F)c6ccc([nH]6)c(-c6c(F)c(F)c(F)c(F)c6F)c6nc(c(-c7c(F)c(F)c(F)c(F)c7F)c7ccc4[nH]7)C=C6)C=C5)cc3)c2)c(Cl)c1OC
REMARK SMILES IDX 18 1 17 2 16 3 14 4 15 5 13 6 12 7 11 8 7 9 8 10 88 11 9 12
REMARK SMILES IDX 10 13 6 14 3 15 4 16 91 17 5 18 89 19 90 20 2 21 1 22 92 23
REMARK SMILES IDX 93 24 19 25 20 26 21 27 22 28 23 29 24 30 25 31 26 32 87 33
REMARK SMILES IDX 27 34 86 35 28 36 29 37 30 38 80 39 31 40 85 41 79 42 81 43
REMARK SMILES IDX 32 44 84 45 78 46 77 47 33 49 65 50 45 51 64 52 46 53 49 54
REMARK SMILES IDX 63 55 82 56 47 57 48 58 62 60 83 61 50 62 34 63 35 64 43 65
REMARK SMILES IDX 36 66 37 67 41 68 44 69 38 70 39 71 42 72 40 73 66 74 67 75
REMARK SMILES IDX 75 76 68 77 69 78 73 79 76 80 70 81 71 82 74 83 72 84 51 85
REMARK SMILES IDX 52 86 60 87 53 88 54 89 58 90 61 91 55 92 56 93 59 94 57 95
REMARK H PARENT 81 48 49 59
REMARK Flexibility Score: inf
ROOT
ATOM      1  C   UNL A   1      45.510  39.399  31.552  1.00  0.00     0.202 C 
ENDROOT
BRANCH   1   2
ATOM      2  C   UNL A   1      45.262  38.268  32.564  1.00  0.00     0.261 C 
BRANCH   2   3
ATOM      3  O   UNL A   1      43.859  38.179  32.873  1.00  0.00    -0.460 OA
BRANCH   3   4
ATOM      4  C   UNL A   1      43.358  36.967  33.165  1.00  0.00     0.330 C 
ATOM      5  O   UNL A   1      42.782  36.658  34.198  1.00  0.00    -0.247 OA
BRANCH   4   6
ATOM      6  C   UNL A   1      43.421  36.032  32.013  1.00  0.00     0.094 C 
ATOM      7  C   UNL A   1      42.707  34.959  31.621  1.00  0.00     0.015 C 
BRANCH   7   8
ATOM      8  C   UNL A   1      41.503  34.313  32.170  1.00  0.00    -0.025 A 
ATOM      9  C   UNL A   1      39.145  33.724  31.880  1.00  0.00    -0.016 A 
ATOM     10  C   UNL A   1      39.140  33.122  33.143  1.00  0.00     0.009 A 
ATOM     11  C   UNL A   1      40.318  34.353  31.423  1.00  0.00     0.017 A 
ATOM     12  C   UNL A   1      40.314  33.043  33.872  1.00  0.00     0.001 A 
ATOM     13  C   UNL A   1      41.491  33.571  33.348  1.00  0.00     0.008 A 
BRANCH   9  14
ATOM     14  C   UNL A   1      37.953  33.617  31.030  1.00  0.00     0.004 A 
ATOM     15  C   UNL A   1      35.761  33.533  29.301  1.00  0.00     0.162 A 
ATOM     16  C   UNL A   1      37.052  33.352  28.799  1.00  0.00     0.051 A 
ATOM     17  C   UNL A   1      35.527  33.785  30.674  1.00  0.00     0.180 A 
ATOM     18  C   UNL A   1      38.139  33.381  29.661  1.00  0.00     0.014 A 
ATOM     19  C   UNL A   1      36.638  33.829  31.538  1.00  0.00     0.094 A 
ATOM     20  Cl  UNL A   1      36.507  34.206  33.238  1.00  0.00    -0.079 Cl
BRANCH  15  21
ATOM     21  O   UNL A   1      34.669  33.555  28.460  1.00  0.00    -0.493 OA
ATOM     22  C   UNL A   1      34.327  32.285  27.916  1.00  0.00     0.278 C 
ENDBRANCH  15  21
BRANCH  17  23
ATOM     23  O   UNL A   1      34.197  33.967  30.952  1.00  0.00    -0.491 OA
ATOM     24  C   UNL A   1      33.673  35.211  31.374  1.00  0.00     0.278 C 
ENDBRANCH  17  23
ENDBRANCH   9  14
ENDBRANCH   7   8
ENDBRANCH   4   6
ENDBRANCH   3   4
ENDBRANCH   2   3
ENDBRANCH   1   2
BRANCH   1  25
ATOM     25  O   UNL A   1      44.493  39.527  30.554  1.00  0.00    -0.374 OA
BRANCH  25  26
ATOM     26  C   UNL A   1      44.621  38.699  29.398  1.00  0.00     0.202 C 
BRANCH  26  27
ATOM     27  C   UNL A   1      45.932  38.879  28.626  1.00  0.00     0.261 C 
BRANCH  27  28
ATOM     28  O   UNL A   1      46.212  37.733  27.799  1.00  0.00    -0.460 OA
BRANCH  28  29
ATOM     29  C   UNL A   1      46.974  36.777  28.378  1.00  0.00     0.338 C 
ATOM     30  O   UNL A   1      48.025  36.927  28.975  1.00  0.00    -0.246 OA
BRANCH  29  31
ATOM     31  C   UNL A   1      46.265  35.484  28.330  1.00  0.00     0.060 A 
ATOM     32  C   UNL A   1      46.594  34.532  29.303  1.00  0.00     0.016 A 
ATOM     33  C   UNL A   1      45.325  35.185  27.340  1.00  0.00     0.016 A 
ATOM     34  C   UNL A   1      46.004  33.268  29.275  1.00  0.00     0.010 A 
ATOM     35  C   UNL A   1      44.734  33.916  27.313  1.00  0.00     0.010 A 
ATOM     36  C   UNL A   1      45.086  32.944  28.267  1.00  0.00    -0.014 A 
BRANCH  36  37
ATOM     37  C   UNL A   1      44.569  31.556  28.157  1.00  0.00     0.031 A 
ATOM     38  C   UNL A   1      45.345  30.544  27.362  1.00  0.00     0.074 A 
ATOM     39  C   UNL A   1      43.427  31.197  28.769  1.00  0.00     0.049 A 
ATOM     40  N   UNL A   1      45.059  29.292  27.105  1.00  0.00    -0.248 NA
ATOM     41  C   UNL A   1      46.615  31.003  26.780  1.00  0.00     0.031 C 
ATOM     42  C   UNL A   1      42.603  32.070  29.603  1.00  0.00     0.029 A 
ATOM     43  N   UNL A   1      42.756  29.998  28.775  1.00  0.00    -0.354 N 
ATOM     44  C   UNL A   1      46.110  28.817  26.333  1.00  0.00     0.074 A 
ATOM     45  C   UNL A   1      47.023  29.922  26.133  1.00  0.00     0.031 C 
ATOM     46  C   UNL A   1      41.526  31.386  30.022  1.00  0.00     0.029 A 
ATOM     47  C   UNL A   1      41.570  30.035  29.467  1.00  0.00     0.049 A 
ATOM     48  H   UNL A   1      43.093  29.189  28.327  1.00  0.00     0.167 HD
ATOM     49  C   UNL A   1      46.302  27.567  25.846  1.00  0.00     0.037 A 
ATOM     50  C   UNL A   1      40.619  29.092  29.617  1.00  0.00     0.037 A 
ATOM     51  C   UNL A   1      45.394  26.468  26.044  1.00  0.00     0.049 A 
ATOM     52  C   UNL A   1      40.816  27.734  28.994  1.00  0.00     0.074 A 
ATOM     53  C   UNL A   1      45.519  25.158  25.617  1.00  0.00     0.029 A 
ATOM     54  N   UNL A   1      44.184  26.554  26.717  1.00  0.00    -0.354 N 
ATOM     55  N   UNL A   1      41.833  27.280  28.302  1.00  0.00    -0.248 NA
ATOM     56  C   UNL A   1      39.734  26.756  29.177  1.00  0.00     0.031 C 
ATOM     57  C   UNL A   1      44.359  24.466  25.981  1.00  0.00     0.029 A 
ATOM     58  C   UNL A   1      43.537  25.330  26.685  1.00  0.00     0.049 A 
ATOM     59  H   UNL A   1      43.836  27.366  27.153  1.00  0.00     0.167 HD
ATOM     60  C   UNL A   1      41.526  25.961  27.992  1.00  0.00     0.074 A 
ATOM     61  C   UNL A   1      40.236  25.682  28.584  1.00  0.00     0.031 C 
ATOM     62  C   UNL A   1      42.251  25.063  27.280  1.00  0.00     0.037 A 
BRANCH  49  63
ATOM     63  C   UNL A   1      47.536  27.324  25.025  1.00  0.00     0.064 A 
ATOM     64  C   UNL A   1      48.676  26.716  25.571  1.00  0.00     0.173 A 
ATOM     65  C   UNL A   1      47.561  27.666  23.665  1.00  0.00     0.173 A 
ATOM     66  F   UNL A   1      48.707  26.381  26.869  1.00  0.00    -0.203 F 
ATOM     67  C   UNL A   1      49.805  26.481  24.789  1.00  0.00     0.198 A 
ATOM     68  C   UNL A   1      48.680  27.403  22.880  1.00  0.00     0.198 A 
ATOM     69  F   UNL A   1      46.494  28.245  23.092  1.00  0.00    -0.203 F 
ATOM     70  F   UNL A   1      50.899  25.939  25.342  1.00  0.00    -0.200 F 
ATOM     71  C   UNL A   1      49.803  26.817  23.444  1.00  0.00     0.200 A 
ATOM     72  F   UNL A   1      48.671  27.716  21.577  1.00  0.00    -0.200 F 
ATOM     73  F   UNL A   1      50.887  26.583  22.692  1.00  0.00    -0.200 F 
ENDBRANCH  49  63
BRANCH  50  74
ATOM     74  C   UNL A   1      39.383  29.402  30.383  1.00  0.00     0.064 A 
ATOM     75  C   UNL A   1      39.379  29.399  31.785  1.00  0.00     0.173 A 
ATOM     76  C   UNL A   1      38.175  29.687  29.728  1.00  0.00     0.173 A 
ATOM     77  F   UNL A   1      40.502  29.108  32.457  1.00  0.00    -0.203 F 
ATOM     78  C   UNL A   1      38.210  29.651  32.502  1.00  0.00     0.198 A 
ATOM     79  C   UNL A   1      37.015  29.969  30.446  1.00  0.00     0.198 A 
ATOM     80  F   UNL A   1      38.124  29.705  28.388  1.00  0.00    -0.203 F 
ATOM     81  F   UNL A   1      38.225  29.596  33.841  1.00  0.00    -0.200 F 
ATOM     82  C   UNL A   1      37.032  29.941  31.833  1.00  0.00     0.200 A 
ATOM     83  F   UNL A   1      35.882  30.263  29.794  1.00  0.00    -0.200 F 
ATOM     84  F   UNL A   1      35.910  30.187  32.523  1.00  0.00    -0.200 F 
ENDBRANCH  50  74
BRANCH  62  85
ATOM     85  C   UNL A   1      41.681  23.681  27.122  1.00  0.00     0.064 A 
ATOM     86  C   UNL A   1      42.278  22.564  27.725  1.00  0.00     0.173 A 
ATOM     87  C   UNL A   1      40.496  23.480  26.397  1.00  0.00     0.173 A 
ATOM     88  F   UNL A   1      43.420  22.700  28.416  1.00  0.00    -0.203 F 
ATOM     89  C   UNL A   1      41.724  21.294  27.587  1.00  0.00     0.198 A 
ATOM     90  C   UNL A   1      39.926  22.214  26.288  1.00  0.00     0.198 A 
ATOM     91  F   UNL A   1      39.880  24.515  25.806  1.00  0.00    -0.203 F 
ATOM     92  F   UNL A   1      42.337  20.235  28.134  1.00  0.00    -0.200 F 
ATOM     93  C   UNL A   1      40.545  21.121  26.877  1.00  0.00     0.200 A 
ATOM     94  F   UNL A   1      38.781  22.051  25.614  1.00  0.00    -0.200 F 
ATOM     95  F   UNL A   1      40.007  19.900  26.755  1.00  0.00    -0.200 F 
ENDBRANCH  62  85
ENDBRANCH  36  37
ENDBRANCH  29  31
ENDBRANCH  28  29
ENDBRANCH  27  28
ENDBRANCH  26  27
ENDBRANCH  25  26
ENDBRANCH   1  25
TORSDOF 18
ENDMDL
