MODEL 1
REMARK VINA RESULT:     -11.4      0.000      0.000
REMARK SMILES O=C(OCCOCCOC(=O)[C@H]1CSC2(CCCCC2)[NH2+]1)c1ccc(-c2c3nc(c(-c4c(F)c(F)c(F)c(F)c4F)c4ccc([nH]4)c(-c4c(F)c(F)c(F)c(F)c4F)c4nc(c(-c5c(F)c(F)c(F)c(F)c5F)c5ccc2[nH]5)C=C4)C=C3)cc1
REMARK SMILES IDX 5 1 4 2 3 3 2 4 1 5 22 6 23 7 84 8 24 9 83 10 25 11 26 12
REMARK SMILES IDX 27 13 77 14 28 15 82 16 76 17 78 18 29 19 81 20 75 21 74 22
REMARK SMILES IDX 30 24 62 25 42 26 61 27 43 28 46 29 60 30 79 31 44 32 45 33
REMARK SMILES IDX 59 35 80 36 47 37 31 38 32 39 40 40 33 41 34 42 38 43 41 44
REMARK SMILES IDX 35 45 36 46 39 47 37 48 63 49 64 50 72 51 65 52 66 53 70 54
REMARK SMILES IDX 73 55 67 56 68 57 71 58 69 59 48 60 49 61 57 62 50 63 51 64
REMARK SMILES IDX 55 65 58 66 52 67 53 68 56 69 54 70 6 71 7 72 8 73 9 74
REMARK SMILES IDX 10 75 11 76 12 77 13 78 21 79 14 80 15 81 16 84 20 85 17 86
REMARK SMILES IDX 19 87 18 88
REMARK H PARENT 78 23 46 34 21 82 21 83
REMARK Flexibility Score: inf
ROOT
ATOM      1  C   UNL A   1      31.403  32.339  26.856  1.00  0.00     0.202 C 
ENDROOT
BRANCH   1   2
ATOM      2  C   UNL A   1      32.644  33.163  27.207  1.00  0.00     0.261 C 
BRANCH   2   3
ATOM      3  O   UNL A   1      32.273  34.340  27.942  1.00  0.00    -0.460 OA
BRANCH   3   4
ATOM      4  C   UNL A   1      32.958  34.978  28.917  1.00  0.00     0.338 C 
ATOM      5  O   UNL A   1      32.617  36.122  29.214  1.00  0.00    -0.246 OA
BRANCH   4   6
ATOM      6  C   UNL A   1      34.119  34.389  29.658  1.00  0.00     0.060 A 
ATOM      7  C   UNL A   1      34.033  33.570  30.786  1.00  0.00     0.016 A 
ATOM      8  C   UNL A   1      35.393  34.596  29.097  1.00  0.00     0.016 A 
ATOM      9  C   UNL A   1      35.156  32.988  31.355  1.00  0.00     0.010 A 
ATOM     10  C   UNL A   1      36.529  34.000  29.648  1.00  0.00     0.010 A 
ATOM     11  C   UNL A   1      36.404  33.193  30.782  1.00  0.00    -0.014 A 
BRANCH  11  12
ATOM     12  C   UNL A   1      37.567  32.583  31.440  1.00  0.00     0.031 A 
ATOM     13  C   UNL A   1      38.307  31.506  30.717  1.00  0.00     0.074 A 
ATOM     14  C   UNL A   1      37.995  33.089  32.609  1.00  0.00     0.049 A 
ATOM     15  N   UNL A   1      39.314  30.784  31.122  1.00  0.00    -0.248 NA
ATOM     16  C   UNL A   1      37.865  31.216  29.342  1.00  0.00     0.031 C 
ATOM     17  C   UNL A   1      37.394  34.232  33.300  1.00  0.00     0.029 A 
ATOM     18  N   UNL A   1      39.042  32.726  33.411  1.00  0.00    -0.354 N 
ATOM     19  C   UNL A   1      39.606  29.933  30.067  1.00  0.00     0.074 A 
ATOM     20  C   UNL A   1      38.687  30.237  28.995  1.00  0.00     0.031 C 
ATOM     21  C   UNL A   1      38.082  34.473  34.429  1.00  0.00     0.029 A 
ATOM     22  C   UNL A   1      39.122  33.460  34.568  1.00  0.00     0.049 A 
ATOM     23  H   UNL A   1      39.675  32.008  33.181  1.00  0.00     0.167 HD
ATOM     24  C   UNL A   1      40.553  28.970  30.025  1.00  0.00     0.037 A 
ATOM     25  C   UNL A   1      39.917  33.284  35.640  1.00  0.00     0.037 A 
ATOM     26  C   UNL A   1      41.449  28.701  31.115  1.00  0.00     0.049 A 
ATOM     27  C   UNL A   1      40.892  32.136  35.603  1.00  0.00     0.074 A 
ATOM     28  C   UNL A   1      42.432  27.735  31.211  1.00  0.00     0.029 A 
ATOM     29  N   UNL A   1      41.459  29.412  32.309  1.00  0.00    -0.354 N 
ATOM     30  N   UNL A   1      41.144  31.299  34.624  1.00  0.00    -0.248 NA
ATOM     31  C   UNL A   1      41.671  31.888  36.822  1.00  0.00     0.031 C 
ATOM     32  C   UNL A   1      43.003  27.829  32.485  1.00  0.00     0.029 A 
ATOM     33  C   UNL A   1      42.405  28.882  33.165  1.00  0.00     0.049 A 
ATOM     34  H   UNL A   1      40.878  30.180  32.514  1.00  0.00     0.167 HD
ATOM     35  C   UNL A   1      42.105  30.423  35.105  1.00  0.00     0.074 A 
ATOM     36  C   UNL A   1      42.417  30.854  36.454  1.00  0.00     0.031 C 
ATOM     37  C   UNL A   1      42.673  29.350  34.501  1.00  0.00     0.037 A 
BRANCH  24  38
ATOM     38  C   UNL A   1      40.598  28.099  28.809  1.00  0.00     0.064 A 
ATOM     39  C   UNL A   1      39.862  26.909  28.715  1.00  0.00     0.173 A 
ATOM     40  C   UNL A   1      41.399  28.465  27.717  1.00  0.00     0.173 A 
ATOM     41  F   UNL A   1      39.105  26.500  29.744  1.00  0.00    -0.203 F 
ATOM     42  C   UNL A   1      39.938  26.111  27.575  1.00  0.00     0.198 A 
ATOM     43  C   UNL A   1      41.458  27.675  26.573  1.00  0.00     0.198 A 
ATOM     44  F   UNL A   1      42.132  29.587  27.765  1.00  0.00    -0.203 F 
ATOM     45  F   UNL A   1      39.259  24.957  27.520  1.00  0.00    -0.200 F 
ATOM     46  C   UNL A   1      40.731  26.498  26.504  1.00  0.00     0.200 A 
ATOM     47  F   UNL A   1      42.225  28.052  25.540  1.00  0.00    -0.200 F 
ATOM     48  F   UNL A   1      40.803  25.728  25.409  1.00  0.00    -0.200 F 
ENDBRANCH  24  38
BRANCH  25  49
ATOM     49  C   UNL A   1      39.761  34.135  36.851  1.00  0.00     0.064 A 
ATOM     50  C   UNL A   1      40.464  35.338  36.997  1.00  0.00     0.173 A 
ATOM     51  C   UNL A   1      38.926  33.741  37.909  1.00  0.00     0.173 A 
ATOM     52  F   UNL A   1      41.294  35.750  36.028  1.00  0.00    -0.203 F 
ATOM     53  C   UNL A   1      40.357  36.099  38.161  1.00  0.00     0.198 A 
ATOM     54  C   UNL A   1      38.793  34.519  39.057  1.00  0.00     0.198 A 
ATOM     55  F   UNL A   1      38.233  32.595  37.830  1.00  0.00    -0.203 F 
ATOM     56  F   UNL A   1      41.085  37.216  38.298  1.00  0.00    -0.200 F 
ATOM     57  C   UNL A   1      39.518  35.692  39.187  1.00  0.00     0.200 A 
ATOM     58  F   UNL A   1      37.971  34.125  40.040  1.00  0.00    -0.200 F 
ATOM     59  F   UNL A   1      39.419  36.422  40.307  1.00  0.00    -0.200 F 
ENDBRANCH  25  49
BRANCH  37  60
ATOM     60  C   UNL A   1      43.674  28.579  35.304  1.00  0.00     0.064 A 
ATOM     61  C   UNL A   1      45.044  28.867  35.223  1.00  0.00     0.173 A 
ATOM     62  C   UNL A   1      43.254  27.591  36.205  1.00  0.00     0.173 A 
ATOM     63  F   UNL A   1      45.489  29.794  34.360  1.00  0.00    -0.203 F 
ATOM     64  C   UNL A   1      45.961  28.182  36.011  1.00  0.00     0.198 A 
ATOM     65  C   UNL A   1      44.172  26.927  37.010  1.00  0.00     0.198 A 
ATOM     66  F   UNL A   1      41.951  27.289  36.318  1.00  0.00    -0.203 F 
ATOM     67  F   UNL A   1      47.269  28.446  35.894  1.00  0.00    -0.200 F 
ATOM     68  C   UNL A   1      45.524  27.220  36.910  1.00  0.00     0.200 A 
ATOM     69  F   UNL A   1      43.748  26.009  37.889  1.00  0.00    -0.200 F 
ATOM     70  F   UNL A   1      46.408  26.572  37.679  1.00  0.00    -0.200 F 
ENDBRANCH  37  60
ENDBRANCH  11  12
ENDBRANCH   4   6
ENDBRANCH   3   4
ENDBRANCH   2   3
ENDBRANCH   1   2
BRANCH   1  71
ATOM     71  O   UNL A   1      31.669  30.958  26.607  1.00  0.00    -0.374 OA
BRANCH  71  72
ATOM     72  C   UNL A   1      32.947  30.468  27.034  1.00  0.00     0.202 C 
BRANCH  72  73
ATOM     73  C   UNL A   1      33.300  29.219  26.224  1.00  0.00     0.261 C 
BRANCH  73  74
ATOM     74  O   UNL A   1      32.605  29.310  24.974  1.00  0.00    -0.459 OA
BRANCH  74  75
ATOM     75  C   UNL A   1      31.847  28.215  24.671  1.00  0.00     0.365 C 
ATOM     76  O   UNL A   1      31.259  27.512  25.479  1.00  0.00    -0.245 OA
BRANCH  75  77
ATOM     77  C   UNL A   1      31.658  28.124  23.151  1.00  0.00     0.304 C 
ATOM     78  C   UNL A   1      30.558  27.168  22.736  1.00  0.00     0.153 C 
ATOM     79  N   UNL A   1      31.379  29.458  22.564  1.00  0.00    -0.320 N 
ATOM     80  S   UNL A   1      29.074  28.148  22.980  1.00  0.00    -0.089 SA
ATOM     81  C   UNL A   1      29.937  29.742  22.664  1.00  0.00     0.143 C 
ATOM     82  H   UNL A   1      31.661  29.465  21.584  1.00  0.00     0.348 HD
ATOM     83  H   UNL A   1      31.904  30.170  23.071  1.00  0.00     0.348 HD
ATOM     84  C   UNL A   1      29.642  30.770  23.775  1.00  0.00     0.081 C 
ATOM     85  C   UNL A   1      29.482  30.306  21.306  1.00  0.00     0.081 C 
ATOM     86  C   UNL A   1      28.184  31.228  23.801  1.00  0.00     0.007 C 
ATOM     87  C   UNL A   1      28.016  30.743  21.307  1.00  0.00     0.007 C 
ATOM     88  C   UNL A   1      27.716  31.726  22.437  1.00  0.00     0.001 C 
ENDBRANCH  75  77
ENDBRANCH  74  75
ENDBRANCH  73  74
ENDBRANCH  72  73
ENDBRANCH  71  72
ENDBRANCH   1  71
TORSDOF 14
ENDMDL
MODEL 2
REMARK VINA RESULT:     -11.1      4.364     10.415
REMARK SMILES O=C(OCCOCCOC(=O)[C@H]1CSC2(CCCCC2)[NH2+]1)c1ccc(-c2c3nc(c(-c4c(F)c(F)c(F)c(F)c4F)c4ccc([nH]4)c(-c4c(F)c(F)c(F)c(F)c4F)c4nc(c(-c5c(F)c(F)c(F)c(F)c5F)c5ccc2[nH]5)C=C4)C=C3)cc1
REMARK SMILES IDX 5 1 4 2 3 3 2 4 1 5 22 6 23 7 84 8 24 9 83 10 25 11 26 12
REMARK SMILES IDX 27 13 77 14 28 15 82 16 76 17 78 18 29 19 81 20 75 21 74 22
REMARK SMILES IDX 30 24 62 25 42 26 61 27 43 28 46 29 60 30 79 31 44 32 45 33
REMARK SMILES IDX 59 35 80 36 47 37 31 38 32 39 40 40 33 41 34 42 38 43 41 44
REMARK SMILES IDX 35 45 36 46 39 47 37 48 63 49 64 50 72 51 65 52 66 53 70 54
REMARK SMILES IDX 73 55 67 56 68 57 71 58 69 59 48 60 49 61 57 62 50 63 51 64
REMARK SMILES IDX 55 65 58 66 52 67 53 68 56 69 54 70 6 71 7 72 8 73 9 74
REMARK SMILES IDX 10 75 11 76 12 77 13 78 21 79 14 80 15 81 16 84 20 85 17 86
REMARK SMILES IDX 19 87 18 88
REMARK H PARENT 78 23 46 34 21 82 21 83
REMARK Flexibility Score: inf
ROOT
ATOM      1  C   UNL A   1      33.297  33.808  28.021  1.00  0.00     0.202 C 
ENDROOT
BRANCH   1   2
ATOM      2  C   UNL A   1      34.334  32.740  28.378  1.00  0.00     0.261 C 
BRANCH   2   3
ATOM      3  O   UNL A   1      34.119  31.553  27.599  1.00  0.00    -0.460 OA
BRANCH   3   4
ATOM      4  C   UNL A   1      34.582  30.302  27.821  1.00  0.00     0.338 C 
ATOM      5  O   UNL A   1      33.811  29.359  27.654  1.00  0.00    -0.246 OA
BRANCH   4   6
ATOM      6  C   UNL A   1      35.975  29.984  28.271  1.00  0.00     0.060 A 
ATOM      7  C   UNL A   1      36.326  29.440  29.509  1.00  0.00     0.016 A 
ATOM      8  C   UNL A   1      36.996  30.150  27.317  1.00  0.00     0.016 A 
ATOM      9  C   UNL A   1      37.633  29.087  29.808  1.00  0.00     0.010 A 
ATOM     10  C   UNL A   1      38.313  29.780  27.599  1.00  0.00     0.010 A 
ATOM     11  C   UNL A   1      38.627  29.246  28.851  1.00  0.00    -0.014 A 
BRANCH  11  12
ATOM     12  C   UNL A   1      40.002  28.889  29.227  1.00  0.00     0.031 A 
ATOM     13  C   UNL A   1      40.755  29.817  30.121  1.00  0.00     0.074 A 
ATOM     14  C   UNL A   1      40.491  27.694  28.853  1.00  0.00     0.049 A 
ATOM     15  N   UNL A   1      41.991  29.744  30.530  1.00  0.00    -0.248 NA
ATOM     16  C   UNL A   1      40.009  30.975  30.643  1.00  0.00     0.031 C 
ATOM     17  C   UNL A   1      39.752  26.684  28.091  1.00  0.00     0.029 A 
ATOM     18  N   UNL A   1      41.711  27.118  29.078  1.00  0.00    -0.354 N 
ATOM     19  C   UNL A   1      42.182  30.861  31.329  1.00  0.00     0.074 A 
ATOM     20  C   UNL A   1      40.934  31.587  31.369  1.00  0.00     0.031 C 
ATOM     21  C   UNL A   1      40.540  25.612  27.907  1.00  0.00     0.029 A 
ATOM     22  C   UNL A   1      41.853  25.892  28.478  1.00  0.00     0.049 A 
ATOM     23  H   UNL A   1      42.417  27.541  29.616  1.00  0.00     0.167 HD
ATOM     24  C   UNL A   1      43.319  31.242  31.953  1.00  0.00     0.037 A 
ATOM     25  C   UNL A   1      42.947  25.117  28.361  1.00  0.00     0.037 A 
ATOM     26  C   UNL A   1      44.540  30.488  31.889  1.00  0.00     0.049 A 
ATOM     27  C   UNL A   1      44.225  25.620  28.980  1.00  0.00     0.074 A 
ATOM     28  C   UNL A   1      45.768  30.779  32.450  1.00  0.00     0.029 A 
ATOM     29  N   UNL A   1      44.678  29.284  31.210  1.00  0.00    -0.354 N 
ATOM     30  N   UNL A   1      44.424  26.699  29.702  1.00  0.00    -0.248 NA
ATOM     31  C   UNL A   1      45.434  24.822  28.747  1.00  0.00     0.031 C 
ATOM     32  C   UNL A   1      46.664  29.774  32.066  1.00  0.00     0.029 A 
ATOM     33  C   UNL A   1      45.982  28.836  31.303  1.00  0.00     0.049 A 
ATOM     34  H   UNL A   1      43.953  28.818  30.732  1.00  0.00     0.167 HD
ATOM     35  C   UNL A   1      45.776  26.712  30.008  1.00  0.00     0.074 A 
ATOM     36  C   UNL A   1      46.344  25.513  29.422  1.00  0.00     0.031 C 
ATOM     37  C   UNL A   1      46.494  27.633  30.697  1.00  0.00     0.037 A 
BRANCH  24  38
ATOM     38  C   UNL A   1      43.306  32.556  32.669  1.00  0.00     0.064 A 
ATOM     39  C   UNL A   1      43.565  33.767  32.011  1.00  0.00     0.173 A 
ATOM     40  C   UNL A   1      43.033  32.599  34.044  1.00  0.00     0.173 A 
ATOM     41  F   UNL A   1      43.860  33.775  30.702  1.00  0.00    -0.203 F 
ATOM     42  C   UNL A   1      43.562  34.973  32.709  1.00  0.00     0.198 A 
ATOM     43  C   UNL A   1      43.013  33.807  34.734  1.00  0.00     0.198 A 
ATOM     44  F   UNL A   1      42.795  31.466  34.720  1.00  0.00    -0.203 F 
ATOM     45  F   UNL A   1      43.850  36.115  32.071  1.00  0.00    -0.200 F 
ATOM     46  C   UNL A   1      43.281  34.992  34.067  1.00  0.00     0.200 A 
ATOM     47  F   UNL A   1      42.742  33.822  36.047  1.00  0.00    -0.200 F 
ATOM     48  F   UNL A   1      43.280  36.154  34.736  1.00  0.00    -0.200 F 
ENDBRANCH  24  38
BRANCH  25  49
ATOM     49  C   UNL A   1      42.909  23.862  27.563  1.00  0.00     0.064 A 
ATOM     50  C   UNL A   1      43.221  23.851  26.197  1.00  0.00     0.173 A 
ATOM     51  C   UNL A   1      42.521  22.645  28.147  1.00  0.00     0.173 A 
ATOM     52  F   UNL A   1      43.574  24.990  25.582  1.00  0.00    -0.203 F 
ATOM     53  C   UNL A   1      43.125  22.681  25.444  1.00  0.00     0.198 A 
ATOM     54  C   UNL A   1      42.458  21.470  27.402  1.00  0.00     0.198 A 
ATOM     55  F   UNL A   1      42.203  22.594  29.450  1.00  0.00    -0.203 F 
ATOM     56  F   UNL A   1      43.374  22.712  24.127  1.00  0.00    -0.200 F 
ATOM     57  C   UNL A   1      42.749  21.491  26.047  1.00  0.00     0.200 A 
ATOM     58  F   UNL A   1      42.105  20.321  27.995  1.00  0.00    -0.200 F 
ATOM     59  F   UNL A   1      42.653  20.368  25.322  1.00  0.00    -0.200 F 
ENDBRANCH  25  49
BRANCH  37  60
ATOM     60  C   UNL A   1      47.961  27.373  30.838  1.00  0.00     0.064 A 
ATOM     61  C   UNL A   1      48.459  26.576  31.879  1.00  0.00     0.173 A 
ATOM     62  C   UNL A   1      48.866  27.871  29.890  1.00  0.00     0.173 A 
ATOM     63  F   UNL A   1      47.628  26.095  32.816  1.00  0.00    -0.203 F 
ATOM     64  C   UNL A   1      49.817  26.297  31.971  1.00  0.00     0.198 A 
ATOM     65  C   UNL A   1      50.220  27.567  29.971  1.00  0.00     0.198 A 
ATOM     66  F   UNL A   1      48.431  28.633  28.874  1.00  0.00    -0.203 F 
ATOM     67  F   UNL A   1      50.279  25.562  32.993  1.00  0.00    -0.200 F 
ATOM     68  C   UNL A   1      50.695  26.784  31.013  1.00  0.00     0.200 A 
ATOM     69  F   UNL A   1      51.065  28.025  29.038  1.00  0.00    -0.200 F 
ATOM     70  F   UNL A   1      52.001  26.500  31.096  1.00  0.00    -0.200 F 
ENDBRANCH  37  60
ENDBRANCH  11  12
ENDBRANCH   4   6
ENDBRANCH   3   4
ENDBRANCH   2   3
ENDBRANCH   1   2
BRANCH   1  71
ATOM     71  O   UNL A   1      32.720  34.465  29.150  1.00  0.00    -0.374 OA
BRANCH  71  72
ATOM     72  C   UNL A   1      33.089  35.835  29.347  1.00  0.00     0.202 C 
BRANCH  72  73
ATOM     73  C   UNL A   1      33.097  36.142  30.846  1.00  0.00     0.261 C 
BRANCH  73  74
ATOM     74  O   UNL A   1      33.191  34.890  31.537  1.00  0.00    -0.459 OA
BRANCH  74  75
ATOM     75  C   UNL A   1      33.947  34.931  32.674  1.00  0.00     0.365 C 
ATOM     76  O   UNL A   1      34.277  35.944  33.272  1.00  0.00    -0.245 OA
BRANCH  75  77
ATOM     77  C   UNL A   1      34.135  33.508  33.219  1.00  0.00     0.304 C 
ATOM     78  C   UNL A   1      34.541  32.506  32.158  1.00  0.00     0.153 C 
ATOM     79  N   UNL A   1      35.137  33.481  34.312  1.00  0.00    -0.320 N 
ATOM     80  S   UNL A   1      36.304  32.802  31.993  1.00  0.00    -0.089 SA
ATOM     81  C   UNL A   1      36.487  33.371  33.733  1.00  0.00     0.143 C 
ATOM     82  H   UNL A   1      34.959  32.679  34.917  1.00  0.00     0.348 HD
ATOM     83  H   UNL A   1      35.068  34.338  34.860  1.00  0.00     0.348 HD
ATOM     84  C   UNL A   1      37.243  34.713  33.809  1.00  0.00     0.081 C 
ATOM     85  C   UNL A   1      37.249  32.304  34.539  1.00  0.00     0.081 C 
ATOM     86  C   UNL A   1      38.706  34.606  33.381  1.00  0.00     0.007 C 
ATOM     87  C   UNL A   1      38.710  32.165  34.105  1.00  0.00     0.007 C 
ATOM     88  C   UNL A   1      39.443  33.504  34.136  1.00  0.00     0.001 C 
ENDBRANCH  75  77
ENDBRANCH  74  75
ENDBRANCH  73  74
ENDBRANCH  72  73
ENDBRANCH  71  72
ENDBRANCH   1  71
TORSDOF 14
ENDMDL
MODEL 3
REMARK VINA RESULT:     -11.0      5.674     10.486
REMARK SMILES O=C(OCCOCCOC(=O)[C@H]1CSC2(CCCCC2)[NH2+]1)c1ccc(-c2c3nc(c(-c4c(F)c(F)c(F)c(F)c4F)c4ccc([nH]4)c(-c4c(F)c(F)c(F)c(F)c4F)c4nc(c(-c5c(F)c(F)c(F)c(F)c5F)c5ccc2[nH]5)C=C4)C=C3)cc1
REMARK SMILES IDX 5 1 4 2 3 3 2 4 1 5 22 6 23 7 84 8 24 9 83 10 25 11 26 12
REMARK SMILES IDX 27 13 77 14 28 15 82 16 76 17 78 18 29 19 81 20 75 21 74 22
REMARK SMILES IDX 30 24 62 25 42 26 61 27 43 28 46 29 60 30 79 31 44 32 45 33
REMARK SMILES IDX 59 35 80 36 47 37 31 38 32 39 40 40 33 41 34 42 38 43 41 44
REMARK SMILES IDX 35 45 36 46 39 47 37 48 63 49 64 50 72 51 65 52 66 53 70 54
REMARK SMILES IDX 73 55 67 56 68 57 71 58 69 59 48 60 49 61 57 62 50 63 51 64
REMARK SMILES IDX 55 65 58 66 52 67 53 68 56 69 54 70 6 71 7 72 8 73 9 74
REMARK SMILES IDX 10 75 11 76 12 77 13 78 21 79 14 80 15 81 16 84 20 85 17 86
REMARK SMILES IDX 19 87 18 88
REMARK H PARENT 78 23 46 34 21 82 21 83
REMARK Flexibility Score: inf
ROOT
ATOM      1  C   UNL A   1      40.810  19.912  26.464  1.00  0.00     0.202 C 
ENDROOT
BRANCH   1   2
ATOM      2  C   UNL A   1      40.646  21.417  26.691  1.00  0.00     0.261 C 
BRANCH   2   3
ATOM      3  O   UNL A   1      39.543  21.922  25.923  1.00  0.00    -0.460 OA
BRANCH   3   4
ATOM      4  C   UNL A   1      38.818  23.045  26.123  1.00  0.00     0.338 C 
ATOM      5  O   UNL A   1      37.659  23.070  25.713  1.00  0.00    -0.246 OA
BRANCH   4   6
ATOM      6  C   UNL A   1      39.335  24.274  26.806  1.00  0.00     0.060 A 
ATOM      7  C   UNL A   1      40.076  25.291  26.199  1.00  0.00     0.016 A 
ATOM      8  C   UNL A   1      38.942  24.462  28.144  1.00  0.00     0.016 A 
ATOM      9  C   UNL A   1      40.434  26.443  26.883  1.00  0.00     0.010 A 
ATOM     10  C   UNL A   1      39.279  25.626  28.838  1.00  0.00     0.010 A 
ATOM     11  C   UNL A   1      40.028  26.618  28.199  1.00  0.00    -0.014 A 
BRANCH  11  12
ATOM     12  C   UNL A   1      40.461  27.839  28.892  1.00  0.00     0.031 A 
ATOM     13  C   UNL A   1      41.884  27.939  29.328  1.00  0.00     0.074 A 
ATOM     14  C   UNL A   1      39.600  28.865  29.004  1.00  0.00     0.049 A 
ATOM     15  N   UNL A   1      42.473  28.884  30.007  1.00  0.00    -0.248 NA
ATOM     16  C   UNL A   1      42.773  26.834  28.929  1.00  0.00     0.031 C 
ATOM     17  C   UNL A   1      38.233  28.878  28.476  1.00  0.00     0.029 A 
ATOM     18  N   UNL A   1      39.748  30.097  29.579  1.00  0.00    -0.354 N 
ATOM     19  C   UNL A   1      43.791  28.474  30.145  1.00  0.00     0.074 A 
ATOM     20  C   UNL A   1      43.926  27.207  29.464  1.00  0.00     0.031 C 
ATOM     21  C   UNL A   1      37.666  30.063  28.758  1.00  0.00     0.029 A 
ATOM     22  C   UNL A   1      38.606  30.857  29.542  1.00  0.00     0.049 A 
ATOM     23  H   UNL A   1      40.591  30.409  29.980  1.00  0.00     0.167 HD
ATOM     24  C   UNL A   1      44.785  29.107  30.807  1.00  0.00     0.037 A 
ATOM     25  C   UNL A   1      38.343  32.038  30.130  1.00  0.00     0.037 A 
ATOM     26  C   UNL A   1      44.608  30.369  31.470  1.00  0.00     0.049 A 
ATOM     27  C   UNL A   1      39.442  32.669  30.947  1.00  0.00     0.074 A 
ATOM     28  C   UNL A   1      45.524  31.100  32.199  1.00  0.00     0.029 A 
ATOM     29  N   UNL A   1      43.416  31.082  31.480  1.00  0.00    -0.354 N 
ATOM     30  N   UNL A   1      40.679  32.264  31.118  1.00  0.00    -0.248 NA
ATOM     31  C   UNL A   1      39.105  33.897  31.675  1.00  0.00     0.031 C 
ATOM     32  C   UNL A   1      44.871  32.234  32.695  1.00  0.00     0.029 A 
ATOM     33  C   UNL A   1      43.560  32.230  32.237  1.00  0.00     0.049 A 
ATOM     34  H   UNL A   1      42.591  30.811  31.017  1.00  0.00     0.167 HD
ATOM     35  C   UNL A   1      41.269  33.182  31.972  1.00  0.00     0.074 A 
ATOM     36  C   UNL A   1      40.262  34.187  32.257  1.00  0.00     0.031 C 
ATOM     37  C   UNL A   1      42.521  33.196  32.490  1.00  0.00     0.037 A 
BRANCH  24  38
ATOM     38  C   UNL A   1      46.101  28.402  30.912  1.00  0.00     0.064 A 
ATOM     39  C   UNL A   1      46.370  27.471  31.925  1.00  0.00     0.173 A 
ATOM     40  C   UNL A   1      47.114  28.672  29.980  1.00  0.00     0.173 A 
ATOM     41  F   UNL A   1      45.445  27.201  32.857  1.00  0.00    -0.203 F 
ATOM     42  C   UNL A   1      47.612  26.844  32.006  1.00  0.00     0.198 A 
ATOM     43  C   UNL A   1      48.346  28.030  30.053  1.00  0.00     0.198 A 
ATOM     44  F   UNL A   1      46.909  29.567  29.002  1.00  0.00    -0.203 F 
ATOM     45  F   UNL A   1      47.864  25.986  33.004  1.00  0.00    -0.200 F 
ATOM     46  C   UNL A   1      48.596  27.120  31.067  1.00  0.00     0.200 A 
ATOM     47  F   UNL A   1      49.295  28.300  29.145  1.00  0.00    -0.200 F 
ATOM     48  F   UNL A   1      49.790  26.516  31.149  1.00  0.00    -0.200 F 
ENDBRANCH  24  38
BRANCH  25  49
ATOM     49  C   UNL A   1      36.985  32.642  30.054  1.00  0.00     0.064 A 
ATOM     50  C   UNL A   1      36.611  33.473  28.991  1.00  0.00     0.173 A 
ATOM     51  C   UNL A   1      36.040  32.426  31.070  1.00  0.00     0.173 A 
ATOM     52  F   UNL A   1      37.483  33.734  28.006  1.00  0.00    -0.203 F 
ATOM     53  C   UNL A   1      35.356  34.082  28.958  1.00  0.00     0.198 A 
ATOM     54  C   UNL A   1      34.774  33.007  31.020  1.00  0.00     0.198 A 
ATOM     55  F   UNL A   1      36.344  31.645  32.118  1.00  0.00    -0.203 F 
ATOM     56  F   UNL A   1      35.045  34.918  27.958  1.00  0.00    -0.200 F 
ATOM     57  C   UNL A   1      34.438  33.844  29.969  1.00  0.00     0.200 A 
ATOM     58  F   UNL A   1      33.888  32.763  31.995  1.00  0.00    -0.200 F 
ATOM     59  F   UNL A   1      33.234  34.433  29.939  1.00  0.00    -0.200 F 
ENDBRANCH  25  49
BRANCH  37  60
ATOM     60  C   UNL A   1      42.854  34.324  33.416  1.00  0.00     0.064 A 
ATOM     61  C   UNL A   1      42.783  34.164  34.807  1.00  0.00     0.173 A 
ATOM     62  C   UNL A   1      43.307  35.550  32.909  1.00  0.00     0.173 A 
ATOM     63  F   UNL A   1      42.338  33.013  35.332  1.00  0.00    -0.203 F 
ATOM     64  C   UNL A   1      43.145  35.201  35.659  1.00  0.00     0.198 A 
ATOM     65  C   UNL A   1      43.693  36.574  33.765  1.00  0.00     0.198 A 
ATOM     66  F   UNL A   1      43.396  35.742  31.584  1.00  0.00    -0.203 F 
ATOM     67  F   UNL A   1      43.037  35.042  36.986  1.00  0.00    -0.200 F 
ATOM     68  C   UNL A   1      43.608  36.401  35.139  1.00  0.00     0.200 A 
ATOM     69  F   UNL A   1      44.155  37.728  33.262  1.00  0.00    -0.200 F 
ATOM     70  F   UNL A   1      43.971  37.393  35.963  1.00  0.00    -0.200 F 
ENDBRANCH  37  60
ENDBRANCH  11  12
ENDBRANCH   4   6
ENDBRANCH   3   4
ENDBRANCH   2   3
ENDBRANCH   1   2
BRANCH   1  71
ATOM     71  O   UNL A   1      41.743  19.574  25.437  1.00  0.00    -0.374 OA
BRANCH  71  72
ATOM     72  C   UNL A   1      42.765  18.633  25.788  1.00  0.00     0.202 C 
BRANCH  72  73
ATOM     73  C   UNL A   1      44.119  19.161  25.311  1.00  0.00     0.261 C 
BRANCH  73  74
ATOM     74  O   UNL A   1      44.128  20.577  25.534  1.00  0.00    -0.459 OA
BRANCH  74  75
ATOM     75  C   UNL A   1      45.217  21.220  25.019  1.00  0.00     0.365 C 
ATOM     76  O   UNL A   1      46.366  20.808  25.047  1.00  0.00    -0.245 OA
BRANCH  75  77
ATOM     77  C   UNL A   1      44.757  22.435  24.200  1.00  0.00     0.304 C 
ATOM     78  C   UNL A   1      43.427  22.999  24.654  1.00  0.00     0.153 C 
ATOM     79  N   UNL A   1      45.772  23.516  24.228  1.00  0.00    -0.320 N 
ATOM     80  S   UNL A   1      43.889  23.988  26.080  1.00  0.00    -0.089 SA
ATOM     81  C   UNL A   1      45.577  24.336  25.437  1.00  0.00     0.143 C 
ATOM     82  H   UNL A   1      45.670  24.101  23.399  1.00  0.00     0.348 HD
ATOM     83  H   UNL A   1      46.706  23.107  24.239  1.00  0.00     0.348 HD
ATOM     84  C   UNL A   1      46.655  24.038  26.498  1.00  0.00     0.081 C 
ATOM     85  C   UNL A   1      45.665  25.813  25.011  1.00  0.00     0.081 C 
ATOM     86  C   UNL A   1      46.598  24.986  27.696  1.00  0.00     0.007 C 
ATOM     87  C   UNL A   1      45.583  26.776  26.198  1.00  0.00     0.007 C 
ATOM     88  C   UNL A   1      46.621  26.450  27.269  1.00  0.00     0.001 C 
ENDBRANCH  75  77
ENDBRANCH  74  75
ENDBRANCH  73  74
ENDBRANCH  72  73
ENDBRANCH  71  72
ENDBRANCH   1  71
TORSDOF 14
ENDMDL
