MODEL 1
REMARK VINA RESULT:     -12.1      0.000      0.000
REMARK SMILES O=C(OCCOCCOC(=O)[C@H]1CC[C@H](CN2C(=O)c3cccnc3C2=O)O1)c1ccc(-c2c3nc(c(-c4c(F)c(F)c(F)c(F)c4F)c4ccc([nH]4)c(-c4c(F)c(F)c(F)c(F)c4F)c4nc(c(-c5c(F)c(F)c(F)c(F)c5F)c5ccc2[nH]5)C=C4)C=C3)cc1
REMARK SMILES IDX 6 1 5 2 4 3 3 4 2 5 1 6 29 7 30 8 91 9 31 10 90 11 32 12
REMARK SMILES IDX 33 13 34 14 84 15 35 16 89 17 83 18 85 19 36 20 88 21 82 22
REMARK SMILES IDX 81 23 37 25 69 26 49 27 68 28 50 29 53 30 67 31 86 32 51 33
REMARK SMILES IDX 52 34 66 36 87 37 54 38 38 39 39 40 47 41 40 42 41 43 45 44
REMARK SMILES IDX 48 45 42 46 43 47 46 48 44 49 70 50 71 51 79 52 72 53 73 54
REMARK SMILES IDX 77 55 80 56 74 57 75 58 78 59 76 60 55 61 56 62 64 63 57 64
REMARK SMILES IDX 58 65 62 66 65 67 59 68 60 69 63 70 61 71 7 72 8 73 9 74
REMARK SMILES IDX 10 75 11 76 12 77 13 78 28 79 14 80 15 81 16 82 17 83 18 84
REMARK SMILES IDX 26 85 19 86 20 87 25 88 27 89 21 90 24 91 22 92 23 93
REMARK H PARENT 85 24 53 35
REMARK Flexibility Score: inf
ROOT
ATOM      1  O   UNL A   1      30.495  29.273  24.118  1.00  0.00    -0.374 OA
ENDROOT
BRANCH   1   2
ATOM      2  C   UNL A   1      31.685  29.195  24.895  1.00  0.00     0.202 C 
BRANCH   2   3
ATOM      3  C   UNL A   1      31.818  30.152  26.078  1.00  0.00     0.261 C 
BRANCH   3   4
ATOM      4  O   UNL A   1      33.208  30.381  26.364  1.00  0.00    -0.460 OA
BRANCH   4   5
ATOM      5  C   UNL A   1      33.717  31.332  27.183  1.00  0.00     0.338 C 
ATOM      6  O   UNL A   1      33.172  32.430  27.264  1.00  0.00    -0.246 OA
BRANCH   5   7
ATOM      7  C   UNL A   1      34.912  31.068  28.020  1.00  0.00     0.060 A 
ATOM      8  C   UNL A   1      35.107  29.865  28.692  1.00  0.00     0.016 A 
ATOM      9  C   UNL A   1      35.926  32.029  28.076  1.00  0.00     0.016 A 
ATOM     10  C   UNL A   1      36.211  29.614  29.454  1.00  0.00     0.010 A 
ATOM     11  C   UNL A   1      37.104  31.756  28.777  1.00  0.00     0.010 A 
ATOM     12  C   UNL A   1      37.241  30.534  29.446  1.00  0.00    -0.014 A 
BRANCH  12  13
ATOM     13  C   UNL A   1      38.424  30.131  30.199  1.00  0.00     0.031 A 
ATOM     14  C   UNL A   1      39.416  29.262  29.518  1.00  0.00     0.074 A 
ATOM     15  C   UNL A   1      38.652  30.726  31.385  1.00  0.00     0.049 A 
ATOM     16  N   UNL A   1      40.484  28.704  30.009  1.00  0.00    -0.248 NA
ATOM     17  C   UNL A   1      39.189  28.993  28.086  1.00  0.00     0.031 C 
ATOM     18  C   UNL A   1      37.798  31.755  31.996  1.00  0.00     0.029 A 
ATOM     19  N   UNL A   1      39.681  30.588  32.270  1.00  0.00    -0.354 N 
ATOM     20  C   UNL A   1      41.021  27.966  28.967  1.00  0.00     0.074 A 
ATOM     21  C   UNL A   1      40.190  28.172  27.805  1.00  0.00     0.031 C 
ATOM     22  C   UNL A   1      38.343  32.152  33.154  1.00  0.00     0.029 A 
ATOM     23  C   UNL A   1      39.513  31.330  33.414  1.00  0.00     0.049 A 
ATOM     24  H   UNL A   1      40.465  30.016  32.105  1.00  0.00     0.167 HD
ATOM     25  C   UNL A   1      42.103  27.164  29.024  1.00  0.00     0.037 A 
ATOM     26  C   UNL A   1      40.193  31.268  34.572  1.00  0.00     0.037 A 
ATOM     27  C   UNL A   1      42.895  27.021  30.215  1.00  0.00     0.049 A 
ATOM     28  C   UNL A   1      41.319  30.273  34.638  1.00  0.00     0.074 A 
ATOM     29  C   UNL A   1      43.995  26.218  30.429  1.00  0.00     0.029 A 
ATOM     30  N   UNL A   1      42.655  27.711  31.398  1.00  0.00    -0.354 N 
ATOM     31  N   UNL A   1      41.798  29.505  33.685  1.00  0.00    -0.248 NA
ATOM     32  C   UNL A   1      41.979  30.106  35.935  1.00  0.00     0.031 C 
ATOM     33  C   UNL A   1      44.379  26.371  31.764  1.00  0.00     0.029 A 
ATOM     34  C   UNL A   1      43.560  27.319  32.364  1.00  0.00     0.049 A 
ATOM     35  H   UNL A   1      41.944  28.380  31.529  1.00  0.00     0.167 HD
ATOM     36  C   UNL A   1      42.820  28.771  34.262  1.00  0.00     0.074 A 
ATOM     37  C   UNL A   1      42.914  29.213  35.642  1.00  0.00     0.031 C 
ATOM     38  C   UNL A   1      43.605  27.807  33.720  1.00  0.00     0.037 A 
BRANCH  25  39
ATOM     39  C   UNL A   1      42.404  26.319  27.829  1.00  0.00     0.064 A 
ATOM     40  C   UNL A   1      43.339  26.692  26.856  1.00  0.00     0.173 A 
ATOM     41  C   UNL A   1      41.728  25.101  27.660  1.00  0.00     0.173 A 
ATOM     42  F   UNL A   1      43.981  27.866  26.950  1.00  0.00    -0.203 F 
ATOM     43  C   UNL A   1      43.587  25.875  25.754  1.00  0.00     0.198 A 
ATOM     44  C   UNL A   1      41.995  24.276  26.573  1.00  0.00     0.198 A 
ATOM     45  F   UNL A   1      40.803  24.712  28.551  1.00  0.00    -0.203 F 
ATOM     46  F   UNL A   1      44.455  26.268  24.812  1.00  0.00    -0.200 F 
ATOM     47  C   UNL A   1      42.922  24.664  25.620  1.00  0.00     0.200 A 
ATOM     48  F   UNL A   1      41.349  23.107  26.446  1.00  0.00    -0.200 F 
ATOM     49  F   UNL A   1      43.169  23.876  24.565  1.00  0.00    -0.200 F 
ENDBRANCH  25  39
BRANCH  26  50
ATOM     50  C   UNL A   1      39.757  32.048  35.763  1.00  0.00     0.064 A 
ATOM     51  C   UNL A   1      38.716  31.601  36.587  1.00  0.00     0.173 A 
ATOM     52  C   UNL A   1      40.330  33.295  36.068  1.00  0.00     0.173 A 
ATOM     53  F   UNL A   1      38.121  30.426  36.334  1.00  0.00    -0.203 F 
ATOM     54  C   UNL A   1      38.239  32.385  37.637  1.00  0.00     0.198 A 
ATOM     55  C   UNL A   1      39.880  34.059  37.143  1.00  0.00     0.198 A 
ATOM     56  F   UNL A   1      41.329  33.782  35.317  1.00  0.00    -0.203 F 
ATOM     57  F   UNL A   1      37.190  31.964  38.359  1.00  0.00    -0.200 F 
ATOM     58  C   UNL A   1      38.821  33.611  37.915  1.00  0.00     0.200 A 
ATOM     59  F   UNL A   1      40.459  35.235  37.415  1.00  0.00    -0.200 F 
ATOM     60  F   UNL A   1      38.351  34.370  38.915  1.00  0.00    -0.200 F 
ENDBRANCH  26  50
BRANCH  38  61
ATOM     61  C   UNL A   1      44.634  27.199  34.619  1.00  0.00     0.064 A 
ATOM     62  C   UNL A   1      45.896  27.787  34.788  1.00  0.00     0.173 A 
ATOM     63  C   UNL A   1      44.326  26.056  35.370  1.00  0.00     0.173 A 
ATOM     64  F   UNL A   1      46.238  28.871  34.073  1.00  0.00    -0.203 F 
ATOM     65  C   UNL A   1      46.822  27.238  35.665  1.00  0.00     0.198 A 
ATOM     66  C   UNL A   1      45.240  25.534  36.276  1.00  0.00     0.198 A 
ATOM     67  F   UNL A   1      43.127  25.467  35.246  1.00  0.00    -0.203 F 
ATOM     68  F   UNL A   1      48.039  27.786  35.779  1.00  0.00    -0.200 F 
ATOM     69  C   UNL A   1      46.489  26.121  36.418  1.00  0.00     0.200 A 
ATOM     70  F   UNL A   1      44.910  24.468  37.019  1.00  0.00    -0.200 F 
ATOM     71  F   UNL A   1      47.375  25.607  37.282  1.00  0.00    -0.200 F 
ENDBRANCH  38  61
ENDBRANCH  12  13
ENDBRANCH   5   7
ENDBRANCH   4   5
ENDBRANCH   3   4
ENDBRANCH   2   3
ENDBRANCH   1   2
BRANCH   1  72
ATOM     72  C   UNL A   1      30.256  28.236  23.167  1.00  0.00     0.202 C 
BRANCH  72  73
ATOM     73  C   UNL A   1      31.520  28.044  22.329  1.00  0.00     0.261 C 
BRANCH  73  74
ATOM     74  O   UNL A   1      31.535  26.700  21.826  1.00  0.00    -0.461 OA
BRANCH  74  75
ATOM     75  C   UNL A   1      32.605  25.922  22.173  1.00  0.00     0.335 C 
ATOM     76  O   UNL A   1      33.669  25.860  21.569  1.00  0.00    -0.249 OA
BRANCH  75  77
ATOM     77  C   UNL A   1      32.324  25.178  23.486  1.00  0.00     0.228 C 
ATOM     78  C   UNL A   1      31.502  23.912  23.316  1.00  0.00     0.047 C 
ATOM     79  O   UNL A   1      33.543  24.745  24.102  1.00  0.00    -0.361 OA
ATOM     80  C   UNL A   1      32.556  22.886  22.969  1.00  0.00     0.037 C 
ATOM     81  C   UNL A   1      33.727  23.338  23.831  1.00  0.00     0.139 C 
BRANCH  81  82
ATOM     82  C   UNL A   1      33.778  22.627  25.181  1.00  0.00     0.161 C 
BRANCH  82  83
ATOM     83  N   UNL A   1      33.736  21.188  25.069  1.00  0.00    -0.270 N 
ATOM     84  C   UNL A   1      34.821  20.404  24.802  1.00  0.00     0.263 C 
ATOM     85  C   UNL A   1      32.589  20.448  25.212  1.00  0.00     0.280 C 
ATOM     86  O   UNL A   1      35.992  20.722  24.686  1.00  0.00    -0.269 OA
ATOM     87  C   UNL A   1      34.331  19.041  24.691  1.00  0.00     0.071 A 
ATOM     88  C   UNL A   1      32.981  19.057  24.949  1.00  0.00     0.141 A 
ATOM     89  O   UNL A   1      31.481  20.844  25.509  1.00  0.00    -0.267 OA
ATOM     90  C   UNL A   1      34.958  17.859  24.367  1.00  0.00     0.018 A 
ATOM     91  N   UNL A   1      32.163  17.993  24.926  1.00  0.00    -0.250 NA
ATOM     92  C   UNL A   1      34.152  16.720  24.318  1.00  0.00     0.021 A 
ATOM     93  C   UNL A   1      32.784  16.833  24.604  1.00  0.00     0.112 A 
ENDBRANCH  82  83
ENDBRANCH  81  82
ENDBRANCH  75  77
ENDBRANCH  74  75
ENDBRANCH  73  74
ENDBRANCH  72  73
ENDBRANCH   1  72
TORSDOF 16
ENDMDL
MODEL 2
REMARK VINA RESULT:     -12.0      2.682      8.578
REMARK SMILES O=C(OCCOCCOC(=O)[C@H]1CC[C@H](CN2C(=O)c3cccnc3C2=O)O1)c1ccc(-c2c3nc(c(-c4c(F)c(F)c(F)c(F)c4F)c4ccc([nH]4)c(-c4c(F)c(F)c(F)c(F)c4F)c4nc(c(-c5c(F)c(F)c(F)c(F)c5F)c5ccc2[nH]5)C=C4)C=C3)cc1
REMARK SMILES IDX 6 1 5 2 4 3 3 4 2 5 1 6 29 7 30 8 91 9 31 10 90 11 32 12
REMARK SMILES IDX 33 13 34 14 84 15 35 16 89 17 83 18 85 19 36 20 88 21 82 22
REMARK SMILES IDX 81 23 37 25 69 26 49 27 68 28 50 29 53 30 67 31 86 32 51 33
REMARK SMILES IDX 52 34 66 36 87 37 54 38 38 39 39 40 47 41 40 42 41 43 45 44
REMARK SMILES IDX 48 45 42 46 43 47 46 48 44 49 70 50 71 51 79 52 72 53 73 54
REMARK SMILES IDX 77 55 80 56 74 57 75 58 78 59 76 60 55 61 56 62 64 63 57 64
REMARK SMILES IDX 58 65 62 66 65 67 59 68 60 69 63 70 61 71 7 72 8 73 9 74
REMARK SMILES IDX 10 75 11 76 12 77 13 78 28 79 14 80 15 81 16 82 17 83 18 84
REMARK SMILES IDX 26 85 19 86 20 87 25 88 27 89 21 90 24 91 22 92 23 93
REMARK H PARENT 85 24 53 35
REMARK Flexibility Score: inf
ROOT
ATOM      1  O   UNL A   1      34.412  34.326  29.039  1.00  0.00    -0.374 OA
ENDROOT
BRANCH   1   2
ATOM      2  C   UNL A   1      33.155  34.976  28.892  1.00  0.00     0.202 C 
BRANCH   2   3
ATOM      3  C   UNL A   1      32.992  36.351  29.536  1.00  0.00     0.261 C 
BRANCH   3   4
ATOM      4  O   UNL A   1      32.221  36.236  30.743  1.00  0.00    -0.460 OA
BRANCH   4   5
ATOM      5  C   UNL A   1      32.705  36.126  32.003  1.00  0.00     0.338 C 
ATOM      6  O   UNL A   1      32.181  36.751  32.921  1.00  0.00    -0.246 OA
BRANCH   5   7
ATOM      7  C   UNL A   1      33.848  35.232  32.312  1.00  0.00     0.060 A 
ATOM      8  C   UNL A   1      35.173  35.644  32.209  1.00  0.00     0.016 A 
ATOM      9  C   UNL A   1      33.591  33.950  32.807  1.00  0.00     0.016 A 
ATOM     10  C   UNL A   1      36.226  34.828  32.504  1.00  0.00     0.010 A 
ATOM     11  C   UNL A   1      34.652  33.131  33.199  1.00  0.00     0.010 A 
ATOM     12  C   UNL A   1      35.967  33.592  33.061  1.00  0.00    -0.014 A 
BRANCH  12  13
ATOM     13  C   UNL A   1      37.154  32.835  33.446  1.00  0.00     0.031 A 
ATOM     14  C   UNL A   1      37.712  33.064  34.803  1.00  0.00     0.074 A 
ATOM     15  C   UNL A   1      37.555  31.835  32.640  1.00  0.00     0.049 A 
ATOM     16  N   UNL A   1      38.801  32.585  35.327  1.00  0.00    -0.248 NA
ATOM     17  C   UNL A   1      36.933  33.937  35.701  1.00  0.00     0.031 C 
ATOM     18  C   UNL A   1      36.896  31.438  31.387  1.00  0.00     0.029 A 
ATOM     19  N   UNL A   1      38.581  30.944  32.765  1.00  0.00    -0.354 N 
ATOM     20  C   UNL A   1      38.875  33.148  36.590  1.00  0.00     0.074 A 
ATOM     21  C   UNL A   1      37.706  33.975  36.775  1.00  0.00     0.031 C 
ATOM     22  C   UNL A   1      37.536  30.383  30.864  1.00  0.00     0.029 A 
ATOM     23  C   UNL A   1      38.707  30.108  31.682  1.00  0.00     0.049 A 
ATOM     24  H   UNL A   1      39.172  30.904  33.551  1.00  0.00     0.167 HD
ATOM     25  C   UNL A   1      39.874  32.993  37.482  1.00  0.00     0.037 A 
ATOM     26  C   UNL A   1      39.716  29.281  31.362  1.00  0.00     0.037 A 
ATOM     27  C   UNL A   1      41.002  32.137  37.236  1.00  0.00     0.049 A 
ATOM     28  C   UNL A   1      40.871  29.225  32.325  1.00  0.00     0.074 A 
ATOM     29  C   UNL A   1      42.104  31.911  38.033  1.00  0.00     0.029 A 
ATOM     30  N   UNL A   1      41.159  31.367  36.090  1.00  0.00    -0.354 N 
ATOM     31  N   UNL A   1      40.998  29.810  33.494  1.00  0.00    -0.248 NA
ATOM     32  C   UNL A   1      42.031  28.428  31.921  1.00  0.00     0.031 C 
ATOM     33  C   UNL A   1      42.963  31.055  37.336  1.00  0.00     0.029 A 
ATOM     34  C   UNL A   1      42.366  30.695  36.136  1.00  0.00     0.049 A 
ATOM     35  H   UNL A   1      40.508  31.308  35.353  1.00  0.00     0.167 HD
ATOM     36  C   UNL A   1      42.246  29.447  33.971  1.00  0.00     0.074 A 
ATOM     37  C   UNL A   1      42.822  28.560  32.976  1.00  0.00     0.031 C 
ATOM     38  C   UNL A   1      42.877  29.816  35.113  1.00  0.00     0.037 A 
BRANCH  25  39
ATOM     39  C   UNL A   1      39.839  33.835  38.716  1.00  0.00     0.064 A 
ATOM     40  C   UNL A   1      39.199  33.426  39.893  1.00  0.00     0.173 A 
ATOM     41  C   UNL A   1      40.467  35.090  38.710  1.00  0.00     0.173 A 
ATOM     42  F   UNL A   1      38.549  32.253  39.937  1.00  0.00    -0.203 F 
ATOM     43  C   UNL A   1      39.188  34.245  41.020  1.00  0.00     0.198 A 
ATOM     44  C   UNL A   1      40.476  35.894  39.844  1.00  0.00     0.198 A 
ATOM     45  F   UNL A   1      41.071  35.538  37.599  1.00  0.00    -0.203 F 
ATOM     46  F   UNL A   1      38.535  33.855  42.124  1.00  0.00    -0.200 F 
ATOM     47  C   UNL A   1      39.835  35.473  40.998  1.00  0.00     0.200 A 
ATOM     48  F   UNL A   1      41.100  37.081  39.818  1.00  0.00    -0.200 F 
ATOM     49  F   UNL A   1      39.830  36.255  42.086  1.00  0.00    -0.200 F 
ENDBRANCH  25  39
BRANCH  26  50
ATOM     50  C   UNL A   1      39.742  28.569  30.055  1.00  0.00     0.064 A 
ATOM     51  C   UNL A   1      39.225  27.274  29.918  1.00  0.00     0.173 A 
ATOM     52  C   UNL A   1      40.347  29.143  28.923  1.00  0.00     0.173 A 
ATOM     53  F   UNL A   1      38.651  26.668  30.968  1.00  0.00    -0.203 F 
ATOM     54  C   UNL A   1      39.348  26.569  28.721  1.00  0.00     0.198 A 
ATOM     55  C   UNL A   1      40.433  28.455  27.715  1.00  0.00     0.198 A 
ATOM     56  F   UNL A   1      40.864  30.379  28.987  1.00  0.00    -0.203 F 
ATOM     57  F   UNL A   1      38.913  25.304  28.645  1.00  0.00    -0.200 F 
ATOM     58  C   UNL A   1      39.950  27.159  27.621  1.00  0.00     0.200 A 
ATOM     59  F   UNL A   1      41.001  29.038  26.652  1.00  0.00    -0.200 F 
ATOM     60  F   UNL A   1      40.082  26.476  26.476  1.00  0.00    -0.200 F 
ENDBRANCH  26  50
BRANCH  38  61
ATOM     61  C   UNL A   1      44.238  29.240  35.341  1.00  0.00     0.064 A 
ATOM     62  C   UNL A   1      45.395  29.912  34.920  1.00  0.00     0.173 A 
ATOM     63  C   UNL A   1      44.385  28.038  36.048  1.00  0.00     0.173 A 
ATOM     64  F   UNL A   1      45.297  31.055  34.223  1.00  0.00    -0.203 F 
ATOM     65  C   UNL A   1      46.654  29.388  35.184  1.00  0.00     0.198 A 
ATOM     66  C   UNL A   1      45.647  27.539  36.345  1.00  0.00     0.198 A 
ATOM     67  F   UNL A   1      43.304  27.368  36.477  1.00  0.00    -0.203 F 
ATOM     68  F   UNL A   1      47.746  30.019  34.735  1.00  0.00    -0.200 F 
ATOM     69  C   UNL A   1      46.779  28.210  35.908  1.00  0.00     0.200 A 
ATOM     70  F   UNL A   1      45.767  26.414  37.062  1.00  0.00    -0.200 F 
ATOM     71  F   UNL A   1      47.995  27.719  36.182  1.00  0.00    -0.200 F 
ENDBRANCH  38  61
ENDBRANCH  12  13
ENDBRANCH   5   7
ENDBRANCH   4   5
ENDBRANCH   3   4
ENDBRANCH   2   3
ENDBRANCH   1   2
BRANCH   1  72
ATOM     72  C   UNL A   1      34.405  32.926  29.312  1.00  0.00     0.202 C 
BRANCH  72  73
ATOM     73  C   UNL A   1      34.864  32.182  28.059  1.00  0.00     0.261 C 
BRANCH  73  74
ATOM     74  O   UNL A   1      33.847  31.242  27.686  1.00  0.00    -0.461 OA
BRANCH  74  75
ATOM     75  C   UNL A   1      34.267  30.015  27.252  1.00  0.00     0.335 C 
ATOM     76  O   UNL A   1      35.428  29.628  27.219  1.00  0.00    -0.249 OA
BRANCH  75  77
ATOM     77  C   UNL A   1      33.064  29.139  26.875  1.00  0.00     0.228 C 
ATOM     78  C   UNL A   1      32.257  29.667  25.702  1.00  0.00     0.047 C 
ATOM     79  O   UNL A   1      33.487  27.831  26.472  1.00  0.00    -0.361 OA
ATOM     80  C   UNL A   1      33.017  29.121  24.515  1.00  0.00     0.037 C 
ATOM     81  C   UNL A   1      33.461  27.758  25.029  1.00  0.00     0.139 C 
BRANCH  81  82
ATOM     82  C   UNL A   1      32.491  26.640  24.657  1.00  0.00     0.161 C 
BRANCH  82  83
ATOM     83  N   UNL A   1      32.874  25.352  25.188  1.00  0.00    -0.270 N 
ATOM     84  C   UNL A   1      32.282  24.757  26.263  1.00  0.00     0.263 C 
ATOM     85  C   UNL A   1      33.888  24.587  24.669  1.00  0.00     0.280 C 
ATOM     86  O   UNL A   1      31.318  25.122  26.914  1.00  0.00    -0.269 OA
ATOM     87  C   UNL A   1      33.017  23.529  26.515  1.00  0.00     0.071 A 
ATOM     88  C   UNL A   1      33.985  23.413  25.546  1.00  0.00     0.141 A 
ATOM     89  O   UNL A   1      34.561  24.813  23.684  1.00  0.00    -0.267 OA
ATOM     90  C   UNL A   1      32.911  22.577  27.503  1.00  0.00     0.018 A 
ATOM     91  N   UNL A   1      34.882  22.419  25.445  1.00  0.00    -0.250 NA
ATOM     92  C   UNL A   1      33.828  21.524  27.453  1.00  0.00     0.021 A 
ATOM     93  C   UNL A   1      34.776  21.486  26.421  1.00  0.00     0.112 A 
ENDBRANCH  82  83
ENDBRANCH  81  82
ENDBRANCH  75  77
ENDBRANCH  74  75
ENDBRANCH  73  74
ENDBRANCH  72  73
ENDBRANCH   1  72
TORSDOF 16
ENDMDL
MODEL 3
REMARK VINA RESULT:     -11.9      0.184      1.584
REMARK SMILES O=C(OCCOCCOC(=O)[C@H]1CC[C@H](CN2C(=O)c3cccnc3C2=O)O1)c1ccc(-c2c3nc(c(-c4c(F)c(F)c(F)c(F)c4F)c4ccc([nH]4)c(-c4c(F)c(F)c(F)c(F)c4F)c4nc(c(-c5c(F)c(F)c(F)c(F)c5F)c5ccc2[nH]5)C=C4)C=C3)cc1
REMARK SMILES IDX 6 1 5 2 4 3 3 4 2 5 1 6 29 7 30 8 91 9 31 10 90 11 32 12
REMARK SMILES IDX 33 13 34 14 84 15 35 16 89 17 83 18 85 19 36 20 88 21 82 22
REMARK SMILES IDX 81 23 37 25 69 26 49 27 68 28 50 29 53 30 67 31 86 32 51 33
REMARK SMILES IDX 52 34 66 36 87 37 54 38 38 39 39 40 47 41 40 42 41 43 45 44
REMARK SMILES IDX 48 45 42 46 43 47 46 48 44 49 70 50 71 51 79 52 72 53 73 54
REMARK SMILES IDX 77 55 80 56 74 57 75 58 78 59 76 60 55 61 56 62 64 63 57 64
REMARK SMILES IDX 58 65 62 66 65 67 59 68 60 69 63 70 61 71 7 72 8 73 9 74
REMARK SMILES IDX 10 75 11 76 12 77 13 78 28 79 14 80 15 81 16 82 17 83 18 84
REMARK SMILES IDX 26 85 19 86 20 87 25 88 27 89 21 90 24 91 22 92 23 93
REMARK H PARENT 85 24 53 35
REMARK Flexibility Score: inf
ROOT
ATOM      1  O   UNL A   1      30.513  29.477  24.030  1.00  0.00    -0.374 OA
ENDROOT
BRANCH   1   2
ATOM      2  C   UNL A   1      31.624  29.294  24.900  1.00  0.00     0.202 C 
BRANCH   2   3
ATOM      3  C   UNL A   1      31.756  30.248  26.086  1.00  0.00     0.261 C 
BRANCH   3   4
ATOM      4  O   UNL A   1      33.143  30.415  26.425  1.00  0.00    -0.460 OA
BRANCH   4   5
ATOM      5  C   UNL A   1      33.671  31.389  27.203  1.00  0.00     0.338 C 
ATOM      6  O   UNL A   1      33.147  32.498  27.242  1.00  0.00    -0.246 OA
BRANCH   5   7
ATOM      7  C   UNL A   1      34.865  31.137  28.048  1.00  0.00     0.060 A 
ATOM      8  C   UNL A   1      35.069  29.935  28.718  1.00  0.00     0.016 A 
ATOM      9  C   UNL A   1      35.868  32.109  28.110  1.00  0.00     0.016 A 
ATOM     10  C   UNL A   1      36.172  29.695  29.486  1.00  0.00     0.010 A 
ATOM     11  C   UNL A   1      37.044  31.848  28.818  1.00  0.00     0.010 A 
ATOM     12  C   UNL A   1      37.191  30.627  29.485  1.00  0.00    -0.014 A 
BRANCH  12  13
ATOM     13  C   UNL A   1      38.375  30.236  30.245  1.00  0.00     0.031 A 
ATOM     14  C   UNL A   1      39.380  29.378  29.569  1.00  0.00     0.074 A 
ATOM     15  C   UNL A   1      38.589  30.833  31.432  1.00  0.00     0.049 A 
ATOM     16  N   UNL A   1      40.451  28.832  30.065  1.00  0.00    -0.248 NA
ATOM     17  C   UNL A   1      39.163  29.108  28.135  1.00  0.00     0.031 C 
ATOM     18  C   UNL A   1      37.721  31.852  32.040  1.00  0.00     0.029 A 
ATOM     19  N   UNL A   1      39.615  30.706  32.323  1.00  0.00    -0.354 N 
ATOM     20  C   UNL A   1      41.001  28.101  29.026  1.00  0.00     0.074 A 
ATOM     21  C   UNL A   1      40.174  28.298  27.859  1.00  0.00     0.031 C 
ATOM     22  C   UNL A   1      38.255  32.254  33.201  1.00  0.00     0.029 A 
ATOM     23  C   UNL A   1      39.433  31.444  33.467  1.00  0.00     0.049 A 
ATOM     24  H   UNL A   1      40.406  30.142  32.162  1.00  0.00     0.167 HD
ATOM     25  C   UNL A   1      42.091  27.310  29.088  1.00  0.00     0.037 A 
ATOM     26  C   UNL A   1      40.107  31.389  34.628  1.00  0.00     0.037 A 
ATOM     27  C   UNL A   1      42.879  27.175  30.283  1.00  0.00     0.049 A 
ATOM     28  C   UNL A   1      41.244  30.406  34.700  1.00  0.00     0.074 A 
ATOM     29  C   UNL A   1      43.986  26.384  30.503  1.00  0.00     0.029 A 
ATOM     30  N   UNL A   1      42.625  27.862  31.465  1.00  0.00    -0.354 N 
ATOM     31  N   UNL A   1      41.736  29.644  33.749  1.00  0.00    -0.248 NA
ATOM     32  C   UNL A   1      41.898  30.245  36.000  1.00  0.00     0.031 C 
ATOM     33  C   UNL A   1      44.361  26.540  31.840  1.00  0.00     0.029 A 
ATOM     34  C   UNL A   1      43.529  27.478  32.436  1.00  0.00     0.049 A 
ATOM     35  H   UNL A   1      41.906  28.523  31.593  1.00  0.00     0.167 HD
ATOM     36  C   UNL A   1      42.763  28.921  34.331  1.00  0.00     0.074 A 
ATOM     37  C   UNL A   1      42.844  29.363  35.712  1.00  0.00     0.031 C 
ATOM     38  C   UNL A   1      43.561  27.966  33.793  1.00  0.00     0.037 A 
BRANCH  25  39
ATOM     39  C   UNL A   1      42.408  26.469  27.894  1.00  0.00     0.064 A 
ATOM     40  C   UNL A   1      41.807  25.225  27.664  1.00  0.00     0.173 A 
ATOM     41  C   UNL A   1      43.345  26.931  26.957  1.00  0.00     0.173 A 
ATOM     42  F   UNL A   1      40.936  24.721  28.551  1.00  0.00    -0.203 F 
ATOM     43  C   UNL A   1      42.134  24.472  26.539  1.00  0.00     0.198 A 
ATOM     44  C   UNL A   1      43.651  26.189  25.822  1.00  0.00     0.198 A 
ATOM     45  F   UNL A   1      43.968  28.104  27.146  1.00  0.00    -0.203 F 
ATOM     46  F   UNL A   1      41.580  23.265  26.356  1.00  0.00    -0.200 F 
ATOM     47  C   UNL A   1      43.048  24.959  25.614  1.00  0.00     0.200 A 
ATOM     48  F   UNL A   1      44.536  26.663  24.932  1.00  0.00    -0.200 F 
ATOM     49  F   UNL A   1      43.354  24.237  24.528  1.00  0.00    -0.200 F 
ENDBRANCH  25  39
BRANCH  26  50
ATOM     50  C   UNL A   1      39.656  32.163  35.817  1.00  0.00     0.064 A 
ATOM     51  C   UNL A   1      40.277  33.365  36.184  1.00  0.00     0.173 A 
ATOM     52  C   UNL A   1      38.634  31.685  36.654  1.00  0.00     0.173 A 
ATOM     53  F   UNL A   1      41.270  33.862  35.432  1.00  0.00    -0.203 F 
ATOM     54  C   UNL A   1      39.924  34.031  37.357  1.00  0.00     0.198 A 
ATOM     55  C   UNL A   1      38.253  32.372  37.805  1.00  0.00     0.198 A 
ATOM     56  F   UNL A   1      38.001  30.539  36.362  1.00  0.00    -0.203 F 
ATOM     57  F   UNL A   1      40.589  35.137  37.721  1.00  0.00    -0.200 F 
ATOM     58  C   UNL A   1      38.912  33.536  38.166  1.00  0.00     0.200 A 
ATOM     59  F   UNL A   1      37.264  31.896  38.572  1.00  0.00    -0.200 F 
ATOM     60  F   UNL A   1      38.586  34.169  39.301  1.00  0.00    -0.200 F 
ENDBRANCH  26  50
BRANCH  38  61
ATOM     61  C   UNL A   1      44.592  27.368  34.697  1.00  0.00     0.064 A 
ATOM     62  C   UNL A   1      45.841  27.977  34.883  1.00  0.00     0.173 A 
ATOM     63  C   UNL A   1      44.297  26.213  35.436  1.00  0.00     0.173 A 
ATOM     64  F   UNL A   1      46.171  29.073  34.182  1.00  0.00    -0.203 F 
ATOM     65  C   UNL A   1      46.768  27.437  35.766  1.00  0.00     0.198 A 
ATOM     66  C   UNL A   1      45.211  25.700  36.346  1.00  0.00     0.198 A 
ATOM     67  F   UNL A   1      43.109  25.605  35.294  1.00  0.00    -0.203 F 
ATOM     68  F   UNL A   1      47.974  28.006  35.897  1.00  0.00    -0.200 F 
ATOM     69  C   UNL A   1      46.448  26.307  36.506  1.00  0.00     0.200 A 
ATOM     70  F   UNL A   1      44.892  24.622  37.076  1.00  0.00    -0.200 F 
ATOM     71  F   UNL A   1      47.334  25.802  37.374  1.00  0.00    -0.200 F 
ENDBRANCH  38  61
ENDBRANCH  12  13
ENDBRANCH   5   7
ENDBRANCH   4   5
ENDBRANCH   3   4
ENDBRANCH   2   3
ENDBRANCH   1   2
BRANCH   1  72
ATOM     72  C   UNL A   1      30.318  28.515  22.994  1.00  0.00     0.202 C 
BRANCH  72  73
ATOM     73  C   UNL A   1      31.681  28.142  22.413  1.00  0.00     0.261 C 
BRANCH  73  74
ATOM     74  O   UNL A   1      31.592  26.827  21.844  1.00  0.00    -0.461 OA
BRANCH  74  75
ATOM     75  C   UNL A   1      32.600  25.954  22.143  1.00  0.00     0.335 C 
ATOM     76  O   UNL A   1      33.628  25.800  21.494  1.00  0.00    -0.249 OA
BRANCH  75  77
ATOM     77  C   UNL A   1      32.308  25.230  23.465  1.00  0.00     0.228 C 
ATOM     78  C   UNL A   1      31.443  23.992  23.314  1.00  0.00     0.047 C 
ATOM     79  O   UNL A   1      33.519  24.762  24.072  1.00  0.00    -0.361 OA
ATOM     80  C   UNL A   1      32.459  22.929  22.965  1.00  0.00     0.037 C 
ATOM     81  C   UNL A   1      33.653  23.348  23.811  1.00  0.00     0.139 C 
BRANCH  81  82
ATOM     82  C   UNL A   1      33.695  22.646  25.166  1.00  0.00     0.161 C 
BRANCH  82  83
ATOM     83  N   UNL A   1      33.678  21.206  25.063  1.00  0.00    -0.270 N 
ATOM     84  C   UNL A   1      34.777  20.441  24.801  1.00  0.00     0.263 C 
ATOM     85  C   UNL A   1      32.545  20.446  25.212  1.00  0.00     0.280 C 
ATOM     86  O   UNL A   1      35.942  20.778  24.682  1.00  0.00    -0.269 OA
ATOM     87  C   UNL A   1      34.312  19.067  24.698  1.00  0.00     0.071 A 
ATOM     88  C   UNL A   1      32.962  19.062  24.957  1.00  0.00     0.141 A 
ATOM     89  O   UNL A   1      31.430  20.824  25.508  1.00  0.00    -0.267 OA
ATOM     90  C   UNL A   1      34.960  17.896  24.381  1.00  0.00     0.018 A 
ATOM     91  N   UNL A   1      32.163  17.982  24.942  1.00  0.00    -0.250 NA
ATOM     92  C   UNL A   1      34.175  16.742  24.340  1.00  0.00     0.021 A 
ATOM     93  C   UNL A   1      32.805  16.832  24.627  1.00  0.00     0.112 A 
ENDBRANCH  82  83
ENDBRANCH  81  82
ENDBRANCH  75  77
ENDBRANCH  74  75
ENDBRANCH  73  74
ENDBRANCH  72  73
ENDBRANCH   1  72
TORSDOF 16
ENDMDL
