MODEL 1
REMARK VINA RESULT:     -11.0      0.000      0.000
REMARK SMILES C/C=C/C[C@H](Cc1cccc(F)c1)C(=O)OCCOCCOC(=O)c1ccc(-c2c3nc(c(-c4c(F)c(F)c(F)c(F)c4F)c4ccc([nH]4)c(-c4c(F)c(F)c(F)c(F)c4F)c4nc(c(-c5c(F)c(F)c(F)c(F)c5F)c5ccc2[nH]5)C=C4)C=C3)cc1
REMARK SMILES IDX 19 1 18 2 17 3 16 4 14 5 15 6 5 7 4 8 3 9 1 10 2 11 6 12
REMARK SMILES IDX 7 13 8 14 13 15 9 16 11 17 10 18 12 19 20 20 21 21 22 22
REMARK SMILES IDX 23 23 24 24 25 25 26 26 87 27 27 28 86 29 28 30 29 31 30 32
REMARK SMILES IDX 80 33 31 34 85 35 79 36 81 37 32 38 84 39 78 40 77 41 33 43
REMARK SMILES IDX 65 44 45 45 64 46 46 47 49 48 63 49 82 50 47 51 48 52 62 54
REMARK SMILES IDX 83 55 50 56 34 57 35 58 43 59 36 60 37 61 41 62 44 63 38 64
REMARK SMILES IDX 39 65 42 66 40 67 66 68 67 69 75 70 68 71 69 72 73 73 76 74
REMARK SMILES IDX 70 75 71 76 74 77 72 78 51 79 52 80 60 81 53 82 54 83 58 84
REMARK SMILES IDX 61 85 55 86 56 87 59 88 57 89
REMARK H PARENT 81 42 49 53
REMARK Flexibility Score: inf
ROOT
ATOM      1  O   UNL A   1      35.510  21.430  26.130  1.00  0.00    -0.374 OA
ENDROOT
BRANCH   1   2
ATOM      2  C   UNL A   1      34.894  22.686  25.851  1.00  0.00     0.202 C 
BRANCH   2   3
ATOM      3  C   UNL A   1      33.466  22.884  26.367  1.00  0.00     0.261 C 
BRANCH   3   4
ATOM      4  O   UNL A   1      32.698  23.768  25.529  1.00  0.00    -0.463 OA
BRANCH   4   5
ATOM      5  C   UNL A   1      31.763  24.516  26.174  1.00  0.00     0.309 C 
ATOM      6  O   UNL A   1      31.242  24.213  27.242  1.00  0.00    -0.252 OA
BRANCH   5   7
ATOM      7  C   UNL A   1      31.373  25.772  25.420  1.00  0.00     0.107 C 
BRANCH   7   8
ATOM      8  C   UNL A   1      30.756  26.736  26.446  1.00  0.00     0.042 C 
BRANCH   8   9
ATOM      9  C   UNL A   1      31.742  27.749  26.950  1.00  0.00    -0.031 C 
ATOM     10  C   UNL A   1      32.817  30.003  27.010  1.00  0.00     0.035 C 
ATOM     11  C   UNL A   1      31.795  29.023  26.533  1.00  0.00    -0.035 C 
ENDBRANCH   8   9
ENDBRANCH   7   8
BRANCH   7  12
ATOM     12  C   UNL A   1      30.476  25.531  24.184  1.00  0.00     0.051 C 
BRANCH  12  13
ATOM     13  C   UNL A   1      29.975  26.823  23.566  1.00  0.00    -0.044 A 
ATOM     14  C   UNL A   1      30.870  27.717  22.955  1.00  0.00     0.004 A 
ATOM     15  C   UNL A   1      28.619  27.166  23.626  1.00  0.00     0.043 A 
ATOM     16  C   UNL A   1      30.419  28.935  22.436  1.00  0.00     0.003 A 
ATOM     17  C   UNL A   1      28.184  28.389  23.123  1.00  0.00     0.123 A 
ATOM     18  C   UNL A   1      29.072  29.277  22.531  1.00  0.00     0.039 A 
ATOM     19  F   UNL A   1      26.889  28.718  23.223  1.00  0.00    -0.207 F 
ENDBRANCH  12  13
ENDBRANCH   7  12
ENDBRANCH   5   7
ENDBRANCH   4   5
ENDBRANCH   3   4
ENDBRANCH   2   3
ENDBRANCH   1   2
BRANCH   1  20
ATOM     20  C   UNL A   1      35.924  20.634  25.023  1.00  0.00     0.202 C 
BRANCH  20  21
ATOM     21  C   UNL A   1      37.397  20.207  24.994  1.00  0.00     0.261 C 
BRANCH  21  22
ATOM     22  O   UNL A   1      38.296  21.316  25.189  1.00  0.00    -0.460 OA
BRANCH  22  23
ATOM     23  C   UNL A   1      39.301  21.079  26.063  1.00  0.00     0.338 C 
ATOM     24  O   UNL A   1      39.906  20.027  26.232  1.00  0.00    -0.246 OA
BRANCH  23  25
ATOM     25  C   UNL A   1      39.727  22.328  26.719  1.00  0.00     0.060 A 
ATOM     26  C   UNL A   1      39.072  23.507  26.339  1.00  0.00     0.016 A 
ATOM     27  C   UNL A   1      40.807  22.370  27.602  1.00  0.00     0.016 A 
ATOM     28  C   UNL A   1      39.531  24.740  26.797  1.00  0.00     0.010 A 
ATOM     29  C   UNL A   1      41.273  23.612  28.055  1.00  0.00     0.010 A 
ATOM     30  C   UNL A   1      40.662  24.803  27.623  1.00  0.00    -0.014 A 
BRANCH  30  31
ATOM     31  C   UNL A   1      41.284  26.121  27.901  1.00  0.00     0.031 A 
ATOM     32  C   UNL A   1      42.679  26.390  27.409  1.00  0.00     0.074 A 
ATOM     33  C   UNL A   1      40.595  27.089  28.531  1.00  0.00     0.049 A 
ATOM     34  N   UNL A   1      43.414  27.464  27.541  1.00  0.00    -0.248 NA
ATOM     35  C   UNL A   1      43.333  25.303  26.661  1.00  0.00     0.031 C 
ATOM     36  C   UNL A   1      39.219  26.970  29.008  1.00  0.00     0.029 A 
ATOM     37  N   UNL A   1      40.962  28.367  28.874  1.00  0.00    -0.354 N 
ATOM     38  C   UNL A   1      44.611  27.186  26.895  1.00  0.00     0.074 A 
ATOM     39  C   UNL A   1      44.518  25.832  26.395  1.00  0.00     0.031 C 
ATOM     40  C   UNL A   1      38.856  28.129  29.582  1.00  0.00     0.029 A 
ATOM     41  C   UNL A   1      39.983  29.060  29.540  1.00  0.00     0.049 A 
ATOM     42  H   UNL A   1      41.844  28.749  28.661  1.00  0.00     0.167 HD
ATOM     43  C   UNL A   1      45.684  27.992  26.723  1.00  0.00     0.037 A 
ATOM     44  C   UNL A   1      40.001  30.299  30.071  1.00  0.00     0.037 A 
ATOM     45  C   UNL A   1      45.775  29.341  27.213  1.00  0.00     0.049 A 
ATOM     46  C   UNL A   1      41.238  31.148  29.936  1.00  0.00     0.074 A 
ATOM     47  C   UNL A   1      46.821  30.238  27.079  1.00  0.00     0.029 A 
ATOM     48  N   UNL A   1      44.783  29.988  27.934  1.00  0.00    -0.354 N 
ATOM     49  N   UNL A   1      42.363  30.877  29.320  1.00  0.00    -0.248 NA
ATOM     50  C   UNL A   1      41.210  32.474  30.573  1.00  0.00     0.031 C 
ATOM     51  C   UNL A   1      46.480  31.411  27.756  1.00  0.00     0.029 A 
ATOM     52  C   UNL A   1      45.202  31.264  28.272  1.00  0.00     0.049 A 
ATOM     53  H   UNL A   1      43.910  29.598  28.170  1.00  0.00     0.167 HD
ATOM     54  C   UNL A   1      43.164  32.001  29.474  1.00  0.00     0.074 A 
ATOM     55  C   UNL A   1      42.395  32.964  30.234  1.00  0.00     0.031 C 
ATOM     56  C   UNL A   1      44.424  32.214  29.023  1.00  0.00     0.037 A 
BRANCH  43  57
ATOM     57  C   UNL A   1      46.864  27.438  25.982  1.00  0.00     0.064 A 
ATOM     58  C   UNL A   1      47.902  26.799  26.675  1.00  0.00     0.173 A 
ATOM     59  C   UNL A   1      47.001  27.604  24.596  1.00  0.00     0.173 A 
ATOM     60  F   UNL A   1      47.819  26.621  28.002  1.00  0.00    -0.203 F 
ATOM     61  C   UNL A   1      49.043  26.361  26.010  1.00  0.00     0.198 A 
ATOM     62  C   UNL A   1      48.133  27.144  23.929  1.00  0.00     0.198 A 
ATOM     63  F   UNL A   1      46.029  28.198  23.888  1.00  0.00    -0.203 F 
ATOM     64  F   UNL A   1      50.037  25.781  26.697  1.00  0.00    -0.200 F 
ATOM     65  C   UNL A   1      49.158  26.532  24.638  1.00  0.00     0.200 A 
ATOM     66  F   UNL A   1      48.235  27.291  22.601  1.00  0.00    -0.200 F 
ATOM     67  F   UNL A   1      50.255  26.104  23.997  1.00  0.00    -0.200 F 
ENDBRANCH  43  57
BRANCH  44  68
ATOM     68  C   UNL A   1      38.801  30.812  30.781  1.00  0.00     0.064 A 
ATOM     69  C   UNL A   1      37.768  31.460  30.087  1.00  0.00     0.173 A 
ATOM     70  C   UNL A   1      38.667  30.670  32.168  1.00  0.00     0.173 A 
ATOM     71  F   UNL A   1      37.849  31.617  28.757  1.00  0.00    -0.203 F 
ATOM     72  C   UNL A   1      36.657  31.966  30.758  1.00  0.00     0.198 A 
ATOM     73  C   UNL A   1      37.543  31.154  32.835  1.00  0.00     0.198 A 
ATOM     74  F   UNL A   1      39.615  30.034  32.871  1.00  0.00    -0.203 F 
ATOM     75  F   UNL A   1      35.699  32.606  30.075  1.00  0.00    -0.200 F 
ATOM     76  C   UNL A   1      36.544  31.808  32.131  1.00  0.00     0.200 A 
ATOM     77  F   UNL A   1      37.424  30.978  34.158  1.00  0.00    -0.200 F 
ATOM     78  F   UNL A   1      35.469  32.284  32.774  1.00  0.00    -0.200 F 
ENDBRANCH  44  68
BRANCH  56  79
ATOM     79  C   UNL A   1      45.057  33.543  29.315  1.00  0.00     0.064 A 
ATOM     80  C   UNL A   1      44.920  34.609  28.411  1.00  0.00     0.173 A 
ATOM     81  C   UNL A   1      45.870  33.735  30.440  1.00  0.00     0.173 A 
ATOM     82  F   UNL A   1      44.160  34.472  27.314  1.00  0.00    -0.203 F 
ATOM     83  C   UNL A   1      45.589  35.812  28.618  1.00  0.00     0.198 A 
ATOM     84  C   UNL A   1      46.518  34.949  30.656  1.00  0.00     0.198 A 
ATOM     85  F   UNL A   1      46.023  32.750  31.338  1.00  0.00    -0.203 F 
ATOM     86  F   UNL A   1      45.472  36.803  27.723  1.00  0.00    -0.200 F 
ATOM     87  C   UNL A   1      46.385  35.982  29.740  1.00  0.00     0.200 A 
ATOM     88  F   UNL A   1      47.271  35.119  31.752  1.00  0.00    -0.200 F 
ATOM     89  F   UNL A   1      47.024  37.143  29.939  1.00  0.00    -0.200 F 
ENDBRANCH  56  79
ENDBRANCH  30  31
ENDBRANCH  23  25
ENDBRANCH  22  23
ENDBRANCH  21  22
ENDBRANCH  20  21
ENDBRANCH   1  20
TORSDOF 18
ENDMDL
MODEL 2
REMARK VINA RESULT:     -11.0      4.490      7.654
REMARK SMILES C/C=C/C[C@H](Cc1cccc(F)c1)C(=O)OCCOCCOC(=O)c1ccc(-c2c3nc(c(-c4c(F)c(F)c(F)c(F)c4F)c4ccc([nH]4)c(-c4c(F)c(F)c(F)c(F)c4F)c4nc(c(-c5c(F)c(F)c(F)c(F)c5F)c5ccc2[nH]5)C=C4)C=C3)cc1
REMARK SMILES IDX 19 1 18 2 17 3 16 4 14 5 15 6 5 7 4 8 3 9 1 10 2 11 6 12
REMARK SMILES IDX 7 13 8 14 13 15 9 16 11 17 10 18 12 19 20 20 21 21 22 22
REMARK SMILES IDX 23 23 24 24 25 25 26 26 87 27 27 28 86 29 28 30 29 31 30 32
REMARK SMILES IDX 80 33 31 34 85 35 79 36 81 37 32 38 84 39 78 40 77 41 33 43
REMARK SMILES IDX 65 44 45 45 64 46 46 47 49 48 63 49 82 50 47 51 48 52 62 54
REMARK SMILES IDX 83 55 50 56 34 57 35 58 43 59 36 60 37 61 41 62 44 63 38 64
REMARK SMILES IDX 39 65 42 66 40 67 66 68 67 69 75 70 68 71 69 72 73 73 76 74
REMARK SMILES IDX 70 75 71 76 74 77 72 78 51 79 52 80 60 81 53 82 54 83 58 84
REMARK SMILES IDX 61 85 55 86 56 87 59 88 57 89
REMARK H PARENT 81 42 49 53
REMARK Flexibility Score: inf
ROOT
ATOM      1  O   UNL A   1      31.295  28.193  25.246  1.00  0.00    -0.374 OA
ENDROOT
BRANCH   1   2
ATOM      2  C   UNL A   1      31.101  27.164  24.278  1.00  0.00     0.202 C 
BRANCH   2   3
ATOM      3  C   UNL A   1      32.250  26.915  23.296  1.00  0.00     0.261 C 
BRANCH   3   4
ATOM      4  O   UNL A   1      33.383  26.290  23.927  1.00  0.00    -0.463 OA
BRANCH   4   5
ATOM      5  C   UNL A   1      33.739  25.080  23.417  1.00  0.00     0.309 C 
ATOM      6  O   UNL A   1      33.663  24.772  22.233  1.00  0.00    -0.252 OA
BRANCH   5   7
ATOM      7  C   UNL A   1      34.210  24.098  24.472  1.00  0.00     0.107 C 
BRANCH   7   8
ATOM      8  C   UNL A   1      32.957  23.597  25.208  1.00  0.00     0.042 C 
BRANCH   8   9
ATOM      9  C   UNL A   1      32.836  22.102  25.188  1.00  0.00    -0.031 C 
ATOM     10  C   UNL A   1      32.727  19.870  24.072  1.00  0.00     0.035 C 
ATOM     11  C   UNL A   1      32.900  21.354  24.076  1.00  0.00    -0.035 C 
ENDBRANCH   8   9
ENDBRANCH   7   8
BRANCH   7  12
ATOM     12  C   UNL A   1      35.305  24.641  25.417  1.00  0.00     0.051 C 
BRANCH  12  13
ATOM     13  C   UNL A   1      36.472  23.684  25.569  1.00  0.00    -0.044 A 
ATOM     14  C   UNL A   1      37.587  24.034  26.348  1.00  0.00     0.004 A 
ATOM     15  C   UNL A   1      36.477  22.450  24.907  1.00  0.00     0.043 A 
ATOM     16  C   UNL A   1      38.690  23.178  26.442  1.00  0.00     0.003 A 
ATOM     17  C   UNL A   1      37.587  21.615  24.993  1.00  0.00     0.123 A 
ATOM     18  C   UNL A   1      38.693  21.968  25.753  1.00  0.00     0.039 A 
ATOM     19  F   UNL A   1      37.590  20.454  24.322  1.00  0.00    -0.207 F 
ENDBRANCH  12  13
ENDBRANCH   7  12
ENDBRANCH   5   7
ENDBRANCH   4   5
ENDBRANCH   3   4
ENDBRANCH   2   3
ENDBRANCH   1   2
BRANCH   1  20
ATOM     20  C   UNL A   1      31.415  29.533  24.776  1.00  0.00     0.202 C 
BRANCH  20  21
ATOM     21  C   UNL A   1      31.644  30.617  25.837  1.00  0.00     0.261 C 
BRANCH  21  22
ATOM     22  O   UNL A   1      32.766  30.322  26.691  1.00  0.00    -0.460 OA
BRANCH  22  23
ATOM     23  C   UNL A   1      33.383  31.412  27.206  1.00  0.00     0.338 C 
ATOM     24  O   UNL A   1      32.902  32.525  27.379  1.00  0.00    -0.246 OA
BRANCH  23  25
ATOM     25  C   UNL A   1      34.721  31.061  27.714  1.00  0.00     0.060 A 
ATOM     26  C   UNL A   1      34.965  29.712  28.000  1.00  0.00     0.016 A 
ATOM     27  C   UNL A   1      35.681  32.032  28.005  1.00  0.00     0.016 A 
ATOM     28  C   UNL A   1      36.147  29.334  28.632  1.00  0.00     0.010 A 
ATOM     29  C   UNL A   1      36.866  31.651  28.649  1.00  0.00     0.010 A 
ATOM     30  C   UNL A   1      37.086  30.308  29.000  1.00  0.00    -0.014 A 
BRANCH  30  31
ATOM     31  C   UNL A   1      38.216  29.928  29.884  1.00  0.00     0.031 A 
ATOM     32  C   UNL A   1      39.263  28.981  29.366  1.00  0.00     0.074 A 
ATOM     33  C   UNL A   1      38.342  30.464  31.111  1.00  0.00     0.049 A 
ATOM     34  N   UNL A   1      40.328  28.512  29.965  1.00  0.00    -0.248 NA
ATOM     35  C   UNL A   1      39.090  28.500  27.985  1.00  0.00     0.031 C 
ATOM     36  C   UNL A   1      37.424  31.433  31.705  1.00  0.00     0.029 A 
ATOM     37  N   UNL A   1      39.299  30.269  32.076  1.00  0.00    -0.354 N 
ATOM     38  C   UNL A   1      40.951  27.687  29.038  1.00  0.00     0.074 A 
ATOM     39  C   UNL A   1      40.132  27.694  27.845  1.00  0.00     0.031 C 
ATOM     40  C   UNL A   1      37.862  31.750  32.934  1.00  0.00     0.029 A 
ATOM     41  C   UNL A   1      39.074  30.984  33.225  1.00  0.00     0.049 A 
ATOM     42  H   UNL A   1      40.074  29.674  31.954  1.00  0.00     0.167 HD
ATOM     43  C   UNL A   1      42.108  26.998  29.166  1.00  0.00     0.037 A 
ATOM     44  C   UNL A   1      39.759  31.005  34.386  1.00  0.00     0.037 A 
ATOM     45  C   UNL A   1      42.928  26.996  30.347  1.00  0.00     0.049 A 
ATOM     46  C   UNL A   1      41.001  30.165  34.532  1.00  0.00     0.074 A 
ATOM     47  C   UNL A   1      44.124  26.333  30.565  1.00  0.00     0.029 A 
ATOM     48  N   UNL A   1      42.636  27.689  31.512  1.00  0.00    -0.354 N 
ATOM     49  N   UNL A   1      41.584  29.392  33.648  1.00  0.00    -0.248 NA
ATOM     50  C   UNL A   1      41.680  30.198  35.837  1.00  0.00     0.031 C 
ATOM     51  C   UNL A   1      44.532  26.589  31.877  1.00  0.00     0.029 A 
ATOM     52  C   UNL A   1      43.616  27.450  32.461  1.00  0.00     0.049 A 
ATOM     53  H   UNL A   1      41.848  28.264  31.645  1.00  0.00     0.167 HD
ATOM     54  C   UNL A   1      42.705  28.867  34.278  1.00  0.00     0.074 A 
ATOM     55  C   UNL A   1      42.728  29.416  35.618  1.00  0.00     0.031 C 
ATOM     56  C   UNL A   1      43.631  28.008  33.788  1.00  0.00     0.037 A 
BRANCH  43  57
ATOM     57  C   UNL A   1      42.562  26.170  28.000  1.00  0.00     0.064 A 
ATOM     58  C   UNL A   1      43.436  26.709  27.045  1.00  0.00     0.173 A 
ATOM     59  C   UNL A   1      42.073  24.873  27.790  1.00  0.00     0.173 A 
ATOM     60  F   UNL A   1      43.926  27.947  27.199  1.00  0.00    -0.203 F 
ATOM     61  C   UNL A   1      43.793  25.983  25.912  1.00  0.00     0.198 A 
ATOM     62  C   UNL A   1      42.451  24.140  26.667  1.00  0.00     0.198 A 
ATOM     63  F   UNL A   1      41.244  24.311  28.682  1.00  0.00    -0.203 F 
ATOM     64  F   UNL A   1      44.606  26.529  24.997  1.00  0.00    -0.200 F 
ATOM     65  C   UNL A   1      43.302  24.699  25.725  1.00  0.00     0.200 A 
ATOM     66  F   UNL A   1      41.992  22.893  26.497  1.00  0.00    -0.200 F 
ATOM     67  F   UNL A   1      43.651  23.999  24.636  1.00  0.00    -0.200 F 
ENDBRANCH  43  57
BRANCH  44  68
ATOM     68  C   UNL A   1      39.280  31.854  35.506  1.00  0.00     0.064 A 
ATOM     69  C   UNL A   1      38.395  31.351  36.472  1.00  0.00     0.173 A 
ATOM     70  C   UNL A   1      39.692  33.188  35.631  1.00  0.00     0.173 A 
ATOM     71  F   UNL A   1      37.975  30.079  36.399  1.00  0.00    -0.203 F 
ATOM     72  C   UNL A   1      37.924  32.157  37.506  1.00  0.00     0.198 A 
ATOM     73  C   UNL A   1      39.240  33.985  36.680  1.00  0.00     0.198 A 
ATOM     74  F   UNL A   1      40.558  33.705  34.748  1.00  0.00    -0.203 F 
ATOM     75  F   UNL A   1      37.056  31.659  38.398  1.00  0.00    -0.200 F 
ATOM     76  C   UNL A   1      38.350  33.472  37.612  1.00  0.00     0.200 A 
ATOM     77  F   UNL A   1      39.673  35.248  36.794  1.00  0.00    -0.200 F 
ATOM     78  F   UNL A   1      37.907  34.243  38.614  1.00  0.00    -0.200 F 
ENDBRANCH  44  68
BRANCH  56  79
ATOM     79  C   UNL A   1      44.766  27.615  34.687  1.00  0.00     0.064 A 
ATOM     80  C   UNL A   1      44.623  26.546  35.585  1.00  0.00     0.173 A 
ATOM     81  C   UNL A   1      45.959  28.350  34.723  1.00  0.00     0.173 A 
ATOM     82  F   UNL A   1      43.496  25.818  35.596  1.00  0.00    -0.203 F 
ATOM     83  C   UNL A   1      45.629  26.238  36.497  1.00  0.00     0.198 A 
ATOM     84  C   UNL A   1      46.973  28.023  35.620  1.00  0.00     0.198 A 
ATOM     85  F   UNL A   1      46.147  29.374  33.877  1.00  0.00    -0.203 F 
ATOM     86  F   UNL A   1      45.456  25.236  37.370  1.00  0.00    -0.200 F 
ATOM     87  C   UNL A   1      46.803  26.975  36.513  1.00  0.00     0.200 A 
ATOM     88  F   UNL A   1      48.116  28.724  35.621  1.00  0.00    -0.200 F 
ATOM     89  F   UNL A   1      47.772  26.675  37.389  1.00  0.00    -0.200 F 
ENDBRANCH  56  79
ENDBRANCH  30  31
ENDBRANCH  23  25
ENDBRANCH  22  23
ENDBRANCH  21  22
ENDBRANCH  20  21
ENDBRANCH   1  20
TORSDOF 18
ENDMDL
MODEL 3
REMARK VINA RESULT:     -10.9      4.640      9.998
REMARK SMILES C/C=C/C[C@H](Cc1cccc(F)c1)C(=O)OCCOCCOC(=O)c1ccc(-c2c3nc(c(-c4c(F)c(F)c(F)c(F)c4F)c4ccc([nH]4)c(-c4c(F)c(F)c(F)c(F)c4F)c4nc(c(-c5c(F)c(F)c(F)c(F)c5F)c5ccc2[nH]5)C=C4)C=C3)cc1
REMARK SMILES IDX 19 1 18 2 17 3 16 4 14 5 15 6 5 7 4 8 3 9 1 10 2 11 6 12
REMARK SMILES IDX 7 13 8 14 13 15 9 16 11 17 10 18 12 19 20 20 21 21 22 22
REMARK SMILES IDX 23 23 24 24 25 25 26 26 87 27 27 28 86 29 28 30 29 31 30 32
REMARK SMILES IDX 80 33 31 34 85 35 79 36 81 37 32 38 84 39 78 40 77 41 33 43
REMARK SMILES IDX 65 44 45 45 64 46 46 47 49 48 63 49 82 50 47 51 48 52 62 54
REMARK SMILES IDX 83 55 50 56 34 57 35 58 43 59 36 60 37 61 41 62 44 63 38 64
REMARK SMILES IDX 39 65 42 66 40 67 66 68 67 69 75 70 68 71 69 72 73 73 76 74
REMARK SMILES IDX 70 75 71 76 74 77 72 78 51 79 52 80 60 81 53 82 54 83 58 84
REMARK SMILES IDX 61 85 55 86 56 87 59 88 57 89
REMARK H PARENT 81 42 49 53
REMARK Flexibility Score: inf
ROOT
ATOM      1  O   UNL A   1      32.991  29.703  24.684  1.00  0.00    -0.374 OA
ENDROOT
BRANCH   1   2
ATOM      2  C   UNL A   1      33.411  28.346  24.557  1.00  0.00     0.202 C 
BRANCH   2   3
ATOM      3  C   UNL A   1      33.477  27.774  23.138  1.00  0.00     0.261 C 
BRANCH   3   4
ATOM      4  O   UNL A   1      32.643  26.612  22.975  1.00  0.00    -0.463 OA
BRANCH   4   5
ATOM      5  C   UNL A   1      33.276  25.500  22.515  1.00  0.00     0.309 C 
ATOM      6  O   UNL A   1      33.611  25.321  21.349  1.00  0.00    -0.252 OA
BRANCH   5   7
ATOM      7  C   UNL A   1      33.500  24.449  23.584  1.00  0.00     0.107 C 
BRANCH   7   8
ATOM      8  C   UNL A   1      32.116  24.064  24.131  1.00  0.00     0.042 C 
BRANCH   8   9
ATOM      9  C   UNL A   1      31.921  22.579  24.210  1.00  0.00    -0.031 C 
ATOM     10  C   UNL A   1      32.529  20.202  23.737  1.00  0.00     0.035 C 
ATOM     11  C   UNL A   1      32.768  21.677  23.691  1.00  0.00    -0.035 C 
ENDBRANCH   8   9
ENDBRANCH   7   8
BRANCH   7  12
ATOM     12  C   UNL A   1      34.507  24.853  24.685  1.00  0.00     0.051 C 
BRANCH  12  13
ATOM     13  C   UNL A   1      35.679  23.894  24.783  1.00  0.00    -0.044 A 
ATOM     14  C   UNL A   1      35.772  22.788  23.922  1.00  0.00     0.004 A 
ATOM     15  C   UNL A   1      36.670  24.071  25.756  1.00  0.00     0.043 A 
ATOM     16  C   UNL A   1      36.820  21.870  24.049  1.00  0.00     0.003 A 
ATOM     17  C   UNL A   1      37.698  23.142  25.886  1.00  0.00     0.123 A 
ATOM     18  C   UNL A   1      37.781  22.042  25.042  1.00  0.00     0.039 A 
ATOM     19  F   UNL A   1      38.616  23.306  26.847  1.00  0.00    -0.207 F 
ENDBRANCH  12  13
ENDBRANCH   7  12
ENDBRANCH   5   7
ENDBRANCH   4   5
ENDBRANCH   3   4
ENDBRANCH   2   3
ENDBRANCH   1   2
BRANCH   1  20
ATOM     20  C   UNL A   1      31.789  29.960  25.405  1.00  0.00     0.202 C 
BRANCH  20  21
ATOM     21  C   UNL A   1      31.770  31.215  26.287  1.00  0.00     0.261 C 
BRANCH  21  22
ATOM     22  O   UNL A   1      32.625  31.091  27.440  1.00  0.00    -0.460 OA
BRANCH  22  23
ATOM     23  C   UNL A   1      33.494  32.115  27.609  1.00  0.00     0.338 C 
ATOM     24  O   UNL A   1      33.236  33.313  27.629  1.00  0.00    -0.246 OA
BRANCH  23  25
ATOM     25  C   UNL A   1      34.837  31.609  27.945  1.00  0.00     0.060 A 
ATOM     26  C   UNL A   1      34.966  30.232  28.167  1.00  0.00     0.016 A 
ATOM     27  C   UNL A   1      35.922  32.464  28.145  1.00  0.00     0.016 A 
ATOM     28  C   UNL A   1      36.166  29.710  28.644  1.00  0.00     0.010 A 
ATOM     29  C   UNL A   1      37.126  31.939  28.633  1.00  0.00     0.010 A 
ATOM     30  C   UNL A   1      37.240  30.567  28.922  1.00  0.00    -0.014 A 
BRANCH  30  31
ATOM     31  C   UNL A   1      38.417  30.040  29.656  1.00  0.00     0.031 A 
ATOM     32  C   UNL A   1      38.678  30.515  31.058  1.00  0.00     0.074 A 
ATOM     33  C   UNL A   1      39.210  29.104  29.104  1.00  0.00     0.049 A 
ATOM     34  N   UNL A   1      39.645  30.192  31.879  1.00  0.00    -0.248 NA
ATOM     35  C   UNL A   1      37.717  31.483  31.614  1.00  0.00     0.031 C 
ATOM     36  C   UNL A   1      39.030  28.524  27.776  1.00  0.00     0.029 A 
ATOM     37  N   UNL A   1      40.326  28.475  29.600  1.00  0.00    -0.354 N 
ATOM     38  C   UNL A   1      39.409  30.910  33.043  1.00  0.00     0.074 A 
ATOM     39  C   UNL A   1      38.225  31.711  32.816  1.00  0.00     0.031 C 
ATOM     40  C   UNL A   1      40.002  27.622  27.560  1.00  0.00     0.029 A 
ATOM     41  C   UNL A   1      40.889  27.584  28.722  1.00  0.00     0.049 A 
ATOM     42  H   UNL A   1      40.686  28.648  30.500  1.00  0.00     0.167 HD
ATOM     43  C   UNL A   1      40.110  30.894  34.200  1.00  0.00     0.037 A 
ATOM     44  C   UNL A   1      42.004  26.834  28.838  1.00  0.00     0.037 A 
ATOM     45  C   UNL A   1      41.282  30.094  34.431  1.00  0.00     0.049 A 
ATOM     46  C   UNL A   1      42.812  26.894  30.108  1.00  0.00     0.074 A 
ATOM     47  C   UNL A   1      42.053  30.005  35.577  1.00  0.00     0.029 A 
ATOM     48  N   UNL A   1      41.855  29.245  33.496  1.00  0.00    -0.354 N 
ATOM     49  N   UNL A   1      42.578  27.574  31.204  1.00  0.00    -0.248 NA
ATOM     50  C   UNL A   1      44.040  26.086  30.155  1.00  0.00     0.031 C 
ATOM     51  C   UNL A   1      43.118  29.137  35.321  1.00  0.00     0.029 A 
ATOM     52  C   UNL A   1      42.984  28.648  34.031  1.00  0.00     0.049 A 
ATOM     53  H   UNL A   1      41.511  29.091  32.586  1.00  0.00     0.167 HD
ATOM     54  C   UNL A   1      43.612  27.259  32.077  1.00  0.00     0.074 A 
ATOM     55  C   UNL A   1      44.472  26.320  31.388  1.00  0.00     0.031 C 
ATOM     56  C   UNL A   1      43.826  27.709  33.337  1.00  0.00     0.037 A 
BRANCH  43  57
ATOM     57  C   UNL A   1      39.638  31.779  35.316  1.00  0.00     0.064 A 
ATOM     58  C   UNL A   1      38.654  31.331  36.209  1.00  0.00     0.173 A 
ATOM     59  C   UNL A   1      40.105  33.093  35.454  1.00  0.00     0.173 A 
ATOM     60  F   UNL A   1      38.172  30.083  36.114  1.00  0.00    -0.203 F 
ATOM     61  C   UNL A   1      38.144  32.173  37.192  1.00  0.00     0.198 A 
ATOM     62  C   UNL A   1      39.610  33.926  36.454  1.00  0.00     0.198 A 
ATOM     63  F   UNL A   1      41.055  33.563  34.631  1.00  0.00    -0.203 F 
ATOM     64  F   UNL A   1      37.182  31.734  38.016  1.00  0.00    -0.200 F 
ATOM     65  C   UNL A   1      38.623  33.469  37.316  1.00  0.00     0.200 A 
ATOM     66  F   UNL A   1      40.087  35.172  36.586  1.00  0.00    -0.200 F 
ATOM     67  F   UNL A   1      38.134  34.278  38.267  1.00  0.00    -0.200 F 
ENDBRANCH  43  57
BRANCH  44  68
ATOM     68  C   UNL A   1      42.421  25.960  27.712  1.00  0.00     0.064 A 
ATOM     69  C   UNL A   1      43.401  26.373  26.796  1.00  0.00     0.173 A 
ATOM     70  C   UNL A   1      41.844  24.697  27.524  1.00  0.00     0.173 A 
ATOM     71  F   UNL A   1      43.986  27.572  26.936  1.00  0.00    -0.203 F 
ATOM     72  C   UNL A   1      43.771  25.565  25.724  1.00  0.00     0.198 A 
ATOM     73  C   UNL A   1      42.234  23.878  26.466  1.00  0.00     0.198 A 
ATOM     74  F   UNL A   1      40.924  24.247  28.389  1.00  0.00    -0.203 F 
ATOM     75  F   UNL A   1      44.688  25.996  24.848  1.00  0.00    -0.200 F 
ATOM     76  C   UNL A   1      43.190  24.316  25.563  1.00  0.00     0.200 A 
ATOM     77  F   UNL A   1      41.689  22.662  26.327  1.00  0.00    -0.200 F 
ATOM     78  F   UNL A   1      43.555  23.533  24.538  1.00  0.00    -0.200 F 
ENDBRANCH  44  68
BRANCH  56  79
ATOM     79  C   UNL A   1      45.024  27.184  34.074  1.00  0.00     0.064 A 
ATOM     80  C   UNL A   1      44.919  26.033  34.871  1.00  0.00     0.173 A 
ATOM     81  C   UNL A   1      46.247  27.869  34.063  1.00  0.00     0.173 A 
ATOM     82  F   UNL A   1      43.766  25.349  34.921  1.00  0.00    -0.203 F 
ATOM     83  C   UNL A   1      45.993  25.597  35.642  1.00  0.00     0.198 A 
ATOM     84  C   UNL A   1      47.326  27.415  34.818  1.00  0.00     0.198 A 
ATOM     85  F   UNL A   1      46.399  28.968  33.309  1.00  0.00    -0.203 F 
ATOM     86  F   UNL A   1      45.859  24.516  36.423  1.00  0.00    -0.200 F 
ATOM     87  C   UNL A   1      47.195  26.287  35.614  1.00  0.00     0.200 A 
ATOM     88  F   UNL A   1      48.494  28.070  34.773  1.00  0.00    -0.200 F 
ATOM     89  F   UNL A   1      48.229  25.863  36.354  1.00  0.00    -0.200 F 
ENDBRANCH  56  79
ENDBRANCH  30  31
ENDBRANCH  23  25
ENDBRANCH  22  23
ENDBRANCH  21  22
ENDBRANCH  20  21
ENDBRANCH   1  20
TORSDOF 18
ENDMDL
