MODEL 1
REMARK VINA RESULT:     -11.2      0.000      0.000
REMARK SMILES CC(C)CC(=O)N[C@@H](CC(=O)OCCOCCOC(=O)c1ccc(-c2c3nc(c(-c4c(F)c(F)c(F)c(F)c4F)c4ccc([nH]4)c(-c4c(F)c(F)c(F)c(F)c4F)c4nc(c(-c5c(F)c(F)c(F)c(F)c5F)c5ccc2[nH]5)C=C4)C=C3)cc1)c1ccccc1Cl
REMARK SMILES IDX 14 1 13 2 12 3 10 4 11 5 9 6 8 7 7 8 5 9 6 10 4 12 2 13 1 14
REMARK SMILES IDX 3 15 84 16 85 17 89 18 86 19 88 20 90 21 87 22 15 23 16 24
REMARK SMILES IDX 17 25 18 26 19 27 20 28 21 29 22 30 83 31 23 32 82 33 24 34
REMARK SMILES IDX 25 35 26 36 76 37 27 38 81 39 75 40 77 41 28 42 80 43 74 44
REMARK SMILES IDX 73 45 29 47 61 48 41 49 60 50 42 51 45 52 59 53 78 54 43 55
REMARK SMILES IDX 44 56 58 58 79 59 46 60 30 61 31 62 39 63 32 64 33 65 37 66
REMARK SMILES IDX 40 67 34 68 35 69 38 70 36 71 62 72 63 73 71 74 64 75 65 76
REMARK SMILES IDX 69 77 72 78 66 79 67 80 70 81 68 82 47 83 48 84 56 85 49 86
REMARK SMILES IDX 50 87 54 88 57 89 51 90 52 91 55 92 53 93
REMARK H PARENT 7 11 77 46 45 57
REMARK Flexibility Score: inf
ROOT
ATOM      1  C   UNL A   1      33.501  22.224  23.695  1.00  0.00     0.202 C 
ENDROOT
BRANCH   1   2
ATOM      2  C   UNL A   1      33.311  22.989  22.377  1.00  0.00     0.261 C 
BRANCH   2   3
ATOM      3  O   UNL A   1      33.788  24.342  22.469  1.00  0.00    -0.463 OA
BRANCH   3   4
ATOM      4  C   UNL A   1      32.989  25.255  21.849  1.00  0.00     0.308 C 
ATOM      5  O   UNL A   1      33.291  25.874  20.838  1.00  0.00    -0.252 OA
BRANCH   4   6
ATOM      6  C   UNL A   1      31.620  25.296  22.474  1.00  0.00     0.152 C 
BRANCH   6   7
ATOM      7  C   UNL A   1      31.408  26.243  23.662  1.00  0.00     0.125 C 
BRANCH   7   8
ATOM      8  N   UNL A   1      31.120  25.558  24.916  1.00  0.00    -0.349 N 
ATOM      9  C   UNL A   1      31.840  25.549  26.075  1.00  0.00     0.220 C 
ATOM     10  O   UNL A   1      31.468  24.813  26.989  1.00  0.00    -0.275 OA
ATOM     11  H   UNL A   1      30.290  25.029  24.929  1.00  0.00     0.164 HD
BRANCH   9  12
ATOM     12  C   UNL A   1      33.057  26.445  26.223  1.00  0.00     0.103 C 
BRANCH  12  13
ATOM     13  C   UNL A   1      32.741  27.928  26.481  1.00  0.00    -0.008 C 
ATOM     14  C   UNL A   1      31.618  28.171  27.488  1.00  0.00     0.008 C 
ATOM     15  C   UNL A   1      34.008  28.633  26.973  1.00  0.00     0.008 C 
ENDBRANCH  12  13
ENDBRANCH   9  12
ENDBRANCH   7   8
BRANCH   7  16
ATOM     16  C   UNL A   1      30.437  27.372  23.328  1.00  0.00    -0.006 A 
ATOM     17  C   UNL A   1      29.049  27.219  23.479  1.00  0.00     0.007 A 
ATOM     18  C   UNL A   1      30.906  28.607  22.824  1.00  0.00     0.046 A 
ATOM     19  C   UNL A   1      28.165  28.242  23.114  1.00  0.00     0.000 A 
ATOM     20  C   UNL A   1      30.020  29.625  22.459  1.00  0.00     0.021 A 
ATOM     21  Cl  UNL A   1      32.594  28.940  22.625  1.00  0.00    -0.084 Cl
ATOM     22  C   UNL A   1      28.648  29.439  22.597  1.00  0.00     0.002 A 
ENDBRANCH   7  16
ENDBRANCH   6   7
ENDBRANCH   4   6
ENDBRANCH   3   4
ENDBRANCH   2   3
ENDBRANCH   1   2
BRANCH   1  23
ATOM     23  O   UNL A   1      34.839  22.128  24.191  1.00  0.00    -0.374 OA
BRANCH  23  24
ATOM     24  C   UNL A   1      35.190  20.966  24.947  1.00  0.00     0.202 C 
BRANCH  24  25
ATOM     25  C   UNL A   1      36.688  20.657  25.062  1.00  0.00     0.261 C 
BRANCH  25  26
ATOM     26  O   UNL A   1      37.392  21.709  25.738  1.00  0.00    -0.460 OA
BRANCH  26  27
ATOM     27  C   UNL A   1      38.688  21.452  26.005  1.00  0.00     0.338 C 
ATOM     28  O   UNL A   1      39.291  20.406  25.813  1.00  0.00    -0.246 OA
BRANCH  27  29
ATOM     29  C   UNL A   1      39.310  22.680  26.531  1.00  0.00     0.060 A 
ATOM     30  C   UNL A   1      38.812  23.926  26.130  1.00  0.00     0.016 A 
ATOM     31  C   UNL A   1      40.440  22.601  27.347  1.00  0.00     0.016 A 
ATOM     32  C   UNL A   1      39.460  25.098  26.529  1.00  0.00     0.010 A 
ATOM     33  C   UNL A   1      41.075  23.778  27.762  1.00  0.00     0.010 A 
ATOM     34  C   UNL A   1      40.608  25.032  27.333  1.00  0.00    -0.014 A 
BRANCH  34  35
ATOM     35  C   UNL A   1      41.360  26.272  27.661  1.00  0.00     0.031 A 
ATOM     36  C   UNL A   1      40.682  27.382  28.416  1.00  0.00     0.074 A 
ATOM     37  C   UNL A   1      42.647  26.409  27.295  1.00  0.00     0.049 A 
ATOM     38  N   UNL A   1      41.162  28.540  28.800  1.00  0.00    -0.248 NA
ATOM     39  C   UNL A   1      39.278  27.160  28.793  1.00  0.00     0.031 C 
ATOM     40  C   UNL A   1      43.426  25.410  26.567  1.00  0.00     0.029 A 
ATOM     41  N   UNL A   1      43.522  27.451  27.480  1.00  0.00    -0.354 N 
ATOM     42  C   UNL A   1      40.124  29.181  29.462  1.00  0.00     0.074 A 
ATOM     43  C   UNL A   1      38.978  28.298  29.403  1.00  0.00     0.031 C 
ATOM     44  C   UNL A   1      44.663  25.889  26.360  1.00  0.00     0.029 A 
ATOM     45  C   UNL A   1      44.757  27.237  26.918  1.00  0.00     0.049 A 
ATOM     46  H   UNL A   1      43.288  28.272  27.970  1.00  0.00     0.167 HD
ATOM     47  C   UNL A   1      40.129  30.390  30.074  1.00  0.00     0.037 A 
ATOM     48  C   UNL A   1      45.833  28.045  26.843  1.00  0.00     0.037 A 
ATOM     49  C   UNL A   1      41.264  31.273  30.138  1.00  0.00     0.049 A 
ATOM     50  C   UNL A   1      45.788  29.414  27.467  1.00  0.00     0.074 A 
ATOM     51  C   UNL A   1      41.375  32.489  30.790  1.00  0.00     0.029 A 
ATOM     52  N   UNL A   1      42.479  31.044  29.511  1.00  0.00    -0.354 N 
ATOM     53  N   UNL A   1      44.822  29.985  28.143  1.00  0.00    -0.248 NA
ATOM     54  C   UNL A   1      46.986  30.254  27.312  1.00  0.00     0.031 C 
ATOM     55  C   UNL A   1      42.641  33.020  30.517  1.00  0.00     0.029 A 
ATOM     56  C   UNL A   1      43.332  32.115  29.728  1.00  0.00     0.049 A 
ATOM     57  H   UNL A   1      42.703  30.240  28.989  1.00  0.00     0.167 HD
ATOM     58  C   UNL A   1      45.296  31.239  28.502  1.00  0.00     0.074 A 
ATOM     59  C   UNL A   1      46.644  31.342  27.987  1.00  0.00     0.031 C 
ATOM     60  C   UNL A   1      44.667  32.218  29.198  1.00  0.00     0.037 A 
BRANCH  47  61
ATOM     61  C   UNL A   1      38.855  30.841  30.724  1.00  0.00     0.064 A 
ATOM     62  C   UNL A   1      38.635  30.674  32.099  1.00  0.00     0.173 A 
ATOM     63  C   UNL A   1      37.868  31.495  29.973  1.00  0.00     0.173 A 
ATOM     64  F   UNL A   1      39.548  30.047  32.857  1.00  0.00    -0.203 F 
ATOM     65  C   UNL A   1      37.463  31.130  32.696  1.00  0.00     0.198 A 
ATOM     66  C   UNL A   1      36.706  31.968  30.577  1.00  0.00     0.198 A 
ATOM     67  F   UNL A   1      38.034  31.684  28.656  1.00  0.00    -0.203 F 
ATOM     68  F   UNL A   1      37.259  30.931  34.006  1.00  0.00    -0.200 F 
ATOM     69  C   UNL A   1      36.503  31.782  31.936  1.00  0.00     0.200 A 
ATOM     70  F   UNL A   1      35.785  32.608  29.845  1.00  0.00    -0.200 F 
ATOM     71  F   UNL A   1      35.379  32.227  32.514  1.00  0.00    -0.200 F 
ENDBRANCH  47  61
BRANCH  48  72
ATOM     72  C   UNL A   1      47.052  27.581  26.133  1.00  0.00     0.064 A 
ATOM     73  C   UNL A   1      48.138  27.045  26.837  1.00  0.00     0.173 A 
ATOM     74  C   UNL A   1      47.157  27.675  24.737  1.00  0.00     0.173 A 
ATOM     75  F   UNL A   1      48.094  26.963  28.175  1.00  0.00    -0.203 F 
ATOM     76  C   UNL A   1      49.289  26.627  26.172  1.00  0.00     0.198 A 
ATOM     77  C   UNL A   1      48.298  27.235  24.072  1.00  0.00     0.198 A 
ATOM     78  F   UNL A   1      46.147  28.190  24.022  1.00  0.00    -0.203 F 
ATOM     79  F   UNL A   1      50.328  26.152  26.871  1.00  0.00    -0.200 F 
ATOM     80  C   UNL A   1      49.366  26.716  24.790  1.00  0.00     0.200 A 
ATOM     81  F   UNL A   1      48.367  27.318  22.736  1.00  0.00    -0.200 F 
ATOM     82  F   UNL A   1      50.471  26.311  24.151  1.00  0.00    -0.200 F 
ENDBRANCH  48  72
BRANCH  60  83
ATOM     83  C   UNL A   1      45.425  33.490  29.441  1.00  0.00     0.064 A 
ATOM     84  C   UNL A   1      45.303  34.587  28.576  1.00  0.00     0.173 A 
ATOM     85  C   UNL A   1      46.251  33.628  30.566  1.00  0.00     0.173 A 
ATOM     86  F   UNL A   1      44.539  34.499  27.478  1.00  0.00    -0.203 F 
ATOM     87  C   UNL A   1      45.994  35.772  28.822  1.00  0.00     0.198 A 
ATOM     88  C   UNL A   1      46.920  34.821  30.822  1.00  0.00     0.198 A 
ATOM     89  F   UNL A   1      46.398  32.609  31.426  1.00  0.00    -0.203 F 
ATOM     90  F   UNL A   1      45.891  36.795  27.962  1.00  0.00    -0.200 F 
ATOM     91  C   UNL A   1      46.796  35.890  29.946  1.00  0.00     0.200 A 
ATOM     92  F   UNL A   1      47.687  34.938  31.915  1.00  0.00    -0.200 F 
ATOM     93  F   UNL A   1      47.454  37.033  30.185  1.00  0.00    -0.200 F 
ENDBRANCH  60  83
ENDBRANCH  34  35
ENDBRANCH  27  29
ENDBRANCH  26  27
ENDBRANCH  25  26
ENDBRANCH  24  25
ENDBRANCH  23  24
ENDBRANCH   1  23
TORSDOF 19
ENDMDL
MODEL 2
REMARK VINA RESULT:     -11.1      4.183      9.419
REMARK SMILES CC(C)CC(=O)N[C@@H](CC(=O)OCCOCCOC(=O)c1ccc(-c2c3nc(c(-c4c(F)c(F)c(F)c(F)c4F)c4ccc([nH]4)c(-c4c(F)c(F)c(F)c(F)c4F)c4nc(c(-c5c(F)c(F)c(F)c(F)c5F)c5ccc2[nH]5)C=C4)C=C3)cc1)c1ccccc1Cl
REMARK SMILES IDX 14 1 13 2 12 3 10 4 11 5 9 6 8 7 7 8 5 9 6 10 4 12 2 13 1 14
REMARK SMILES IDX 3 15 84 16 85 17 89 18 86 19 88 20 90 21 87 22 15 23 16 24
REMARK SMILES IDX 17 25 18 26 19 27 20 28 21 29 22 30 83 31 23 32 82 33 24 34
REMARK SMILES IDX 25 35 26 36 76 37 27 38 81 39 75 40 77 41 28 42 80 43 74 44
REMARK SMILES IDX 73 45 29 47 61 48 41 49 60 50 42 51 45 52 59 53 78 54 43 55
REMARK SMILES IDX 44 56 58 58 79 59 46 60 30 61 31 62 39 63 32 64 33 65 37 66
REMARK SMILES IDX 40 67 34 68 35 69 38 70 36 71 62 72 63 73 71 74 64 75 65 76
REMARK SMILES IDX 69 77 72 78 66 79 67 80 70 81 68 82 47 83 48 84 56 85 49 86
REMARK SMILES IDX 50 87 54 88 57 89 51 90 52 91 55 92 53 93
REMARK H PARENT 7 11 77 46 45 57
REMARK Flexibility Score: inf
ROOT
ATOM      1  C   UNL A   1      30.529  27.837  22.960  1.00  0.00     0.202 C 
ENDROOT
BRANCH   1   2
ATOM      2  C   UNL A   1      31.055  26.751  22.011  1.00  0.00     0.261 C 
BRANCH   2   3
ATOM      3  O   UNL A   1      31.860  25.779  22.701  1.00  0.00    -0.463 OA
BRANCH   3   4
ATOM      4  C   UNL A   1      33.009  25.449  22.050  1.00  0.00     0.308 C 
ATOM      5  O   UNL A   1      33.636  26.200  21.314  1.00  0.00    -0.252 OA
BRANCH   4   6
ATOM      6  C   UNL A   1      33.504  24.090  22.470  1.00  0.00     0.152 C 
BRANCH   6   7
ATOM      7  C   UNL A   1      33.636  23.815  23.974  1.00  0.00     0.125 C 
BRANCH   7   8
ATOM      8  N   UNL A   1      33.662  25.021  24.792  1.00  0.00    -0.349 N 
ATOM      9  C   UNL A   1      33.021  25.275  25.969  1.00  0.00     0.220 C 
ATOM     10  O   UNL A   1      33.096  26.408  26.444  1.00  0.00    -0.275 OA
ATOM     11  H   UNL A   1      34.221  25.755  24.447  1.00  0.00     0.164 HD
BRANCH   9  12
ATOM     12  C   UNL A   1      32.252  24.170  26.671  1.00  0.00     0.103 C 
BRANCH  12  13
ATOM     13  C   UNL A   1      30.847  23.899  26.104  1.00  0.00    -0.008 C 
ATOM     14  C   UNL A   1      29.947  23.065  27.015  1.00  0.00     0.008 C 
ATOM     15  C   UNL A   1      30.156  25.234  25.815  1.00  0.00     0.008 C 
ENDBRANCH  12  13
ENDBRANCH   9  12
ENDBRANCH   7   8
BRANCH   7  16
ATOM     16  C   UNL A   1      34.760  22.828  24.278  1.00  0.00    -0.006 A 
ATOM     17  C   UNL A   1      36.109  23.158  24.064  1.00  0.00     0.007 A 
ATOM     18  C   UNL A   1      34.474  21.531  24.761  1.00  0.00     0.046 A 
ATOM     19  C   UNL A   1      37.126  22.224  24.293  1.00  0.00     0.000 A 
ATOM     20  C   UNL A   1      35.493  20.600  24.985  1.00  0.00     0.021 A 
ATOM     21  Cl  UNL A   1      32.859  21.009  25.102  1.00  0.00    -0.084 Cl
ATOM     22  C   UNL A   1      36.819  20.944  24.744  1.00  0.00     0.002 A 
ENDBRANCH   7  16
ENDBRANCH   6   7
ENDBRANCH   4   6
ENDBRANCH   3   4
ENDBRANCH   2   3
ENDBRANCH   1   2
BRANCH   1  23
ATOM     23  O   UNL A   1      31.392  28.220  24.035  1.00  0.00    -0.374 OA
BRANCH  23  24
ATOM     24  C   UNL A   1      31.172  29.493  24.648  1.00  0.00     0.202 C 
BRANCH  24  25
ATOM     25  C   UNL A   1      31.798  29.697  26.033  1.00  0.00     0.261 C 
BRANCH  25  26
ATOM     26  O   UNL A   1      33.057  30.382  25.945  1.00  0.00    -0.460 OA
BRANCH  26  27
ATOM     27  C   UNL A   1      33.294  31.274  26.929  1.00  0.00     0.338 C 
ATOM     28  O   UNL A   1      32.563  32.181  27.299  1.00  0.00    -0.246 OA
BRANCH  27  29
ATOM     29  C   UNL A   1      34.587  30.948  27.554  1.00  0.00     0.060 A 
ATOM     30  C   UNL A   1      34.868  29.619  27.896  1.00  0.00     0.016 A 
ATOM     31  C   UNL A   1      35.484  31.965  27.883  1.00  0.00     0.016 A 
ATOM     32  C   UNL A   1      36.040  29.310  28.590  1.00  0.00     0.010 A 
ATOM     33  C   UNL A   1      36.668  31.650  28.561  1.00  0.00     0.010 A 
ATOM     34  C   UNL A   1      36.941  30.325  28.945  1.00  0.00    -0.014 A 
BRANCH  34  35
ATOM     35  C   UNL A   1      38.128  30.010  29.781  1.00  0.00     0.031 A 
ATOM     36  C   UNL A   1      39.177  29.061  29.268  1.00  0.00     0.074 A 
ATOM     37  C   UNL A   1      38.280  30.572  30.994  1.00  0.00     0.049 A 
ATOM     38  N   UNL A   1      40.284  28.657  29.841  1.00  0.00    -0.248 NA
ATOM     39  C   UNL A   1      38.951  28.492  27.931  1.00  0.00     0.031 C 
ATOM     40  C   UNL A   1      37.346  31.512  31.609  1.00  0.00     0.029 A 
ATOM     41  N   UNL A   1      39.275  30.424  31.929  1.00  0.00    -0.354 N 
ATOM     42  C   UNL A   1      40.885  27.792  28.937  1.00  0.00     0.074 A 
ATOM     43  C   UNL A   1      40.008  27.704  27.789  1.00  0.00     0.031 C 
ATOM     44  C   UNL A   1      37.809  31.853  32.823  1.00  0.00     0.029 A 
ATOM     45  C   UNL A   1      39.057  31.137  33.082  1.00  0.00     0.049 A 
ATOM     46  H   UNL A   1      40.071  29.861  31.786  1.00  0.00     0.167 HD
ATOM     47  C   UNL A   1      42.068  27.140  29.048  1.00  0.00     0.037 A 
ATOM     48  C   UNL A   1      39.770  31.190  34.223  1.00  0.00     0.037 A 
ATOM     49  C   UNL A   1      42.948  27.223  30.184  1.00  0.00     0.049 A 
ATOM     50  C   UNL A   1      41.044  30.398  34.350  1.00  0.00     0.074 A 
ATOM     51  C   UNL A   1      44.194  26.644  30.355  1.00  0.00     0.029 A 
ATOM     52  N   UNL A   1      42.665  27.913  31.352  1.00  0.00    -0.354 N 
ATOM     53  N   UNL A   1      41.634  29.632  33.466  1.00  0.00    -0.248 NA
ATOM     54  C   UNL A   1      41.748  30.475  35.639  1.00  0.00     0.031 C 
ATOM     55  C   UNL A   1      44.645  26.943  31.645  1.00  0.00     0.029 A 
ATOM     56  C   UNL A   1      43.696  27.741  32.263  1.00  0.00     0.049 A 
ATOM     57  H   UNL A   1      41.853  28.445  31.512  1.00  0.00     0.167 HD
ATOM     58  C   UNL A   1      42.778  29.147  34.084  1.00  0.00     0.074 A 
ATOM     59  C   UNL A   1      42.813  29.719  35.412  1.00  0.00     0.031 C 
ATOM     60  C   UNL A   1      43.716  28.301  33.591  1.00  0.00     0.037 A 
BRANCH  47  61
ATOM     61  C   UNL A   1      42.484  26.263  27.904  1.00  0.00     0.064 A 
ATOM     62  C   UNL A   1      41.988  24.958  27.763  1.00  0.00     0.173 A 
ATOM     63  C   UNL A   1      43.344  26.753  26.911  1.00  0.00     0.173 A 
ATOM     64  F   UNL A   1      41.168  24.444  28.692  1.00  0.00    -0.203 F 
ATOM     65  C   UNL A   1      42.355  24.169  26.677  1.00  0.00     0.198 A 
ATOM     66  C   UNL A   1      43.691  25.968  25.815  1.00  0.00     0.198 A 
ATOM     67  F   UNL A   1      43.839  27.997  26.998  1.00  0.00    -0.203 F 
ATOM     68  F   UNL A   1      41.896  22.913  26.578  1.00  0.00    -0.200 F 
ATOM     69  C   UNL A   1      43.200  24.676  25.701  1.00  0.00     0.200 A 
ATOM     70  F   UNL A   1      44.499  26.462  24.868  1.00  0.00    -0.200 F 
ATOM     71  F   UNL A   1      43.546  23.917  24.653  1.00  0.00    -0.200 F 
ENDBRANCH  47  61
BRANCH  48  72
ATOM     72  C   UNL A   1      39.287  32.023  35.354  1.00  0.00     0.064 A 
ATOM     73  C   UNL A   1      38.497  31.472  36.371  1.00  0.00     0.173 A 
ATOM     74  C   UNL A   1      39.599  33.388  35.434  1.00  0.00     0.173 A 
ATOM     75  F   UNL A   1      38.149  30.177  36.321  1.00  0.00    -0.203 F 
ATOM     76  C   UNL A   1      38.028  32.258  37.422  1.00  0.00     0.198 A 
ATOM     77  C   UNL A   1      39.150  34.167  36.497  1.00  0.00     0.198 A 
ATOM     78  F   UNL A   1      40.345  33.962  34.479  1.00  0.00    -0.203 F 
ATOM     79  F   UNL A   1      37.244  31.715  38.363  1.00  0.00    -0.200 F 
ATOM     80  C   UNL A   1      38.361  33.602  37.488  1.00  0.00     0.200 A 
ATOM     81  F   UNL A   1      39.477  35.465  36.560  1.00  0.00    -0.200 F 
ATOM     82  F   UNL A   1      37.913  34.357  38.500  1.00  0.00    -0.200 F 
ENDBRANCH  48  72
BRANCH  60  83
ATOM     83  C   UNL A   1      44.860  27.937  34.491  1.00  0.00     0.064 A 
ATOM     84  C   UNL A   1      46.014  28.731  34.560  1.00  0.00     0.173 A 
ATOM     85  C   UNL A   1      44.788  26.808  35.320  1.00  0.00     0.173 A 
ATOM     86  F   UNL A   1      46.137  29.812  33.776  1.00  0.00    -0.203 F 
ATOM     87  C   UNL A   1      47.061  28.398  35.416  1.00  0.00     0.198 A 
ATOM     88  C   UNL A   1      45.827  26.491  36.191  1.00  0.00     0.198 A 
ATOM     89  F   UNL A   1      43.705  26.018  35.294  1.00  0.00    -0.203 F 
ATOM     90  F   UNL A   1      48.170  29.151  35.439  1.00  0.00    -0.200 F 
ATOM     91  C   UNL A   1      46.965  27.284  36.234  1.00  0.00     0.200 A 
ATOM     92  F   UNL A   1      45.728  25.419  36.990  1.00  0.00    -0.200 F 
ATOM     93  F   UNL A   1      47.971  26.968  37.062  1.00  0.00    -0.200 F 
ENDBRANCH  60  83
ENDBRANCH  34  35
ENDBRANCH  27  29
ENDBRANCH  26  27
ENDBRANCH  25  26
ENDBRANCH  24  25
ENDBRANCH  23  24
ENDBRANCH   1  23
TORSDOF 19
ENDMDL
MODEL 3
REMARK VINA RESULT:     -11.0      1.243      7.572
REMARK SMILES CC(C)CC(=O)N[C@@H](CC(=O)OCCOCCOC(=O)c1ccc(-c2c3nc(c(-c4c(F)c(F)c(F)c(F)c4F)c4ccc([nH]4)c(-c4c(F)c(F)c(F)c(F)c4F)c4nc(c(-c5c(F)c(F)c(F)c(F)c5F)c5ccc2[nH]5)C=C4)C=C3)cc1)c1ccccc1Cl
REMARK SMILES IDX 14 1 13 2 12 3 10 4 11 5 9 6 8 7 7 8 5 9 6 10 4 12 2 13 1 14
REMARK SMILES IDX 3 15 84 16 85 17 89 18 86 19 88 20 90 21 87 22 15 23 16 24
REMARK SMILES IDX 17 25 18 26 19 27 20 28 21 29 22 30 83 31 23 32 82 33 24 34
REMARK SMILES IDX 25 35 26 36 76 37 27 38 81 39 75 40 77 41 28 42 80 43 74 44
REMARK SMILES IDX 73 45 29 47 61 48 41 49 60 50 42 51 45 52 59 53 78 54 43 55
REMARK SMILES IDX 44 56 58 58 79 59 46 60 30 61 31 62 39 63 32 64 33 65 37 66
REMARK SMILES IDX 40 67 34 68 35 69 38 70 36 71 62 72 63 73 71 74 64 75 65 76
REMARK SMILES IDX 69 77 72 78 66 79 67 80 70 81 68 82 47 83 48 84 56 85 49 86
REMARK SMILES IDX 50 87 54 88 57 89 51 90 52 91 55 92 53 93
REMARK H PARENT 7 11 77 46 45 57
REMARK Flexibility Score: inf
ROOT
ATOM      1  C   UNL A   1      36.835  21.761  25.073  1.00  0.00     0.202 C 
ENDROOT
BRANCH   1   2
ATOM      2  C   UNL A   1      35.737  22.467  24.265  1.00  0.00     0.261 C 
BRANCH   2   3
ATOM      3  O   UNL A   1      34.452  22.365  24.903  1.00  0.00    -0.463 OA
BRANCH   3   4
ATOM      4  C   UNL A   1      34.287  23.212  25.956  1.00  0.00     0.308 C 
ATOM      5  O   UNL A   1      34.010  22.864  27.096  1.00  0.00    -0.252 OA
BRANCH   4   6
ATOM      6  C   UNL A   1      34.644  24.626  25.580  1.00  0.00     0.152 C 
BRANCH   6   7
ATOM      7  C   UNL A   1      33.568  25.468  24.880  1.00  0.00     0.125 C 
BRANCH   7   8
ATOM      8  N   UNL A   1      33.886  25.796  23.496  1.00  0.00    -0.349 N 
ATOM      9  C   UNL A   1      33.041  26.092  22.467  1.00  0.00     0.220 C 
ATOM     10  O   UNL A   1      33.517  26.237  21.342  1.00  0.00    -0.275 OA
ATOM     11  H   UNL A   1      34.845  25.806  23.273  1.00  0.00     0.164 HD
BRANCH   9  12
ATOM     12  C   UNL A   1      31.553  26.253  22.726  1.00  0.00     0.103 C 
BRANCH  12  13
ATOM     13  C   UNL A   1      30.995  27.658  22.439  1.00  0.00    -0.008 C 
ATOM     14  C   UNL A   1      29.571  27.888  22.942  1.00  0.00     0.008 C 
ATOM     15  C   UNL A   1      31.918  28.704  23.071  1.00  0.00     0.008 C 
ENDBRANCH  12  13
ENDBRANCH   9  12
ENDBRANCH   7   8
BRANCH   7  16
ATOM     16  C   UNL A   1      33.141  26.666  25.725  1.00  0.00    -0.006 A 
ATOM     17  C   UNL A   1      34.005  27.747  25.963  1.00  0.00     0.007 A 
ATOM     18  C   UNL A   1      31.860  26.710  26.323  1.00  0.00     0.046 A 
ATOM     19  C   UNL A   1      33.621  28.812  26.786  1.00  0.00     0.000 A 
ATOM     20  C   UNL A   1      31.482  27.775  27.147  1.00  0.00     0.021 A 
ATOM     21  Cl  UNL A   1      30.685  25.461  26.081  1.00  0.00    -0.084 Cl
ATOM     22  C   UNL A   1      32.365  28.822  27.385  1.00  0.00     0.002 A 
ENDBRANCH   7  16
ENDBRANCH   6   7
ENDBRANCH   4   6
ENDBRANCH   3   4
ENDBRANCH   2   3
ENDBRANCH   1   2
BRANCH   1  23
ATOM     23  O   UNL A   1      36.762  20.335  25.143  1.00  0.00    -0.374 OA
BRANCH  23  24
ATOM     24  C   UNL A   1      37.896  19.584  24.701  1.00  0.00     0.202 C 
BRANCH  24  25
ATOM     25  C   UNL A   1      39.010  19.366  25.732  1.00  0.00     0.261 C 
BRANCH  25  26
ATOM     26  O   UNL A   1      39.807  20.547  25.903  1.00  0.00    -0.460 OA
BRANCH  26  27
ATOM     27  C   UNL A   1      40.561  20.574  27.021  1.00  0.00     0.338 C 
ATOM     28  O   UNL A   1      40.982  19.616  27.653  1.00  0.00    -0.246 OA
BRANCH  27  29
ATOM     29  C   UNL A   1      40.860  21.978  27.351  1.00  0.00     0.060 A 
ATOM     30  C   UNL A   1      40.301  22.999  26.572  1.00  0.00     0.016 A 
ATOM     31  C   UNL A   1      41.763  22.283  28.370  1.00  0.00     0.016 A 
ATOM     32  C   UNL A   1      40.663  24.329  26.801  1.00  0.00     0.010 A 
ATOM     33  C   UNL A   1      42.109  23.619  28.610  1.00  0.00     0.010 A 
ATOM     34  C   UNL A   1      41.584  24.648  27.809  1.00  0.00    -0.014 A 
BRANCH  34  35
ATOM     35  C   UNL A   1      42.054  26.048  27.974  1.00  0.00     0.031 A 
ATOM     36  C   UNL A   1      43.396  26.458  27.432  1.00  0.00     0.074 A 
ATOM     37  C   UNL A   1      41.286  26.959  28.598  1.00  0.00     0.049 A 
ATOM     38  N   UNL A   1      43.987  27.628  27.471  1.00  0.00    -0.248 NA
ATOM     39  C   UNL A   1      44.178  25.413  26.752  1.00  0.00     0.031 C 
ATOM     40  C   UNL A   1      39.964  26.699  29.163  1.00  0.00     0.029 A 
ATOM     41  N   UNL A   1      41.514  28.286  28.867  1.00  0.00    -0.354 N 
ATOM     42  C   UNL A   1      45.203  27.460  26.823  1.00  0.00     0.074 A 
ATOM     43  C   UNL A   1      45.282  26.071  26.426  1.00  0.00     0.031 C 
ATOM     44  C   UNL A   1      39.499  27.830  29.720  1.00  0.00     0.029 A 
ATOM     45  C   UNL A   1      40.499  28.886  29.573  1.00  0.00     0.049 A 
ATOM     46  H   UNL A   1      42.326  28.763  28.581  1.00  0.00     0.167 HD
ATOM     47  C   UNL A   1      46.161  28.384  26.571  1.00  0.00     0.037 A 
ATOM     48  C   UNL A   1      40.398  30.137  30.062  1.00  0.00     0.037 A 
ATOM     49  C   UNL A   1      46.090  29.769  26.960  1.00  0.00     0.049 A 
ATOM     50  C   UNL A   1      41.511  31.125  29.833  1.00  0.00     0.074 A 
ATOM     51  C   UNL A   1      46.988  30.788  26.692  1.00  0.00     0.029 A 
ATOM     52  N   UNL A   1      45.071  30.324  27.719  1.00  0.00    -0.354 N 
ATOM     53  N   UNL A   1      42.628  30.973  29.166  1.00  0.00    -0.248 NA
ATOM     54  C   UNL A   1      41.347  32.459  30.430  1.00  0.00     0.031 C 
ATOM     55  C   UNL A   1      46.538  31.949  27.330  1.00  0.00     0.029 A 
ATOM     56  C   UNL A   1      45.339  31.662  27.962  1.00  0.00     0.049 A 
ATOM     57  H   UNL A   1      44.276  29.839  28.038  1.00  0.00     0.167 HD
ATOM     58  C   UNL A   1      43.293  32.189  29.253  1.00  0.00     0.074 A 
ATOM     59  C   UNL A   1      42.447  33.077  30.021  1.00  0.00     0.031 C 
ATOM     60  C   UNL A   1      44.499  32.536  28.741  1.00  0.00     0.037 A 
BRANCH  47  61
ATOM     61  C   UNL A   1      47.387  27.927  25.838  1.00  0.00     0.064 A 
ATOM     62  C   UNL A   1      48.549  27.543  26.523  1.00  0.00     0.173 A 
ATOM     63  C   UNL A   1      47.380  27.819  24.440  1.00  0.00     0.173 A 
ATOM     64  F   UNL A   1      48.606  27.636  27.860  1.00  0.00    -0.203 F 
ATOM     65  C   UNL A   1      49.668  27.086  25.832  1.00  0.00     0.198 A 
ATOM     66  C   UNL A   1      48.492  27.341  23.754  1.00  0.00     0.198 A 
ATOM     67  F   UNL A   1      46.289  28.168  23.741  1.00  0.00    -0.203 F 
ATOM     68  F   UNL A   1      50.780  26.755  26.503  1.00  0.00    -0.200 F 
ATOM     69  C   UNL A   1      49.636  26.979  24.449  1.00  0.00     0.200 A 
ATOM     70  F   UNL A   1      48.457  27.228  22.419  1.00  0.00    -0.200 F 
ATOM     71  F   UNL A   1      50.711  26.531  23.787  1.00  0.00    -0.200 F 
ENDBRANCH  47  61
BRANCH  48  72
ATOM     72  C   UNL A   1      39.193  30.528  30.837  1.00  0.00     0.064 A 
ATOM     73  C   UNL A   1      39.117  30.302  32.217  1.00  0.00     0.173 A 
ATOM     74  C   UNL A   1      38.091  31.128  30.209  1.00  0.00     0.173 A 
ATOM     75  F   UNL A   1      40.134  29.704  32.855  1.00  0.00    -0.203 F 
ATOM     76  C   UNL A   1      37.978  30.652  32.940  1.00  0.00     0.198 A 
ATOM     77  C   UNL A   1      36.964  31.499  30.936  1.00  0.00     0.198 A 
ATOM     78  F   UNL A   1      38.115  31.356  28.888  1.00  0.00    -0.203 F 
ATOM     79  F   UNL A   1      37.914  30.391  34.253  1.00  0.00    -0.200 F 
ATOM     80  C   UNL A   1      36.906  31.257  32.301  1.00  0.00     0.200 A 
ATOM     81  F   UNL A   1      35.932  32.087  30.316  1.00  0.00    -0.200 F 
ATOM     82  F   UNL A   1      35.813  31.596  32.997  1.00  0.00    -0.200 F 
ENDBRANCH  48  72
BRANCH  60  83
ATOM     83  C   UNL A   1      44.982  33.934  28.996  1.00  0.00     0.064 A 
ATOM     84  C   UNL A   1      44.678  34.981  28.115  1.00  0.00     0.173 A 
ATOM     85  C   UNL A   1      45.722  34.237  30.148  1.00  0.00     0.173 A 
ATOM     86  F   UNL A   1      43.987  34.739  26.991  1.00  0.00    -0.203 F 
ATOM     87  C   UNL A   1      45.111  36.280  28.371  1.00  0.00     0.198 A 
ATOM     88  C   UNL A   1      46.132  35.541  30.413  1.00  0.00     0.198 A 
ATOM     89  F   UNL A   1      46.035  33.271  31.024  1.00  0.00    -0.203 F 
ATOM     90  F   UNL A   1      44.840  37.259  27.496  1.00  0.00    -0.200 F 
ATOM     91  C   UNL A   1      45.831  36.560  29.522  1.00  0.00     0.200 A 
ATOM     92  F   UNL A   1      46.820  35.812  31.532  1.00  0.00    -0.200 F 
ATOM     93  F   UNL A   1      46.242  37.812  29.770  1.00  0.00    -0.200 F 
ENDBRANCH  60  83
ENDBRANCH  34  35
ENDBRANCH  27  29
ENDBRANCH  26  27
ENDBRANCH  25  26
ENDBRANCH  24  25
ENDBRANCH  23  24
ENDBRANCH   1  23
TORSDOF 19
ENDMDL
