MODEL 1
REMARK VINA RESULT:     -12.0      0.000      0.000
REMARK SMILES Cc1cc(OC(F)(F)F)cc2c1O[C@H](C(F)(F)F)C(C(=O)OCCOCCOC(=O)c1ccc(-c3c4nc(c(-c5c(F)c(F)c(F)c(F)c5F)c5ccc([nH]5)c(-c5c(F)c(F)c(F)c(F)c5F)c5nc(c(-c6c(F)c(F)c(F)c(F)c6F)c6ccc3[nH]6)C=C5)C=C4)cc1)=C2
REMARK SMILES IDX 25 1 24 2 23 3 22 4 20 5 21 6 19 7 1 8 2 9 3 10 12 11 4 12
REMARK SMILES IDX 11 13 13 14 10 15 94 16 14 17 5 18 6 19 7 20 8 21 9 22 15 23
REMARK SMILES IDX 16 24 17 25 18 26 26 27 27 28 28 29 29 30 30 31 31 32 32 33
REMARK SMILES IDX 93 34 33 35 92 36 34 37 35 38 36 39 86 40 37 41 91 42 85 43
REMARK SMILES IDX 87 44 38 45 90 46 84 47 83 48 39 50 71 51 51 52 70 53 52 54
REMARK SMILES IDX 55 55 69 56 88 57 53 58 54 59 68 61 89 62 56 63 40 64 41 65
REMARK SMILES IDX 49 66 42 67 43 68 47 69 50 70 44 71 45 72 48 73 46 74 72 75
REMARK SMILES IDX 73 76 81 77 74 78 75 79 79 80 82 81 76 82 77 83 80 84 78 85
REMARK SMILES IDX 57 86 58 87 66 88 59 89 60 90 64 91 67 92 61 93 62 94 65 95
REMARK SMILES IDX 63 96
REMARK H PARENT 87 49 55 60
REMARK Flexibility Score: inf
ROOT
ATOM      1  O   UNL A   1      32.111  30.644  27.029  1.00  0.00    -0.374 OA
ENDROOT
BRANCH   1   2
ATOM      2  C   UNL A   1      32.985  29.932  26.158  1.00  0.00     0.202 C 
BRANCH   2   3
ATOM      3  C   UNL A   1      33.427  28.545  26.630  1.00  0.00     0.261 C 
BRANCH   3   4
ATOM      4  O   UNL A   1      32.948  27.511  25.755  1.00  0.00    -0.460 OA
BRANCH   4   5
ATOM      5  C   UNL A   1      31.969  26.740  26.281  1.00  0.00     0.338 C 
ATOM      6  O   UNL A   1      30.966  27.126  26.863  1.00  0.00    -0.246 OA
BRANCH   5   7
ATOM      7  C   UNL A   1      32.217  25.322  25.962  1.00  0.00     0.087 C 
ATOM      8  C   UNL A   1      32.286  20.599  23.930  1.00  0.00     0.048 C 
ATOM      9  C   UNL A   1      33.234  21.472  24.705  1.00  0.00    -0.005 A 
ATOM     10  C   UNL A   1      34.540  21.004  24.947  1.00  0.00     0.054 A 
ATOM     11  C   UNL A   1      32.848  22.725  25.205  1.00  0.00     0.131 A 
ATOM     12  C   UNL A   1      35.458  21.777  25.660  1.00  0.00     0.130 A 
ATOM     13  C   UNL A   1      33.774  23.513  25.892  1.00  0.00     0.021 A 
ATOM     14  O   UNL A   1      31.554  23.118  25.001  1.00  0.00    -0.475 OA
ATOM     15  C   UNL A   1      35.063  23.029  26.134  1.00  0.00     0.058 A 
ATOM     16  C   UNL A   1      33.427  24.860  26.298  1.00  0.00     0.027 C 
ATOM     17  C   UNL A   1      31.169  24.495  25.275  1.00  0.00     0.316 C 
BRANCH  12  18
ATOM     18  O   UNL A   1      36.747  21.446  25.960  1.00  0.00    -0.406 OA
BRANCH  18  19
ATOM     19  C   UNL A   1      37.661  21.302  24.887  1.00  0.00     0.573 C 
ATOM     20  F   UNL A   1      38.907  21.662  25.260  1.00  0.00    -0.132 F 
ATOM     21  F   UNL A   1      37.675  20.034  24.424  1.00  0.00    -0.132 F 
ATOM     22  F   UNL A   1      37.273  22.114  23.879  1.00  0.00    -0.132 F 
ENDBRANCH  18  19
ENDBRANCH  12  18
BRANCH  17  23
ATOM     23  C   UNL A   1      30.678  25.125  23.963  1.00  0.00     0.430 C 
ATOM     24  F   UNL A   1      29.637  25.964  24.183  1.00  0.00    -0.167 F 
ATOM     25  F   UNL A   1      31.644  25.862  23.366  1.00  0.00    -0.167 F 
ATOM     26  F   UNL A   1      30.269  24.195  23.072  1.00  0.00    -0.167 F 
ENDBRANCH  17  23
ENDBRANCH   5   7
ENDBRANCH   4   5
ENDBRANCH   3   4
ENDBRANCH   2   3
ENDBRANCH   1   2
BRANCH   1  27
ATOM     27  C   UNL A   1      31.390  31.752  26.485  1.00  0.00     0.202 C 
BRANCH  27  28
ATOM     28  C   UNL A   1      31.986  33.144  26.729  1.00  0.00     0.261 C 
BRANCH  28  29
ATOM     29  O   UNL A   1      32.500  33.272  28.070  1.00  0.00    -0.460 OA
BRANCH  29  30
ATOM     30  C   UNL A   1      33.588  34.066  28.193  1.00  0.00     0.338 C 
ATOM     31  O   UNL A   1      33.621  35.288  28.230  1.00  0.00    -0.246 OA
BRANCH  30  32
ATOM     32  C   UNL A   1      34.781  33.245  28.450  1.00  0.00     0.060 A 
ATOM     33  C   UNL A   1      34.591  31.936  28.910  1.00  0.00     0.016 A 
ATOM     34  C   UNL A   1      36.060  33.796  28.368  1.00  0.00     0.016 A 
ATOM     35  C   UNL A   1      35.683  31.183  29.333  1.00  0.00     0.010 A 
ATOM     36  C   UNL A   1      37.153  33.046  28.812  1.00  0.00     0.010 A 
ATOM     37  C   UNL A   1      36.963  31.753  29.332  1.00  0.00    -0.014 A 
BRANCH  37  38
ATOM     38  C   UNL A   1      38.066  31.064  30.042  1.00  0.00     0.031 A 
ATOM     39  C   UNL A   1      38.316  31.403  31.485  1.00  0.00     0.074 A 
ATOM     40  C   UNL A   1      38.804  30.124  29.426  1.00  0.00     0.049 A 
ATOM     41  N   UNL A   1      39.233  30.945  32.299  1.00  0.00    -0.248 NA
ATOM     42  C   UNL A   1      37.408  32.388  32.097  1.00  0.00     0.031 C 
ATOM     43  C   UNL A   1      38.614  29.670  28.050  1.00  0.00     0.029 A 
ATOM     44  N   UNL A   1      39.863  29.382  29.885  1.00  0.00    -0.354 N 
ATOM     45  C   UNL A   1      39.002  31.571  33.516  1.00  0.00     0.074 A 
ATOM     46  C   UNL A   1      37.882  32.468  33.331  1.00  0.00     0.031 C 
ATOM     47  C   UNL A   1      39.535  28.731  27.773  1.00  0.00     0.029 A 
ATOM     48  C   UNL A   1      40.394  28.539  28.941  1.00  0.00     0.049 A 
ATOM     49  H   UNL A   1      40.209  29.448  30.804  1.00  0.00     0.167 HD
ATOM     50  C   UNL A   1      39.658  31.401  34.687  1.00  0.00     0.037 A 
ATOM     51  C   UNL A   1      41.462  27.722  29.012  1.00  0.00     0.037 A 
ATOM     52  C   UNL A   1      40.780  30.520  34.868  1.00  0.00     0.049 A 
ATOM     53  C   UNL A   1      42.244  27.637  30.298  1.00  0.00     0.074 A 
ATOM     54  C   UNL A   1      41.517  30.286  36.015  1.00  0.00     0.029 A 
ATOM     55  N   UNL A   1      41.328  29.730  33.869  1.00  0.00    -0.354 N 
ATOM     56  N   UNL A   1      42.014  28.225  31.447  1.00  0.00    -0.248 NA
ATOM     57  C   UNL A   1      43.438  26.778  30.295  1.00  0.00     0.031 C 
ATOM     58  C   UNL A   1      42.538  29.386  35.701  1.00  0.00     0.029 A 
ATOM     59  C   UNL A   1      42.410  29.024  34.369  1.00  0.00     0.049 A 
ATOM     60  H   UNL A   1      40.998  29.677  32.943  1.00  0.00     0.167 HD
ATOM     61  C   UNL A   1      43.014  27.788  32.308  1.00  0.00     0.074 A 
ATOM     62  C   UNL A   1      43.847  26.877  31.552  1.00  0.00     0.031 C 
ATOM     63  C   UNL A   1      43.221  28.113  33.607  1.00  0.00     0.037 A 
BRANCH  50  64
ATOM     64  C   UNL A   1      39.188  32.187  35.873  1.00  0.00     0.064 A 
ATOM     65  C   UNL A   1      38.296  31.635  36.804  1.00  0.00     0.173 A 
ATOM     66  C   UNL A   1      39.693  33.470  36.124  1.00  0.00     0.173 A 
ATOM     67  F   UNL A   1      37.776  30.415  36.599  1.00  0.00    -0.203 F 
ATOM     68  C   UNL A   1      37.925  32.342  37.944  1.00  0.00     0.198 A 
ATOM     69  C   UNL A   1      39.337  34.166  37.276  1.00  0.00     0.198 A 
ATOM     70  F   UNL A   1      40.551  34.040  35.263  1.00  0.00    -0.203 F 
ATOM     71  F   UNL A   1      37.057  31.804  38.811  1.00  0.00    -0.200 F 
ATOM     72  C   UNL A   1      38.454  33.602  38.184  1.00  0.00     0.200 A 
ATOM     73  F   UNL A   1      39.856  35.379  37.512  1.00  0.00    -0.200 F 
ATOM     74  F   UNL A   1      38.110  34.275  39.292  1.00  0.00    -0.200 F 
ENDBRANCH  50  64
BRANCH  51  75
ATOM     75  C   UNL A   1      41.866  26.918  27.829  1.00  0.00     0.064 A 
ATOM     76  C   UNL A   1      41.345  25.635  27.617  1.00  0.00     0.173 A 
ATOM     77  C   UNL A   1      42.798  27.406  26.902  1.00  0.00     0.173 A 
ATOM     78  F   UNL A   1      40.471  25.115  28.492  1.00  0.00    -0.203 F 
ATOM     79  C   UNL A   1      41.752  24.864  26.531  1.00  0.00     0.198 A 
ATOM     80  C   UNL A   1      43.186  26.644  25.801  1.00  0.00     0.198 A 
ATOM     81  F   UNL A   1      43.332  28.626  27.064  1.00  0.00    -0.203 F 
ATOM     82  F   UNL A   1      41.272  23.623  26.376  1.00  0.00    -0.200 F 
ATOM     83  C   UNL A   1      42.667  25.371  25.621  1.00  0.00     0.200 A 
ATOM     84  F   UNL A   1      44.065  27.140  24.921  1.00  0.00    -0.200 F 
ATOM     85  F   UNL A   1      43.060  24.628  24.576  1.00  0.00    -0.200 F 
ENDBRANCH  51  75
BRANCH  63  86
ATOM     86  C   UNL A   1      44.379  27.469  34.311  1.00  0.00     0.064 A 
ATOM     87  C   UNL A   1      45.636  28.086  34.364  1.00  0.00     0.173 A 
ATOM     88  C   UNL A   1      44.205  26.264  35.008  1.00  0.00     0.173 A 
ATOM     89  F   UNL A   1      45.855  29.233  33.704  1.00  0.00    -0.203 F 
ATOM     90  C   UNL A   1      46.683  27.514  35.084  1.00  0.00     0.198 A 
ATOM     91  C   UNL A   1      45.245  25.709  35.749  1.00  0.00     0.198 A 
ATOM     92  F   UNL A   1      43.017  25.640  34.994  1.00  0.00    -0.203 F 
ATOM     93  F   UNL A   1      47.884  28.106  35.100  1.00  0.00    -0.200 F 
ATOM     94  C   UNL A   1      46.483  26.332  35.783  1.00  0.00     0.200 A 
ATOM     95  F   UNL A   1      45.045  24.576  36.436  1.00  0.00    -0.200 F 
ATOM     96  F   UNL A   1      47.486  25.793  36.490  1.00  0.00    -0.200 F 
ENDBRANCH  63  86
ENDBRANCH  37  38
ENDBRANCH  30  32
ENDBRANCH  29  30
ENDBRANCH  28  29
ENDBRANCH  27  28
ENDBRANCH   1  27
TORSDOF 17
ENDMDL
MODEL 2
REMARK VINA RESULT:     -11.9      2.279      8.478
REMARK SMILES Cc1cc(OC(F)(F)F)cc2c1O[C@H](C(F)(F)F)C(C(=O)OCCOCCOC(=O)c1ccc(-c3c4nc(c(-c5c(F)c(F)c(F)c(F)c5F)c5ccc([nH]5)c(-c5c(F)c(F)c(F)c(F)c5F)c5nc(c(-c6c(F)c(F)c(F)c(F)c6F)c6ccc3[nH]6)C=C5)C=C4)cc1)=C2
REMARK SMILES IDX 25 1 24 2 23 3 22 4 20 5 21 6 19 7 1 8 2 9 3 10 12 11 4 12
REMARK SMILES IDX 11 13 13 14 10 15 94 16 14 17 5 18 6 19 7 20 8 21 9 22 15 23
REMARK SMILES IDX 16 24 17 25 18 26 26 27 27 28 28 29 29 30 30 31 31 32 32 33
REMARK SMILES IDX 93 34 33 35 92 36 34 37 35 38 36 39 86 40 37 41 91 42 85 43
REMARK SMILES IDX 87 44 38 45 90 46 84 47 83 48 39 50 71 51 51 52 70 53 52 54
REMARK SMILES IDX 55 55 69 56 88 57 53 58 54 59 68 61 89 62 56 63 40 64 41 65
REMARK SMILES IDX 49 66 42 67 43 68 47 69 50 70 44 71 45 72 48 73 46 74 72 75
REMARK SMILES IDX 73 76 81 77 74 78 75 79 79 80 82 81 76 82 77 83 80 84 78 85
REMARK SMILES IDX 57 86 58 87 66 88 59 89 60 90 64 91 67 92 61 93 62 94 65 95
REMARK SMILES IDX 63 96
REMARK H PARENT 87 49 55 60
REMARK Flexibility Score: inf
ROOT
ATOM      1  O   UNL A   1      32.539  28.800  26.121  1.00  0.00    -0.374 OA
ENDROOT
BRANCH   1   2
ATOM      2  C   UNL A   1      33.773  28.375  25.550  1.00  0.00     0.202 C 
BRANCH   2   3
ATOM      3  C   UNL A   1      33.869  26.895  25.172  1.00  0.00     0.261 C 
BRANCH   3   4
ATOM      4  O   UNL A   1      33.496  26.673  23.803  1.00  0.00    -0.460 OA
BRANCH   4   5
ATOM      5  C   UNL A   1      32.571  25.702  23.624  1.00  0.00     0.338 C 
ATOM      6  O   UNL A   1      32.757  24.496  23.682  1.00  0.00    -0.246 OA
BRANCH   5   7
ATOM      7  C   UNL A   1      31.236  26.302  23.448  1.00  0.00     0.087 C 
ATOM      8  C   UNL A   1      26.355  27.849  23.923  1.00  0.00     0.048 C 
ATOM      9  C   UNL A   1      27.608  28.359  23.265  1.00  0.00    -0.005 A 
ATOM     10  C   UNL A   1      27.574  29.617  22.631  1.00  0.00     0.054 A 
ATOM     11  C   UNL A   1      28.796  27.614  23.252  1.00  0.00     0.131 A 
ATOM     12  C   UNL A   1      28.710  30.136  22.008  1.00  0.00     0.130 A 
ATOM     13  C   UNL A   1      29.942  28.145  22.655  1.00  0.00     0.021 A 
ATOM     14  O   UNL A   1      28.771  26.372  23.825  1.00  0.00    -0.475 OA
ATOM     15  C   UNL A   1      29.888  29.390  22.021  1.00  0.00     0.058 A 
ATOM     16  C   UNL A   1      31.206  27.442  22.749  1.00  0.00     0.027 C 
ATOM     17  C   UNL A   1      30.021  25.663  24.058  1.00  0.00     0.316 C 
BRANCH  12  18
ATOM     18  O   UNL A   1      28.814  31.335  21.366  1.00  0.00    -0.406 OA
BRANCH  18  19
ATOM     19  C   UNL A   1      28.392  32.497  22.057  1.00  0.00     0.573 C 
ATOM     20  F   UNL A   1      27.579  32.179  23.087  1.00  0.00    -0.132 F 
ATOM     21  F   UNL A   1      29.446  33.204  22.515  1.00  0.00    -0.132 F 
ATOM     22  F   UNL A   1      27.698  33.280  21.202  1.00  0.00    -0.132 F 
ENDBRANCH  18  19
ENDBRANCH  12  18
BRANCH  17  23
ATOM     23  C   UNL A   1      30.165  25.431  25.570  1.00  0.00     0.430 C 
ATOM     24  F   UNL A   1      30.919  26.400  26.144  1.00  0.00    -0.167 F 
ATOM     25  F   UNL A   1      28.966  25.457  26.199  1.00  0.00    -0.167 F 
ATOM     26  F   UNL A   1      30.745  24.244  25.850  1.00  0.00    -0.167 F 
ENDBRANCH  17  23
ENDBRANCH   5   7
ENDBRANCH   4   5
ENDBRANCH   3   4
ENDBRANCH   2   3
ENDBRANCH   1   2
BRANCH   1  27
ATOM     27  C   UNL A   1      31.819  29.837  25.450  1.00  0.00     0.202 C 
BRANCH  27  28
ATOM     28  C   UNL A   1      31.708  31.179  26.184  1.00  0.00     0.261 C 
BRANCH  28  29
ATOM     29  O   UNL A   1      32.501  31.191  27.388  1.00  0.00    -0.460 OA
BRANCH  29  30
ATOM     30  C   UNL A   1      33.345  32.241  27.507  1.00  0.00     0.338 C 
ATOM     31  O   UNL A   1      33.074  33.432  27.429  1.00  0.00    -0.246 OA
BRANCH  30  32
ATOM     32  C   UNL A   1      34.676  31.770  27.921  1.00  0.00     0.060 A 
ATOM     33  C   UNL A   1      34.823  30.414  28.238  1.00  0.00     0.016 A 
ATOM     34  C   UNL A   1      35.722  32.671  28.125  1.00  0.00     0.016 A 
ATOM     35  C   UNL A   1      36.012  29.957  28.801  1.00  0.00     0.010 A 
ATOM     36  C   UNL A   1      36.908  32.214  28.709  1.00  0.00     0.010 A 
ATOM     37  C   UNL A   1      37.041  30.865  29.084  1.00  0.00    -0.014 A 
BRANCH  37  38
ATOM     38  C   UNL A   1      38.175  30.435  29.935  1.00  0.00     0.031 A 
ATOM     39  C   UNL A   1      39.193  29.492  29.356  1.00  0.00     0.074 A 
ATOM     40  C   UNL A   1      38.318  30.908  31.185  1.00  0.00     0.049 A 
ATOM     41  N   UNL A   1      40.253  28.967  29.918  1.00  0.00    -0.248 NA
ATOM     42  C   UNL A   1      38.994  29.090  27.953  1.00  0.00     0.031 C 
ATOM     43  C   UNL A   1      37.429  31.870  31.830  1.00  0.00     0.029 A 
ATOM     44  N   UNL A   1      39.272  30.637  32.135  1.00  0.00    -0.354 N 
ATOM     45  C   UNL A   1      40.851  28.190  28.936  1.00  0.00     0.074 A 
ATOM     46  C   UNL A   1      40.024  28.280  27.754  1.00  0.00     0.031 C 
ATOM     47  C   UNL A   1      37.875  32.105  33.077  1.00  0.00     0.029 A 
ATOM     48  C   UNL A   1      39.062  31.288  33.325  1.00  0.00     0.049 A 
ATOM     49  H   UNL A   1      40.033  30.034  31.977  1.00  0.00     0.167 HD
ATOM     50  C   UNL A   1      41.998  27.476  29.013  1.00  0.00     0.037 A 
ATOM     51  C   UNL A   1      39.745  31.216  34.483  1.00  0.00     0.037 A 
ATOM     52  C   UNL A   1      42.814  27.375  30.193  1.00  0.00     0.049 A 
ATOM     53  C   UNL A   1      40.956  30.322  34.574  1.00  0.00     0.074 A 
ATOM     54  C   UNL A   1      43.990  26.668  30.370  1.00  0.00     0.029 A 
ATOM     55  N   UNL A   1      42.533  27.999  31.398  1.00  0.00    -0.354 N 
ATOM     56  N   UNL A   1      41.522  29.598  33.639  1.00  0.00    -0.248 NA
ATOM     57  C   UNL A   1      41.621  30.234  35.883  1.00  0.00     0.031 C 
ATOM     58  C   UNL A   1      44.399  26.829  31.696  1.00  0.00     0.029 A 
ATOM     59  C   UNL A   1      43.503  27.673  32.333  1.00  0.00     0.049 A 
ATOM     60  H   UNL A   1      41.761  28.586  31.566  1.00  0.00     0.167 HD
ATOM     61  C   UNL A   1      42.620  28.991  34.237  1.00  0.00     0.074 A 
ATOM     62  C   UNL A   1      42.648  29.440  35.613  1.00  0.00     0.031 C 
ATOM     63  C   UNL A   1      43.522  28.139  33.694  1.00  0.00     0.037 A 
BRANCH  50  64
ATOM     64  C   UNL A   1      42.445  26.736  27.788  1.00  0.00     0.064 A 
ATOM     65  C   UNL A   1      43.343  27.313  26.878  1.00  0.00     0.173 A 
ATOM     66  C   UNL A   1      42.037  25.414  27.564  1.00  0.00     0.173 A 
ATOM     67  F   UNL A   1      43.751  28.581  27.044  1.00  0.00    -0.203 F 
ATOM     68  C   UNL A   1      43.814  26.592  25.784  1.00  0.00     0.198 A 
ATOM     69  C   UNL A   1      42.527  24.689  26.482  1.00  0.00     0.198 A 
ATOM     70  F   UNL A   1      41.181  24.819  28.408  1.00  0.00    -0.203 F 
ATOM     71  F   UNL A   1      44.656  27.168  24.917  1.00  0.00    -0.200 F 
ATOM     72  C   UNL A   1      43.414  25.277  25.594  1.00  0.00     0.200 A 
ATOM     73  F   UNL A   1      42.147  23.415  26.304  1.00  0.00    -0.200 F 
ATOM     74  F   UNL A   1      43.883  24.578  24.551  1.00  0.00    -0.200 F 
ENDBRANCH  50  64
BRANCH  51  75
ATOM     75  C   UNL A   1      39.300  32.005  35.661  1.00  0.00     0.064 A 
ATOM     76  C   UNL A   1      39.808  33.287  35.904  1.00  0.00     0.173 A 
ATOM     77  C   UNL A   1      38.378  31.483  36.580  1.00  0.00     0.173 A 
ATOM     78  F   UNL A   1      40.713  33.817  35.067  1.00  0.00    -0.203 F 
ATOM     79  C   UNL A   1      39.423  34.014  37.028  1.00  0.00     0.198 A 
ATOM     80  C   UNL A   1      37.974  32.220  37.692  1.00  0.00     0.198 A 
ATOM     81  F   UNL A   1      37.867  30.256  36.398  1.00  0.00    -0.203 F 
ATOM     82  F   UNL A   1      39.959  35.220  37.260  1.00  0.00    -0.200 F 
ATOM     83  C   UNL A   1      38.502  33.482  37.918  1.00  0.00     0.200 A 
ATOM     84  F   UNL A   1      37.079  31.706  38.546  1.00  0.00    -0.200 F 
ATOM     85  F   UNL A   1      38.133  34.180  39.001  1.00  0.00    -0.200 F 
ENDBRANCH  51  75
BRANCH  63  86
ATOM     86  C   UNL A   1      44.634  27.647  34.572  1.00  0.00     0.064 A 
ATOM     87  C   UNL A   1      45.817  28.381  34.734  1.00  0.00     0.173 A 
ATOM     88  C   UNL A   1      44.479  26.471  35.322  1.00  0.00     0.173 A 
ATOM     89  F   UNL A   1      46.016  29.505  34.030  1.00  0.00    -0.203 F 
ATOM     90  C   UNL A   1      46.811  27.951  35.611  1.00  0.00     0.198 A 
ATOM     91  C   UNL A   1      45.463  26.058  36.217  1.00  0.00     0.198 A 
ATOM     92  F   UNL A   1      43.361  25.738  35.209  1.00  0.00    -0.203 F 
ATOM     93  F   UNL A   1      47.945  28.653  35.730  1.00  0.00    -0.200 F 
ATOM     94  C   UNL A   1      46.628  26.796  36.357  1.00  0.00     0.200 A 
ATOM     95  F   UNL A   1      45.278  24.951  36.950  1.00  0.00    -0.200 F 
ATOM     96  F   UNL A   1      47.578  26.394  37.213  1.00  0.00    -0.200 F 
ENDBRANCH  63  86
ENDBRANCH  37  38
ENDBRANCH  30  32
ENDBRANCH  29  30
ENDBRANCH  28  29
ENDBRANCH  27  28
ENDBRANCH   1  27
TORSDOF 17
ENDMDL
MODEL 3
REMARK VINA RESULT:     -11.9      4.302      8.224
REMARK SMILES Cc1cc(OC(F)(F)F)cc2c1O[C@H](C(F)(F)F)C(C(=O)OCCOCCOC(=O)c1ccc(-c3c4nc(c(-c5c(F)c(F)c(F)c(F)c5F)c5ccc([nH]5)c(-c5c(F)c(F)c(F)c(F)c5F)c5nc(c(-c6c(F)c(F)c(F)c(F)c6F)c6ccc3[nH]6)C=C5)C=C4)cc1)=C2
REMARK SMILES IDX 25 1 24 2 23 3 22 4 20 5 21 6 19 7 1 8 2 9 3 10 12 11 4 12
REMARK SMILES IDX 11 13 13 14 10 15 94 16 14 17 5 18 6 19 7 20 8 21 9 22 15 23
REMARK SMILES IDX 16 24 17 25 18 26 26 27 27 28 28 29 29 30 30 31 31 32 32 33
REMARK SMILES IDX 93 34 33 35 92 36 34 37 35 38 36 39 86 40 37 41 91 42 85 43
REMARK SMILES IDX 87 44 38 45 90 46 84 47 83 48 39 50 71 51 51 52 70 53 52 54
REMARK SMILES IDX 55 55 69 56 88 57 53 58 54 59 68 61 89 62 56 63 40 64 41 65
REMARK SMILES IDX 49 66 42 67 43 68 47 69 50 70 44 71 45 72 48 73 46 74 72 75
REMARK SMILES IDX 73 76 81 77 74 78 75 79 79 80 82 81 76 82 77 83 80 84 78 85
REMARK SMILES IDX 57 86 58 87 66 88 59 89 60 90 64 91 67 92 61 93 62 94 65 95
REMARK SMILES IDX 63 96
REMARK H PARENT 87 49 55 60
REMARK Flexibility Score: inf
ROOT
ATOM      1  O   UNL A   1      35.041  21.146  24.630  1.00  0.00    -0.374 OA
ENDROOT
BRANCH   1   2
ATOM      2  C   UNL A   1      33.711  20.935  25.094  1.00  0.00     0.202 C 
BRANCH   2   3
ATOM      3  C   UNL A   1      32.601  21.070  24.049  1.00  0.00     0.261 C 
BRANCH   3   4
ATOM      4  O   UNL A   1      31.952  22.349  24.129  1.00  0.00    -0.460 OA
BRANCH   4   5
ATOM      5  C   UNL A   1      32.471  23.294  23.312  1.00  0.00     0.338 C 
ATOM      6  O   UNL A   1      33.100  23.105  22.282  1.00  0.00    -0.246 OA
BRANCH   5   7
ATOM      7  C   UNL A   1      32.078  24.636  23.779  1.00  0.00     0.087 C 
ATOM      8  C   UNL A   1      31.739  29.221  26.083  1.00  0.00     0.048 C 
ATOM      9  C   UNL A   1      31.305  28.616  24.777  1.00  0.00    -0.005 A 
ATOM     10  C   UNL A   1      30.683  29.445  23.822  1.00  0.00     0.054 A 
ATOM     11  C   UNL A   1      31.485  27.254  24.492  1.00  0.00     0.131 A 
ATOM     12  C   UNL A   1      30.263  28.933  22.594  1.00  0.00     0.130 A 
ATOM     13  C   UNL A   1      31.092  26.746  23.252  1.00  0.00     0.021 A 
ATOM     14  O   UNL A   1      32.037  26.471  25.469  1.00  0.00    -0.475 OA
ATOM     15  C   UNL A   1      30.467  27.580  22.320  1.00  0.00     0.058 A 
ATOM     16  C   UNL A   1      31.392  25.373  22.898  1.00  0.00     0.027 C 
ATOM     17  C   UNL A   1      32.471  25.119  25.145  1.00  0.00     0.316 C 
BRANCH  12  18
ATOM     18  O   UNL A   1      29.655  29.622  21.585  1.00  0.00    -0.406 OA
BRANCH  18  19
ATOM     19  C   UNL A   1      28.338  30.094  21.805  1.00  0.00     0.573 C 
ATOM     20  F   UNL A   1      27.586  29.161  22.424  1.00  0.00    -0.132 F 
ATOM     21  F   UNL A   1      28.341  31.230  22.534  1.00  0.00    -0.132 F 
ATOM     22  F   UNL A   1      27.772  30.364  20.608  1.00  0.00    -0.132 F 
ENDBRANCH  18  19
ENDBRANCH  12  18
BRANCH  17  23
ATOM     23  C   UNL A   1      33.984  25.030  25.397  1.00  0.00     0.430 C 
ATOM     24  F   UNL A   1      34.671  24.967  24.230  1.00  0.00    -0.167 F 
ATOM     25  F   UNL A   1      34.450  26.116  26.057  1.00  0.00    -0.167 F 
ATOM     26  F   UNL A   1      34.316  23.940  26.123  1.00  0.00    -0.167 F 
ENDBRANCH  17  23
ENDBRANCH   5   7
ENDBRANCH   4   5
ENDBRANCH   3   4
ENDBRANCH   2   3
ENDBRANCH   1   2
BRANCH   1  27
ATOM     27  C   UNL A   1      36.038  20.198  25.018  1.00  0.00     0.202 C 
BRANCH  27  28
ATOM     28  C   UNL A   1      37.496  20.587  24.745  1.00  0.00     0.261 C 
BRANCH  28  29
ATOM     29  O   UNL A   1      37.946  21.622  25.642  1.00  0.00    -0.460 OA
BRANCH  29  30
ATOM     30  C   UNL A   1      39.173  21.424  26.176  1.00  0.00     0.338 C 
ATOM     31  O   UNL A   1      39.879  20.430  26.078  1.00  0.00    -0.246 OA
BRANCH  30  32
ATOM     32  C   UNL A   1      39.657  22.668  26.793  1.00  0.00     0.060 A 
ATOM     33  C   UNL A   1      39.114  23.879  26.345  1.00  0.00     0.016 A 
ATOM     34  C   UNL A   1      40.722  22.652  27.695  1.00  0.00     0.016 A 
ATOM     35  C   UNL A   1      39.663  25.086  26.770  1.00  0.00     0.010 A 
ATOM     36  C   UNL A   1      41.285  23.864  28.105  1.00  0.00     0.010 A 
ATOM     37  C   UNL A   1      40.782  25.082  27.613  1.00  0.00    -0.014 A 
BRANCH  37  38
ATOM     38  C   UNL A   1      41.532  26.341  27.828  1.00  0.00     0.031 A 
ATOM     39  C   UNL A   1      40.865  27.457  28.584  1.00  0.00     0.074 A 
ATOM     40  C   UNL A   1      42.798  26.474  27.396  1.00  0.00     0.049 A 
ATOM     41  N   UNL A   1      41.318  28.651  28.875  1.00  0.00    -0.248 NA
ATOM     42  C   UNL A   1      39.506  27.191  29.086  1.00  0.00     0.031 C 
ATOM     43  C   UNL A   1      43.566  25.441  26.706  1.00  0.00     0.029 A 
ATOM     44  N   UNL A   1      43.659  27.540  27.478  1.00  0.00    -0.354 N 
ATOM     45  C   UNL A   1      40.310  29.267  29.603  1.00  0.00     0.074 A 
ATOM     46  C   UNL A   1      39.207  28.335  29.684  1.00  0.00     0.031 C 
ATOM     47  C   UNL A   1      44.786  25.928  26.418  1.00  0.00     0.029 A 
ATOM     48  C   UNL A   1      44.873  27.313  26.878  1.00  0.00     0.049 A 
ATOM     49  H   UNL A   1      43.427  28.386  27.923  1.00  0.00     0.167 HD
ATOM     50  C   UNL A   1      40.312  30.498  30.165  1.00  0.00     0.037 A 
ATOM     51  C   UNL A   1      45.923  28.139  26.709  1.00  0.00     0.037 A 
ATOM     52  C   UNL A   1      41.403  31.430  30.073  1.00  0.00     0.049 A 
ATOM     53  C   UNL A   1      45.853  29.545  27.249  1.00  0.00     0.074 A 
ATOM     54  C   UNL A   1      41.495  32.705  30.603  1.00  0.00     0.029 A 
ATOM     55  N   UNL A   1      42.591  31.187  29.403  1.00  0.00    -0.354 N 
ATOM     56  N   UNL A   1      44.901  30.118  27.944  1.00  0.00    -0.248 NA
ATOM     57  C   UNL A   1      47.003  30.420  26.976  1.00  0.00     0.031 C 
ATOM     58  C   UNL A   1      42.722  33.249  30.217  1.00  0.00     0.029 A 
ATOM     59  C   UNL A   1      43.414  32.298  29.485  1.00  0.00     0.049 A 
ATOM     60  H   UNL A   1      42.818  30.348  28.937  1.00  0.00     0.167 HD
ATOM     61  C   UNL A   1      45.346  31.406  28.214  1.00  0.00     0.074 A 
ATOM     62  C   UNL A   1      46.659  31.529  27.617  1.00  0.00     0.031 C 
ATOM     63  C   UNL A   1      44.723  32.398  28.895  1.00  0.00     0.037 A 
BRANCH  50  64
ATOM     64  C   UNL A   1      39.094  30.920  30.931  1.00  0.00     0.064 A 
ATOM     65  C   UNL A   1      37.996  31.504  30.284  1.00  0.00     0.173 A 
ATOM     66  C   UNL A   1      38.992  30.665  32.305  1.00  0.00     0.173 A 
ATOM     67  F   UNL A   1      38.052  31.778  28.972  1.00  0.00    -0.203 F 
ATOM     68  C   UNL A   1      36.837  31.821  30.988  1.00  0.00     0.198 A 
ATOM     69  C   UNL A   1      37.825  30.963  33.002  1.00  0.00     0.198 A 
ATOM     70  F   UNL A   1      40.017  30.106  32.967  1.00  0.00    -0.203 F 
ATOM     71  F   UNL A   1      35.806  32.395  30.355  1.00  0.00    -0.200 F 
ATOM     72  C   UNL A   1      36.750  31.540  32.344  1.00  0.00     0.200 A 
ATOM     73  F   UNL A   1      37.737  30.683  34.310  1.00  0.00    -0.200 F 
ATOM     74  F   UNL A   1      35.627  31.828  33.018  1.00  0.00    -0.200 F 
ENDBRANCH  50  64
BRANCH  51  75
ATOM     75  C   UNL A   1      47.134  27.667  25.989  1.00  0.00     0.064 A 
ATOM     76  C   UNL A   1      47.202  27.705  24.590  1.00  0.00     0.173 A 
ATOM     77  C   UNL A   1      48.235  27.145  26.682  1.00  0.00     0.173 A 
ATOM     78  F   UNL A   1      46.161  28.170  23.882  1.00  0.00    -0.203 F 
ATOM     79  C   UNL A   1      48.319  27.226  23.910  1.00  0.00     0.198 A 
ATOM     80  C   UNL A   1      49.364  26.689  26.003  1.00  0.00     0.198 A 
ATOM     81  F   UNL A   1      48.218  27.078  28.022  1.00  0.00    -0.203 F 
ATOM     82  F   UNL A   1      48.339  27.233  22.571  1.00  0.00    -0.200 F 
ATOM     83  C   UNL A   1      49.401  26.723  24.617  1.00  0.00     0.200 A 
ATOM     84  F   UNL A   1      50.410  26.210  26.689  1.00  0.00    -0.200 F 
ATOM     85  F   UNL A   1      50.476  26.261  23.963  1.00  0.00    -0.200 F 
ENDBRANCH  51  75
BRANCH  63  86
ATOM     86  C   UNL A   1      45.451  33.698  29.057  1.00  0.00     0.064 A 
ATOM     87  C   UNL A   1      46.353  33.905  30.111  1.00  0.00     0.173 A 
ATOM     88  C   UNL A   1      45.308  34.717  28.103  1.00  0.00     0.173 A 
ATOM     89  F   UNL A   1      46.515  32.966  31.054  1.00  0.00    -0.203 F 
ATOM     90  C   UNL A   1      47.080  35.090  30.208  1.00  0.00     0.198 A 
ATOM     91  C   UNL A   1      46.055  35.888  28.188  1.00  0.00     0.198 A 
ATOM     92  F   UNL A   1      44.464  34.563  27.071  1.00  0.00    -0.203 F 
ATOM     93  F   UNL A   1      47.916  35.277  31.237  1.00  0.00    -0.200 F 
ATOM     94  C   UNL A   1      46.937  36.075  29.242  1.00  0.00     0.200 A 
ATOM     95  F   UNL A   1      45.928  36.832  27.245  1.00  0.00    -0.200 F 
ATOM     96  F   UNL A   1      47.651  37.206  29.327  1.00  0.00    -0.200 F 
ENDBRANCH  63  86
ENDBRANCH  37  38
ENDBRANCH  30  32
ENDBRANCH  29  30
ENDBRANCH  28  29
ENDBRANCH  27  28
ENDBRANCH   1  27
TORSDOF 17
ENDMDL
