MODEL 1
REMARK VINA RESULT:     -11.1      0.000      0.000
REMARK SMILES CCOc1cc(N2CCC[C@@H](C(=O)OCCOCCOC(=O)c3ccc(-c4c5nc(c(-c6c(F)c(F)c(F)c(F)c6F)c6ccc([nH]6)c(-c6c(F)c(F)c(F)c(F)c6F)c6nc(c(-c7c(F)c(F)c(F)c(F)c7F)c7ccc4[nH]7)C=C6)C=C5)cc3)C2)nc(SC)n1
REMARK SMILES IDX 16 1 15 2 14 3 12 4 13 5 11 6 7 7 8 8 86 9 9 10 10 11 6 12
REMARK SMILES IDX 4 13 5 14 91 15 88 16 87 17 3 18 2 19 1 20 89 21 90 22 17 23
REMARK SMILES IDX 18 24 19 25 20 26 21 27 22 28 23 29 24 30 85 31 25 32 84 33
REMARK SMILES IDX 26 34 27 35 28 36 78 37 29 38 83 39 77 40 79 41 30 42 82 43
REMARK SMILES IDX 76 44 75 45 31 47 63 48 43 49 62 50 44 51 47 52 61 53 80 54
REMARK SMILES IDX 45 55 46 56 60 58 81 59 48 60 32 61 33 62 41 63 34 64 35 65
REMARK SMILES IDX 39 66 42 67 36 68 37 69 40 70 38 71 64 72 65 73 73 74 66 75
REMARK SMILES IDX 67 76 71 77 74 78 68 79 69 80 72 81 70 82 49 83 50 84 58 85
REMARK SMILES IDX 51 86 52 87 56 88 59 89 53 90 54 91 57 92 55 93
REMARK H PARENT 79 46 47 57
REMARK Flexibility Score: inf
ROOT
ATOM      1  C   UNL A   1      32.258  29.219  24.735  1.00  0.00     0.202 C 
ENDROOT
BRANCH   1   2
ATOM      2  C   UNL A   1      31.550  27.915  25.105  1.00  0.00     0.261 C 
BRANCH   2   3
ATOM      3  O   UNL A   1      32.029  26.809  24.319  1.00  0.00    -0.463 OA
BRANCH   3   4
ATOM      4  C   UNL A   1      31.128  25.812  24.113  1.00  0.00     0.310 C 
ATOM      5  O   UNL A   1      30.144  25.907  23.388  1.00  0.00    -0.252 OA
BRANCH   4   6
ATOM      6  C   UNL A   1      31.481  24.524  24.829  1.00  0.00     0.118 C 
ATOM      7  N   UNL A   1      33.110  23.159  26.035  1.00  0.00    -0.356 N 
ATOM      8  C   UNL A   1      32.242  22.952  27.190  1.00  0.00     0.118 C 
ATOM      9  C   UNL A   1      32.948  24.392  25.266  1.00  0.00     0.133 C 
ATOM     10  C   UNL A   1      30.787  23.054  26.760  1.00  0.00     0.022 C 
ATOM     11  C   UNL A   1      30.534  24.366  26.027  1.00  0.00     0.019 C 
BRANCH   7  12
ATOM     12  C   UNL A   1      34.031  22.179  25.736  1.00  0.00     0.137 A 
ATOM     13  C   UNL A   1      34.627  20.069  24.944  1.00  0.00     0.219 A 
ATOM     14  C   UNL A   1      33.637  20.911  25.391  1.00  0.00     0.115 A 
ATOM     15  N   UNL A   1      35.930  20.360  24.938  1.00  0.00    -0.187 NA
ATOM     16  C   UNL A   1      36.232  21.586  25.372  1.00  0.00     0.192 A 
ATOM     17  N   UNL A   1      35.331  22.517  25.729  1.00  0.00    -0.205 NA
BRANCH  13  18
ATOM     18  O   UNL A   1      34.271  18.827  24.476  1.00  0.00    -0.478 OA
BRANCH  18  19
ATOM     19  C   UNL A   1      32.846  18.737  24.339  1.00  0.00     0.228 C 
ATOM     20  C   UNL A   1      32.496  18.145  22.982  1.00  0.00     0.049 C 
ENDBRANCH  18  19
ENDBRANCH  13  18
BRANCH  16  21
ATOM     21  S   UNL A   1      37.957  22.005  25.467  1.00  0.00    -0.089 SA
ATOM     22  C   UNL A   1      37.839  23.606  26.308  1.00  0.00     0.094 C 
ENDBRANCH  16  21
ENDBRANCH   7  12
ENDBRANCH   4   6
ENDBRANCH   3   4
ENDBRANCH   2   3
ENDBRANCH   1   2
BRANCH   1  23
ATOM     23  O   UNL A   1      32.378  30.192  25.768  1.00  0.00    -0.374 OA
BRANCH  23  24
ATOM     24  C   UNL A   1      31.310  31.123  25.942  1.00  0.00     0.202 C 
BRANCH  24  25
ATOM     25  C   UNL A   1      31.640  32.421  26.690  1.00  0.00     0.261 C 
BRANCH  25  26
ATOM     26  O   UNL A   1      32.605  32.220  27.741  1.00  0.00    -0.460 OA
BRANCH  26  27
ATOM     27  C   UNL A   1      33.572  33.167  27.802  1.00  0.00     0.338 C 
ATOM     28  O   UNL A   1      33.426  34.381  27.762  1.00  0.00    -0.246 OA
BRANCH  27  29
ATOM     29  C   UNL A   1      34.878  32.557  28.110  1.00  0.00     0.060 A 
ATOM     30  C   UNL A   1      34.897  31.182  28.379  1.00  0.00     0.016 A 
ATOM     31  C   UNL A   1      36.040  33.320  28.240  1.00  0.00     0.016 A 
ATOM     32  C   UNL A   1      36.063  30.576  28.840  1.00  0.00     0.010 A 
ATOM     33  C   UNL A   1      37.212  32.709  28.710  1.00  0.00     0.010 A 
ATOM     34  C   UNL A   1      37.215  31.344  29.050  1.00  0.00    -0.014 A 
BRANCH  34  35
ATOM     35  C   UNL A   1      38.361  30.735  29.772  1.00  0.00     0.031 A 
ATOM     36  C   UNL A   1      38.598  31.102  31.212  1.00  0.00     0.074 A 
ATOM     37  C   UNL A   1      39.140  29.817  29.175  1.00  0.00     0.049 A 
ATOM     38  N   UNL A   1      39.504  30.655  32.046  1.00  0.00    -0.248 NA
ATOM     39  C   UNL A   1      37.691  32.105  31.791  1.00  0.00     0.031 C 
ATOM     40  C   UNL A   1      38.993  29.356  27.797  1.00  0.00     0.029 A 
ATOM     41  N   UNL A   1      40.207  29.103  29.658  1.00  0.00    -0.354 N 
ATOM     42  C   UNL A   1      39.275  31.318  33.244  1.00  0.00     0.074 A 
ATOM     43  C   UNL A   1      38.169  32.224  33.022  1.00  0.00     0.031 C 
ATOM     44  C   UNL A   1      39.938  28.433  27.543  1.00  0.00     0.029 A 
ATOM     45  C   UNL A   1      40.765  28.254  28.736  1.00  0.00     0.049 A 
ATOM     46  H   UNL A   1      40.542  29.192  30.581  1.00  0.00     0.167 HD
ATOM     47  C   UNL A   1      39.918  31.175  34.427  1.00  0.00     0.037 A 
ATOM     48  C   UNL A   1      41.825  27.428  28.842  1.00  0.00     0.037 A 
ATOM     49  C   UNL A   1      41.016  30.272  34.653  1.00  0.00     0.049 A 
ATOM     50  C   UNL A   1      42.552  27.321  30.157  1.00  0.00     0.074 A 
ATOM     51  C   UNL A   1      41.726  30.049  35.820  1.00  0.00     0.029 A 
ATOM     52  N   UNL A   1      41.567  29.444  33.686  1.00  0.00    -0.354 N 
ATOM     53  N   UNL A   1      42.307  27.929  31.292  1.00  0.00    -0.248 NA
ATOM     54  C   UNL A   1      43.698  26.400  30.207  1.00  0.00     0.031 C 
ATOM     55  C   UNL A   1      42.733  29.116  35.549  1.00  0.00     0.029 A 
ATOM     56  C   UNL A   1      42.619  28.722  34.226  1.00  0.00     0.049 A 
ATOM     57  H   UNL A   1      41.256  29.380  32.754  1.00  0.00     0.167 HD
ATOM     58  C   UNL A   1      43.242  27.441  32.197  1.00  0.00     0.074 A 
ATOM     59  C   UNL A   1      44.054  26.480  31.481  1.00  0.00     0.031 C 
ATOM     60  C   UNL A   1      43.409  27.758  33.505  1.00  0.00     0.037 A 
BRANCH  47  61
ATOM     61  C   UNL A   1      39.460  32.031  35.572  1.00  0.00     0.064 A 
ATOM     62  C   UNL A   1      38.501  31.577  36.491  1.00  0.00     0.173 A 
ATOM     63  C   UNL A   1      40.009  33.306  35.770  1.00  0.00     0.173 A 
ATOM     64  F   UNL A   1      37.935  30.371  36.337  1.00  0.00    -0.203 F 
ATOM     65  C   UNL A   1      38.095  32.380  37.555  1.00  0.00     0.198 A 
ATOM     66  C   UNL A   1      39.619  34.094  36.850  1.00  0.00     0.198 A 
ATOM     67  F   UNL A   1      40.931  33.784  34.921  1.00  0.00    -0.203 F 
ATOM     68  F   UNL A   1      37.147  31.943  38.397  1.00  0.00    -0.200 F 
ATOM     69  C   UNL A   1      38.659  33.634  37.737  1.00  0.00     0.200 A 
ATOM     70  F   UNL A   1      40.173  35.301  37.030  1.00  0.00    -0.200 F 
ATOM     71  F   UNL A   1      38.271  34.402  38.764  1.00  0.00    -0.200 F 
ENDBRANCH  47  61
BRANCH  48  72
ATOM     72  C   UNL A   1      42.258  26.626  27.670  1.00  0.00     0.064 A 
ATOM     73  C   UNL A   1      41.689  25.374  27.399  1.00  0.00     0.173 A 
ATOM     74  C   UNL A   1      43.262  27.088  26.806  1.00  0.00     0.173 A 
ATOM     75  F   UNL A   1      40.743  24.878  28.209  1.00  0.00    -0.203 F 
ATOM     76  C   UNL A   1      42.121  24.607  26.318  1.00  0.00     0.198 A 
ATOM     77  C   UNL A   1      43.673  26.332  25.711  1.00  0.00     0.198 A 
ATOM     78  F   UNL A   1      43.838  28.279  27.024  1.00  0.00    -0.203 F 
ATOM     79  F   UNL A   1      41.591  23.394  26.107  1.00  0.00    -0.200 F 
ATOM     80  C   UNL A   1      43.109  25.089  25.473  1.00  0.00     0.200 A 
ATOM     81  F   UNL A   1      44.621  26.807  24.890  1.00  0.00    -0.200 F 
ATOM     82  F   UNL A   1      43.521  24.352  24.432  1.00  0.00    -0.200 F 
ENDBRANCH  48  72
BRANCH  60  83
ATOM     83  C   UNL A   1      44.482  27.027  34.259  1.00  0.00     0.064 A 
ATOM     84  C   UNL A   1      45.784  27.535  34.372  1.00  0.00     0.173 A 
ATOM     85  C   UNL A   1      44.190  25.817  34.909  1.00  0.00     0.173 A 
ATOM     86  F   UNL A   1      46.116  28.680  33.758  1.00  0.00    -0.203 F 
ATOM     87  C   UNL A   1      46.762  26.843  35.082  1.00  0.00     0.198 A 
ATOM     88  C   UNL A   1      45.163  25.144  35.641  1.00  0.00     0.198 A 
ATOM     89  F   UNL A   1      42.957  25.293  34.839  1.00  0.00    -0.203 F 
ATOM     90  F   UNL A   1      48.013  27.323  35.135  1.00  0.00    -0.200 F 
ATOM     91  C   UNL A   1      46.450  25.652  35.720  1.00  0.00     0.200 A 
ATOM     92  F   UNL A   1      44.856  24.000  36.268  1.00  0.00    -0.200 F 
ATOM     93  F   UNL A   1      47.393  24.991  36.406  1.00  0.00    -0.200 F 
ENDBRANCH  60  83
ENDBRANCH  34  35
ENDBRANCH  27  29
ENDBRANCH  26  27
ENDBRANCH  25  26
ENDBRANCH  24  25
ENDBRANCH  23  24
ENDBRANCH   1  23
TORSDOF 18
ENDMDL
MODEL 2
REMARK VINA RESULT:     -11.0      0.974      2.284
REMARK SMILES CCOc1cc(N2CCC[C@@H](C(=O)OCCOCCOC(=O)c3ccc(-c4c5nc(c(-c6c(F)c(F)c(F)c(F)c6F)c6ccc([nH]6)c(-c6c(F)c(F)c(F)c(F)c6F)c6nc(c(-c7c(F)c(F)c(F)c(F)c7F)c7ccc4[nH]7)C=C6)C=C5)cc3)C2)nc(SC)n1
REMARK SMILES IDX 16 1 15 2 14 3 12 4 13 5 11 6 7 7 8 8 86 9 9 10 10 11 6 12
REMARK SMILES IDX 4 13 5 14 91 15 88 16 87 17 3 18 2 19 1 20 89 21 90 22 17 23
REMARK SMILES IDX 18 24 19 25 20 26 21 27 22 28 23 29 24 30 85 31 25 32 84 33
REMARK SMILES IDX 26 34 27 35 28 36 78 37 29 38 83 39 77 40 79 41 30 42 82 43
REMARK SMILES IDX 76 44 75 45 31 47 63 48 43 49 62 50 44 51 47 52 61 53 80 54
REMARK SMILES IDX 45 55 46 56 60 58 81 59 48 60 32 61 33 62 41 63 34 64 35 65
REMARK SMILES IDX 39 66 42 67 36 68 37 69 40 70 38 71 64 72 65 73 73 74 66 75
REMARK SMILES IDX 67 76 71 77 74 78 68 79 69 80 72 81 70 82 49 83 50 84 58 85
REMARK SMILES IDX 51 86 52 87 56 88 59 89 53 90 54 91 57 92 55 93
REMARK H PARENT 79 46 47 57
REMARK Flexibility Score: inf
ROOT
ATOM      1  C   UNL A   1      31.974  29.058  24.508  1.00  0.00     0.202 C 
ENDROOT
BRANCH   1   2
ATOM      2  C   UNL A   1      31.078  27.837  24.725  1.00  0.00     0.261 C 
BRANCH   2   3
ATOM      3  O   UNL A   1      31.692  26.634  24.227  1.00  0.00    -0.463 OA
BRANCH   3   4
ATOM      4  C   UNL A   1      30.832  25.616  23.956  1.00  0.00     0.310 C 
ATOM      5  O   UNL A   1      29.910  25.684  23.152  1.00  0.00    -0.252 OA
BRANCH   4   6
ATOM      6  C   UNL A   1      31.153  24.341  24.709  1.00  0.00     0.118 C 
ATOM      7  N   UNL A   1      32.801  22.825  25.688  1.00  0.00    -0.356 N 
ATOM      8  C   UNL A   1      32.184  22.834  27.009  1.00  0.00     0.118 C 
ATOM      9  C   UNL A   1      32.647  24.013  24.849  1.00  0.00     0.133 C 
ATOM     10  C   UNL A   1      30.698  23.130  26.877  1.00  0.00     0.022 C 
ATOM     11  C   UNL A   1      30.474  24.412  26.085  1.00  0.00     0.019 C 
BRANCH   7  12
ATOM     12  C   UNL A   1      33.494  21.697  25.306  1.00  0.00     0.137 A 
ATOM     13  C   UNL A   1      35.457  20.480  24.991  1.00  0.00     0.219 A 
ATOM     14  C   UNL A   1      34.862  21.699  25.206  1.00  0.00     0.115 A 
ATOM     15  N   UNL A   1      34.798  19.341  24.759  1.00  0.00    -0.187 NA
ATOM     16  C   UNL A   1      33.467  19.447  24.790  1.00  0.00     0.192 A 
ATOM     17  N   UNL A   1      32.795  20.569  25.096  1.00  0.00    -0.205 NA
BRANCH  13  18
ATOM     18  O   UNL A   1      36.829  20.407  24.999  1.00  0.00    -0.478 OA
BRANCH  18  19
ATOM     19  C   UNL A   1      37.397  21.720  24.897  1.00  0.00     0.228 C 
ATOM     20  C   UNL A   1      38.616  21.826  25.801  1.00  0.00     0.049 C 
ENDBRANCH  18  19
ENDBRANCH  13  18
BRANCH  16  21
ATOM     21  S   UNL A   1      32.533  17.984  24.408  1.00  0.00    -0.089 SA
ATOM     22  C   UNL A   1      33.801  17.029  23.534  1.00  0.00     0.094 C 
ENDBRANCH  16  21
ENDBRANCH   7  12
ENDBRANCH   4   6
ENDBRANCH   3   4
ENDBRANCH   2   3
ENDBRANCH   1   2
BRANCH   1  23
ATOM     23  O   UNL A   1      32.167  29.912  25.631  1.00  0.00    -0.374 OA
BRANCH  23  24
ATOM     24  C   UNL A   1      31.228  30.966  25.843  1.00  0.00     0.202 C 
BRANCH  24  25
ATOM     25  C   UNL A   1      31.715  32.174  26.653  1.00  0.00     0.261 C 
BRANCH  25  26
ATOM     26  O   UNL A   1      32.813  31.844  27.526  1.00  0.00    -0.460 OA
BRANCH  26  27
ATOM     27  C   UNL A   1      33.723  32.835  27.682  1.00  0.00     0.338 C 
ATOM     28  O   UNL A   1      33.513  34.041  27.693  1.00  0.00    -0.246 OA
BRANCH  27  29
ATOM     29  C   UNL A   1      35.044  32.279  28.027  1.00  0.00     0.060 A 
ATOM     30  C   UNL A   1      35.142  30.887  28.152  1.00  0.00     0.016 A 
ATOM     31  C   UNL A   1      36.135  33.096  28.329  1.00  0.00     0.016 A 
ATOM     32  C   UNL A   1      36.311  30.310  28.637  1.00  0.00     0.010 A 
ATOM     33  C   UNL A   1      37.311  32.513  28.823  1.00  0.00     0.010 A 
ATOM     34  C   UNL A   1      37.388  31.122  29.018  1.00  0.00    -0.014 A 
BRANCH  34  35
ATOM     35  C   UNL A   1      38.519  30.511  29.761  1.00  0.00     0.031 A 
ATOM     36  C   UNL A   1      38.735  30.883  31.202  1.00  0.00     0.074 A 
ATOM     37  C   UNL A   1      39.303  29.587  29.180  1.00  0.00     0.049 A 
ATOM     38  N   UNL A   1      39.626  30.436  32.052  1.00  0.00    -0.248 NA
ATOM     39  C   UNL A   1      37.823  31.893  31.763  1.00  0.00     0.031 C 
ATOM     40  C   UNL A   1      39.176  29.119  27.802  1.00  0.00     0.029 A 
ATOM     41  N   UNL A   1      40.359  28.870  29.684  1.00  0.00    -0.354 N 
ATOM     42  C   UNL A   1      39.381  31.106  33.244  1.00  0.00     0.074 A 
ATOM     43  C   UNL A   1      38.282  32.016  33.000  1.00  0.00     0.031 C 
ATOM     44  C   UNL A   1      40.120  28.191  27.568  1.00  0.00     0.029 A 
ATOM     45  C   UNL A   1      40.927  28.014  28.774  1.00  0.00     0.049 A 
ATOM     46  H   UNL A   1      40.680  28.961  30.611  1.00  0.00     0.167 HD
ATOM     47  C   UNL A   1      40.005  30.965  34.438  1.00  0.00     0.037 A 
ATOM     48  C   UNL A   1      41.982  27.184  28.901  1.00  0.00     0.037 A 
ATOM     49  C   UNL A   1      41.095  30.059  34.685  1.00  0.00     0.049 A 
ATOM     50  C   UNL A   1      42.688  27.079  30.228  1.00  0.00     0.074 A 
ATOM     51  C   UNL A   1      41.785  29.838  35.864  1.00  0.00     0.029 A 
ATOM     52  N   UNL A   1      41.657  29.224  33.731  1.00  0.00    -0.354 N 
ATOM     53  N   UNL A   1      42.428  27.694  31.356  1.00  0.00    -0.248 NA
ATOM     54  C   UNL A   1      43.829  26.154  30.300  1.00  0.00     0.031 C 
ATOM     55  C   UNL A   1      42.792  28.900  35.614  1.00  0.00     0.029 A 
ATOM     56  C   UNL A   1      42.697  28.500  34.290  1.00  0.00     0.049 A 
ATOM     57  H   UNL A   1      41.360  29.156  32.795  1.00  0.00     0.167 HD
ATOM     58  C   UNL A   1      43.346  27.206  32.278  1.00  0.00     0.074 A 
ATOM     59  C   UNL A   1      44.165  26.237  31.579  1.00  0.00     0.031 C 
ATOM     60  C   UNL A   1      43.494  27.529  33.587  1.00  0.00     0.037 A 
BRANCH  47  61
ATOM     61  C   UNL A   1      39.532  31.829  35.571  1.00  0.00     0.064 A 
ATOM     62  C   UNL A   1      40.059  33.112  35.786  1.00  0.00     0.173 A 
ATOM     63  C   UNL A   1      38.517  31.383  36.429  1.00  0.00     0.173 A 
ATOM     64  F   UNL A   1      41.041  33.580  35.001  1.00  0.00    -0.203 F 
ATOM     65  C   UNL A   1      39.600  33.906  36.835  1.00  0.00     0.198 A 
ATOM     66  C   UNL A   1      38.043  32.190  37.460  1.00  0.00     0.198 A 
ATOM     67  F   UNL A   1      37.978  30.165  36.263  1.00  0.00    -0.203 F 
ATOM     68  F   UNL A   1      40.147  35.112  37.048  1.00  0.00    -0.200 F 
ATOM     69  C   UNL A   1      38.589  33.448  37.666  1.00  0.00     0.200 A 
ATOM     70  F   UNL A   1      37.059  31.749  38.256  1.00  0.00    -0.200 F 
ATOM     71  F   UNL A   1      38.146  34.216  38.670  1.00  0.00    -0.200 F 
ENDBRANCH  47  61
BRANCH  48  72
ATOM     72  C   UNL A   1      42.430  26.374  27.740  1.00  0.00     0.064 A 
ATOM     73  C   UNL A   1      41.864  25.120  27.469  1.00  0.00     0.173 A 
ATOM     74  C   UNL A   1      43.444  26.830  26.886  1.00  0.00     0.173 A 
ATOM     75  F   UNL A   1      40.908  24.630  28.271  1.00  0.00    -0.203 F 
ATOM     76  C   UNL A   1      42.309  24.346  26.399  1.00  0.00     0.198 A 
ATOM     77  C   UNL A   1      43.870  26.068  25.801  1.00  0.00     0.198 A 
ATOM     78  F   UNL A   1      44.018  28.023  27.103  1.00  0.00    -0.203 F 
ATOM     79  F   UNL A   1      41.782  23.132  26.189  1.00  0.00    -0.200 F 
ATOM     80  C   UNL A   1      43.308  24.822  25.563  1.00  0.00     0.200 A 
ATOM     81  F   UNL A   1      44.828  26.537  24.989  1.00  0.00    -0.200 F 
ATOM     82  F   UNL A   1      43.733  24.079  24.532  1.00  0.00    -0.200 F 
ENDBRANCH  48  72
BRANCH  60  83
ATOM     83  C   UNL A   1      44.551  26.796  34.361  1.00  0.00     0.064 A 
ATOM     84  C   UNL A   1      44.293  25.564  34.981  1.00  0.00     0.173 A 
ATOM     85  C   UNL A   1      45.850  27.320  34.455  1.00  0.00     0.173 A 
ATOM     86  F   UNL A   1      43.065  25.029  34.932  1.00  0.00    -0.203 F 
ATOM     87  C   UNL A   1      45.291  24.899  35.690  1.00  0.00     0.198 A 
ATOM     88  C   UNL A   1      46.850  26.637  35.140  1.00  0.00     0.198 A 
ATOM     89  F   UNL A   1      46.150  28.491  33.872  1.00  0.00    -0.203 F 
ATOM     90  F   UNL A   1      45.009  23.747  36.315  1.00  0.00    -0.200 F 
ATOM     91  C   UNL A   1      46.569  25.432  35.764  1.00  0.00     0.200 A 
ATOM     92  F   UNL A   1      48.088  27.148  35.199  1.00  0.00    -0.200 F 
ATOM     93  F   UNL A   1      47.528  24.787  36.443  1.00  0.00    -0.200 F 
ENDBRANCH  60  83
ENDBRANCH  34  35
ENDBRANCH  27  29
ENDBRANCH  26  27
ENDBRANCH  25  26
ENDBRANCH  24  25
ENDBRANCH  23  24
ENDBRANCH   1  23
TORSDOF 18
ENDMDL
MODEL 3
REMARK VINA RESULT:     -10.8      4.505     10.465
REMARK SMILES CCOc1cc(N2CCC[C@@H](C(=O)OCCOCCOC(=O)c3ccc(-c4c5nc(c(-c6c(F)c(F)c(F)c(F)c6F)c6ccc([nH]6)c(-c6c(F)c(F)c(F)c(F)c6F)c6nc(c(-c7c(F)c(F)c(F)c(F)c7F)c7ccc4[nH]7)C=C6)C=C5)cc3)C2)nc(SC)n1
REMARK SMILES IDX 16 1 15 2 14 3 12 4 13 5 11 6 7 7 8 8 86 9 9 10 10 11 6 12
REMARK SMILES IDX 4 13 5 14 91 15 88 16 87 17 3 18 2 19 1 20 89 21 90 22 17 23
REMARK SMILES IDX 18 24 19 25 20 26 21 27 22 28 23 29 24 30 85 31 25 32 84 33
REMARK SMILES IDX 26 34 27 35 28 36 78 37 29 38 83 39 77 40 79 41 30 42 82 43
REMARK SMILES IDX 76 44 75 45 31 47 63 48 43 49 62 50 44 51 47 52 61 53 80 54
REMARK SMILES IDX 45 55 46 56 60 58 81 59 48 60 32 61 33 62 41 63 34 64 35 65
REMARK SMILES IDX 39 66 42 67 36 68 37 69 40 70 38 71 64 72 65 73 73 74 66 75
REMARK SMILES IDX 67 76 71 77 74 78 68 79 69 80 72 81 70 82 49 83 50 84 58 85
REMARK SMILES IDX 51 86 52 87 56 88 59 89 53 90 54 91 57 92 55 93
REMARK H PARENT 79 46 47 57
REMARK Flexibility Score: inf
ROOT
ATOM      1  C   UNL A   1      35.175  19.713  24.835  1.00  0.00     0.202 C 
ENDROOT
BRANCH   1   2
ATOM      2  C   UNL A   1      34.986  21.230  24.901  1.00  0.00     0.261 C 
BRANCH   2   3
ATOM      3  O   UNL A   1      34.098  21.699  23.870  1.00  0.00    -0.463 OA
BRANCH   3   4
ATOM      4  C   UNL A   1      34.257  23.003  23.520  1.00  0.00     0.310 C 
ATOM      5  O   UNL A   1      35.220  23.442  22.903  1.00  0.00    -0.252 OA
BRANCH   4   6
ATOM      6  C   UNL A   1      33.086  23.879  23.919  1.00  0.00     0.118 C 
ATOM      7  N   UNL A   1      31.400  25.545  23.325  1.00  0.00    -0.356 N 
ATOM      8  C   UNL A   1      30.280  24.735  23.793  1.00  0.00     0.118 C 
ATOM      9  C   UNL A   1      32.593  24.854  22.838  1.00  0.00     0.133 C 
ATOM     10  C   UNL A   1      30.755  23.787  24.882  1.00  0.00     0.022 C 
ATOM     11  C   UNL A   1      31.947  22.969  24.401  1.00  0.00     0.019 C 
BRANCH   7  12
ATOM     12  C   UNL A   1      31.268  26.915  23.371  1.00  0.00     0.137 A 
ATOM     13  C   UNL A   1      30.486  28.950  22.544  1.00  0.00     0.219 A 
ATOM     14  C   UNL A   1      30.732  27.617  22.321  1.00  0.00     0.115 A 
ATOM     15  N   UNL A   1      30.839  29.617  23.647  1.00  0.00    -0.187 NA
ATOM     16  C   UNL A   1      31.434  28.874  24.583  1.00  0.00     0.192 A 
ATOM     17  N   UNL A   1      31.622  27.546  24.504  1.00  0.00    -0.205 NA
BRANCH  13  18
ATOM     18  O   UNL A   1      29.842  29.672  21.568  1.00  0.00    -0.478 OA
BRANCH  18  19
ATOM     19  C   UNL A   1      28.465  29.866  21.919  1.00  0.00     0.228 C 
ATOM     20  C   UNL A   1      27.965  31.178  21.333  1.00  0.00     0.049 C 
ENDBRANCH  18  19
ENDBRANCH  13  18
BRANCH  16  21
ATOM     21  S   UNL A   1      32.002  29.718  26.041  1.00  0.00    -0.089 SA
ATOM     22  C   UNL A   1      31.597  28.474  27.294  1.00  0.00     0.094 C 
ENDBRANCH  16  21
ENDBRANCH   7  12
ENDBRANCH   4   6
ENDBRANCH   3   4
ENDBRANCH   2   3
ENDBRANCH   1   2
BRANCH   1  23
ATOM     23  O   UNL A   1      36.513  19.235  24.934  1.00  0.00    -0.374 OA
BRANCH  23  24
ATOM     24  C   UNL A   1      37.567  20.196  24.998  1.00  0.00     0.202 C 
BRANCH  24  25
ATOM     25  C   UNL A   1      38.968  19.664  25.323  1.00  0.00     0.261 C 
BRANCH  25  26
ATOM     26  O   UNL A   1      39.909  20.722  25.594  1.00  0.00    -0.460 OA
BRANCH  26  27
ATOM     27  C   UNL A   1      40.528  20.629  26.795  1.00  0.00     0.338 C 
ATOM     28  O   UNL A   1      40.968  19.618  27.327  1.00  0.00    -0.246 OA
BRANCH  27  29
ATOM     29  C   UNL A   1      40.784  21.968  27.355  1.00  0.00     0.060 A 
ATOM     30  C   UNL A   1      40.100  23.046  26.777  1.00  0.00     0.016 A 
ATOM     31  C   UNL A   1      41.745  22.187  28.343  1.00  0.00     0.016 A 
ATOM     32  C   UNL A   1      40.418  24.351  27.141  1.00  0.00     0.010 A 
ATOM     33  C   UNL A   1      42.069  23.502  28.704  1.00  0.00     0.010 A 
ATOM     34  C   UNL A   1      41.436  24.589  28.075  1.00  0.00    -0.014 A 
BRANCH  34  35
ATOM     35  C   UNL A   1      41.928  25.978  28.261  1.00  0.00     0.031 A 
ATOM     36  C   UNL A   1      43.262  26.366  27.686  1.00  0.00     0.074 A 
ATOM     37  C   UNL A   1      41.166  26.900  28.875  1.00  0.00     0.049 A 
ATOM     38  N   UNL A   1      43.862  27.531  27.686  1.00  0.00    -0.248 NA
ATOM     39  C   UNL A   1      44.024  25.298  27.019  1.00  0.00     0.031 C 
ATOM     40  C   UNL A   1      39.844  26.657  29.445  1.00  0.00     0.029 A 
ATOM     41  N   UNL A   1      41.397  28.232  29.112  1.00  0.00    -0.354 N 
ATOM     42  C   UNL A   1      45.065  27.337  27.020  1.00  0.00     0.074 A 
ATOM     43  C   UNL A   1      45.130  25.936  26.661  1.00  0.00     0.031 C 
ATOM     44  C   UNL A   1      39.378  27.804  29.970  1.00  0.00     0.029 A 
ATOM     45  C   UNL A   1      40.377  28.856  29.785  1.00  0.00     0.049 A 
ATOM     46  H   UNL A   1      42.218  28.696  28.826  1.00  0.00     0.167 HD
ATOM     47  C   UNL A   1      46.023  28.246  26.722  1.00  0.00     0.037 A 
ATOM     48  C   UNL A   1      40.265  30.131  30.208  1.00  0.00     0.037 A 
ATOM     49  C   UNL A   1      45.961  29.640  27.073  1.00  0.00     0.049 A 
ATOM     50  C   UNL A   1      41.367  31.113  29.903  1.00  0.00     0.074 A 
ATOM     51  C   UNL A   1      46.878  30.641  26.806  1.00  0.00     0.029 A 
ATOM     52  N   UNL A   1      44.920  30.229  27.776  1.00  0.00    -0.354 N 
ATOM     53  N   UNL A   1      42.485  30.926  29.246  1.00  0.00    -0.248 NA
ATOM     54  C   UNL A   1      41.181  32.488  30.390  1.00  0.00     0.031 C 
ATOM     55  C   UNL A   1      46.413  31.828  27.382  1.00  0.00     0.029 A 
ATOM     56  C   UNL A   1      45.182  31.576  27.966  1.00  0.00     0.049 A 
ATOM     57  H   UNL A   1      44.115  29.759  28.092  1.00  0.00     0.167 HD
ATOM     58  C   UNL A   1      43.119  32.162  29.209  1.00  0.00     0.074 A 
ATOM     59  C   UNL A   1      42.255  33.094  29.904  1.00  0.00     0.031 C 
ATOM     60  C   UNL A   1      44.307  32.495  28.647  1.00  0.00     0.037 A 
BRANCH  47  61
ATOM     61  C   UNL A   1      47.238  27.755  25.988  1.00  0.00     0.064 A 
ATOM     62  C   UNL A   1      48.362  27.267  26.671  1.00  0.00     0.173 A 
ATOM     63  C   UNL A   1      47.263  27.741  24.586  1.00  0.00     0.173 A 
ATOM     64  F   UNL A   1      48.392  27.272  28.012  1.00  0.00    -0.203 F 
ATOM     65  C   UNL A   1      49.476  26.803  25.975  1.00  0.00     0.198 A 
ATOM     66  C   UNL A   1      48.369  27.252  23.894  1.00  0.00     0.198 A 
ATOM     67  F   UNL A   1      46.212  28.194  23.886  1.00  0.00    -0.203 F 
ATOM     68  F   UNL A   1      50.556  26.381  26.648  1.00  0.00    -0.200 F 
ATOM     69  C   UNL A   1      49.475  26.790  24.588  1.00  0.00     0.200 A 
ATOM     70  F   UNL A   1      48.362  27.231  22.554  1.00  0.00    -0.200 F 
ATOM     71  F   UNL A   1      50.546  26.338  23.921  1.00  0.00    -0.200 F 
ENDBRANCH  47  61
BRANCH  48  72
ATOM     72  C   UNL A   1      39.057  30.558  30.959  1.00  0.00     0.064 A 
ATOM     73  C   UNL A   1      37.944  31.093  30.296  1.00  0.00     0.173 A 
ATOM     74  C   UNL A   1      38.998  30.455  32.356  1.00  0.00     0.173 A 
ATOM     75  F   UNL A   1      37.963  31.234  28.963  1.00  0.00    -0.203 F 
ATOM     76  C   UNL A   1      36.825  31.526  31.004  1.00  0.00     0.198 A 
ATOM     77  C   UNL A   1      37.868  30.863  33.060  1.00  0.00     0.198 A 
ATOM     78  F   UNL A   1      40.037  29.951  33.037  1.00  0.00    -0.203 F 
ATOM     79  F   UNL A   1      35.792  32.074  30.350  1.00  0.00    -0.200 F 
ATOM     80  C   UNL A   1      36.785  31.406  32.385  1.00  0.00     0.200 A 
ATOM     81  F   UNL A   1      37.829  30.734  34.394  1.00  0.00    -0.200 F 
ATOM     82  F   UNL A   1      35.707  31.818  33.065  1.00  0.00    -0.200 F 
ENDBRANCH  48  72
BRANCH  60  83
ATOM     83  C   UNL A   1      44.723  33.936  28.719  1.00  0.00     0.064 A 
ATOM     84  C   UNL A   1      45.536  34.420  29.755  1.00  0.00     0.173 A 
ATOM     85  C   UNL A   1      44.331  34.837  27.717  1.00  0.00     0.173 A 
ATOM     86  F   UNL A   1      45.926  33.603  30.744  1.00  0.00    -0.203 F 
ATOM     87  C   UNL A   1      45.915  35.759  29.799  1.00  0.00     0.198 A 
ATOM     88  C   UNL A   1      44.736  36.167  27.750  1.00  0.00     0.198 A 
ATOM     89  F   UNL A   1      43.560  34.422  26.699  1.00  0.00    -0.203 F 
ATOM     90  F   UNL A   1      46.651  36.210  30.825  1.00  0.00    -0.200 F 
ATOM     91  C   UNL A   1      45.520  36.630  28.794  1.00  0.00     0.200 A 
ATOM     92  F   UNL A   1      44.364  37.004  26.771  1.00  0.00    -0.200 F 
ATOM     93  F   UNL A   1      45.891  37.917  28.838  1.00  0.00    -0.200 F 
ENDBRANCH  60  83
ENDBRANCH  34  35
ENDBRANCH  27  29
ENDBRANCH  26  27
ENDBRANCH  25  26
ENDBRANCH  24  25
ENDBRANCH  23  24
ENDBRANCH   1  23
TORSDOF 18
ENDMDL
