MODEL 1
REMARK VINA RESULT:     -12.9      0.000      0.000
REMARK SMILES NS(=O)(=O)c1ccc(-n2nc(C(=O)OCCOCCOC(=O)c3ccc(-c4c5nc(c(-c6c(F)c(F)c(F)c(F)c6F)c6ccc([nH]6)c(-c6c(F)c(F)c(F)c(F)c6F)c6nc(c(-c7c(F)c(F)c(F)c(F)c7F)c7ccc4[nH]7)C=C6)C=C5)cc3)c(Cl)c2-c2ccc(Cl)cc2)cc1
REMARK SMILES IDX 16 1 15 2 14 3 12 4 13 5 11 6 9 7 10 8 88 9 86 10 87 11 8 12
REMARK SMILES IDX 5 13 6 14 97 15 7 16 96 17 2 18 3 19 4 20 1 21 89 24 90 25
REMARK SMILES IDX 95 26 91 27 94 28 92 29 93 30 17 31 18 32 19 33 20 34 21 35
REMARK SMILES IDX 22 36 23 37 24 38 85 39 25 40 84 41 26 42 27 43 28 44 78 45
REMARK SMILES IDX 29 46 83 47 77 48 79 49 30 50 82 51 76 52 75 53 31 55 63 56
REMARK SMILES IDX 43 57 62 58 44 59 47 60 61 61 80 62 45 63 46 64 60 66 81 67
REMARK SMILES IDX 48 68 32 69 33 70 41 71 34 72 35 73 39 74 42 75 36 76 37 77
REMARK SMILES IDX 40 78 38 79 64 80 65 81 73 82 66 83 67 84 71 85 74 86 68 87
REMARK SMILES IDX 69 88 72 89 70 90 49 91 50 92 58 93 51 94 52 95 56 96 59 97
REMARK SMILES IDX 53 98 54 99 57 100 55 101
REMARK H PARENT 1 22 1 23 79 54 47 65
REMARK Flexibility Score: inf
ROOT
ATOM      1  C   UNL A   1      34.397  20.903  25.745  1.00  0.00     0.202 C 
ENDROOT
BRANCH   1   2
ATOM      2  C   UNL A   1      33.901  21.039  24.307  1.00  0.00     0.261 C 
BRANCH   2   3
ATOM      3  O   UNL A   1      32.703  21.826  24.241  1.00  0.00    -0.458 OA
BRANCH   3   4
ATOM      4  C   UNL A   1      32.658  22.811  23.295  1.00  0.00     0.360 C 
ATOM      5  O   UNL A   1      32.906  22.631  22.108  1.00  0.00    -0.244 OA
BRANCH   4   6
ATOM      6  C   UNL A   1      32.224  24.102  23.851  1.00  0.00     0.190 A 
ATOM      7  N   UNL A   1      31.244  26.006  23.932  1.00  0.00    -0.231 N 
ATOM      8  N   UNL A   1      31.189  24.797  23.328  1.00  0.00    -0.159 NA
ATOM      9  C   UNL A   1      32.229  26.069  24.900  1.00  0.00     0.094 A 
ATOM     10  C   UNL A   1      32.788  24.806  24.939  1.00  0.00     0.102 A 
ATOM     11  Cl  UNL A   1      34.012  24.279  26.004  1.00  0.00    -0.079 Cl
BRANCH   7  12
ATOM     12  C   UNL A   1      30.487  27.083  23.420  1.00  0.00     0.065 A 
ATOM     13  C   UNL A   1      29.051  29.300  22.559  1.00  0.00     0.082 A 
ATOM     14  C   UNL A   1      28.370  28.215  23.126  1.00  0.00     0.024 A 
ATOM     15  C   UNL A   1      30.440  29.262  22.388  1.00  0.00     0.024 A 
ATOM     16  C   UNL A   1      29.091  27.086  23.538  1.00  0.00     0.030 A 
ATOM     17  C   UNL A   1      31.163  28.161  22.836  1.00  0.00     0.030 A 
BRANCH  13  18
ATOM     18  S   UNL A   1      28.211  30.761  22.020  1.00  0.00     0.238 S 
ATOM     19  O   UNL A   1      27.277  31.155  23.042  1.00  0.00    -0.207 OA
ATOM     20  O   UNL A   1      27.824  30.568  20.638  1.00  0.00    -0.207 OA
BRANCH  18  21
ATOM     21  N   UNL A   1      29.381  31.965  22.001  1.00  0.00    -0.225 NA
ATOM     22  H   UNL A   1      30.142  31.709  22.631  1.00  0.00     0.137 HD
ATOM     23  H   UNL A   1      28.968  32.846  22.305  1.00  0.00     0.137 HD
ENDBRANCH  18  21
ENDBRANCH  13  18
ENDBRANCH   7  12
BRANCH   9  24
ATOM     24  C   UNL A   1      32.615  27.250  25.665  1.00  0.00     0.002 A 
ATOM     25  C   UNL A   1      31.688  27.784  26.572  1.00  0.00     0.012 A 
ATOM     26  C   UNL A   1      33.833  27.904  25.458  1.00  0.00     0.012 A 
ATOM     27  C   UNL A   1      31.951  28.980  27.235  1.00  0.00     0.021 A 
ATOM     28  C   UNL A   1      34.099  29.103  26.128  1.00  0.00     0.021 A 
ATOM     29  C   UNL A   1      33.152  29.640  27.001  1.00  0.00     0.041 A 
ATOM     30  Cl  UNL A   1      33.455  31.144  27.778  1.00  0.00    -0.084 Cl
ENDBRANCH   9  24
ENDBRANCH   4   6
ENDBRANCH   3   4
ENDBRANCH   2   3
ENDBRANCH   1   2
BRANCH   1  31
ATOM     31  O   UNL A   1      35.754  21.265  25.999  1.00  0.00    -0.374 OA
BRANCH  31  32
ATOM     32  C   UNL A   1      36.731  21.110  24.978  1.00  0.00     0.202 C 
BRANCH  32  33
ATOM     33  C   UNL A   1      38.196  21.192  25.375  1.00  0.00     0.261 C 
BRANCH  33  34
ATOM     34  O   UNL A   1      38.465  22.263  26.267  1.00  0.00    -0.460 OA
BRANCH  34  35
ATOM     35  C   UNL A   1      39.688  22.195  26.843  1.00  0.00     0.338 C 
ATOM     36  O   UNL A   1      40.183  21.242  27.419  1.00  0.00    -0.246 OA
BRANCH  35  37
ATOM     37  C   UNL A   1      40.253  23.547  26.872  1.00  0.00     0.060 A 
ATOM     38  C   UNL A   1      41.383  23.714  27.672  1.00  0.00     0.016 A 
ATOM     39  C   UNL A   1      39.501  24.637  26.405  1.00  0.00     0.016 A 
ATOM     40  C   UNL A   1      41.624  24.960  28.200  1.00  0.00     0.010 A 
ATOM     41  C   UNL A   1      39.734  25.879  26.944  1.00  0.00     0.010 A 
ATOM     42  C   UNL A   1      40.738  26.003  27.899  1.00  0.00    -0.014 A 
BRANCH  42  43
ATOM     43  C   UNL A   1      40.999  27.289  28.503  1.00  0.00     0.031 A 
ATOM     44  C   UNL A   1      42.237  27.895  27.972  1.00  0.00     0.074 A 
ATOM     45  C   UNL A   1      40.172  27.873  29.389  1.00  0.00     0.049 A 
ATOM     46  N   UNL A   1      43.344  28.072  28.610  1.00  0.00    -0.248 NA
ATOM     47  C   UNL A   1      42.326  28.134  26.523  1.00  0.00     0.031 C 
ATOM     48  C   UNL A   1      38.830  27.456  29.796  1.00  0.00     0.029 A 
ATOM     49  N   UNL A   1      40.346  29.040  30.065  1.00  0.00    -0.354 N 
ATOM     50  C   UNL A   1      44.208  28.651  27.690  1.00  0.00     0.074 A 
ATOM     51  C   UNL A   1      43.608  28.473  26.395  1.00  0.00     0.031 C 
ATOM     52  C   UNL A   1      38.232  28.472  30.462  1.00  0.00     0.029 A 
ATOM     53  C   UNL A   1      39.187  29.555  30.633  1.00  0.00     0.049 A 
ATOM     54  H   UNL A   1      41.221  29.483  30.147  1.00  0.00     0.167 HD
ATOM     55  C   UNL A   1      45.179  29.499  28.117  1.00  0.00     0.037 A 
ATOM     56  C   UNL A   1      39.031  30.811  31.127  1.00  0.00     0.037 A 
ATOM     57  C   UNL A   1      45.482  29.277  29.512  1.00  0.00     0.049 A 
ATOM     58  C   UNL A   1      40.389  31.347  31.412  1.00  0.00     0.074 A 
ATOM     59  C   UNL A   1      45.905  28.187  30.250  1.00  0.00     0.029 A 
ATOM     60  N   UNL A   1      44.983  30.170  30.430  1.00  0.00    -0.354 N 
ATOM     61  N   UNL A   1      41.149  30.902  32.373  1.00  0.00    -0.248 NA
ATOM     62  C   UNL A   1      41.086  32.033  30.333  1.00  0.00     0.031 C 
ATOM     63  C   UNL A   1      45.203  28.278  31.488  1.00  0.00     0.029 A 
ATOM     64  C   UNL A   1      44.448  29.450  31.467  1.00  0.00     0.049 A 
ATOM     65  H   UNL A   1      45.006  31.151  30.355  1.00  0.00     0.167 HD
ATOM     66  C   UNL A   1      42.415  30.833  31.812  1.00  0.00     0.074 A 
ATOM     67  C   UNL A   1      42.331  31.615  30.581  1.00  0.00     0.031 C 
ATOM     68  C   UNL A   1      43.319  29.903  32.239  1.00  0.00     0.037 A 
BRANCH  55  69
ATOM     69  C   UNL A   1      45.488  30.800  27.415  1.00  0.00     0.064 A 
ATOM     70  C   UNL A   1      46.832  31.106  27.133  1.00  0.00     0.173 A 
ATOM     71  C   UNL A   1      44.584  31.883  27.312  1.00  0.00     0.173 A 
ATOM     72  F   UNL A   1      47.778  30.158  27.212  1.00  0.00    -0.203 F 
ATOM     73  C   UNL A   1      47.251  32.413  26.878  1.00  0.00     0.198 A 
ATOM     74  C   UNL A   1      44.998  33.175  27.002  1.00  0.00     0.198 A 
ATOM     75  F   UNL A   1      43.287  31.776  27.617  1.00  0.00    -0.203 F 
ATOM     76  F   UNL A   1      48.558  32.679  26.764  1.00  0.00    -0.200 F 
ATOM     77  C   UNL A   1      46.335  33.448  26.824  1.00  0.00     0.200 A 
ATOM     78  F   UNL A   1      44.095  34.165  26.976  1.00  0.00    -0.200 F 
ATOM     79  F   UNL A   1      46.743  34.712  26.654  1.00  0.00    -0.200 F 
ENDBRANCH  55  69
BRANCH  56  80
ATOM     80  C   UNL A   1      37.837  31.690  31.057  1.00  0.00     0.064 A 
ATOM     81  C   UNL A   1      37.408  32.236  29.834  1.00  0.00     0.173 A 
ATOM     82  C   UNL A   1      36.929  31.780  32.130  1.00  0.00     0.173 A 
ATOM     83  F   UNL A   1      38.188  32.151  28.747  1.00  0.00    -0.203 F 
ATOM     84  C   UNL A   1      36.140  32.810  29.689  1.00  0.00     0.198 A 
ATOM     85  C   UNL A   1      35.667  32.360  31.985  1.00  0.00     0.198 A 
ATOM     86  F   UNL A   1      37.205  31.222  33.317  1.00  0.00    -0.203 F 
ATOM     87  F   UNL A   1      35.742  33.260  28.490  1.00  0.00    -0.200 F 
ATOM     88  C   UNL A   1      35.266  32.861  30.762  1.00  0.00     0.200 A 
ATOM     89  F   UNL A   1      34.819  32.369  33.024  1.00  0.00    -0.200 F 
ATOM     90  F   UNL A   1      34.029  33.352  30.608  1.00  0.00    -0.200 F 
ENDBRANCH  56  80
BRANCH  68  91
ATOM     91  C   UNL A   1      43.001  29.155  33.504  1.00  0.00     0.064 A 
ATOM     92  C   UNL A   1      42.185  28.011  33.565  1.00  0.00     0.173 A 
ATOM     93  C   UNL A   1      43.634  29.557  34.688  1.00  0.00     0.173 A 
ATOM     94  F   UNL A   1      41.631  27.496  32.459  1.00  0.00    -0.203 F 
ATOM     95  C   UNL A   1      41.960  27.346  34.770  1.00  0.00     0.198 A 
ATOM     96  C   UNL A   1      43.441  28.867  35.880  1.00  0.00     0.198 A 
ATOM     97  F   UNL A   1      44.471  30.606  34.679  1.00  0.00    -0.203 F 
ATOM     98  F   UNL A   1      41.153  26.275  34.808  1.00  0.00    -0.200 F 
ATOM     99  C   UNL A   1      42.592  27.774  35.926  1.00  0.00     0.200 A 
ATOM    100  F   UNL A   1      44.094  29.255  36.985  1.00  0.00    -0.200 F 
ATOM    101  F   UNL A   1      42.401  27.118  37.079  1.00  0.00    -0.200 F 
ENDBRANCH  68  91
ENDBRANCH  42  43
ENDBRANCH  35  37
ENDBRANCH  34  35
ENDBRANCH  33  34
ENDBRANCH  32  33
ENDBRANCH  31  32
ENDBRANCH   1  31
TORSDOF 18
ENDMDL
MODEL 2
REMARK VINA RESULT:     -12.2      3.529      8.855
REMARK SMILES NS(=O)(=O)c1ccc(-n2nc(C(=O)OCCOCCOC(=O)c3ccc(-c4c5nc(c(-c6c(F)c(F)c(F)c(F)c6F)c6ccc([nH]6)c(-c6c(F)c(F)c(F)c(F)c6F)c6nc(c(-c7c(F)c(F)c(F)c(F)c7F)c7ccc4[nH]7)C=C6)C=C5)cc3)c(Cl)c2-c2ccc(Cl)cc2)cc1
REMARK SMILES IDX 16 1 15 2 14 3 12 4 13 5 11 6 9 7 10 8 88 9 86 10 87 11 8 12
REMARK SMILES IDX 5 13 6 14 97 15 7 16 96 17 2 18 3 19 4 20 1 21 89 24 90 25
REMARK SMILES IDX 95 26 91 27 94 28 92 29 93 30 17 31 18 32 19 33 20 34 21 35
REMARK SMILES IDX 22 36 23 37 24 38 85 39 25 40 84 41 26 42 27 43 28 44 78 45
REMARK SMILES IDX 29 46 83 47 77 48 79 49 30 50 82 51 76 52 75 53 31 55 63 56
REMARK SMILES IDX 43 57 62 58 44 59 47 60 61 61 80 62 45 63 46 64 60 66 81 67
REMARK SMILES IDX 48 68 32 69 33 70 41 71 34 72 35 73 39 74 42 75 36 76 37 77
REMARK SMILES IDX 40 78 38 79 64 80 65 81 73 82 66 83 67 84 71 85 74 86 68 87
REMARK SMILES IDX 69 88 72 89 70 90 49 91 50 92 58 93 51 94 52 95 56 96 59 97
REMARK SMILES IDX 53 98 54 99 57 100 55 101
REMARK H PARENT 1 22 1 23 79 54 47 65
REMARK Flexibility Score: inf
ROOT
ATOM      1  C   UNL A   1      31.844  29.616  24.584  1.00  0.00     0.202 C 
ENDROOT
BRANCH   1   2
ATOM      2  C   UNL A   1      30.651  28.671  24.464  1.00  0.00     0.261 C 
BRANCH   2   3
ATOM      3  O   UNL A   1      30.996  27.340  24.874  1.00  0.00    -0.458 OA
BRANCH   3   4
ATOM      4  C   UNL A   1      30.646  26.321  24.034  1.00  0.00     0.360 C 
ATOM      5  O   UNL A   1      29.587  26.275  23.418  1.00  0.00    -0.244 OA
BRANCH   4   6
ATOM      6  C   UNL A   1      31.706  25.310  23.908  1.00  0.00     0.190 A 
ATOM      7  N   UNL A   1      32.604  23.365  23.830  1.00  0.00    -0.231 N 
ATOM      8  N   UNL A   1      31.434  24.015  23.630  1.00  0.00    -0.159 NA
ATOM      9  C   UNL A   1      33.642  24.226  24.134  1.00  0.00     0.094 A 
ATOM     10  C   UNL A   1      33.099  25.494  24.068  1.00  0.00     0.102 A 
ATOM     11  Cl  UNL A   1      33.940  26.962  24.285  1.00  0.00    -0.079 Cl
BRANCH   7  12
ATOM     12  C   UNL A   1      32.621  21.955  23.908  1.00  0.00     0.065 A 
ATOM     13  C   UNL A   1      32.836  19.189  24.045  1.00  0.00     0.082 A 
ATOM     14  C   UNL A   1      32.381  19.786  22.863  1.00  0.00     0.024 A 
ATOM     15  C   UNL A   1      33.146  19.966  25.167  1.00  0.00     0.024 A 
ATOM     16  C   UNL A   1      32.248  21.181  22.800  1.00  0.00     0.030 A 
ATOM     17  C   UNL A   1      33.058  21.353  25.094  1.00  0.00     0.030 A 
BRANCH  13  18
ATOM     18  S   UNL A   1      33.034  17.436  24.198  1.00  0.00     0.238 S 
ATOM     19  O   UNL A   1      34.163  17.176  25.053  1.00  0.00    -0.207 OA
ATOM     20  O   UNL A   1      32.901  16.856  22.878  1.00  0.00    -0.207 OA
BRANCH  18  21
ATOM     21  N   UNL A   1      31.694  16.912  25.063  1.00  0.00    -0.225 NA
ATOM     22  H   UNL A   1      31.029  17.680  25.159  1.00  0.00     0.137 HD
ATOM     23  H   UNL A   1      31.987  16.597  25.987  1.00  0.00     0.137 HD
ENDBRANCH  18  21
ENDBRANCH  13  18
ENDBRANCH   7  12
BRANCH   9  24
ATOM     24  C   UNL A   1      35.002  23.846  24.499  1.00  0.00     0.002 A 
ATOM     25  C   UNL A   1      35.749  23.094  23.580  1.00  0.00     0.012 A 
ATOM     26  C   UNL A   1      35.542  24.131  25.756  1.00  0.00     0.012 A 
ATOM     27  C   UNL A   1      37.003  22.595  23.924  1.00  0.00     0.021 A 
ATOM     28  C   UNL A   1      36.804  23.634  26.099  1.00  0.00     0.021 A 
ATOM     29  C   UNL A   1      37.520  22.859  25.187  1.00  0.00     0.041 A 
ATOM     30  Cl  UNL A   1      39.044  22.198  25.631  1.00  0.00    -0.084 Cl
ENDBRANCH   9  24
ENDBRANCH   4   6
ENDBRANCH   3   4
ENDBRANCH   2   3
ENDBRANCH   1   2
BRANCH   1  31
ATOM     31  O   UNL A   1      32.563  29.600  25.817  1.00  0.00    -0.374 OA
BRANCH  31  32
ATOM     32  C   UNL A   1      32.154  30.445  26.885  1.00  0.00     0.202 C 
BRANCH  32  33
ATOM     33  C   UNL A   1      33.156  31.459  27.414  1.00  0.00     0.261 C 
BRANCH  33  34
ATOM     34  O   UNL A   1      34.493  30.982  27.375  1.00  0.00    -0.460 OA
BRANCH  34  35
ATOM     35  C   UNL A   1      35.392  31.848  27.899  1.00  0.00     0.338 C 
ATOM     36  O   UNL A   1      35.513  33.033  27.643  1.00  0.00    -0.246 OA
BRANCH  35  37
ATOM     37  C   UNL A   1      36.374  31.076  28.665  1.00  0.00     0.060 A 
ATOM     38  C   UNL A   1      37.475  31.793  29.136  1.00  0.00     0.016 A 
ATOM     39  C   UNL A   1      36.361  29.673  28.620  1.00  0.00     0.016 A 
ATOM     40  C   UNL A   1      38.650  31.112  29.339  1.00  0.00     0.010 A 
ATOM     41  C   UNL A   1      37.540  28.995  28.810  1.00  0.00     0.010 A 
ATOM     42  C   UNL A   1      38.687  29.735  29.081  1.00  0.00    -0.014 A 
BRANCH  42  43
ATOM     43  C   UNL A   1      39.950  29.059  29.267  1.00  0.00     0.031 A 
ATOM     44  C   UNL A   1      40.288  28.928  30.699  1.00  0.00     0.074 A 
ATOM     45  C   UNL A   1      40.681  28.563  28.253  1.00  0.00     0.049 A 
ATOM     46  N   UNL A   1      41.236  29.537  31.327  1.00  0.00    -0.248 NA
ATOM     47  C   UNL A   1      39.345  28.210  31.571  1.00  0.00     0.031 C 
ATOM     48  C   UNL A   1      40.320  28.448  26.840  1.00  0.00     0.029 A 
ATOM     49  N   UNL A   1      41.904  27.971  28.303  1.00  0.00    -0.354 N 
ATOM     50  C   UNL A   1      41.139  29.106  32.643  1.00  0.00     0.074 A 
ATOM     51  C   UNL A   1      39.856  28.470  32.774  1.00  0.00     0.031 C 
ATOM     52  C   UNL A   1      41.198  27.623  26.222  1.00  0.00     0.029 A 
ATOM     53  C   UNL A   1      42.244  27.255  27.162  1.00  0.00     0.049 A 
ATOM     54  H   UNL A   1      42.500  28.045  29.083  1.00  0.00     0.167 HD
ATOM     55  C   UNL A   1      42.256  29.033  33.412  1.00  0.00     0.037 A 
ATOM     56  C   UNL A   1      43.271  26.372  27.052  1.00  0.00     0.037 A 
ATOM     57  C   UNL A   1      43.296  29.893  32.897  1.00  0.00     0.049 A 
ATOM     58  C   UNL A   1      44.232  26.669  28.147  1.00  0.00     0.074 A 
ATOM     59  C   UNL A   1      43.389  31.247  32.630  1.00  0.00     0.029 A 
ATOM     60  N   UNL A   1      44.330  29.311  32.206  1.00  0.00    -0.354 N 
ATOM     61  N   UNL A   1      44.966  27.746  28.186  1.00  0.00    -0.248 NA
ATOM     62  C   UNL A   1      44.019  26.014  29.431  1.00  0.00     0.031 C 
ATOM     63  C   UNL A   1      44.155  31.340  31.430  1.00  0.00     0.029 A 
ATOM     64  C   UNL A   1      44.545  30.050  31.071  1.00  0.00     0.049 A 
ATOM     65  H   UNL A   1      44.828  28.506  32.476  1.00  0.00     0.167 HD
ATOM     66  C   UNL A   1      44.914  28.156  29.509  1.00  0.00     0.074 A 
ATOM     67  C   UNL A   1      44.383  27.010  30.244  1.00  0.00     0.031 C 
ATOM     68  C   UNL A   1      45.017  29.477  29.836  1.00  0.00     0.037 A 
BRANCH  55  69
ATOM     69  C   UNL A   1      42.547  27.856  34.314  1.00  0.00     0.064 A 
ATOM     70  C   UNL A   1      43.079  26.687  33.739  1.00  0.00     0.173 A 
ATOM     71  C   UNL A   1      42.027  27.709  35.622  1.00  0.00     0.173 A 
ATOM     72  F   UNL A   1      43.586  26.709  32.498  1.00  0.00    -0.203 F 
ATOM     73  C   UNL A   1      42.995  25.449  34.379  1.00  0.00     0.198 A 
ATOM     74  C   UNL A   1      41.997  26.482  36.278  1.00  0.00     0.198 A 
ATOM     75  F   UNL A   1      41.423  28.703  36.278  1.00  0.00    -0.203 F 
ATOM     76  F   UNL A   1      43.378  24.342  33.732  1.00  0.00    -0.200 F 
ATOM     77  C   UNL A   1      42.444  25.346  35.644  1.00  0.00     0.200 A 
ATOM     78  F   UNL A   1      41.440  26.404  37.495  1.00  0.00    -0.200 F 
ATOM     79  F   UNL A   1      42.294  24.151  36.228  1.00  0.00    -0.200 F 
ENDBRANCH  55  69
BRANCH  56  80
ATOM     80  C   UNL A   1      43.317  25.099  26.289  1.00  0.00     0.064 A 
ATOM     81  C   UNL A   1      44.301  24.876  25.309  1.00  0.00     0.173 A 
ATOM     82  C   UNL A   1      42.582  23.970  26.700  1.00  0.00     0.173 A 
ATOM     83  F   UNL A   1      45.080  25.884  24.893  1.00  0.00    -0.203 F 
ATOM     84  C   UNL A   1      44.551  23.598  24.796  1.00  0.00     0.198 A 
ATOM     85  C   UNL A   1      42.828  22.698  26.181  1.00  0.00     0.198 A 
ATOM     86  F   UNL A   1      41.676  24.057  27.684  1.00  0.00    -0.203 F 
ATOM     87  F   UNL A   1      45.542  23.414  23.911  1.00  0.00    -0.200 F 
ATOM     88  C   UNL A   1      43.822  22.508  25.241  1.00  0.00     0.200 A 
ATOM     89  F   UNL A   1      42.139  21.647  26.649  1.00  0.00    -0.200 F 
ATOM     90  F   UNL A   1      44.103  21.275  24.797  1.00  0.00    -0.200 F 
ENDBRANCH  56  80
BRANCH  68  91
ATOM     91  C   UNL A   1      45.461  30.427  28.758  1.00  0.00     0.064 A 
ATOM     92  C   UNL A   1      44.599  31.015  27.814  1.00  0.00     0.173 A 
ATOM     93  C   UNL A   1      46.801  30.835  28.746  1.00  0.00     0.173 A 
ATOM     94  F   UNL A   1      43.283  30.762  27.828  1.00  0.00    -0.203 F 
ATOM     95  C   UNL A   1      45.075  31.915  26.862  1.00  0.00     0.198 A 
ATOM     96  C   UNL A   1      47.265  31.765  27.821  1.00  0.00     0.198 A 
ATOM     97  F   UNL A   1      47.658  30.353  29.660  1.00  0.00    -0.203 F 
ATOM     98  F   UNL A   1      44.238  32.439  25.954  1.00  0.00    -0.200 F 
ATOM     99  C   UNL A   1      46.408  32.292  26.869  1.00  0.00     0.200 A 
ATOM    100  F   UNL A   1      48.544  32.164  27.865  1.00  0.00    -0.200 F 
ATOM    101  F   UNL A   1      46.861  33.180  25.974  1.00  0.00    -0.200 F 
ENDBRANCH  68  91
ENDBRANCH  42  43
ENDBRANCH  35  37
ENDBRANCH  34  35
ENDBRANCH  33  34
ENDBRANCH  32  33
ENDBRANCH  31  32
ENDBRANCH   1  31
TORSDOF 18
ENDMDL
MODEL 3
REMARK VINA RESULT:     -11.9      3.510      9.071
REMARK SMILES NS(=O)(=O)c1ccc(-n2nc(C(=O)OCCOCCOC(=O)c3ccc(-c4c5nc(c(-c6c(F)c(F)c(F)c(F)c6F)c6ccc([nH]6)c(-c6c(F)c(F)c(F)c(F)c6F)c6nc(c(-c7c(F)c(F)c(F)c(F)c7F)c7ccc4[nH]7)C=C6)C=C5)cc3)c(Cl)c2-c2ccc(Cl)cc2)cc1
REMARK SMILES IDX 16 1 15 2 14 3 12 4 13 5 11 6 9 7 10 8 88 9 86 10 87 11 8 12
REMARK SMILES IDX 5 13 6 14 97 15 7 16 96 17 2 18 3 19 4 20 1 21 89 24 90 25
REMARK SMILES IDX 95 26 91 27 94 28 92 29 93 30 17 31 18 32 19 33 20 34 21 35
REMARK SMILES IDX 22 36 23 37 24 38 85 39 25 40 84 41 26 42 27 43 28 44 78 45
REMARK SMILES IDX 29 46 83 47 77 48 79 49 30 50 82 51 76 52 75 53 31 55 63 56
REMARK SMILES IDX 43 57 62 58 44 59 47 60 61 61 80 62 45 63 46 64 60 66 81 67
REMARK SMILES IDX 48 68 32 69 33 70 41 71 34 72 35 73 39 74 42 75 36 76 37 77
REMARK SMILES IDX 40 78 38 79 64 80 65 81 73 82 66 83 67 84 71 85 74 86 68 87
REMARK SMILES IDX 69 88 72 89 70 90 49 91 50 92 58 93 51 94 52 95 56 96 59 97
REMARK SMILES IDX 53 98 54 99 57 100 55 101
REMARK H PARENT 1 22 1 23 79 54 47 65
REMARK Flexibility Score: inf
ROOT
ATOM      1  C   UNL A   1      33.489  29.131  23.999  1.00  0.00     0.202 C 
ENDROOT
BRANCH   1   2
ATOM      2  C   UNL A   1      32.682  28.439  22.902  1.00  0.00     0.261 C 
BRANCH   2   3
ATOM      3  O   UNL A   1      32.451  27.058  23.217  1.00  0.00    -0.458 OA
BRANCH   3   4
ATOM      4  C   UNL A   1      33.226  26.136  22.571  1.00  0.00     0.360 C 
ATOM      5  O   UNL A   1      33.655  26.281  21.432  1.00  0.00    -0.244 OA
BRANCH   4   6
ATOM      6  C   UNL A   1      33.533  24.973  23.417  1.00  0.00     0.190 A 
ATOM      7  N   UNL A   1      34.725  23.549  24.486  1.00  0.00    -0.231 N 
ATOM      8  N   UNL A   1      34.740  24.814  24.006  1.00  0.00    -0.159 NA
ATOM      9  C   UNL A   1      33.503  22.928  24.304  1.00  0.00     0.094 A 
ATOM     10  C   UNL A   1      32.690  23.881  23.723  1.00  0.00     0.102 A 
ATOM     11  Cl  UNL A   1      31.040  23.694  23.334  1.00  0.00    -0.079 Cl
BRANCH   7  12
ATOM     12  C   UNL A   1      35.929  22.945  24.914  1.00  0.00     0.065 A 
ATOM     13  C   UNL A   1      38.383  21.864  25.637  1.00  0.00     0.082 A 
ATOM     14  C   UNL A   1      37.525  21.130  24.809  1.00  0.00     0.024 A 
ATOM     15  C   UNL A   1      38.003  23.116  26.132  1.00  0.00     0.024 A 
ATOM     16  C   UNL A   1      36.275  21.663  24.463  1.00  0.00     0.030 A 
ATOM     17  C   UNL A   1      36.781  23.668  25.756  1.00  0.00     0.030 A 
BRANCH  13  18
ATOM     18  S   UNL A   1      39.978  21.259  26.112  1.00  0.00     0.238 S 
ATOM     19  O   UNL A   1      40.983  22.047  25.447  1.00  0.00    -0.207 OA
ATOM     20  O   UNL A   1      39.944  19.813  26.043  1.00  0.00    -0.207 OA
BRANCH  18  21
ATOM     21  N   UNL A   1      40.127  21.634  27.742  1.00  0.00    -0.225 NA
ATOM     22  H   UNL A   1      39.589  22.476  27.947  1.00  0.00     0.137 HD
ATOM     23  H   UNL A   1      41.109  21.794  27.965  1.00  0.00     0.137 HD
ENDBRANCH  18  21
ENDBRANCH  13  18
ENDBRANCH   7  12
BRANCH   9  24
ATOM     24  C   UNL A   1      33.184  21.539  24.617  1.00  0.00     0.002 A 
ATOM     25  C   UNL A   1      33.271  21.125  25.955  1.00  0.00     0.012 A 
ATOM     26  C   UNL A   1      32.883  20.604  23.624  1.00  0.00     0.012 A 
ATOM     27  C   UNL A   1      33.102  19.785  26.295  1.00  0.00     0.021 A 
ATOM     28  C   UNL A   1      32.708  19.259  23.967  1.00  0.00     0.021 A 
ATOM     29  C   UNL A   1      32.832  18.855  25.297  1.00  0.00     0.041 A 
ATOM     30  Cl  UNL A   1      32.677  17.194  25.709  1.00  0.00    -0.084 Cl
ENDBRANCH   9  24
ENDBRANCH   4   6
ENDBRANCH   3   4
ENDBRANCH   2   3
ENDBRANCH   1   2
BRANCH   1  31
ATOM     31  O   UNL A   1      33.013  28.995  25.337  1.00  0.00    -0.374 OA
BRANCH  31  32
ATOM     32  C   UNL A   1      32.371  30.092  25.974  1.00  0.00     0.202 C 
BRANCH  32  33
ATOM     33  C   UNL A   1      33.059  30.722  27.174  1.00  0.00     0.261 C 
BRANCH  33  34
ATOM     34  O   UNL A   1      34.471  30.577  27.137  1.00  0.00    -0.460 OA
BRANCH  34  35
ATOM     35  C   UNL A   1      35.134  31.578  27.761  1.00  0.00     0.338 C 
ATOM     36  O   UNL A   1      35.036  32.774  27.552  1.00  0.00    -0.246 OA
BRANCH  35  37
ATOM     37  C   UNL A   1      36.186  30.980  28.588  1.00  0.00     0.060 A 
ATOM     38  C   UNL A   1      37.190  31.850  29.015  1.00  0.00     0.016 A 
ATOM     39  C   UNL A   1      36.336  29.585  28.641  1.00  0.00     0.016 A 
ATOM     40  C   UNL A   1      38.433  31.326  29.274  1.00  0.00     0.010 A 
ATOM     41  C   UNL A   1      37.582  29.063  28.887  1.00  0.00     0.010 A 
ATOM     42  C   UNL A   1      38.631  29.948  29.114  1.00  0.00    -0.014 A 
BRANCH  42  43
ATOM     43  C   UNL A   1      39.961  29.438  29.356  1.00  0.00     0.031 A 
ATOM     44  C   UNL A   1      40.306  29.485  30.792  1.00  0.00     0.074 A 
ATOM     45  C   UNL A   1      40.747  28.929  28.390  1.00  0.00     0.049 A 
ATOM     46  N   UNL A   1      41.178  30.254  31.351  1.00  0.00    -0.248 NA
ATOM     47  C   UNL A   1      39.444  28.756  31.736  1.00  0.00     0.031 C 
ATOM     48  C   UNL A   1      40.407  28.637  26.998  1.00  0.00     0.029 A 
ATOM     49  N   UNL A   1      42.028  28.484  28.490  1.00  0.00    -0.354 N 
ATOM     50  C   UNL A   1      41.124  29.945  32.704  1.00  0.00     0.074 A 
ATOM     51  C   UNL A   1      39.919  29.186  32.905  1.00  0.00     0.031 C 
ATOM     52  C   UNL A   1      41.374  27.858  26.458  1.00  0.00     0.029 A 
ATOM     53  C   UNL A   1      42.450  27.702  27.421  1.00  0.00     0.049 A 
ATOM     54  H   UNL A   1      42.609  28.700  29.255  1.00  0.00     0.167 HD
ATOM     55  C   UNL A   1      42.239  30.072  33.469  1.00  0.00     0.037 A 
ATOM     56  C   UNL A   1      43.569  26.932  27.391  1.00  0.00     0.037 A 
ATOM     57  C   UNL A   1      43.179  30.988  32.865  1.00  0.00     0.049 A 
ATOM     58  C   UNL A   1      44.487  27.439  28.446  1.00  0.00     0.074 A 
ATOM     59  C   UNL A   1      43.122  32.311  32.467  1.00  0.00     0.029 A 
ATOM     60  N   UNL A   1      44.274  30.459  32.227  1.00  0.00    -0.354 N 
ATOM     61  N   UNL A   1      45.096  28.590  28.374  1.00  0.00    -0.248 NA
ATOM     62  C   UNL A   1      44.342  26.893  29.789  1.00  0.00     0.031 C 
ATOM     63  C   UNL A   1      43.879  32.371  31.259  1.00  0.00     0.029 A 
ATOM     64  C   UNL A   1      44.410  31.103  31.025  1.00  0.00     0.049 A 
ATOM     65  H   UNL A   1      44.857  29.744  32.572  1.00  0.00     0.167 HD
ATOM     66  C   UNL A   1      44.994  29.118  29.652  1.00  0.00     0.074 A 
ATOM     67  C   UNL A   1      44.591  27.998  30.499  1.00  0.00     0.031 C 
ATOM     68  C   UNL A   1      44.949  30.468  29.848  1.00  0.00     0.037 A 
BRANCH  55  69
ATOM     69  C   UNL A   1      42.655  29.029  34.479  1.00  0.00     0.064 A 
ATOM     70  C   UNL A   1      43.094  29.459  35.744  1.00  0.00     0.173 A 
ATOM     71  C   UNL A   1      42.954  27.684  34.157  1.00  0.00     0.173 A 
ATOM     72  F   UNL A   1      42.875  30.719  36.149  1.00  0.00    -0.203 F 
ATOM     73  C   UNL A   1      43.867  28.642  36.572  1.00  0.00     0.198 A 
ATOM     74  C   UNL A   1      43.678  26.855  35.009  1.00  0.00     0.198 A 
ATOM     75  F   UNL A   1      42.671  27.143  32.968  1.00  0.00    -0.203 F 
ATOM     76  F   UNL A   1      44.388  29.144  37.698  1.00  0.00    -0.200 F 
ATOM     77  C   UNL A   1      44.168  27.345  36.198  1.00  0.00     0.200 A 
ATOM     78  F   UNL A   1      43.974  25.608  34.616  1.00  0.00    -0.200 F 
ATOM     79  F   UNL A   1      44.970  26.585  36.954  1.00  0.00    -0.200 F 
ENDBRANCH  55  69
BRANCH  56  80
ATOM     80  C   UNL A   1      43.759  25.604  26.756  1.00  0.00     0.064 A 
ATOM     81  C   UNL A   1      44.654  25.434  25.684  1.00  0.00     0.173 A 
ATOM     82  C   UNL A   1      43.288  24.424  27.365  1.00  0.00     0.173 A 
ATOM     83  F   UNL A   1      45.191  26.502  25.076  1.00  0.00    -0.203 F 
ATOM     84  C   UNL A   1      45.072  24.164  25.270  1.00  0.00     0.198 A 
ATOM     85  C   UNL A   1      43.700  23.159  26.945  1.00  0.00     0.198 A 
ATOM     86  F   UNL A   1      42.494  24.475  28.443  1.00  0.00    -0.203 F 
ATOM     87  F   UNL A   1      45.978  24.045  24.288  1.00  0.00    -0.200 F 
ATOM     88  C   UNL A   1      44.603  23.028  25.908  1.00  0.00     0.200 A 
ATOM     89  F   UNL A   1      43.266  22.070  27.596  1.00  0.00    -0.200 F 
ATOM     90  F   UNL A   1      45.051  21.815  25.553  1.00  0.00    -0.200 F 
ENDBRANCH  56  80
BRANCH  68  91
ATOM     91  C   UNL A   1      45.289  31.352  28.679  1.00  0.00     0.064 A 
ATOM     92  C   UNL A   1      44.391  31.686  27.649  1.00  0.00     0.173 A 
ATOM     93  C   UNL A   1      46.547  31.966  28.658  1.00  0.00     0.173 A 
ATOM     94  F   UNL A   1      43.131  31.228  27.655  1.00  0.00    -0.203 F 
ATOM     95  C   UNL A   1      44.764  32.540  26.613  1.00  0.00     0.198 A 
ATOM     96  C   UNL A   1      46.903  32.850  27.645  1.00  0.00     0.198 A 
ATOM     97  F   UNL A   1      47.426  31.732  29.646  1.00  0.00    -0.203 F 
ATOM     98  F   UNL A   1      43.899  32.819  25.626  1.00  0.00    -0.200 F 
ATOM     99  C   UNL A   1      46.020  33.123  26.614  1.00  0.00     0.200 A 
ATOM    100  F   UNL A   1      48.101  33.452  27.678  1.00  0.00    -0.200 F 
ATOM    101  F   UNL A   1      46.370  33.969  25.635  1.00  0.00    -0.200 F 
ENDBRANCH  68  91
ENDBRANCH  42  43
ENDBRANCH  35  37
ENDBRANCH  34  35
ENDBRANCH  33  34
ENDBRANCH  32  33
ENDBRANCH  31  32
ENDBRANCH   1  31
TORSDOF 18
ENDMDL
