MODEL 1
REMARK VINA RESULT:      -9.3      0.000      0.000
REMARK SMILES CC(C)CSc1cc2c(cc1Cl)C=C(C(=O)OCCOCCOC(=O)c1ccc(-c3c4nc(c(-c5c(F)c(F)c(F)c(F)c5F)c5ccc([nH]5)c(-c5c(F)c(F)c(F)c(F)c5F)c5nc(c(-c6c(F)c(F)c(F)c(F)c6F)c6ccc3[nH]6)C=C5)C=C4)cc1)[C@@H](C(F)(F)F)O2
REMARK SMILES IDX 19 1 18 2 17 3 15 4 16 5 14 6 6 7 7 8 11 9 8 10 10 11 12 12
REMARK SMILES IDX 9 13 94 14 13 15 89 16 5 17 4 18 2 19 1 20 3 21 90 22 91 23
REMARK SMILES IDX 92 24 93 25 20 26 21 27 22 28 23 29 24 30 25 31 26 32 27 33
REMARK SMILES IDX 88 34 28 35 87 36 29 37 30 38 31 39 81 40 32 41 86 42 80 43
REMARK SMILES IDX 82 44 33 45 85 46 79 47 78 48 34 50 66 51 46 52 65 53 47 54
REMARK SMILES IDX 50 55 64 56 83 57 48 58 49 59 63 61 84 62 51 63 35 64 36 65
REMARK SMILES IDX 44 66 37 67 38 68 42 69 45 70 39 71 40 72 43 73 41 74 67 75
REMARK SMILES IDX 68 76 76 77 69 78 70 79 74 80 77 81 71 82 72 83 75 84 73 85
REMARK SMILES IDX 52 86 53 87 61 88 54 89 55 90 59 91 62 92 56 93 57 94 60 95
REMARK SMILES IDX 58 96
REMARK H PARENT 82 49 50 60
REMARK Flexibility Score: inf
ROOT
ATOM      1  C   UNL A   1      34.340  36.215  33.247  1.00  0.00     0.202 C 
ENDROOT
BRANCH   1   2
ATOM      2  C   UNL A   1      35.438  35.210  32.889  1.00  0.00     0.261 C 
BRANCH   2   3
ATOM      3  O   UNL A   1      36.408  35.075  33.936  1.00  0.00    -0.460 OA
BRANCH   3   4
ATOM      4  C   UNL A   1      36.279  33.943  34.665  1.00  0.00     0.338 C 
ATOM      5  O   UNL A   1      35.329  33.618  35.358  1.00  0.00    -0.246 OA
BRANCH   4   6
ATOM      6  C   UNL A   1      37.434  33.064  34.426  1.00  0.00     0.087 C 
ATOM      7  C   UNL A   1      40.267  29.000  33.579  1.00  0.00     0.030 A 
ATOM      8  C   UNL A   1      40.400  30.191  34.296  1.00  0.00     0.063 A 
ATOM      9  C   UNL A   1      39.068  28.813  32.862  1.00  0.00     0.055 A 
ATOM     10  C   UNL A   1      39.435  31.193  34.249  1.00  0.00     0.129 A 
ATOM     11  C   UNL A   1      38.059  29.790  32.874  1.00  0.00     0.033 A 
ATOM     12  Cl  UNL A   1      38.737  27.376  31.949  1.00  0.00    -0.083 Cl
ATOM     13  C   UNL A   1      38.242  30.982  33.577  1.00  0.00     0.019 A 
ATOM     14  O   UNL A   1      39.764  32.344  34.898  1.00  0.00    -0.475 OA
ATOM     15  C   UNL A   1      37.177  31.957  33.714  1.00  0.00     0.027 C 
ATOM     16  C   UNL A   1      38.788  33.416  34.982  1.00  0.00     0.316 C 
BRANCH   7  17
ATOM     17  S   UNL A   1      41.587  27.780  33.528  1.00  0.00    -0.124 SA
BRANCH  17  18
ATOM     18  C   UNL A   1      41.909  27.304  35.270  1.00  0.00     0.078 C 
BRANCH  18  19
ATOM     19  C   UNL A   1      41.534  25.852  35.640  1.00  0.00    -0.007 C 
ATOM     20  C   UNL A   1      42.604  24.798  35.350  1.00  0.00     0.008 C 
ATOM     21  C   UNL A   1      41.192  25.794  37.134  1.00  0.00     0.008 C 
ENDBRANCH  18  19
ENDBRANCH  17  18
ENDBRANCH   7  17
BRANCH  16  22
ATOM     22  C   UNL A   1      38.782  33.873  36.447  1.00  0.00     0.430 C 
ATOM     23  F   UNL A   1      39.068  35.197  36.539  1.00  0.00    -0.167 F 
ATOM     24  F   UNL A   1      37.580  33.703  37.041  1.00  0.00    -0.167 F 
ATOM     25  F   UNL A   1      39.700  33.209  37.184  1.00  0.00    -0.167 F 
ENDBRANCH  16  22
ENDBRANCH   4   6
ENDBRANCH   3   4
ENDBRANCH   2   3
ENDBRANCH   1   2
BRANCH   1  26
ATOM     26  O   UNL A   1      33.851  37.060  32.209  1.00  0.00    -0.374 OA
BRANCH  26  27
ATOM     27  C   UNL A   1      32.706  36.639  31.470  1.00  0.00     0.202 C 
BRANCH  27  28
ATOM     28  C   UNL A   1      32.921  36.022  30.081  1.00  0.00     0.261 C 
BRANCH  28  29
ATOM     29  O   UNL A   1      33.095  34.595  30.125  1.00  0.00    -0.460 OA
BRANCH  29  30
ATOM     30  C   UNL A   1      33.470  34.029  28.951  1.00  0.00     0.338 C 
ATOM     31  O   UNL A   1      32.910  34.122  27.869  1.00  0.00    -0.246 OA
BRANCH  30  32
ATOM     32  C   UNL A   1      34.803  33.422  29.111  1.00  0.00     0.060 A 
ATOM     33  C   UNL A   1      35.881  33.830  28.327  1.00  0.00     0.016 A 
ATOM     34  C   UNL A   1      34.970  32.446  30.103  1.00  0.00     0.016 A 
ATOM     35  C   UNL A   1      37.141  33.271  28.555  1.00  0.00     0.010 A 
ATOM     36  C   UNL A   1      36.228  31.888  30.327  1.00  0.00     0.010 A 
ATOM     37  C   UNL A   1      37.327  32.311  29.567  1.00  0.00    -0.014 A 
BRANCH  37  38
ATOM     38  C   UNL A   1      38.691  31.836  29.907  1.00  0.00     0.031 A 
ATOM     39  C   UNL A   1      39.603  32.640  30.782  1.00  0.00     0.074 A 
ATOM     40  C   UNL A   1      39.108  30.665  29.390  1.00  0.00     0.049 A 
ATOM     41  N   UNL A   1      40.808  32.346  31.205  1.00  0.00    -0.248 NA
ATOM     42  C   UNL A   1      39.105  33.945  31.240  1.00  0.00     0.031 C 
ATOM     43  C   UNL A   1      38.319  29.815  28.498  1.00  0.00     0.029 A 
ATOM     44  N   UNL A   1      40.290  29.985  29.541  1.00  0.00    -0.354 N 
ATOM     45  C   UNL A   1      41.205  33.416  31.993  1.00  0.00     0.074 A 
ATOM     46  C   UNL A   1      40.135  34.391  31.948  1.00  0.00     0.031 C 
ATOM     47  C   UNL A   1      39.025  28.713  28.205  1.00  0.00     0.029 A 
ATOM     48  C   UNL A   1      40.328  28.794  28.861  1.00  0.00     0.049 A 
ATOM     49  H   UNL A   1      41.039  30.320  30.087  1.00  0.00     0.167 HD
ATOM     50  C   UNL A   1      42.350  33.557  32.705  1.00  0.00     0.037 A 
ATOM     51  C   UNL A   1      41.303  27.869  28.772  1.00  0.00     0.037 A 
ATOM     52  C   UNL A   1      43.418  32.588  32.731  1.00  0.00     0.049 A 
ATOM     53  C   UNL A   1      42.586  28.078  29.529  1.00  0.00     0.074 A 
ATOM     54  C   UNL A   1      44.602  32.630  33.447  1.00  0.00     0.029 A 
ATOM     55  N   UNL A   1      43.440  31.409  31.998  1.00  0.00    -0.354 N 
ATOM     56  N   UNL A   1      42.923  29.060  30.329  1.00  0.00    -0.248 NA
ATOM     57  C   UNL A   1      43.622  27.049  29.372  1.00  0.00     0.031 C 
ATOM     58  C   UNL A   1      45.364  31.510  33.103  1.00  0.00     0.029 A 
ATOM     59  C   UNL A   1      44.631  30.734  32.222  1.00  0.00     0.049 A 
ATOM     60  H   UNL A   1      42.716  31.098  31.407  1.00  0.00     0.167 HD
ATOM     61  C   UNL A   1      44.198  28.757  30.788  1.00  0.00     0.074 A 
ATOM     62  C   UNL A   1      44.564  27.489  30.195  1.00  0.00     0.031 C 
ATOM     63  C   UNL A   1      44.991  29.472  31.623  1.00  0.00     0.037 A 
BRANCH  50  64
ATOM     64  C   UNL A   1      42.514  34.802  33.529  1.00  0.00     0.064 A 
ATOM     65  C   UNL A   1      42.369  34.778  34.924  1.00  0.00     0.173 A 
ATOM     66  C   UNL A   1      42.904  36.011  32.932  1.00  0.00     0.173 A 
ATOM     67  F   UNL A   1      41.992  33.650  35.544  1.00  0.00    -0.203 F 
ATOM     68  C   UNL A   1      42.591  35.922  35.689  1.00  0.00     0.198 A 
ATOM     69  C   UNL A   1      43.156  37.143  33.702  1.00  0.00     0.198 A 
ATOM     70  F   UNL A   1      43.068  36.088  31.602  1.00  0.00    -0.203 F 
ATOM     71  F   UNL A   1      42.414  35.882  37.016  1.00  0.00    -0.200 F 
ATOM     72  C   UNL A   1      42.995  37.099  35.079  1.00  0.00     0.200 A 
ATOM     73  F   UNL A   1      43.563  38.276  33.113  1.00  0.00    -0.200 F 
ATOM     74  F   UNL A   1      43.227  38.193  35.818  1.00  0.00    -0.200 F 
ENDBRANCH  50  64
BRANCH  51  75
ATOM     75  C   UNL A   1      41.080  26.644  27.961  1.00  0.00     0.064 A 
ATOM     76  C   UNL A   1      41.807  26.420  26.783  1.00  0.00     0.173 A 
ATOM     77  C   UNL A   1      40.160  25.662  28.357  1.00  0.00     0.173 A 
ATOM     78  F   UNL A   1      42.684  27.338  26.353  1.00  0.00    -0.203 F 
ATOM     79  C   UNL A   1      41.615  25.265  26.029  1.00  0.00     0.198 A 
ATOM     80  C   UNL A   1      39.992  24.493  27.619  1.00  0.00     0.198 A 
ATOM     81  F   UNL A   1      39.443  25.827  29.479  1.00  0.00    -0.203 F 
ATOM     82  F   UNL A   1      42.297  25.092  24.888  1.00  0.00    -0.200 F 
ATOM     83  C   UNL A   1      40.715  24.299  26.451  1.00  0.00     0.200 A 
ATOM     84  F   UNL A   1      39.134  23.555  28.040  1.00  0.00    -0.200 F 
ATOM     85  F   UNL A   1      40.542  23.181  25.733  1.00  0.00    -0.200 F 
ENDBRANCH  51  75
BRANCH  63  86
ATOM     86  C   UNL A   1      46.339  28.897  31.962  1.00  0.00     0.064 A 
ATOM     87  C   UNL A   1      47.482  29.211  31.209  1.00  0.00     0.173 A 
ATOM     88  C   UNL A   1      46.503  28.071  33.085  1.00  0.00     0.173 A 
ATOM     89  F   UNL A   1      47.381  29.985  30.118  1.00  0.00    -0.203 F 
ATOM     90  C   UNL A   1      48.730  28.702  31.556  1.00  0.00     0.198 A 
ATOM     91  C   UNL A   1      47.758  27.593  33.448  1.00  0.00     0.198 A 
ATOM     92  F   UNL A   1      45.445  27.744  33.843  1.00  0.00    -0.203 F 
ATOM     93  F   UNL A   1      49.800  28.980  30.796  1.00  0.00    -0.200 F 
ATOM     94  C   UNL A   1      48.870  27.903  32.680  1.00  0.00     0.200 A 
ATOM     95  F   UNL A   1      47.893  26.835  34.545  1.00  0.00    -0.200 F 
ATOM     96  F   UNL A   1      50.076  27.428  33.022  1.00  0.00    -0.200 F 
ENDBRANCH  63  86
ENDBRANCH  37  38
ENDBRANCH  30  32
ENDBRANCH  29  30
ENDBRANCH  28  29
ENDBRANCH  27  28
ENDBRANCH  26  27
ENDBRANCH   1  26
TORSDOF 18
ENDMDL
MODEL 2
REMARK VINA RESULT:      -9.0      5.419     11.358
REMARK SMILES CC(C)CSc1cc2c(cc1Cl)C=C(C(=O)OCCOCCOC(=O)c1ccc(-c3c4nc(c(-c5c(F)c(F)c(F)c(F)c5F)c5ccc([nH]5)c(-c5c(F)c(F)c(F)c(F)c5F)c5nc(c(-c6c(F)c(F)c(F)c(F)c6F)c6ccc3[nH]6)C=C5)C=C4)cc1)[C@@H](C(F)(F)F)O2
REMARK SMILES IDX 19 1 18 2 17 3 15 4 16 5 14 6 6 7 7 8 11 9 8 10 10 11 12 12
REMARK SMILES IDX 9 13 94 14 13 15 89 16 5 17 4 18 2 19 1 20 3 21 90 22 91 23
REMARK SMILES IDX 92 24 93 25 20 26 21 27 22 28 23 29 24 30 25 31 26 32 27 33
REMARK SMILES IDX 88 34 28 35 87 36 29 37 30 38 31 39 81 40 32 41 86 42 80 43
REMARK SMILES IDX 82 44 33 45 85 46 79 47 78 48 34 50 66 51 46 52 65 53 47 54
REMARK SMILES IDX 50 55 64 56 83 57 48 58 49 59 63 61 84 62 51 63 35 64 36 65
REMARK SMILES IDX 44 66 37 67 38 68 42 69 45 70 39 71 40 72 43 73 41 74 67 75
REMARK SMILES IDX 68 76 76 77 69 78 70 79 74 80 77 81 71 82 72 83 75 84 73 85
REMARK SMILES IDX 52 86 53 87 61 88 54 89 55 90 59 91 62 92 56 93 57 94 60 95
REMARK SMILES IDX 58 96
REMARK H PARENT 82 49 50 60
REMARK Flexibility Score: inf
ROOT
ATOM      1  C   UNL A   1      45.601  21.037  25.453  1.00  0.00     0.202 C 
ENDROOT
BRANCH   1   2
ATOM      2  C   UNL A   1      46.233  22.123  24.578  1.00  0.00     0.261 C 
BRANCH   2   3
ATOM      3  O   UNL A   1      46.756  23.207  25.358  1.00  0.00    -0.460 OA
BRANCH   3   4
ATOM      4  C   UNL A   1      47.100  24.295  24.630  1.00  0.00     0.338 C 
ATOM      5  O   UNL A   1      47.553  24.308  23.497  1.00  0.00    -0.246 OA
BRANCH   4   6
ATOM      6  C   UNL A   1      46.747  25.517  25.368  1.00  0.00     0.087 C 
ATOM      7  C   UNL A   1      44.448  29.750  26.803  1.00  0.00     0.030 A 
ATOM      8  C   UNL A   1      45.760  29.272  26.780  1.00  0.00     0.063 A 
ATOM      9  C   UNL A   1      43.439  28.880  26.339  1.00  0.00     0.055 A 
ATOM     10  C   UNL A   1      46.065  27.970  26.396  1.00  0.00     0.129 A 
ATOM     11  C   UNL A   1      43.753  27.591  25.878  1.00  0.00     0.033 A 
ATOM     12  Cl  UNL A   1      41.768  29.336  26.273  1.00  0.00    -0.083 Cl
ATOM     13  C   UNL A   1      45.073  27.137  25.901  1.00  0.00     0.019 A 
ATOM     14  O   UNL A   1      47.370  27.612  26.547  1.00  0.00    -0.475 OA
ATOM     15  C   UNL A   1      45.452  25.863  25.321  1.00  0.00     0.027 C 
ATOM     16  C   UNL A   1      47.805  26.304  26.092  1.00  0.00     0.316 C 
BRANCH   7  17
ATOM     17  S   UNL A   1      44.051  31.382  27.444  1.00  0.00    -0.124 SA
BRANCH  17  18
ATOM     18  C   UNL A   1      44.413  32.564  26.089  1.00  0.00     0.078 C 
BRANCH  18  19
ATOM     19  C   UNL A   1      43.981  34.024  26.349  1.00  0.00    -0.007 C 
ATOM     20  C   UNL A   1      45.105  34.990  26.724  1.00  0.00     0.008 C 
ATOM     21  C   UNL A   1      43.278  34.563  25.097  1.00  0.00     0.008 C 
ENDBRANCH  18  19
ENDBRANCH  17  18
ENDBRANCH   7  17
BRANCH  16  22
ATOM     22  C   UNL A   1      49.093  26.539  25.289  1.00  0.00     0.430 C 
ATOM     23  F   UNL A   1      49.842  27.518  25.857  1.00  0.00    -0.167 F 
ATOM     24  F   UNL A   1      49.881  25.442  25.235  1.00  0.00    -0.167 F 
ATOM     25  F   UNL A   1      48.830  26.917  24.018  1.00  0.00    -0.167 F 
ENDBRANCH  16  22
ENDBRANCH   4   6
ENDBRANCH   3   4
ENDBRANCH   2   3
ENDBRANCH   1   2
BRANCH   1  26
ATOM     26  O   UNL A   1      45.920  19.680  25.157  1.00  0.00    -0.374 OA
BRANCH  26  27
ATOM     27  C   UNL A   1      44.958  18.672  25.462  1.00  0.00     0.202 C 
BRANCH  27  28
ATOM     28  C   UNL A   1      43.487  18.940  25.116  1.00  0.00     0.261 C 
BRANCH  28  29
ATOM     29  O   UNL A   1      42.664  19.126  26.281  1.00  0.00    -0.460 OA
BRANCH  29  30
ATOM     30  C   UNL A   1      41.680  20.049  26.144  1.00  0.00     0.338 C 
ATOM     31  O   UNL A   1      40.531  19.861  25.774  1.00  0.00    -0.246 OA
BRANCH  30  32
ATOM     32  C   UNL A   1      42.137  21.330  26.709  1.00  0.00     0.060 A 
ATOM     33  C   UNL A   1      42.384  22.433  25.893  1.00  0.00     0.016 A 
ATOM     34  C   UNL A   1      42.281  21.425  28.100  1.00  0.00     0.016 A 
ATOM     35  C   UNL A   1      42.757  23.646  26.478  1.00  0.00     0.010 A 
ATOM     36  C   UNL A   1      42.656  22.635  28.682  1.00  0.00     0.010 A 
ATOM     37  C   UNL A   1      42.878  23.760  27.876  1.00  0.00    -0.014 A 
BRANCH  37  38
ATOM     38  C   UNL A   1      43.122  25.084  28.500  1.00  0.00     0.031 A 
ATOM     39  C   UNL A   1      44.486  25.487  28.970  1.00  0.00     0.074 A 
ATOM     40  C   UNL A   1      42.078  25.918  28.660  1.00  0.00     0.049 A 
ATOM     41  N   UNL A   1      44.872  26.621  29.500  1.00  0.00    -0.248 NA
ATOM     42  C   UNL A   1      45.557  24.489  28.836  1.00  0.00     0.031 C 
ATOM     43  C   UNL A   1      40.699  25.618  28.273  1.00  0.00     0.029 A 
ATOM     44  N   UNL A   1      42.011  27.185  29.182  1.00  0.00    -0.354 N 
ATOM     45  C   UNL A   1      46.231  26.483  29.743  1.00  0.00     0.074 A 
ATOM     46  C   UNL A   1      46.594  25.136  29.353  1.00  0.00     0.031 C 
ATOM     47  C   UNL A   1      39.927  26.682  28.541  1.00  0.00     0.029 A 
ATOM     48  C   UNL A   1      40.749  27.725  29.151  1.00  0.00     0.049 A 
ATOM     49  H   UNL A   1      42.793  27.662  29.545  1.00  0.00     0.167 HD
ATOM     50  C   UNL A   1      47.096  27.407  30.227  1.00  0.00     0.037 A 
ATOM     51  C   UNL A   1      40.301  28.925  29.566  1.00  0.00     0.037 A 
ATOM     52  C   UNL A   1      46.724  28.742  30.628  1.00  0.00     0.049 A 
ATOM     53  C   UNL A   1      41.275  29.911  30.151  1.00  0.00     0.074 A 
ATOM     54  C   UNL A   1      47.537  29.758  31.101  1.00  0.00     0.029 A 
ATOM     55  N   UNL A   1      45.429  29.243  30.619  1.00  0.00    -0.354 N 
ATOM     56  N   UNL A   1      42.571  29.797  30.310  1.00  0.00    -0.248 NA
ATOM     57  C   UNL A   1      40.723  31.192  30.610  1.00  0.00     0.031 C 
ATOM     58  C   UNL A   1      46.729  30.849  31.434  1.00  0.00     0.029 A 
ATOM     59  C   UNL A   1      45.419  30.540  31.108  1.00  0.00     0.049 A 
ATOM     60  H   UNL A   1      44.635  28.749  30.310  1.00  0.00     0.167 HD
ATOM     61  C   UNL A   1      42.994  30.997  30.866  1.00  0.00     0.074 A 
ATOM     62  C   UNL A   1      41.819  31.833  30.996  1.00  0.00     0.031 C 
ATOM     63  C   UNL A   1      44.244  31.366  31.239  1.00  0.00     0.037 A 
BRANCH  50  64
ATOM     64  C   UNL A   1      48.543  27.019  30.345  1.00  0.00     0.064 A 
ATOM     65  C   UNL A   1      48.979  26.117  31.327  1.00  0.00     0.173 A 
ATOM     66  C   UNL A   1      49.489  27.484  29.417  1.00  0.00     0.173 A 
ATOM     67  F   UNL A   1      48.117  25.647  32.241  1.00  0.00    -0.203 F 
ATOM     68  C   UNL A   1      50.309  25.709  31.387  1.00  0.00     0.198 A 
ATOM     69  C   UNL A   1      50.810  27.049  29.461  1.00  0.00     0.198 A 
ATOM     70  F   UNL A   1      49.124  28.341  28.451  1.00  0.00    -0.203 F 
ATOM     71  F   UNL A   1      50.708  24.871  32.354  1.00  0.00    -0.200 F 
ATOM     72  C   UNL A   1      51.220  26.166  30.448  1.00  0.00     0.200 A 
ATOM     73  F   UNL A   1      51.686  27.479  28.542  1.00  0.00    -0.200 F 
ATOM     74  F   UNL A   1      52.496  25.756  30.495  1.00  0.00    -0.200 F 
ENDBRANCH  50  64
BRANCH  51  75
ATOM     75  C   UNL A   1      38.864  29.267  29.405  1.00  0.00     0.064 A 
ATOM     76  C   UNL A   1      38.013  29.336  30.517  1.00  0.00     0.173 A 
ATOM     77  C   UNL A   1      38.319  29.559  28.146  1.00  0.00     0.173 A 
ATOM     78  F   UNL A   1      38.484  29.047  31.739  1.00  0.00    -0.203 F 
ATOM     79  C   UNL A   1      36.669  29.674  30.374  1.00  0.00     0.198 A 
ATOM     80  C   UNL A   1      36.983  29.928  28.008  1.00  0.00     0.198 A 
ATOM     81  F   UNL A   1      39.093  29.512  27.051  1.00  0.00    -0.203 F 
ATOM     82  F   UNL A   1      35.869  29.698  31.449  1.00  0.00    -0.200 F 
ATOM     83  C   UNL A   1      36.158  29.979  29.122  1.00  0.00     0.200 A 
ATOM     84  F   UNL A   1      36.497  30.238  26.799  1.00  0.00    -0.200 F 
ATOM     85  F   UNL A   1      34.868  30.319  28.987  1.00  0.00    -0.200 F 
ENDBRANCH  51  75
BRANCH  63  86
ATOM     86  C   UNL A   1      44.418  32.744  31.815  1.00  0.00     0.064 A 
ATOM     87  C   UNL A   1      44.646  33.860  30.995  1.00  0.00     0.173 A 
ATOM     88  C   UNL A   1      44.298  32.962  33.197  1.00  0.00     0.173 A 
ATOM     89  F   UNL A   1      44.782  33.708  29.669  1.00  0.00    -0.203 F 
ATOM     90  C   UNL A   1      44.768  35.136  31.539  1.00  0.00     0.198 A 
ATOM     91  C   UNL A   1      44.386  34.243  33.733  1.00  0.00     0.198 A 
ATOM     92  F   UNL A   1      44.074  31.932  34.027  1.00  0.00    -0.203 F 
ATOM     93  F   UNL A   1      45.030  36.180  30.740  1.00  0.00    -0.200 F 
ATOM     94  C   UNL A   1      44.628  35.328  32.904  1.00  0.00     0.200 A 
ATOM     95  F   UNL A   1      44.232  34.429  35.051  1.00  0.00    -0.200 F 
ATOM     96  F   UNL A   1      44.729  36.560  33.424  1.00  0.00    -0.200 F 
ENDBRANCH  63  86
ENDBRANCH  37  38
ENDBRANCH  30  32
ENDBRANCH  29  30
ENDBRANCH  28  29
ENDBRANCH  27  28
ENDBRANCH  26  27
ENDBRANCH   1  26
TORSDOF 18
ENDMDL
MODEL 3
REMARK VINA RESULT:      -8.7      6.339     12.276
REMARK SMILES CC(C)CSc1cc2c(cc1Cl)C=C(C(=O)OCCOCCOC(=O)c1ccc(-c3c4nc(c(-c5c(F)c(F)c(F)c(F)c5F)c5ccc([nH]5)c(-c5c(F)c(F)c(F)c(F)c5F)c5nc(c(-c6c(F)c(F)c(F)c(F)c6F)c6ccc3[nH]6)C=C5)C=C4)cc1)[C@@H](C(F)(F)F)O2
REMARK SMILES IDX 19 1 18 2 17 3 15 4 16 5 14 6 6 7 7 8 11 9 8 10 10 11 12 12
REMARK SMILES IDX 9 13 94 14 13 15 89 16 5 17 4 18 2 19 1 20 3 21 90 22 91 23
REMARK SMILES IDX 92 24 93 25 20 26 21 27 22 28 23 29 24 30 25 31 26 32 27 33
REMARK SMILES IDX 88 34 28 35 87 36 29 37 30 38 31 39 81 40 32 41 86 42 80 43
REMARK SMILES IDX 82 44 33 45 85 46 79 47 78 48 34 50 66 51 46 52 65 53 47 54
REMARK SMILES IDX 50 55 64 56 83 57 48 58 49 59 63 61 84 62 51 63 35 64 36 65
REMARK SMILES IDX 44 66 37 67 38 68 42 69 45 70 39 71 40 72 43 73 41 74 67 75
REMARK SMILES IDX 68 76 76 77 69 78 70 79 74 80 77 81 71 82 72 83 75 84 73 85
REMARK SMILES IDX 52 86 53 87 61 88 54 89 55 90 59 91 62 92 56 93 57 94 60 95
REMARK SMILES IDX 58 96
REMARK H PARENT 82 49 50 60
REMARK Flexibility Score: inf
ROOT
ATOM      1  C   UNL A   1      37.336  21.817  24.264  1.00  0.00     0.202 C 
ENDROOT
BRANCH   1   2
ATOM      2  C   UNL A   1      35.838  21.779  24.574  1.00  0.00     0.261 C 
BRANCH   2   3
ATOM      3  O   UNL A   1      35.146  22.912  24.033  1.00  0.00    -0.460 OA
BRANCH   3   4
ATOM      4  C   UNL A   1      34.553  23.693  24.965  1.00  0.00     0.338 C 
ATOM      5  O   UNL A   1      34.839  23.773  26.148  1.00  0.00    -0.246 OA
BRANCH   4   6
ATOM      6  C   UNL A   1      33.543  24.550  24.324  1.00  0.00     0.087 C 
ATOM      7  C   UNL A   1      30.114  28.137  23.525  1.00  0.00     0.030 A 
ATOM      8  C   UNL A   1      30.304  26.814  23.121  1.00  0.00     0.063 A 
ATOM      9  C   UNL A   1      31.101  28.700  24.361  1.00  0.00     0.055 A 
ATOM     10  C   UNL A   1      31.449  26.097  23.451  1.00  0.00     0.129 A 
ATOM     11  C   UNL A   1      32.222  27.954  24.759  1.00  0.00     0.033 A 
ATOM     12  Cl  UNL A   1      30.996  30.319  24.974  1.00  0.00    -0.083 Cl
ATOM     13  C   UNL A   1      32.392  26.644  24.308  1.00  0.00     0.019 A 
ATOM     14  O   UNL A   1      31.547  24.865  22.880  1.00  0.00    -0.475 OA
ATOM     15  C   UNL A   1      33.468  25.803  24.795  1.00  0.00     0.027 C 
ATOM     16  C   UNL A   1      32.662  24.004  23.233  1.00  0.00     0.316 C 
BRANCH   7  17
ATOM     17  S   UNL A   1      28.703  29.100  22.965  1.00  0.00    -0.124 SA
BRANCH  17  18
ATOM     18  C   UNL A   1      29.362  30.314  21.757  1.00  0.00     0.078 C 
BRANCH  18  19
ATOM     19  C   UNL A   1      28.846  31.760  21.921  1.00  0.00    -0.007 C 
ATOM     20  C   UNL A   1      27.991  32.292  20.770  1.00  0.00     0.008 C 
ATOM     21  C   UNL A   1      28.024  31.848  23.213  1.00  0.00     0.008 C 
ENDBRANCH  18  19
ENDBRANCH  17  18
ENDBRANCH   7  17
BRANCH  16  22
ATOM     22  C   UNL A   1      32.058  22.623  23.525  1.00  0.00     0.430 C 
ATOM     23  F   UNL A   1      30.878  22.467  22.872  1.00  0.00    -0.167 F 
ATOM     24  F   UNL A   1      32.854  21.610  23.117  1.00  0.00    -0.167 F 
ATOM     25  F   UNL A   1      31.817  22.449  24.843  1.00  0.00    -0.167 F 
ENDBRANCH  16  22
ENDBRANCH   4   6
ENDBRANCH   3   4
ENDBRANCH   2   3
ENDBRANCH   1   2
BRANCH   1  26
ATOM     26  O   UNL A   1      38.237  21.438  25.301  1.00  0.00    -0.374 OA
BRANCH  26  27
ATOM     27  C   UNL A   1      38.841  20.147  25.242  1.00  0.00     0.202 C 
BRANCH  27  28
ATOM     28  C   UNL A   1      40.018  19.850  26.181  1.00  0.00     0.261 C 
BRANCH  28  29
ATOM     29  O   UNL A   1      40.968  18.931  25.612  1.00  0.00    -0.460 OA
BRANCH  29  30
ATOM     30  C   UNL A   1      42.251  19.118  26.008  1.00  0.00     0.338 C 
ATOM     31  O   UNL A   1      43.186  18.341  25.892  1.00  0.00    -0.246 OA
BRANCH  30  32
ATOM     32  C   UNL A   1      42.424  20.517  26.440  1.00  0.00     0.060 A 
ATOM     33  C   UNL A   1      42.336  20.874  27.785  1.00  0.00     0.016 A 
ATOM     34  C   UNL A   1      42.720  21.478  25.464  1.00  0.00     0.016 A 
ATOM     35  C   UNL A   1      42.568  22.201  28.155  1.00  0.00     0.010 A 
ATOM     36  C   UNL A   1      42.949  22.802  25.835  1.00  0.00     0.010 A 
ATOM     37  C   UNL A   1      42.893  23.169  27.186  1.00  0.00    -0.014 A 
BRANCH  37  38
ATOM     38  C   UNL A   1      43.289  24.538  27.600  1.00  0.00     0.031 A 
ATOM     39  C   UNL A   1      44.728  24.944  27.683  1.00  0.00     0.074 A 
ATOM     40  C   UNL A   1      42.319  25.414  27.925  1.00  0.00     0.049 A 
ATOM     41  N   UNL A   1      45.237  26.112  27.989  1.00  0.00    -0.248 NA
ATOM     42  C   UNL A   1      45.729  23.908  27.393  1.00  0.00     0.031 C 
ATOM     43  C   UNL A   1      40.886  25.118  27.915  1.00  0.00     0.029 A 
ATOM     44  N   UNL A   1      42.388  26.726  28.321  1.00  0.00    -0.354 N 
ATOM     45  C   UNL A   1      46.614  25.959  27.908  1.00  0.00     0.074 A 
ATOM     46  C   UNL A   1      46.864  24.571  27.576  1.00  0.00     0.031 C 
ATOM     47  C   UNL A   1      40.208  26.224  28.256  1.00  0.00     0.029 A 
ATOM     48  C   UNL A   1      41.159  27.296  28.543  1.00  0.00     0.049 A 
ATOM     49  H   UNL A   1      43.237  27.212  28.434  1.00  0.00     0.167 HD
ATOM     50  C   UNL A   1      47.575  26.899  28.074  1.00  0.00     0.037 A 
ATOM     51  C   UNL A   1      40.832  28.542  28.934  1.00  0.00     0.037 A 
ATOM     52  C   UNL A   1      47.319  28.276  28.421  1.00  0.00     0.049 A 
ATOM     53  C   UNL A   1      41.924  29.550  29.166  1.00  0.00     0.074 A 
ATOM     54  C   UNL A   1      48.228  29.308  28.580  1.00  0.00     0.029 A 
ATOM     55  N   UNL A   1      46.063  28.810  28.677  1.00  0.00    -0.354 N 
ATOM     56  N   UNL A   1      43.219  29.415  29.016  1.00  0.00    -0.248 NA
ATOM     57  C   UNL A   1      41.507  30.884  29.617  1.00  0.00     0.031 C 
ATOM     58  C   UNL A   1      47.530  30.448  28.990  1.00  0.00     0.029 A 
ATOM     59  C   UNL A   1      46.179  30.148  29.024  1.00  0.00     0.049 A 
ATOM     60  H   UNL A   1      45.215  28.312  28.620  1.00  0.00     0.167 HD
ATOM     61  C   UNL A   1      43.770  30.649  29.333  1.00  0.00     0.074 A 
ATOM     62  C   UNL A   1      42.666  31.527  29.660  1.00  0.00     0.031 C 
ATOM     63  C   UNL A   1      45.075  31.016  29.353  1.00  0.00     0.037 A 
BRANCH  50  64
ATOM     64  C   UNL A   1      49.005  26.483  27.876  1.00  0.00     0.064 A 
ATOM     65  C   UNL A   1      49.575  26.416  26.596  1.00  0.00     0.173 A 
ATOM     66  C   UNL A   1      49.838  26.231  28.978  1.00  0.00     0.173 A 
ATOM     67  F   UNL A   1      48.822  26.641  25.509  1.00  0.00    -0.203 F 
ATOM     68  C   UNL A   1      50.920  26.095  26.425  1.00  0.00     0.198 A 
ATOM     69  C   UNL A   1      51.189  25.943  28.804  1.00  0.00     0.198 A 
ATOM     70  F   UNL A   1      49.348  26.292  30.225  1.00  0.00    -0.203 F 
ATOM     71  F   UNL A   1      51.433  26.006  25.190  1.00  0.00    -0.200 F 
ATOM     72  C   UNL A   1      51.728  25.871  27.528  1.00  0.00     0.200 A 
ATOM     73  F   UNL A   1      51.973  25.743  29.873  1.00  0.00    -0.200 F 
ATOM     74  F   UNL A   1      53.026  25.583  27.363  1.00  0.00    -0.200 F 
ENDBRANCH  50  64
BRANCH  51  75
ATOM     75  C   UNL A   1      39.401  28.909  29.094  1.00  0.00     0.064 A 
ATOM     76  C   UNL A   1      38.767  28.805  30.339  1.00  0.00     0.173 A 
ATOM     77  C   UNL A   1      38.646  29.395  28.015  1.00  0.00     0.173 A 
ATOM     78  F   UNL A   1      39.441  28.328  31.396  1.00  0.00    -0.203 F 
ATOM     79  C   UNL A   1      37.430  29.165  30.498  1.00  0.00     0.198 A 
ATOM     80  C   UNL A   1      37.319  29.784  28.182  1.00  0.00     0.198 A 
ATOM     81  F   UNL A   1      39.208  29.518  26.804  1.00  0.00    -0.203 F 
ATOM     82  F   UNL A   1      36.838  29.022  31.692  1.00  0.00    -0.200 F 
ATOM     83  C   UNL A   1      36.711  29.663  29.423  1.00  0.00     0.200 A 
ATOM     84  F   UNL A   1      36.633  30.280  27.144  1.00  0.00    -0.200 F 
ATOM     85  F   UNL A   1      35.430  30.023  29.580  1.00  0.00    -0.200 F 
ENDBRANCH  51  75
BRANCH  63  86
ATOM     86  C   UNL A   1      45.391  32.437  29.732  1.00  0.00     0.064 A 
ATOM     87  C   UNL A   1      45.694  32.795  31.054  1.00  0.00     0.173 A 
ATOM     88  C   UNL A   1      45.450  33.441  28.753  1.00  0.00     0.173 A 
ATOM     89  F   UNL A   1      45.640  31.877  32.032  1.00  0.00    -0.203 F 
ATOM     90  C   UNL A   1      46.023  34.107  31.384  1.00  0.00     0.198 A 
ATOM     91  C   UNL A   1      45.812  34.744  29.081  1.00  0.00     0.198 A 
ATOM     92  F   UNL A   1      45.177  33.153  27.471  1.00  0.00    -0.203 F 
ATOM     93  F   UNL A   1      46.264  34.434  32.662  1.00  0.00    -0.200 F 
ATOM     94  C   UNL A   1      46.092  35.077  30.398  1.00  0.00     0.200 A 
ATOM     95  F   UNL A   1      45.897  35.677  28.122  1.00  0.00    -0.200 F 
ATOM     96  F   UNL A   1      46.424  36.337  30.715  1.00  0.00    -0.200 F 
ENDBRANCH  63  86
ENDBRANCH  37  38
ENDBRANCH  30  32
ENDBRANCH  29  30
ENDBRANCH  28  29
ENDBRANCH  27  28
ENDBRANCH  26  27
ENDBRANCH   1  26
TORSDOF 18
ENDMDL
