MODEL 1
REMARK VINA RESULT:     -10.3      0.000      0.000
REMARK SMILES N#C[C@H]1CN(C(=O)[C@H]([NH3+])CC(=O)OCCOCCOC(=O)c2ccc(-c3c4nc(c(-c5c(F)c(F)c(F)c(F)c5F)c5ccc([nH]5)c(-c5c(F)c(F)c(F)c(F)c5F)c5nc(c(-c6c(F)c(F)c(F)c(F)c6F)c6ccc3[nH]6)C=C5)C=C4)cc2)CCO1
REMARK SMILES IDX 15 1 14 2 13 3 11 4 12 5 10 6 8 7 6 8 7 9 5 10 3 11 4 12
REMARK SMILES IDX 87 13 86 14 85 15 2 16 1 17 9 18 16 22 17 23 18 24 19 25
REMARK SMILES IDX 20 26 21 27 22 28 23 29 84 30 24 31 83 32 25 33 26 34 27 35
REMARK SMILES IDX 77 36 28 37 82 38 76 39 78 40 29 41 81 42 75 43 74 44 30 46
REMARK SMILES IDX 62 47 42 48 61 49 43 50 46 51 60 52 79 53 44 54 45 55 59 57
REMARK SMILES IDX 80 58 47 59 31 60 32 61 40 62 33 63 34 64 38 65 41 66 35 67
REMARK SMILES IDX 36 68 39 69 37 70 63 71 64 72 72 73 65 74 66 75 70 76 73 77
REMARK SMILES IDX 67 78 68 79 71 80 69 81 48 82 49 83 57 84 50 85 51 86 55 87
REMARK SMILES IDX 58 88 52 89 53 90 56 91 54 92
REMARK H PARENT 9 19 9 20 9 21 78 45 46 56
REMARK Flexibility Score: inf
ROOT
ATOM      1  C   UNL A   1      36.570  22.101  24.564  1.00  0.00     0.202 C 
ENDROOT
BRANCH   1   2
ATOM      2  C   UNL A   1      35.082  22.223  24.224  1.00  0.00     0.261 C 
BRANCH   2   3
ATOM      3  O   UNL A   1      34.302  22.524  25.388  1.00  0.00    -0.463 OA
BRANCH   3   4
ATOM      4  C   UNL A   1      33.182  21.782  25.531  1.00  0.00     0.312 C 
ATOM      5  O   UNL A   1      33.094  20.762  26.207  1.00  0.00    -0.252 OA
BRANCH   4   6
ATOM      6  C   UNL A   1      32.009  22.299  24.745  1.00  0.00     0.198 C 
BRANCH   6   7
ATOM      7  C   UNL A   1      30.812  22.972  25.439  1.00  0.00     0.282 C 
BRANCH   7   8
ATOM      8  C   UNL A   1      31.284  24.333  26.011  1.00  0.00     0.281 C 
ATOM      9  O   UNL A   1      31.445  24.448  27.229  1.00  0.00    -0.268 OA
BRANCH   8  10
ATOM     10  N   UNL A   1      31.481  25.407  25.156  1.00  0.00    -0.332 N 
ATOM     11  C   UNL A   1      31.513  25.582  22.703  1.00  0.00     0.240 C 
ATOM     12  C   UNL A   1      32.369  25.473  23.984  1.00  0.00     0.167 C 
ATOM     13  O   UNL A   1      30.677  26.760  22.783  1.00  0.00    -0.360 OA
ATOM     14  C   UNL A   1      29.793  26.684  23.921  1.00  0.00     0.183 C 
ATOM     15  C   UNL A   1      30.579  26.561  25.235  1.00  0.00     0.148 C 
BRANCH  11  16
ATOM     16  C   UNL A   1      32.393  25.612  21.525  1.00  0.00     0.096 C 
ATOM     17  N   UNL A   1      33.071  25.559  20.582  1.00  0.00    -0.195 NA
ENDBRANCH  11  16
ENDBRANCH   8  10
ENDBRANCH   7   8
BRANCH   7  18
ATOM     18  N   UNL A   1      30.041  22.238  26.451  1.00  0.00    -0.347 N 
ATOM     19  H   UNL A   1      29.565  22.901  27.062  1.00  0.00     0.345 HD
ATOM     20  H   UNL A   1      30.672  21.658  27.004  1.00  0.00     0.345 HD
ATOM     21  H   UNL A   1      29.351  21.645  25.990  1.00  0.00     0.345 HD
ENDBRANCH   7  18
ENDBRANCH   6   7
ENDBRANCH   4   6
ENDBRANCH   3   4
ENDBRANCH   2   3
ENDBRANCH   1   2
BRANCH   1  22
ATOM     22  O   UNL A   1      36.973  21.088  25.480  1.00  0.00    -0.374 OA
BRANCH  22  23
ATOM     23  C   UNL A   1      37.600  19.915  24.963  1.00  0.00     0.202 C 
BRANCH  23  24
ATOM     24  C   UNL A   1      38.963  19.485  25.524  1.00  0.00     0.261 C 
BRANCH  24  25
ATOM     25  O   UNL A   1      39.865  20.584  25.743  1.00  0.00    -0.460 OA
BRANCH  25  26
ATOM     26  C   UNL A   1      40.447  20.595  26.966  1.00  0.00     0.338 C 
ATOM     27  O   UNL A   1      40.833  19.636  27.611  1.00  0.00    -0.246 OA
BRANCH  26  28
ATOM     28  C   UNL A   1      40.761  21.980  27.364  1.00  0.00     0.060 A 
ATOM     29  C   UNL A   1      40.129  23.011  26.656  1.00  0.00     0.016 A 
ATOM     30  C   UNL A   1      41.710  22.271  28.344  1.00  0.00     0.016 A 
ATOM     31  C   UNL A   1      40.472  24.338  26.897  1.00  0.00     0.010 A 
ATOM     32  C   UNL A   1      42.061  23.605  28.578  1.00  0.00     0.010 A 
ATOM     33  C   UNL A   1      41.465  24.643  27.837  1.00  0.00    -0.014 A 
BRANCH  33  34
ATOM     34  C   UNL A   1      41.932  26.044  27.979  1.00  0.00     0.031 A 
ATOM     35  C   UNL A   1      43.273  26.441  27.426  1.00  0.00     0.074 A 
ATOM     36  C   UNL A   1      41.151  26.960  28.576  1.00  0.00     0.049 A 
ATOM     37  N   UNL A   1      43.887  27.596  27.487  1.00  0.00    -0.248 NA
ATOM     38  C   UNL A   1      44.022  25.399  26.707  1.00  0.00     0.031 C 
ATOM     39  C   UNL A   1      39.815  26.707  29.111  1.00  0.00     0.029 A 
ATOM     40  N   UNL A   1      41.373  28.289  28.839  1.00  0.00    -0.354 N 
ATOM     41  C   UNL A   1      45.097  27.416  26.827  1.00  0.00     0.074 A 
ATOM     42  C   UNL A   1      45.143  26.034  26.400  1.00  0.00     0.031 C 
ATOM     43  C   UNL A   1      39.338  27.842  29.647  1.00  0.00     0.029 A 
ATOM     44  C   UNL A   1      40.351  28.887  29.535  1.00  0.00     0.049 A 
ATOM     45  H   UNL A   1      42.185  28.768  28.556  1.00  0.00     0.167 HD
ATOM     46  C   UNL A   1      46.074  28.326  26.595  1.00  0.00     0.037 A 
ATOM     47  C   UNL A   1      40.259  30.128  30.052  1.00  0.00     0.037 A 
ATOM     48  C   UNL A   1      46.021  29.700  27.027  1.00  0.00     0.049 A 
ATOM     49  C   UNL A   1      41.400  31.094  29.856  1.00  0.00     0.074 A 
ATOM     50  C   UNL A   1      46.950  30.706  26.819  1.00  0.00     0.029 A 
ATOM     51  N   UNL A   1      44.990  30.260  27.767  1.00  0.00    -0.354 N 
ATOM     52  N   UNL A   1      42.527  30.927  29.206  1.00  0.00    -0.248 NA
ATOM     53  C   UNL A   1      41.253  32.423  30.466  1.00  0.00     0.031 C 
ATOM     54  C   UNL A   1      46.518  31.849  27.499  1.00  0.00     0.029 A 
ATOM     55  C   UNL A   1      45.280  31.584  28.061  1.00  0.00     0.049 A 
ATOM     56  H   UNL A   1      44.172  29.786  28.043  1.00  0.00     0.167 HD
ATOM     57  C   UNL A   1      43.207  32.135  29.303  1.00  0.00     0.074 A 
ATOM     58  C   UNL A   1      42.356  33.032  30.055  1.00  0.00     0.031 C 
ATOM     59  C   UNL A   1      44.426  32.470  28.813  1.00  0.00     0.037 A 
BRANCH  46  60
ATOM     60  C   UNL A   1      47.307  27.861  25.869  1.00  0.00     0.064 A 
ATOM     61  C   UNL A   1      48.449  27.417  26.552  1.00  0.00     0.173 A 
ATOM     62  C   UNL A   1      47.327  27.815  24.466  1.00  0.00     0.173 A 
ATOM     63  F   UNL A   1      48.489  27.446  27.893  1.00  0.00    -0.203 F 
ATOM     64  C   UNL A   1      49.572  26.972  25.858  1.00  0.00     0.198 A 
ATOM     65  C   UNL A   1      48.437  27.336  23.777  1.00  0.00     0.198 A 
ATOM     66  F   UNL A   1      46.260  28.221  23.760  1.00  0.00    -0.203 F 
ATOM     67  F   UNL A   1      50.670  26.600  26.532  1.00  0.00    -0.200 F 
ATOM     68  C   UNL A   1      49.562  26.923  24.472  1.00  0.00     0.200 A 
ATOM     69  F   UNL A   1      48.417  27.272  22.438  1.00  0.00    -0.200 F 
ATOM     70  F   UNL A   1      50.640  26.484  23.807  1.00  0.00    -0.200 F 
ENDBRANCH  46  60
BRANCH  47  71
ATOM     71  C   UNL A   1      39.053  30.523  30.827  1.00  0.00     0.064 A 
ATOM     72  C   UNL A   1      37.935  31.082  30.193  1.00  0.00     0.173 A 
ATOM     73  C   UNL A   1      39.003  30.371  32.222  1.00  0.00     0.173 A 
ATOM     74  F   UNL A   1      37.942  31.270  28.866  1.00  0.00    -0.203 F 
ATOM     75  C   UNL A   1      36.825  31.498  30.927  1.00  0.00     0.198 A 
ATOM     76  C   UNL A   1      37.878  30.753  32.949  1.00  0.00     0.198 A 
ATOM     77  F   UNL A   1      40.045  29.841  32.879  1.00  0.00    -0.203 F 
ATOM     78  F   UNL A   1      35.794  32.084  30.302  1.00  0.00    -0.200 F 
ATOM     79  C   UNL A   1      36.795  31.326  32.303  1.00  0.00     0.200 A 
ATOM     80  F   UNL A   1      37.847  30.569  34.276  1.00  0.00    -0.200 F 
ATOM     81  F   UNL A   1      35.726  31.724  33.007  1.00  0.00    -0.200 F 
ENDBRANCH  47  71
BRANCH  59  82
ATOM     82  C   UNL A   1      44.901  33.879  29.041  1.00  0.00     0.064 A 
ATOM     83  C   UNL A   1      44.583  34.922  28.156  1.00  0.00     0.173 A 
ATOM     84  C   UNL A   1      45.659  34.198  30.179  1.00  0.00     0.173 A 
ATOM     85  F   UNL A   1      43.873  34.672  27.046  1.00  0.00    -0.203 F 
ATOM     86  C   UNL A   1      45.038  36.219  28.383  1.00  0.00     0.198 A 
ATOM     87  C   UNL A   1      46.076  35.504  30.423  1.00  0.00     0.198 A 
ATOM     88  F   UNL A   1      45.985  33.245  31.064  1.00  0.00    -0.203 F 
ATOM     89  F   UNL A   1      44.774  37.183  27.490  1.00  0.00    -0.200 F 
ATOM     90  C   UNL A   1      45.775  36.510  29.519  1.00  0.00     0.200 A 
ATOM     91  F   UNL A   1      46.772  35.787  31.534  1.00  0.00    -0.200 F 
ATOM     92  F   UNL A   1      46.204  37.761  29.741  1.00  0.00    -0.200 F 
ENDBRANCH  59  82
ENDBRANCH  33  34
ENDBRANCH  26  28
ENDBRANCH  25  26
ENDBRANCH  24  25
ENDBRANCH  23  24
ENDBRANCH  22  23
ENDBRANCH   1  22
TORSDOF 19
ENDMDL
MODEL 2
REMARK VINA RESULT:     -10.2      3.452      8.775
REMARK SMILES N#C[C@H]1CN(C(=O)[C@H]([NH3+])CC(=O)OCCOCCOC(=O)c2ccc(-c3c4nc(c(-c5c(F)c(F)c(F)c(F)c5F)c5ccc([nH]5)c(-c5c(F)c(F)c(F)c(F)c5F)c5nc(c(-c6c(F)c(F)c(F)c(F)c6F)c6ccc3[nH]6)C=C5)C=C4)cc2)CCO1
REMARK SMILES IDX 15 1 14 2 13 3 11 4 12 5 10 6 8 7 6 8 7 9 5 10 3 11 4 12
REMARK SMILES IDX 87 13 86 14 85 15 2 16 1 17 9 18 16 22 17 23 18 24 19 25
REMARK SMILES IDX 20 26 21 27 22 28 23 29 84 30 24 31 83 32 25 33 26 34 27 35
REMARK SMILES IDX 77 36 28 37 82 38 76 39 78 40 29 41 81 42 75 43 74 44 30 46
REMARK SMILES IDX 62 47 42 48 61 49 43 50 46 51 60 52 79 53 44 54 45 55 59 57
REMARK SMILES IDX 80 58 47 59 31 60 32 61 40 62 33 63 34 64 38 65 41 66 35 67
REMARK SMILES IDX 36 68 39 69 37 70 63 71 64 72 72 73 65 74 66 75 70 76 73 77
REMARK SMILES IDX 67 78 68 79 71 80 69 81 48 82 49 83 57 84 50 85 51 86 55 87
REMARK SMILES IDX 58 88 52 89 53 90 56 91 54 92
REMARK H PARENT 9 19 9 20 9 21 78 45 46 56
REMARK Flexibility Score: inf
ROOT
ATOM      1  C   UNL A   1      35.076  33.814  28.310  1.00  0.00     0.202 C 
ENDROOT
BRANCH   1   2
ATOM      2  C   UNL A   1      35.449  32.390  27.889  1.00  0.00     0.261 C 
BRANCH   2   3
ATOM      3  O   UNL A   1      34.285  31.616  27.574  1.00  0.00    -0.463 OA
BRANCH   3   4
ATOM      4  C   UNL A   1      34.503  30.289  27.433  1.00  0.00     0.312 C 
ATOM      5  O   UNL A   1      35.603  29.748  27.475  1.00  0.00    -0.252 OA
BRANCH   4   6
ATOM      6  C   UNL A   1      33.253  29.494  27.177  1.00  0.00     0.198 C 
BRANCH   6   7
ATOM      7  C   UNL A   1      32.760  29.213  25.747  1.00  0.00     0.282 C 
BRANCH   7   8
ATOM      8  C   UNL A   1      31.754  28.034  25.802  1.00  0.00     0.281 C 
ATOM      9  O   UNL A   1      31.682  27.355  26.830  1.00  0.00    -0.268 OA
BRANCH   8  10
ATOM     10  N   UNL A   1      30.982  27.737  24.689  1.00  0.00    -0.332 N 
ATOM     11  C   UNL A   1      30.642  28.908  22.554  1.00  0.00     0.240 C 
ATOM     12  C   UNL A   1      30.070  28.633  23.961  1.00  0.00     0.167 C 
ATOM     13  O   UNL A   1      30.804  27.656  21.848  1.00  0.00    -0.360 OA
ATOM     14  C   UNL A   1      31.715  26.786  22.552  1.00  0.00     0.183 C 
ATOM     15  C   UNL A   1      31.214  26.478  23.971  1.00  0.00     0.148 C 
BRANCH  11  16
ATOM     16  C   UNL A   1      29.753  29.833  21.833  1.00  0.00     0.096 C 
ATOM     17  N   UNL A   1      29.030  30.502  21.216  1.00  0.00    -0.195 NA
ENDBRANCH  11  16
ENDBRANCH   8  10
ENDBRANCH   7   8
BRANCH   7  18
ATOM     18  N   UNL A   1      33.728  29.001  24.664  1.00  0.00    -0.347 N 
ATOM     19  H   UNL A   1      34.674  29.138  25.022  1.00  0.00     0.345 HD
ATOM     20  H   UNL A   1      33.549  29.667  23.912  1.00  0.00     0.345 HD
ATOM     21  H   UNL A   1      33.635  28.051  24.304  1.00  0.00     0.345 HD
ENDBRANCH   7  18
ENDBRANCH   6   7
ENDBRANCH   4   6
ENDBRANCH   3   4
ENDBRANCH   2   3
ENDBRANCH   1   2
BRANCH   1  22
ATOM     22  O   UNL A   1      35.319  34.205  29.658  1.00  0.00    -0.374 OA
BRANCH  22  23
ATOM     23  C   UNL A   1      34.228  34.191  30.577  1.00  0.00     0.202 C 
BRANCH  23  24
ATOM     24  C   UNL A   1      34.455  33.664  32.002  1.00  0.00     0.261 C 
BRANCH  24  25
ATOM     25  O   UNL A   1      34.924  32.305  32.042  1.00  0.00    -0.460 OA
BRANCH  25  26
ATOM     26  C   UNL A   1      36.019  32.113  32.816  1.00  0.00     0.338 C 
ATOM     27  O   UNL A   1      36.119  32.301  34.016  1.00  0.00    -0.246 OA
BRANCH  26  28
ATOM     28  C   UNL A   1      37.070  31.424  32.044  1.00  0.00     0.060 A 
ATOM     29  C   UNL A   1      38.157  30.905  32.761  1.00  0.00     0.016 A 
ATOM     30  C   UNL A   1      37.043  31.359  30.652  1.00  0.00     0.016 A 
ATOM     31  C   UNL A   1      39.240  30.352  32.085  1.00  0.00     0.010 A 
ATOM     32  C   UNL A   1      38.138  30.812  29.973  1.00  0.00     0.010 A 
ATOM     33  C   UNL A   1      39.253  30.331  30.685  1.00  0.00    -0.014 A 
BRANCH  33  34
ATOM     34  C   UNL A   1      40.474  29.881  29.970  1.00  0.00     0.031 A 
ATOM     35  C   UNL A   1      41.600  30.850  29.738  1.00  0.00     0.074 A 
ATOM     36  C   UNL A   1      40.584  28.607  29.556  1.00  0.00     0.049 A 
ATOM     37  N   UNL A   1      42.727  30.674  29.095  1.00  0.00    -0.248 NA
ATOM     38  C   UNL A   1      41.435  32.197  30.305  1.00  0.00     0.031 C 
ATOM     39  C   UNL A   1      39.579  27.566  29.763  1.00  0.00     0.029 A 
ATOM     40  N   UNL A   1      41.589  27.975  28.868  1.00  0.00    -0.354 N 
ATOM     41  C   UNL A   1      43.400  31.888  29.171  1.00  0.00     0.074 A 
ATOM     42  C   UNL A   1      42.541  32.801  29.894  1.00  0.00     0.031 C 
ATOM     43  C   UNL A   1      40.015  26.425  29.205  1.00  0.00     0.029 A 
ATOM     44  C   UNL A   1      41.304  26.667  28.563  1.00  0.00     0.049 A 
ATOM     45  H   UNL A   1      42.432  28.416  28.617  1.00  0.00     0.167 HD
ATOM     46  C   UNL A   1      44.624  32.205  28.685  1.00  0.00     0.037 A 
ATOM     47  C   UNL A   1      41.991  25.776  27.822  1.00  0.00     0.037 A 
ATOM     48  C   UNL A   1      45.471  31.290  27.962  1.00  0.00     0.049 A 
ATOM     49  C   UNL A   1      43.311  26.183  27.217  1.00  0.00     0.074 A 
ATOM     50  C   UNL A   1      46.739  31.510  27.450  1.00  0.00     0.029 A 
ATOM     51  N   UNL A   1      45.132  29.985  27.634  1.00  0.00    -0.354 N 
ATOM     52  N   UNL A   1      43.954  27.322  27.317  1.00  0.00    -0.248 NA
ATOM     53  C   UNL A   1      44.000  25.178  26.396  1.00  0.00     0.031 C 
ATOM     54  C   UNL A   1      47.132  30.366  26.748  1.00  0.00     0.029 A 
ATOM     55  C   UNL A   1      46.147  29.402  26.891  1.00  0.00     0.049 A 
ATOM     56  H   UNL A   1      44.293  29.538  27.892  1.00  0.00     0.167 HD
ATOM     57  C   UNL A   1      45.133  27.160  26.600  1.00  0.00     0.074 A 
ATOM     58  C   UNL A   1      45.126  25.806  26.089  1.00  0.00     0.031 C 
ATOM     59  C   UNL A   1      46.131  28.052  26.385  1.00  0.00     0.037 A 
BRANCH  46  60
ATOM     60  C   UNL A   1      45.114  33.613  28.885  1.00  0.00     0.064 A 
ATOM     61  C   UNL A   1      45.897  33.979  29.989  1.00  0.00     0.173 A 
ATOM     62  C   UNL A   1      44.834  34.601  27.927  1.00  0.00     0.173 A 
ATOM     63  F   UNL A   1      46.188  33.078  30.940  1.00  0.00    -0.203 F 
ATOM     64  C   UNL A   1      46.355  35.285  30.143  1.00  0.00     0.198 A 
ATOM     65  C   UNL A   1      45.325  35.897  28.065  1.00  0.00     0.198 A 
ATOM     66  F   UNL A   1      44.096  34.307  26.846  1.00  0.00    -0.203 F 
ATOM     67  F   UNL A   1      47.059  35.623  31.233  1.00  0.00    -0.200 F 
ATOM     68  C   UNL A   1      46.077  36.241  29.177  1.00  0.00     0.200 A 
ATOM     69  F   UNL A   1      45.070  36.812  27.120  1.00  0.00    -0.200 F 
ATOM     70  F   UNL A   1      46.530  37.494  29.321  1.00  0.00    -0.200 F 
ENDBRANCH  46  60
BRANCH  47  71
ATOM     71  C   UNL A   1      41.434  24.417  27.587  1.00  0.00     0.064 A 
ATOM     72  C   UNL A   1      42.016  23.284  28.173  1.00  0.00     0.173 A 
ATOM     73  C   UNL A   1      40.323  24.221  26.752  1.00  0.00     0.173 A 
ATOM     74  F   UNL A   1      43.094  23.415  28.959  1.00  0.00    -0.203 F 
ATOM     75  C   UNL A   1      41.524  22.006  27.912  1.00  0.00     0.198 A 
ATOM     76  C   UNL A   1      39.809  22.947  26.523  1.00  0.00     0.198 A 
ATOM     77  F   UNL A   1      39.728  25.270  26.167  1.00  0.00    -0.203 F 
ATOM     78  F   UNL A   1      42.135  20.936  28.438  1.00  0.00    -0.200 F 
ATOM     79  C   UNL A   1      40.417  21.839  27.094  1.00  0.00     0.200 A 
ATOM     80  F   UNL A   1      38.729  22.793  25.745  1.00  0.00    -0.200 F 
ATOM     81  F   UNL A   1      39.943  20.610  26.846  1.00  0.00    -0.200 F 
ENDBRANCH  47  71
BRANCH  59  82
ATOM     82  C   UNL A   1      47.320  27.584  25.592  1.00  0.00     0.064 A 
ATOM     83  C   UNL A   1      48.417  26.953  26.201  1.00  0.00     0.173 A 
ATOM     84  C   UNL A   1      47.350  27.739  24.196  1.00  0.00     0.173 A 
ATOM     85  F   UNL A   1      48.448  26.790  27.532  1.00  0.00    -0.203 F 
ATOM     86  C   UNL A   1      49.511  26.531  25.449  1.00  0.00     0.198 A 
ATOM     87  C   UNL A   1      48.427  27.278  23.445  1.00  0.00     0.198 A 
ATOM     88  F   UNL A   1      46.327  28.325  23.559  1.00  0.00    -0.203 F 
ATOM     89  F   UNL A   1      50.573  25.990  26.063  1.00  0.00    -0.200 F 
ATOM     90  C   UNL A   1      49.512  26.686  24.072  1.00  0.00     0.200 A 
ATOM     91  F   UNL A   1      48.416  27.411  22.110  1.00  0.00    -0.200 F 
ATOM     92  F   UNL A   1      50.562  26.271  23.349  1.00  0.00    -0.200 F 
ENDBRANCH  59  82
ENDBRANCH  33  34
ENDBRANCH  26  28
ENDBRANCH  25  26
ENDBRANCH  24  25
ENDBRANCH  23  24
ENDBRANCH  22  23
ENDBRANCH   1  22
TORSDOF 19
ENDMDL
MODEL 3
REMARK VINA RESULT:     -10.0      5.190      8.706
REMARK SMILES N#C[C@H]1CN(C(=O)[C@H]([NH3+])CC(=O)OCCOCCOC(=O)c2ccc(-c3c4nc(c(-c5c(F)c(F)c(F)c(F)c5F)c5ccc([nH]5)c(-c5c(F)c(F)c(F)c(F)c5F)c5nc(c(-c6c(F)c(F)c(F)c(F)c6F)c6ccc3[nH]6)C=C5)C=C4)cc2)CCO1
REMARK SMILES IDX 15 1 14 2 13 3 11 4 12 5 10 6 8 7 6 8 7 9 5 10 3 11 4 12
REMARK SMILES IDX 87 13 86 14 85 15 2 16 1 17 9 18 16 22 17 23 18 24 19 25
REMARK SMILES IDX 20 26 21 27 22 28 23 29 84 30 24 31 83 32 25 33 26 34 27 35
REMARK SMILES IDX 77 36 28 37 82 38 76 39 78 40 29 41 81 42 75 43 74 44 30 46
REMARK SMILES IDX 62 47 42 48 61 49 43 50 46 51 60 52 79 53 44 54 45 55 59 57
REMARK SMILES IDX 80 58 47 59 31 60 32 61 40 62 33 63 34 64 38 65 41 66 35 67
REMARK SMILES IDX 36 68 39 69 37 70 63 71 64 72 72 73 65 74 66 75 70 76 73 77
REMARK SMILES IDX 67 78 68 79 71 80 69 81 48 82 49 83 57 84 50 85 51 86 55 87
REMARK SMILES IDX 58 88 52 89 53 90 56 91 54 92
REMARK H PARENT 9 19 9 20 9 21 78 45 46 56
REMARK Flexibility Score: inf
ROOT
ATOM      1  C   UNL A   1      34.429  30.574  27.203  1.00  0.00     0.202 C 
ENDROOT
BRANCH   1   2
ATOM      2  C   UNL A   1      34.741  29.075  27.197  1.00  0.00     0.261 C 
BRANCH   2   3
ATOM      3  O   UNL A   1      34.451  28.486  25.923  1.00  0.00    -0.463 OA
BRANCH   3   4
ATOM      4  C   UNL A   1      33.135  28.342  25.648  1.00  0.00     0.312 C 
ATOM      5  O   UNL A   1      32.494  29.058  24.885  1.00  0.00    -0.252 OA
BRANCH   4   6
ATOM      6  C   UNL A   1      32.478  27.217  26.398  1.00  0.00     0.198 C 
BRANCH   6   7
ATOM      7  C   UNL A   1      32.163  25.875  25.717  1.00  0.00     0.282 C 
BRANCH   7   8
ATOM      8  C   UNL A   1      30.638  25.813  25.446  1.00  0.00     0.281 C 
ATOM      9  O   UNL A   1      29.882  25.450  26.351  1.00  0.00    -0.268 OA
BRANCH   8  10
ATOM     10  N   UNL A   1      30.150  26.128  24.186  1.00  0.00    -0.332 N 
ATOM     11  C   UNL A   1      29.378  28.241  23.193  1.00  0.00     0.240 C 
ATOM     12  C   UNL A   1      28.951  26.914  23.856  1.00  0.00     0.167 C 
ATOM     13  O   UNL A   1      30.150  27.957  22.004  1.00  0.00    -0.360 OA
ATOM     14  C   UNL A   1      31.337  27.204  22.332  1.00  0.00     0.183 C 
ATOM     15  C   UNL A   1      30.987  25.871  23.008  1.00  0.00     0.148 C 
BRANCH  11  16
ATOM     16  C   UNL A   1      28.186  29.049  22.893  1.00  0.00     0.096 C 
ATOM     17  N   UNL A   1      27.241  29.708  22.733  1.00  0.00    -0.195 NA
ENDBRANCH  11  16
ENDBRANCH   8  10
ENDBRANCH   7   8
BRANCH   7  18
ATOM     18  N   UNL A   1      32.620  24.618  26.323  1.00  0.00    -0.347 N 
ATOM     19  H   UNL A   1      32.909  23.972  25.588  1.00  0.00     0.345 HD
ATOM     20  H   UNL A   1      31.859  24.203  26.860  1.00  0.00     0.345 HD
ATOM     21  H   UNL A   1      33.409  24.805  26.941  1.00  0.00     0.345 HD
ENDBRANCH   7  18
ENDBRANCH   6   7
ENDBRANCH   4   6
ENDBRANCH   3   4
ENDBRANCH   2   3
ENDBRANCH   1   2
BRANCH   1  22
ATOM     22  O   UNL A   1      33.279  31.022  27.915  1.00  0.00    -0.374 OA
BRANCH  22  23
ATOM     23  C   UNL A   1      32.209  31.609  27.175  1.00  0.00     0.202 C 
BRANCH  23  24
ATOM     24  C   UNL A   1      31.974  33.123  27.272  1.00  0.00     0.261 C 
BRANCH  24  25
ATOM     25  O   UNL A   1      33.189  33.887  27.366  1.00  0.00    -0.460 OA
BRANCH  25  26
ATOM     26  C   UNL A   1      33.289  34.647  28.483  1.00  0.00     0.338 C 
ATOM     27  O   UNL A   1      32.508  35.499  28.871  1.00  0.00    -0.246 OA
BRANCH  26  28
ATOM     28  C   UNL A   1      34.399  34.164  29.327  1.00  0.00     0.060 A 
ATOM     29  C   UNL A   1      35.701  34.470  28.910  1.00  0.00     0.016 A 
ATOM     30  C   UNL A   1      34.182  33.363  30.447  1.00  0.00     0.016 A 
ATOM     31  C   UNL A   1      36.795  33.944  29.591  1.00  0.00     0.010 A 
ATOM     32  C   UNL A   1      35.283  32.826  31.124  1.00  0.00     0.010 A 
ATOM     33  C   UNL A   1      36.593  33.090  30.683  1.00  0.00    -0.014 A 
BRANCH  33  34
ATOM     34  C   UNL A   1      37.756  32.413  31.307  1.00  0.00     0.031 A 
ATOM     35  C   UNL A   1      38.461  31.310  30.567  1.00  0.00     0.074 A 
ATOM     36  C   UNL A   1      38.195  32.799  32.518  1.00  0.00     0.049 A 
ATOM     37  N   UNL A   1      39.461  30.558  30.952  1.00  0.00    -0.248 NA
ATOM     38  C   UNL A   1      37.973  31.013  29.212  1.00  0.00     0.031 C 
ATOM     39  C   UNL A   1      37.624  33.885  33.312  1.00  0.00     0.029 A 
ATOM     40  N   UNL A   1      39.220  32.317  33.293  1.00  0.00    -0.354 N 
ATOM     41  C   UNL A   1      39.716  29.694  29.894  1.00  0.00     0.074 A 
ATOM     42  C   UNL A   1      38.745  29.993  28.863  1.00  0.00     0.031 C 
ATOM     43  C   UNL A   1      38.300  33.981  34.468  1.00  0.00     0.029 A 
ATOM     44  C   UNL A   1      39.319  32.937  34.514  1.00  0.00     0.049 A 
ATOM     45  H   UNL A   1      39.825  31.598  33.002  1.00  0.00     0.167 HD
ATOM     46  C   UNL A   1      40.677  28.744  29.793  1.00  0.00     0.037 A 
ATOM     47  C   UNL A   1      40.121  32.668  35.564  1.00  0.00     0.037 A 
ATOM     48  C   UNL A   1      41.638  28.451  30.826  1.00  0.00     0.049 A 
ATOM     49  C   UNL A   1      41.121  31.545  35.458  1.00  0.00     0.074 A 
ATOM     50  C   UNL A   1      42.665  27.523  30.809  1.00  0.00     0.029 A 
ATOM     51  N   UNL A   1      41.681  29.068  32.068  1.00  0.00    -0.354 N 
ATOM     52  N   UNL A   1      41.376  30.753  34.445  1.00  0.00    -0.248 NA
ATOM     53  C   UNL A   1      41.948  31.283  36.645  1.00  0.00     0.031 C 
ATOM     54  C   UNL A   1      43.280  27.527  32.065  1.00  0.00     0.029 A 
ATOM     55  C   UNL A   1      42.691  28.513  32.840  1.00  0.00     0.049 A 
ATOM     56  H   UNL A   1      41.084  29.795  32.358  1.00  0.00     0.167 HD
ATOM     57  C   UNL A   1      42.409  29.921  34.860  1.00  0.00     0.074 A 
ATOM     58  C   UNL A   1      42.748  30.321  36.209  1.00  0.00     0.031 C 
ATOM     59  C   UNL A   1      43.021  28.917  34.184  1.00  0.00     0.037 A 
BRANCH  46  60
ATOM     60  C   UNL A   1      40.719  27.922  28.535  1.00  0.00     0.064 A 
ATOM     61  C   UNL A   1      41.452  28.322  27.408  1.00  0.00     0.173 A 
ATOM     62  C   UNL A   1      40.053  26.687  28.474  1.00  0.00     0.173 A 
ATOM     63  F   UNL A   1      42.101  29.497  27.406  1.00  0.00    -0.203 F 
ATOM     64  C   UNL A   1      41.492  27.534  26.259  1.00  0.00     0.198 A 
ATOM     65  C   UNL A   1      40.126  25.884  27.339  1.00  0.00     0.198 A 
ATOM     66  F   UNL A   1      39.343  26.248  29.525  1.00  0.00    -0.203 F 
ATOM     67  F   UNL A   1      42.157  27.962  25.177  1.00  0.00    -0.200 F 
ATOM     68  C   UNL A   1      40.837  26.312  26.229  1.00  0.00     0.200 A 
ATOM     69  F   UNL A   1      39.508  24.695  27.320  1.00  0.00    -0.200 F 
ATOM     70  F   UNL A   1      40.887  25.550  25.128  1.00  0.00    -0.200 F 
ENDBRANCH  46  60
BRANCH  47  71
ATOM     71  C   UNL A   1      39.994  33.459  36.817  1.00  0.00     0.064 A 
ATOM     72  C   UNL A   1      40.822  34.562  37.066  1.00  0.00     0.173 A 
ATOM     73  C   UNL A   1      39.058  33.112  37.804  1.00  0.00     0.173 A 
ATOM     74  F   UNL A   1      41.749  34.919  36.165  1.00  0.00    -0.203 F 
ATOM     75  C   UNL A   1      40.737  35.272  38.262  1.00  0.00     0.198 A 
ATOM     76  C   UNL A   1      38.948  33.845  38.983  1.00  0.00     0.198 A 
ATOM     77  F   UNL A   1      38.240  32.065  37.618  1.00  0.00    -0.203 F 
ATOM     78  F   UNL A   1      41.581  36.285  38.498  1.00  0.00    -0.200 F 
ATOM     79  C   UNL A   1      39.795  34.917  39.217  1.00  0.00     0.200 A 
ATOM     80  F   UNL A   1      38.025  33.509  39.894  1.00  0.00    -0.200 F 
ATOM     81  F   UNL A   1      39.712  35.601  40.366  1.00  0.00    -0.200 F 
ENDBRANCH  47  71
BRANCH  59  82
ATOM     82  C   UNL A   1      44.148  28.201  34.877  1.00  0.00     0.064 A 
ATOM     83  C   UNL A   1      43.939  27.020  35.607  1.00  0.00     0.173 A 
ATOM     84  C   UNL A   1      45.462  28.686  34.785  1.00  0.00     0.173 A 
ATOM     85  F   UNL A   1      42.702  26.518  35.740  1.00  0.00    -0.203 F 
ATOM     86  C   UNL A   1      44.995  26.375  36.246  1.00  0.00     0.198 A 
ATOM     87  C   UNL A   1      46.521  28.016  35.391  1.00  0.00     0.198 A 
ATOM     88  F   UNL A   1      45.723  29.805  34.093  1.00  0.00    -0.203 F 
ATOM     89  F   UNL A   1      44.759  25.284  36.989  1.00  0.00    -0.200 F 
ATOM     90  C   UNL A   1      46.285  26.868  36.130  1.00  0.00     0.200 A 
ATOM     91  F   UNL A   1      47.771  28.484  35.260  1.00  0.00    -0.200 F 
ATOM     92  F   UNL A   1      47.302  26.241  36.739  1.00  0.00    -0.200 F 
ENDBRANCH  59  82
ENDBRANCH  33  34
ENDBRANCH  26  28
ENDBRANCH  25  26
ENDBRANCH  24  25
ENDBRANCH  23  24
ENDBRANCH  22  23
ENDBRANCH   1  22
TORSDOF 19
ENDMDL
