MODEL 1
REMARK VINA RESULT:      -8.7      0.000      0.000
REMARK SMILES CC(C)C[C@H](Nc1ncnc2scc(-c3ccccc3)c12)C(=O)OCCOCCOC(=O)c1ccc(-c2c3nc(c(-c4c(F)c(F)c(F)c(F)c4F)c4ccc([nH]4)c(-c4c(F)c(F)c(F)c(F)c4F)c4nc(c(-c5c(F)c(F)c(F)c(F)c5F)c5ccc2[nH]5)C=C4)C=C3)cc1
REMARK SMILES IDX 26 1 25 2 24 3 22 4 23 5 5 6 4 7 2 8 1 9 3 10 6 11 7 13 8 14
REMARK SMILES IDX 21 15 9 16 11 17 14 18 10 19 12 20 13 21 15 22 16 23 20 24
REMARK SMILES IDX 17 25 19 26 18 27 27 28 28 29 29 30 30 31 31 32 32 33 33 34
REMARK SMILES IDX 34 35 95 36 35 37 94 38 36 39 37 40 38 41 88 42 39 43 93 44
REMARK SMILES IDX 87 45 89 46 40 47 92 48 86 49 85 50 41 52 73 53 53 54 72 55
REMARK SMILES IDX 54 56 57 57 71 58 90 59 55 60 56 61 70 63 91 64 58 65 42 66
REMARK SMILES IDX 43 67 51 68 44 69 45 70 49 71 52 72 46 73 47 74 50 75 48 76
REMARK SMILES IDX 74 77 75 78 83 79 76 80 77 81 81 82 84 83 78 84 79 85 82 86
REMARK SMILES IDX 80 87 59 88 60 89 68 90 61 91 62 92 66 93 69 94 63 95 64 96
REMARK SMILES IDX 67 97 65 98
REMARK H PARENT 6 12 89 51 57 62
REMARK Flexibility Score: inf
ROOT
ATOM      1  C   UNL A   1      38.167  32.712  38.024  1.00  0.00     0.202 C 
ENDROOT
BRANCH   1   2
ATOM      2  C   UNL A   1      38.877  32.233  36.755  1.00  0.00     0.261 C 
BRANCH   2   3
ATOM      3  O   UNL A   1      37.975  31.917  35.684  1.00  0.00    -0.462 OA
BRANCH   3   4
ATOM      4  C   UNL A   1      38.456  30.971  34.824  1.00  0.00     0.328 C 
ATOM      5  O   UNL A   1      39.121  29.997  35.166  1.00  0.00    -0.250 OA
BRANCH   4   6
ATOM      6  C   UNL A   1      38.148  31.295  33.361  1.00  0.00     0.191 C 
BRANCH   6   7
ATOM      7  C   UNL A   1      38.131  32.821  33.173  1.00  0.00     0.040 C 
BRANCH   7   8
ATOM      8  C   UNL A   1      39.215  33.394  32.240  1.00  0.00    -0.015 C 
ATOM      9  C   UNL A   1      40.001  32.304  31.514  1.00  0.00     0.007 C 
ATOM     10  C   UNL A   1      38.568  34.339  31.226  1.00  0.00     0.007 C 
ENDBRANCH   7   8
ENDBRANCH   6   7
BRANCH   6  11
ATOM     11  N   UNL A   1      36.856  30.740  32.907  1.00  0.00    -0.356 N 
ATOM     12  H   UNL A   1      36.551  29.851  33.199  1.00  0.00     0.163 HD
BRANCH  11  13
ATOM     13  C   UNL A   1      36.089  31.520  32.053  1.00  0.00     0.139 A 
ATOM     14  N   UNL A   1      35.190  32.357  32.623  1.00  0.00    -0.219 NA
ATOM     15  C   UNL A   1      36.158  31.477  30.636  1.00  0.00     0.062 A 
ATOM     16  C   UNL A   1      34.415  33.127  31.853  1.00  0.00     0.225 A 
ATOM     17  C   UNL A   1      35.267  32.316  29.972  1.00  0.00     0.129 A 
ATOM     18  C   UNL A   1      36.940  30.728  29.666  1.00  0.00     0.006 A 
ATOM     19  N   UNL A   1      34.386  33.164  30.526  1.00  0.00    -0.225 NA
ATOM     20  S   UNL A   1      35.345  32.194  28.276  1.00  0.00    -0.123 S 
ATOM     21  C   UNL A   1      36.568  31.017  28.365  1.00  0.00     0.076 A 
BRANCH  18  22
ATOM     22  C   UNL A   1      37.997  29.751  29.888  1.00  0.00    -0.017 A 
ATOM     23  C   UNL A   1      37.785  28.686  30.773  1.00  0.00     0.009 A 
ATOM     24  C   UNL A   1      39.240  29.882  29.260  1.00  0.00     0.009 A 
ATOM     25  C   UNL A   1      38.801  27.765  31.017  1.00  0.00     0.001 A 
ATOM     26  C   UNL A   1      40.237  28.928  29.466  1.00  0.00     0.001 A 
ATOM     27  C   UNL A   1      40.018  27.871  30.347  1.00  0.00     0.000 A 
ENDBRANCH  18  22
ENDBRANCH  11  13
ENDBRANCH   6  11
ENDBRANCH   4   6
ENDBRANCH   3   4
ENDBRANCH   2   3
ENDBRANCH   1   2
BRANCH   1  28
ATOM     28  O   UNL A   1      38.946  32.849  39.206  1.00  0.00    -0.374 OA
BRANCH  28  29
ATOM     29  C   UNL A   1      38.613  33.901  40.113  1.00  0.00     0.202 C 
BRANCH  29  30
ATOM     30  C   UNL A   1      39.549  35.114  40.147  1.00  0.00     0.261 C 
BRANCH  30  31
ATOM     31  O   UNL A   1      39.447  35.912  38.952  1.00  0.00    -0.460 OA
BRANCH  31  32
ATOM     32  C   UNL A   1      40.573  36.583  38.618  1.00  0.00     0.338 C 
ATOM     33  O   UNL A   1      41.174  37.414  39.285  1.00  0.00    -0.246 OA
BRANCH  32  34
ATOM     34  C   UNL A   1      41.115  36.053  37.356  1.00  0.00     0.060 A 
ATOM     35  C   UNL A   1      40.213  35.732  36.332  1.00  0.00     0.016 A 
ATOM     36  C   UNL A   1      42.473  35.776  37.218  1.00  0.00     0.016 A 
ATOM     37  C   UNL A   1      40.660  35.084  35.181  1.00  0.00     0.010 A 
ATOM     38  C   UNL A   1      42.916  35.112  36.072  1.00  0.00     0.010 A 
ATOM     39  C   UNL A   1      42.009  34.734  35.065  1.00  0.00    -0.014 A 
BRANCH  39  40
ATOM     40  C   UNL A   1      42.454  33.794  34.008  1.00  0.00     0.031 A 
ATOM     41  C   UNL A   1      42.755  34.353  32.644  1.00  0.00     0.074 A 
ATOM     42  C   UNL A   1      42.575  32.476  34.243  1.00  0.00     0.049 A 
ATOM     43  N   UNL A   1      43.042  33.729  31.532  1.00  0.00    -0.248 NA
ATOM     44  C   UNL A   1      42.707  35.819  32.518  1.00  0.00     0.031 C 
ATOM     45  C   UNL A   1      42.345  31.821  35.529  1.00  0.00     0.029 A 
ATOM     46  N   UNL A   1      42.908  31.451  33.394  1.00  0.00    -0.354 N 
ATOM     47  C   UNL A   1      43.185  34.722  30.571  1.00  0.00     0.074 A 
ATOM     48  C   UNL A   1      42.921  35.987  31.223  1.00  0.00     0.031 C 
ATOM     49  C   UNL A   1      42.533  30.497  35.380  1.00  0.00     0.029 A 
ATOM     50  C   UNL A   1      42.864  30.212  33.985  1.00  0.00     0.049 A 
ATOM     51  H   UNL A   1      43.155  31.590  32.452  1.00  0.00     0.167 HD
ATOM     52  C   UNL A   1      43.518  34.594  29.266  1.00  0.00     0.037 A 
ATOM     53  C   UNL A   1      43.050  28.990  33.449  1.00  0.00     0.037 A 
ATOM     54  C   UNL A   1      43.803  33.338  28.627  1.00  0.00     0.049 A 
ATOM     55  C   UNL A   1      43.383  28.867  31.984  1.00  0.00     0.074 A 
ATOM     56  C   UNL A   1      44.175  33.101  27.316  1.00  0.00     0.029 A 
ATOM     57  N   UNL A   1      43.750  32.105  29.260  1.00  0.00    -0.354 N 
ATOM     58  N   UNL A   1      43.530  29.811  31.085  1.00  0.00    -0.248 NA
ATOM     59  C   UNL A   1      43.577  27.507  31.459  1.00  0.00     0.031 C 
ATOM     60  C   UNL A   1      44.310  31.719  27.145  1.00  0.00     0.029 A 
ATOM     61  C   UNL A   1      44.067  31.100  28.361  1.00  0.00     0.049 A 
ATOM     62  H   UNL A   1      43.521  31.965  30.207  1.00  0.00     0.167 HD
ATOM     63  C   UNL A   1      43.863  29.165  29.901  1.00  0.00     0.074 A 
ATOM     64  C   UNL A   1      43.903  27.748  30.197  1.00  0.00     0.031 C 
ATOM     65  C   UNL A   1      44.117  29.697  28.680  1.00  0.00     0.037 A 
BRANCH  52  66
ATOM     66  C   UNL A   1      43.565  35.846  28.443  1.00  0.00     0.064 A 
ATOM     67  C   UNL A   1      42.408  36.401  27.877  1.00  0.00     0.173 A 
ATOM     68  C   UNL A   1      44.784  36.502  28.221  1.00  0.00     0.173 A 
ATOM     69  F   UNL A   1      41.220  35.801  28.043  1.00  0.00    -0.203 F 
ATOM     70  C   UNL A   1      42.475  37.549  27.092  1.00  0.00     0.198 A 
ATOM     71  C   UNL A   1      44.843  37.667  27.460  1.00  0.00     0.198 A 
ATOM     72  F   UNL A   1      45.920  36.013  28.741  1.00  0.00    -0.203 F 
ATOM     73  F   UNL A   1      41.364  38.029  26.514  1.00  0.00    -0.200 F 
ATOM     74  C   UNL A   1      43.691  38.183  26.889  1.00  0.00     0.200 A 
ATOM     75  F   UNL A   1      46.019  38.284  27.272  1.00  0.00    -0.200 F 
ATOM     76  F   UNL A   1      43.754  39.288  26.133  1.00  0.00    -0.200 F 
ENDBRANCH  52  66
BRANCH  53  77
ATOM     77  C   UNL A   1      42.925  27.780  34.302  1.00  0.00     0.064 A 
ATOM     78  C   UNL A   1      41.712  27.085  34.396  1.00  0.00     0.173 A 
ATOM     79  C   UNL A   1      44.012  27.301  35.047  1.00  0.00     0.173 A 
ATOM     80  F   UNL A   1      40.638  27.519  33.721  1.00  0.00    -0.203 F 
ATOM     81  C   UNL A   1      41.587  25.963  35.214  1.00  0.00     0.198 A 
ATOM     82  C   UNL A   1      43.893  26.165  35.846  1.00  0.00     0.198 A 
ATOM     83  F   UNL A   1      45.195  27.931  34.992  1.00  0.00    -0.203 F 
ATOM     84  F   UNL A   1      40.405  25.340  35.316  1.00  0.00    -0.200 F 
ATOM     85  C   UNL A   1      42.678  25.501  35.934  1.00  0.00     0.200 A 
ATOM     86  F   UNL A   1      44.953  25.716  36.531  1.00  0.00    -0.200 F 
ATOM     87  F   UNL A   1      42.559  24.421  36.718  1.00  0.00    -0.200 F 
ENDBRANCH  53  77
BRANCH  65  88
ATOM     88  C   UNL A   1      44.505  28.753  27.580  1.00  0.00     0.064 A 
ATOM     89  C   UNL A   1      45.830  28.334  27.401  1.00  0.00     0.173 A 
ATOM     90  C   UNL A   1      43.523  28.216  26.733  1.00  0.00     0.173 A 
ATOM     91  F   UNL A   1      46.805  28.830  28.178  1.00  0.00    -0.203 F 
ATOM     92  C   UNL A   1      46.162  27.422  26.402  1.00  0.00     0.198 A 
ATOM     93  C   UNL A   1      43.855  27.285  25.752  1.00  0.00     0.198 A 
ATOM     94  F   UNL A   1      42.239  28.580  26.869  1.00  0.00    -0.203 F 
ATOM     95  F   UNL A   1      47.441  27.063  26.224  1.00  0.00    -0.200 F 
ATOM     96  C   UNL A   1      45.174  26.894  25.584  1.00  0.00     0.200 A 
ATOM     97  F   UNL A   1      42.897  26.766  24.972  1.00  0.00    -0.200 F 
ATOM     98  F   UNL A   1      45.494  26.009  24.631  1.00  0.00    -0.200 F 
ENDBRANCH  65  88
ENDBRANCH  39  40
ENDBRANCH  32  34
ENDBRANCH  31  32
ENDBRANCH  30  31
ENDBRANCH  29  30
ENDBRANCH  28  29
ENDBRANCH   1  28
TORSDOF 19
ENDMDL
MODEL 2
REMARK VINA RESULT:      -8.6      6.298     11.282
REMARK SMILES CC(C)C[C@H](Nc1ncnc2scc(-c3ccccc3)c12)C(=O)OCCOCCOC(=O)c1ccc(-c2c3nc(c(-c4c(F)c(F)c(F)c(F)c4F)c4ccc([nH]4)c(-c4c(F)c(F)c(F)c(F)c4F)c4nc(c(-c5c(F)c(F)c(F)c(F)c5F)c5ccc2[nH]5)C=C4)C=C3)cc1
REMARK SMILES IDX 26 1 25 2 24 3 22 4 23 5 5 6 4 7 2 8 1 9 3 10 6 11 7 13 8 14
REMARK SMILES IDX 21 15 9 16 11 17 14 18 10 19 12 20 13 21 15 22 16 23 20 24
REMARK SMILES IDX 17 25 19 26 18 27 27 28 28 29 29 30 30 31 31 32 32 33 33 34
REMARK SMILES IDX 34 35 95 36 35 37 94 38 36 39 37 40 38 41 88 42 39 43 93 44
REMARK SMILES IDX 87 45 89 46 40 47 92 48 86 49 85 50 41 52 73 53 53 54 72 55
REMARK SMILES IDX 54 56 57 57 71 58 90 59 55 60 56 61 70 63 91 64 58 65 42 66
REMARK SMILES IDX 43 67 51 68 44 69 45 70 49 71 52 72 46 73 47 74 50 75 48 76
REMARK SMILES IDX 74 77 75 78 83 79 76 80 77 81 81 82 84 83 78 84 79 85 82 86
REMARK SMILES IDX 80 87 59 88 60 89 68 90 61 91 62 92 66 93 69 94 63 95 64 96
REMARK SMILES IDX 67 97 65 98
REMARK H PARENT 6 12 89 51 57 62
REMARK Flexibility Score: inf
ROOT
ATOM      1  C   UNL A   1      33.824  21.123  26.478  1.00  0.00     0.202 C 
ENDROOT
BRANCH   1   2
ATOM      2  C   UNL A   1      33.420  22.117  27.569  1.00  0.00     0.261 C 
BRANCH   2   3
ATOM      3  O   UNL A   1      33.275  23.462  27.088  1.00  0.00    -0.462 OA
BRANCH   3   4
ATOM      4  C   UNL A   1      31.976  23.866  26.975  1.00  0.00     0.328 C 
ATOM      5  O   UNL A   1      31.041  23.380  27.605  1.00  0.00    -0.250 OA
BRANCH   4   6
ATOM      6  C   UNL A   1      31.787  24.948  25.911  1.00  0.00     0.191 C 
BRANCH   6   7
ATOM      7  C   UNL A   1      31.205  26.211  26.569  1.00  0.00     0.040 C 
BRANCH   7   8
ATOM      8  C   UNL A   1      32.235  27.207  27.133  1.00  0.00    -0.015 C 
ATOM      9  C   UNL A   1      33.496  27.297  26.277  1.00  0.00     0.007 C 
ATOM     10  C   UNL A   1      31.590  28.589  27.264  1.00  0.00     0.007 C 
ENDBRANCH   7   8
ENDBRANCH   6   7
BRANCH   6  11
ATOM     11  N   UNL A   1      30.894  24.526  24.811  1.00  0.00    -0.356 N 
ATOM     12  H   UNL A   1      29.928  24.713  24.836  1.00  0.00     0.163 HD
BRANCH  11  13
ATOM     13  C   UNL A   1      31.469  23.853  23.742  1.00  0.00     0.139 A 
ATOM     14  N   UNL A   1      31.619  22.513  23.866  1.00  0.00    -0.219 NA
ATOM     15  C   UNL A   1      31.937  24.471  22.553  1.00  0.00     0.062 A 
ATOM     16  C   UNL A   1      32.176  21.809  22.875  1.00  0.00     0.225 A 
ATOM     17  C   UNL A   1      32.519  23.611  21.626  1.00  0.00     0.129 A 
ATOM     18  C   UNL A   1      31.985  25.835  22.052  1.00  0.00     0.006 A 
ATOM     19  N   UNL A   1      32.655  22.279  21.729  1.00  0.00    -0.225 NA
ATOM     20  S   UNL A   1      33.115  24.398  20.240  1.00  0.00    -0.123 S 
ATOM     21  C   UNL A   1      32.620  25.916  20.826  1.00  0.00     0.076 A 
BRANCH  18  22
ATOM     22  C   UNL A   1      31.487  27.061  22.662  1.00  0.00    -0.017 A 
ATOM     23  C   UNL A   1      30.112  27.226  22.868  1.00  0.00     0.009 A 
ATOM     24  C   UNL A   1      32.361  28.097  23.007  1.00  0.00     0.009 A 
ATOM     25  C   UNL A   1      29.623  28.409  23.419  1.00  0.00     0.001 A 
ATOM     26  C   UNL A   1      31.873  29.259  23.607  1.00  0.00     0.001 A 
ATOM     27  C   UNL A   1      30.504  29.415  23.810  1.00  0.00     0.000 A 
ENDBRANCH  18  22
ENDBRANCH  11  13
ENDBRANCH   6  11
ENDBRANCH   4   6
ENDBRANCH   3   4
ENDBRANCH   2   3
ENDBRANCH   1   2
BRANCH   1  28
ATOM     28  O   UNL A   1      34.463  21.638  25.316  1.00  0.00    -0.374 OA
BRANCH  28  29
ATOM     29  C   UNL A   1      35.763  21.143  24.989  1.00  0.00     0.202 C 
BRANCH  29  30
ATOM     30  C   UNL A   1      36.915  21.549  25.914  1.00  0.00     0.261 C 
BRANCH  30  31
ATOM     31  O   UNL A   1      38.180  21.578  25.226  1.00  0.00    -0.460 OA
BRANCH  31  32
ATOM     32  C   UNL A   1      39.257  21.325  26.003  1.00  0.00     0.338 C 
ATOM     33  O   UNL A   1      39.882  20.277  26.097  1.00  0.00    -0.246 OA
BRANCH  32  34
ATOM     34  C   UNL A   1      39.718  22.569  26.640  1.00  0.00     0.060 A 
ATOM     35  C   UNL A   1      39.233  23.787  26.142  1.00  0.00     0.016 A 
ATOM     36  C   UNL A   1      40.689  22.548  27.639  1.00  0.00     0.016 A 
ATOM     37  C   UNL A   1      39.756  24.993  26.606  1.00  0.00     0.010 A 
ATOM     38  C   UNL A   1      41.224  23.757  28.090  1.00  0.00     0.010 A 
ATOM     39  C   UNL A   1      40.785  24.981  27.554  1.00  0.00    -0.014 A 
BRANCH  39  40
ATOM     40  C   UNL A   1      41.557  26.214  27.841  1.00  0.00     0.031 A 
ATOM     41  C   UNL A   1      40.875  27.314  28.609  1.00  0.00     0.074 A 
ATOM     42  C   UNL A   1      42.824  26.365  27.421  1.00  0.00     0.049 A 
ATOM     43  N   UNL A   1      41.291  28.523  28.880  1.00  0.00    -0.248 NA
ATOM     44  C   UNL A   1      39.531  27.009  29.126  1.00  0.00     0.031 C 
ATOM     45  C   UNL A   1      43.602  25.361  26.699  1.00  0.00     0.029 A 
ATOM     46  N   UNL A   1      43.674  27.437  27.530  1.00  0.00    -0.354 N 
ATOM     47  C   UNL A   1      40.253  29.129  29.576  1.00  0.00     0.074 A 
ATOM     48  C   UNL A   1      39.176  28.166  29.658  1.00  0.00     0.031 C 
ATOM     49  C   UNL A   1      44.815  25.870  26.419  1.00  0.00     0.029 A 
ATOM     50  C   UNL A   1      44.885  27.244  26.914  1.00  0.00     0.049 A 
ATOM     51  H   UNL A   1      43.437  28.265  28.007  1.00  0.00     0.167 HD
ATOM     52  C   UNL A   1      40.206  30.371  30.111  1.00  0.00     0.037 A 
ATOM     53  C   UNL A   1      45.919  28.092  26.752  1.00  0.00     0.037 A 
ATOM     54  C   UNL A   1      41.286  31.316  30.049  1.00  0.00     0.049 A 
ATOM     55  C   UNL A   1      45.831  29.485  27.323  1.00  0.00     0.074 A 
ATOM     56  C   UNL A   1      41.350  32.592  30.580  1.00  0.00     0.029 A 
ATOM     57  N   UNL A   1      42.499  31.083  29.417  1.00  0.00    -0.354 N 
ATOM     58  N   UNL A   1      44.852  30.046  27.992  1.00  0.00    -0.248 NA
ATOM     59  C   UNL A   1      46.993  30.362  27.116  1.00  0.00     0.031 C 
ATOM     60  C   UNL A   1      42.587  33.146  30.237  1.00  0.00     0.029 A 
ATOM     61  C   UNL A   1      43.312  32.198  29.531  1.00  0.00     0.049 A 
ATOM     62  H   UNL A   1      42.744  30.249  28.956  1.00  0.00     0.167 HD
ATOM     63  C   UNL A   1      45.290  31.325  28.312  1.00  0.00     0.074 A 
ATOM     64  C   UNL A   1      46.626  31.456  27.769  1.00  0.00     0.031 C 
ATOM     65  C   UNL A   1      44.645  32.301  28.997  1.00  0.00     0.037 A 
BRANCH  52  66
ATOM     66  C   UNL A   1      38.930  30.780  30.786  1.00  0.00     0.064 A 
ATOM     67  C   UNL A   1      37.844  31.293  30.062  1.00  0.00     0.173 A 
ATOM     68  C   UNL A   1      38.793  30.653  32.175  1.00  0.00     0.173 A 
ATOM     69  F   UNL A   1      37.933  31.452  28.732  1.00  0.00    -0.203 F 
ATOM     70  C   UNL A   1      36.678  31.694  30.708  1.00  0.00     0.198 A 
ATOM     71  C   UNL A   1      37.614  31.028  32.816  1.00  0.00     0.198 A 
ATOM     72  F   UNL A   1      39.802  30.168  32.914  1.00  0.00    -0.203 F 
ATOM     73  F   UNL A   1      35.675  32.234  30.003  1.00  0.00    -0.200 F 
ATOM     74  C   UNL A   1      36.563  31.556  32.083  1.00  0.00     0.200 A 
ATOM     75  F   UNL A   1      37.501  30.886  34.144  1.00  0.00    -0.200 F 
ATOM     76  F   UNL A   1      35.440  31.943  32.705  1.00  0.00    -0.200 F 
ENDBRANCH  52  66
BRANCH  53  77
ATOM     77  C   UNL A   1      47.132  27.651  26.017  1.00  0.00     0.064 A 
ATOM     78  C   UNL A   1      47.208  27.755  24.621  1.00  0.00     0.173 A 
ATOM     79  C   UNL A   1      48.234  27.106  26.691  1.00  0.00     0.173 A 
ATOM     80  F   UNL A   1      46.169  28.246  23.930  1.00  0.00    -0.203 F 
ATOM     81  C   UNL A   1      48.335  27.319  23.927  1.00  0.00     0.198 A 
ATOM     82  C   UNL A   1      49.370  26.693  25.999  1.00  0.00     0.198 A 
ATOM     83  F   UNL A   1      48.210  26.984  28.027  1.00  0.00    -0.203 F 
ATOM     84  F   UNL A   1      48.366  27.394  22.590  1.00  0.00    -0.200 F 
ATOM     85  C   UNL A   1      49.417  26.794  24.616  1.00  0.00     0.200 A 
ATOM     86  F   UNL A   1      50.418  26.197  26.670  1.00  0.00    -0.200 F 
ATOM     87  F   UNL A   1      50.503  26.378  23.949  1.00  0.00    -0.200 F 
ENDBRANCH  53  77
BRANCH  65  88
ATOM     88  C   UNL A   1      45.388  33.582  29.240  1.00  0.00     0.064 A 
ATOM     89  C   UNL A   1      45.274  34.677  28.373  1.00  0.00     0.173 A 
ATOM     90  C   UNL A   1      46.177  33.733  30.392  1.00  0.00     0.173 A 
ATOM     91  F   UNL A   1      44.542  34.576  27.252  1.00  0.00    -0.203 F 
ATOM     92  C   UNL A   1      45.936  35.872  28.639  1.00  0.00     0.198 A 
ATOM     93  C   UNL A   1      46.816  34.939  30.668  1.00  0.00     0.198 A 
ATOM     94  F   UNL A   1      46.312  32.718  31.257  1.00  0.00    -0.203 F 
ATOM     95  F   UNL A   1      45.843  36.894  27.777  1.00  0.00    -0.200 F 
ATOM     96  C   UNL A   1      46.700  36.005  29.789  1.00  0.00     0.200 A 
ATOM     97  F   UNL A   1      47.543  35.069  31.787  1.00  0.00    -0.200 F 
ATOM     98  F   UNL A   1      47.327  37.159  30.050  1.00  0.00    -0.200 F 
ENDBRANCH  65  88
ENDBRANCH  39  40
ENDBRANCH  32  34
ENDBRANCH  31  32
ENDBRANCH  30  31
ENDBRANCH  29  30
ENDBRANCH  28  29
ENDBRANCH   1  28
TORSDOF 19
ENDMDL
MODEL 3
REMARK VINA RESULT:      -8.5      5.975     11.994
REMARK SMILES CC(C)C[C@H](Nc1ncnc2scc(-c3ccccc3)c12)C(=O)OCCOCCOC(=O)c1ccc(-c2c3nc(c(-c4c(F)c(F)c(F)c(F)c4F)c4ccc([nH]4)c(-c4c(F)c(F)c(F)c(F)c4F)c4nc(c(-c5c(F)c(F)c(F)c(F)c5F)c5ccc2[nH]5)C=C4)C=C3)cc1
REMARK SMILES IDX 26 1 25 2 24 3 22 4 23 5 5 6 4 7 2 8 1 9 3 10 6 11 7 13 8 14
REMARK SMILES IDX 21 15 9 16 11 17 14 18 10 19 12 20 13 21 15 22 16 23 20 24
REMARK SMILES IDX 17 25 19 26 18 27 27 28 28 29 29 30 30 31 31 32 32 33 33 34
REMARK SMILES IDX 34 35 95 36 35 37 94 38 36 39 37 40 38 41 88 42 39 43 93 44
REMARK SMILES IDX 87 45 89 46 40 47 92 48 86 49 85 50 41 52 73 53 53 54 72 55
REMARK SMILES IDX 54 56 57 57 71 58 90 59 55 60 56 61 70 63 91 64 58 65 42 66
REMARK SMILES IDX 43 67 51 68 44 69 45 70 49 71 52 72 46 73 47 74 50 75 48 76
REMARK SMILES IDX 74 77 75 78 83 79 76 80 77 81 81 82 84 83 78 84 79 85 82 86
REMARK SMILES IDX 80 87 59 88 60 89 68 90 61 91 62 92 66 93 69 94 63 95 64 96
REMARK SMILES IDX 67 97 65 98
REMARK H PARENT 6 12 89 51 57 62
REMARK Flexibility Score: inf
ROOT
ATOM      1  C   UNL A   1      39.337  21.679  26.072  1.00  0.00     0.202 C 
ENDROOT
BRANCH   1   2
ATOM      2  C   UNL A   1      38.346  22.844  26.116  1.00  0.00     0.261 C 
BRANCH   2   3
ATOM      3  O   UNL A   1      37.022  22.481  25.701  1.00  0.00    -0.462 OA
BRANCH   3   4
ATOM      4  C   UNL A   1      36.620  23.096  24.549  1.00  0.00     0.328 C 
ATOM      5  O   UNL A   1      37.383  23.487  23.670  1.00  0.00    -0.250 OA
BRANCH   4   6
ATOM      6  C   UNL A   1      35.109  23.325  24.499  1.00  0.00     0.191 C 
BRANCH   6   7
ATOM      7  C   UNL A   1      34.721  23.843  23.104  1.00  0.00     0.040 C 
BRANCH   7   8
ATOM      8  C   UNL A   1      33.728  22.966  22.317  1.00  0.00    -0.015 C 
ATOM      9  C   UNL A   1      32.598  22.428  23.192  1.00  0.00     0.007 C 
ATOM     10  C   UNL A   1      33.151  23.770  21.150  1.00  0.00     0.007 C 
ENDBRANCH   7   8
ENDBRANCH   6   7
BRANCH   6  11
ATOM     11  N   UNL A   1      34.637  24.288  25.517  1.00  0.00    -0.356 N 
ATOM     12  H   UNL A   1      35.157  25.095  25.736  1.00  0.00     0.163 HD
BRANCH  11  13
ATOM     13  C   UNL A   1      33.436  24.010  26.153  1.00  0.00     0.139 A 
ATOM     14  N   UNL A   1      33.406  22.928  26.968  1.00  0.00    -0.219 NA
ATOM     15  C   UNL A   1      32.239  24.754  25.985  1.00  0.00     0.062 A 
ATOM     16  C   UNL A   1      32.276  22.602  27.602  1.00  0.00     0.225 A 
ATOM     17  C   UNL A   1      31.137  24.273  26.688  1.00  0.00     0.129 A 
ATOM     18  C   UNL A   1      31.854  25.922  25.212  1.00  0.00     0.006 A 
ATOM     19  N   UNL A   1      31.101  23.215  27.514  1.00  0.00    -0.225 NA
ATOM     20  S   UNL A   1      29.711  25.160  26.417  1.00  0.00    -0.123 S 
ATOM     21  C   UNL A   1      30.509  26.217  25.350  1.00  0.00     0.076 A 
BRANCH  18  22
ATOM     22  C   UNL A   1      32.666  26.765  24.343  1.00  0.00    -0.017 A 
ATOM     23  C   UNL A   1      33.504  27.737  24.904  1.00  0.00     0.009 A 
ATOM     24  C   UNL A   1      32.590  26.645  22.952  1.00  0.00     0.009 A 
ATOM     25  C   UNL A   1      34.259  28.570  24.081  1.00  0.00     0.001 A 
ATOM     26  C   UNL A   1      33.387  27.445  22.132  1.00  0.00     0.001 A 
ATOM     27  C   UNL A   1      34.219  28.409  22.697  1.00  0.00     0.000 A 
ENDBRANCH  18  22
ENDBRANCH  11  13
ENDBRANCH   6  11
ENDBRANCH   4   6
ENDBRANCH   3   4
ENDBRANCH   2   3
ENDBRANCH   1   2
BRANCH   1  28
ATOM     28  O   UNL A   1      40.526  21.791  26.845  1.00  0.00    -0.374 OA
BRANCH  28  29
ATOM     29  C   UNL A   1      41.635  20.961  26.497  1.00  0.00     0.202 C 
BRANCH  29  30
ATOM     30  C   UNL A   1      42.632  21.522  25.478  1.00  0.00     0.261 C 
BRANCH  30  31
ATOM     31  O   UNL A   1      42.332  22.884  25.117  1.00  0.00    -0.460 OA
BRANCH  31  32
ATOM     32  C   UNL A   1      43.255  23.792  25.507  1.00  0.00     0.338 C 
ATOM     33  O   UNL A   1      44.432  23.851  25.179  1.00  0.00    -0.246 OA
BRANCH  32  34
ATOM     34  C   UNL A   1      42.608  24.859  26.288  1.00  0.00     0.060 A 
ATOM     35  C   UNL A   1      43.178  26.140  26.258  1.00  0.00     0.016 A 
ATOM     36  C   UNL A   1      41.523  24.584  27.119  1.00  0.00     0.016 A 
ATOM     37  C   UNL A   1      42.696  27.141  27.100  1.00  0.00     0.010 A 
ATOM     38  C   UNL A   1      41.054  25.584  27.974  1.00  0.00     0.010 A 
ATOM     39  C   UNL A   1      41.658  26.854  27.993  1.00  0.00    -0.014 A 
BRANCH  39  40
ATOM     40  C   UNL A   1      41.330  27.794  29.092  1.00  0.00     0.031 A 
ATOM     41  C   UNL A   1      42.159  27.734  30.346  1.00  0.00     0.074 A 
ATOM     42  C   UNL A   1      40.314  28.668  28.991  1.00  0.00     0.049 A 
ATOM     43  N   UNL A   1      42.000  28.360  31.482  1.00  0.00    -0.248 NA
ATOM     44  C   UNL A   1      43.319  26.827  30.315  1.00  0.00     0.031 C 
ATOM     45  C   UNL A   1      39.462  28.845  27.818  1.00  0.00     0.029 A 
ATOM     46  N   UNL A   1      39.821  29.564  29.906  1.00  0.00    -0.354 N 
ATOM     47  C   UNL A   1      43.020  27.906  32.307  1.00  0.00     0.074 A 
ATOM     48  C   UNL A   1      43.775  26.929  31.553  1.00  0.00     0.031 C 
ATOM     49  C   UNL A   1      38.539  29.785  28.089  1.00  0.00     0.029 A 
ATOM     50  C   UNL A   1      38.718  30.251  29.463  1.00  0.00     0.049 A 
ATOM     51  H   UNL A   1      40.220  29.701  30.795  1.00  0.00     0.167 HD
ATOM     52  C   UNL A   1      43.312  28.279  33.575  1.00  0.00     0.037 A 
ATOM     53  C   UNL A   1      37.935  31.139  30.107  1.00  0.00     0.037 A 
ATOM     54  C   UNL A   1      42.576  29.269  34.313  1.00  0.00     0.049 A 
ATOM     55  C   UNL A   1      38.255  31.512  31.531  1.00  0.00     0.074 A 
ATOM     56  C   UNL A   1      42.804  29.737  35.594  1.00  0.00     0.029 A 
ATOM     57  N   UNL A   1      41.465  29.944  33.829  1.00  0.00    -0.354 N 
ATOM     58  N   UNL A   1      39.230  31.090  32.301  1.00  0.00    -0.248 NA
ATOM     59  C   UNL A   1      37.365  32.488  32.178  1.00  0.00     0.031 C 
ATOM     60  C   UNL A   1      41.808  30.671  35.900  1.00  0.00     0.029 A 
ATOM     61  C   UNL A   1      40.987  30.816  34.792  1.00  0.00     0.049 A 
ATOM     62  H   UNL A   1      41.076  29.823  32.933  1.00  0.00     0.167 HD
ATOM     63  C   UNL A   1      39.090  31.768  33.505  1.00  0.00     0.074 A 
ATOM     64  C   UNL A   1      37.939  32.635  33.364  1.00  0.00     0.031 C 
ATOM     65  C   UNL A   1      39.849  31.683  34.625  1.00  0.00     0.037 A 
BRANCH  52  66
ATOM     66  C   UNL A   1      44.463  27.591  34.245  1.00  0.00     0.064 A 
ATOM     67  C   UNL A   1      44.337  26.307  34.795  1.00  0.00     0.173 A 
ATOM     68  C   UNL A   1      45.711  28.225  34.336  1.00  0.00     0.173 A 
ATOM     69  F   UNL A   1      43.158  25.667  34.752  1.00  0.00    -0.203 F 
ATOM     70  C   UNL A   1      45.409  25.696  35.439  1.00  0.00     0.198 A 
ATOM     71  C   UNL A   1      46.790  27.598  34.955  1.00  0.00     0.198 A 
ATOM     72  F   UNL A   1      45.885  29.453  33.825  1.00  0.00    -0.203 F 
ATOM     73  F   UNL A   1      45.249  24.492  36.007  1.00  0.00    -0.200 F 
ATOM     74  C   UNL A   1      46.635  26.339  35.514  1.00  0.00     0.200 A 
ATOM     75  F   UNL A   1      47.977  28.218  35.018  1.00  0.00    -0.200 F 
ATOM     76  F   UNL A   1      47.666  25.750  36.135  1.00  0.00    -0.200 F 
ENDBRANCH  52  66
BRANCH  53  77
ATOM     77  C   UNL A   1      36.768  31.738  29.410  1.00  0.00     0.064 A 
ATOM     78  C   UNL A   1      35.650  30.962  29.075  1.00  0.00     0.173 A 
ATOM     79  C   UNL A   1      36.750  33.095  29.056  1.00  0.00     0.173 A 
ATOM     80  F   UNL A   1      35.631  29.655  29.370  1.00  0.00    -0.203 F 
ATOM     81  C   UNL A   1      34.564  31.517  28.400  1.00  0.00     0.198 A 
ATOM     82  C   UNL A   1      35.654  33.655  28.403  1.00  0.00     0.198 A 
ATOM     83  F   UNL A   1      37.796  33.881  29.354  1.00  0.00    -0.203 F 
ATOM     84  F   UNL A   1      33.525  30.744  28.057  1.00  0.00    -0.200 F 
ATOM     85  C   UNL A   1      34.564  32.864  28.070  1.00  0.00     0.200 A 
ATOM     86  F   UNL A   1      35.653  34.959  28.096  1.00  0.00    -0.200 F 
ATOM     87  F   UNL A   1      33.519  33.399  27.425  1.00  0.00    -0.200 F 
ENDBRANCH  53  77
BRANCH  65  88
ATOM     88  C   UNL A   1      39.491  32.580  35.774  1.00  0.00     0.064 A 
ATOM     89  C   UNL A   1      39.956  33.899  35.852  1.00  0.00     0.173 A 
ATOM     90  C   UNL A   1      38.620  32.127  36.777  1.00  0.00     0.173 A 
ATOM     91  F   UNL A   1      40.802  34.373  34.923  1.00  0.00    -0.203 F 
ATOM     92  C   UNL A   1      39.577  34.730  36.903  1.00  0.00     0.198 A 
ATOM     93  C   UNL A   1      38.222  32.969  37.813  1.00  0.00     0.198 A 
ATOM     94  F   UNL A   1      38.142  30.875  36.744  1.00  0.00    -0.203 F 
ATOM     95  F   UNL A   1      40.063  35.977  36.978  1.00  0.00    -0.200 F 
ATOM     96  C   UNL A   1      38.705  34.267  37.877  1.00  0.00     0.200 A 
ATOM     97  F   UNL A   1      37.369  32.524  38.745  1.00  0.00    -0.200 F 
ATOM     98  F   UNL A   1      38.332  35.071  38.882  1.00  0.00    -0.200 F 
ENDBRANCH  65  88
ENDBRANCH  39  40
ENDBRANCH  32  34
ENDBRANCH  31  32
ENDBRANCH  30  31
ENDBRANCH  29  30
ENDBRANCH  28  29
ENDBRANCH   1  28
TORSDOF 19
ENDMDL
