MODEL 1
REMARK VINA RESULT:     -11.5      0.000      0.000
REMARK SMILES O=C(OCCOCCOC(=O)[C@@H](Cc1ccccc1)NC(=O)c1ccccc1[N+](=O)[O-])c1ccc(-c2c3nc(c(-c4c(F)c(F)c(F)c(F)c4F)c4ccc([nH]4)c(-c4c(F)c(F)c(F)c(F)c4F)c4nc(c(-c5c(F)c(F)c(F)c(F)c5F)c5ccc2[nH]5)C=C4)C=C3)cc1
REMARK SMILES IDX 7 1 6 2 5 3 4 4 3 5 2 6 1 7 32 8 33 9 94 10 34 11 93 12
REMARK SMILES IDX 35 13 36 14 37 15 87 16 38 17 92 18 86 19 88 20 39 21 91 22
REMARK SMILES IDX 85 23 84 24 40 26 72 27 52 28 71 29 53 30 56 31 70 32 89 33
REMARK SMILES IDX 54 34 55 35 69 37 90 38 57 39 41 40 42 41 50 42 43 43 44 44
REMARK SMILES IDX 48 45 51 46 45 47 46 48 49 49 47 50 73 51 74 52 82 53 75 54
REMARK SMILES IDX 76 55 80 56 83 57 77 58 78 59 81 60 79 61 58 62 59 63 67 64
REMARK SMILES IDX 60 65 61 66 65 67 68 68 62 69 63 70 66 71 64 72 8 73 9 74
REMARK SMILES IDX 10 75 11 76 12 77 13 78 14 79 15 80 19 81 16 82 18 83 17 84
REMARK SMILES IDX 20 85 21 86 22 88 23 89 24 90 28 91 25 92 27 93 26 94 29 95
REMARK SMILES IDX 30 96 31 97
REMARK H PARENT 88 25 56 36 20 87
REMARK Flexibility Score: inf
ROOT
ATOM      1  C   UNL A   1      36.432  21.266  25.342  1.00  0.00     0.202 C 
ENDROOT
BRANCH   1   2
ATOM      2  O   UNL A   1      36.705  19.901  24.993  1.00  0.00    -0.374 OA
BRANCH   2   3
ATOM      3  C   UNL A   1      38.068  19.577  24.705  1.00  0.00     0.202 C 
BRANCH   3   4
ATOM      4  C   UNL A   1      39.138  19.980  25.738  1.00  0.00     0.261 C 
BRANCH   4   5
ATOM      5  O   UNL A   1      40.292  19.119  25.686  1.00  0.00    -0.460 OA
BRANCH   5   6
ATOM      6  C   UNL A   1      41.574  19.393  26.024  1.00  0.00     0.338 C 
ATOM      7  O   UNL A   1      42.393  18.474  26.035  1.00  0.00    -0.246 OA
BRANCH   6   8
ATOM      8  C   UNL A   1      42.043  20.755  26.417  1.00  0.00     0.060 A 
ATOM      9  C   UNL A   1      42.298  21.142  27.728  1.00  0.00     0.016 A 
ATOM     10  C   UNL A   1      42.311  21.688  25.400  1.00  0.00     0.016 A 
ATOM     11  C   UNL A   1      42.757  22.397  28.048  1.00  0.00     0.010 A 
ATOM     12  C   UNL A   1      42.806  22.963  25.705  1.00  0.00     0.010 A 
ATOM     13  C   UNL A   1      43.022  23.310  27.039  1.00  0.00    -0.014 A 
BRANCH  13  14
ATOM     14  C   UNL A   1      43.409  24.641  27.513  1.00  0.00     0.031 A 
ATOM     15  C   UNL A   1      44.766  25.141  27.141  1.00  0.00     0.074 A 
ATOM     16  C   UNL A   1      42.439  25.455  27.968  1.00  0.00     0.049 A 
ATOM     17  N   UNL A   1      45.298  26.313  27.347  1.00  0.00    -0.248 NA
ATOM     18  C   UNL A   1      45.628  24.208  26.393  1.00  0.00     0.031 C 
ATOM     19  C   UNL A   1      41.034  25.066  28.144  1.00  0.00     0.029 A 
ATOM     20  N   UNL A   1      42.456  26.785  28.279  1.00  0.00    -0.354 N 
ATOM     21  C   UNL A   1      46.562  26.249  26.783  1.00  0.00     0.074 A 
ATOM     22  C   UNL A   1      46.717  24.936  26.203  1.00  0.00     0.031 C 
ATOM     23  C   UNL A   1      40.319  26.148  28.486  1.00  0.00     0.029 A 
ATOM     24  C   UNL A   1      41.226  27.279  28.637  1.00  0.00     0.049 A 
ATOM     25  H   UNL A   1      43.272  27.336  28.249  1.00  0.00     0.167 HD
ATOM     26  C   UNL A   1      47.510  27.212  26.779  1.00  0.00     0.037 A 
ATOM     27  C   UNL A   1      40.894  28.506  29.076  1.00  0.00     0.037 A 
ATOM     28  C   UNL A   1      47.310  28.501  27.380  1.00  0.00     0.049 A 
ATOM     29  C   UNL A   1      42.002  29.518  29.177  1.00  0.00     0.074 A 
ATOM     30  C   UNL A   1      48.220  29.519  27.584  1.00  0.00     0.029 A 
ATOM     31  N   UNL A   1      46.088  28.943  27.874  1.00  0.00    -0.354 N 
ATOM     32  N   UNL A   1      43.250  29.416  28.781  1.00  0.00    -0.248 NA
ATOM     33  C   UNL A   1      41.673  30.799  29.811  1.00  0.00     0.031 C 
ATOM     34  C   UNL A   1      47.553  30.565  28.235  1.00  0.00     0.029 A 
ATOM     35  C   UNL A   1      46.219  30.216  28.395  1.00  0.00     0.049 A 
ATOM     36  H   UNL A   1      45.251  28.425  27.855  1.00  0.00     0.167 HD
ATOM     37  C   UNL A   1      43.860  30.612  29.123  1.00  0.00     0.074 A 
ATOM     38  C   UNL A   1      42.830  31.441  29.723  1.00  0.00     0.031 C 
ATOM     39  C   UNL A   1      45.155  30.991  28.980  1.00  0.00     0.037 A 
BRANCH  26  40
ATOM     40  C   UNL A   1      48.845  26.849  26.208  1.00  0.00     0.064 A 
ATOM     41  C   UNL A   1      49.185  27.115  24.874  1.00  0.00     0.173 A 
ATOM     42  C   UNL A   1      49.782  26.169  27.001  1.00  0.00     0.173 A 
ATOM     43  F   UNL A   1      48.306  27.725  24.063  1.00  0.00    -0.203 F 
ATOM     44  C   UNL A   1      50.406  26.698  24.349  1.00  0.00     0.198 A 
ATOM     45  C   UNL A   1      51.010  25.771  26.480  1.00  0.00     0.198 A 
ATOM     46  F   UNL A   1      49.497  25.872  28.278  1.00  0.00    -0.203 F 
ATOM     47  F   UNL A   1      50.690  26.915  23.058  1.00  0.00    -0.200 F 
ATOM     48  C   UNL A   1      51.319  26.030  25.153  1.00  0.00     0.200 A 
ATOM     49  F   UNL A   1      51.887  25.120  27.257  1.00  0.00    -0.200 F 
ATOM     50  F   UNL A   1      52.489  25.619  24.645  1.00  0.00    -0.200 F 
ENDBRANCH  26  40
BRANCH  27  51
ATOM     51  C   UNL A   1      39.508  28.801  29.532  1.00  0.00     0.064 A 
ATOM     52  C   UNL A   1      38.551  29.358  28.673  1.00  0.00     0.173 A 
ATOM     53  C   UNL A   1      39.117  28.554  30.859  1.00  0.00     0.173 A 
ATOM     54  F   UNL A   1      38.873  29.637  27.401  1.00  0.00    -0.203 F 
ATOM     55  C   UNL A   1      37.267  29.669  29.125  1.00  0.00     0.198 A 
ATOM     56  C   UNL A   1      37.825  28.831  31.301  1.00  0.00     0.198 A 
ATOM     57  F   UNL A   1      39.991  28.031  31.732  1.00  0.00    -0.203 F 
ATOM     58  F   UNL A   1      36.389  30.248  28.296  1.00  0.00    -0.200 F 
ATOM     59  C   UNL A   1      36.904  29.400  30.437  1.00  0.00     0.200 A 
ATOM     60  F   UNL A   1      37.478  28.554  32.565  1.00  0.00    -0.200 F 
ATOM     61  F   UNL A   1      35.672  29.697  30.870  1.00  0.00    -0.200 F 
ENDBRANCH  27  51
BRANCH  39  62
ATOM     62  C   UNL A   1      45.502  32.358  29.476  1.00  0.00     0.064 A 
ATOM     63  C   UNL A   1      45.412  33.479  28.639  1.00  0.00     0.173 A 
ATOM     64  C   UNL A   1      45.892  32.551  30.808  1.00  0.00     0.173 A 
ATOM     65  F   UNL A   1      45.059  33.335  27.352  1.00  0.00    -0.203 F 
ATOM     66  C   UNL A   1      45.726  34.747  29.114  1.00  0.00     0.198 A 
ATOM     67  C   UNL A   1      46.180  33.823  31.287  1.00  0.00     0.198 A 
ATOM     68  F   UNL A   1      45.985  31.505  31.643  1.00  0.00    -0.203 F 
ATOM     69  F   UNL A   1      45.680  35.801  28.288  1.00  0.00    -0.200 F 
ATOM     70  C   UNL A   1      46.104  34.919  30.438  1.00  0.00     0.200 A 
ATOM     71  F   UNL A   1      46.534  33.990  32.568  1.00  0.00    -0.200 F 
ATOM     72  F   UNL A   1      46.402  36.141  30.896  1.00  0.00    -0.200 F 
ENDBRANCH  39  62
ENDBRANCH  13  14
ENDBRANCH   6   8
ENDBRANCH   5   6
ENDBRANCH   4   5
ENDBRANCH   3   4
ENDBRANCH   2   3
ENDBRANCH   1   2
BRANCH   1  73
ATOM     73  C   UNL A   1      35.103  21.417  26.081  1.00  0.00     0.261 C 
BRANCH  73  74
ATOM     74  O   UNL A   1      34.996  22.776  26.528  1.00  0.00    -0.462 OA
BRANCH  74  75
ATOM     75  C   UNL A   1      33.746  23.248  26.705  1.00  0.00     0.329 C 
ATOM     76  O   UNL A   1      32.994  22.914  27.620  1.00  0.00    -0.250 OA
BRANCH  75  77
ATOM     77  C   UNL A   1      33.322  24.260  25.631  1.00  0.00     0.197 C 
BRANCH  77  78
ATOM     78  C   UNL A   1      34.059  25.610  25.443  1.00  0.00     0.072 C 
BRANCH  78  79
ATOM     79  C   UNL A   1      33.321  26.909  25.651  1.00  0.00    -0.045 A 
ATOM     80  C   UNL A   1      33.626  28.037  24.887  1.00  0.00     0.004 A 
ATOM     81  C   UNL A   1      32.285  27.004  26.597  1.00  0.00     0.004 A 
ATOM     82  C   UNL A   1      32.939  29.237  25.094  1.00  0.00     0.000 A 
ATOM     83  C   UNL A   1      31.624  28.209  26.830  1.00  0.00     0.000 A 
ATOM     84  C   UNL A   1      31.953  29.328  26.076  1.00  0.00     0.000 A 
ENDBRANCH  78  79
ENDBRANCH  77  78
BRANCH  77  85
ATOM     85  N   UNL A   1      33.146  23.536  24.370  1.00  0.00    -0.338 N 
ATOM     86  C   UNL A   1      32.282  23.788  23.342  1.00  0.00     0.258 C 
ATOM     87  H   UNL A   1      33.733  22.756  24.246  1.00  0.00     0.164 HD
ATOM     88  O   UNL A   1      32.075  22.912  22.495  1.00  0.00    -0.269 OA
BRANCH  86  89
ATOM     89  C   UNL A   1      31.545  25.063  23.228  1.00  0.00     0.117 A 
ATOM     90  C   UNL A   1      30.388  25.206  24.010  1.00  0.00     0.021 A 
ATOM     91  C   UNL A   1      31.873  26.091  22.340  1.00  0.00     0.282 A 
ATOM     92  C   UNL A   1      29.606  26.363  23.920  1.00  0.00     0.001 A 
ATOM     93  C   UNL A   1      31.107  27.264  22.258  1.00  0.00     0.086 A 
ATOM     94  C   UNL A   1      29.967  27.392  23.050  1.00  0.00     0.007 A 
BRANCH  91  95
ATOM     95  N   UNL A   1      33.021  25.983  21.468  1.00  0.00     0.063 N 
ATOM     96  O   UNL A   1      34.112  26.328  21.946  1.00  0.00    -0.258 OA
ATOM     97  O   UNL A   1      32.844  25.551  20.325  1.00  0.00    -0.258 OA
ENDBRANCH  91  95
ENDBRANCH  86  89
ENDBRANCH  77  85
ENDBRANCH  75  77
ENDBRANCH  74  75
ENDBRANCH  73  74
ENDBRANCH   1  73
TORSDOF 19
ENDMDL
MODEL 2
REMARK VINA RESULT:     -11.4      4.284      9.832
REMARK SMILES O=C(OCCOCCOC(=O)[C@@H](Cc1ccccc1)NC(=O)c1ccccc1[N+](=O)[O-])c1ccc(-c2c3nc(c(-c4c(F)c(F)c(F)c(F)c4F)c4ccc([nH]4)c(-c4c(F)c(F)c(F)c(F)c4F)c4nc(c(-c5c(F)c(F)c(F)c(F)c5F)c5ccc2[nH]5)C=C4)C=C3)cc1
REMARK SMILES IDX 7 1 6 2 5 3 4 4 3 5 2 6 1 7 32 8 33 9 94 10 34 11 93 12
REMARK SMILES IDX 35 13 36 14 37 15 87 16 38 17 92 18 86 19 88 20 39 21 91 22
REMARK SMILES IDX 85 23 84 24 40 26 72 27 52 28 71 29 53 30 56 31 70 32 89 33
REMARK SMILES IDX 54 34 55 35 69 37 90 38 57 39 41 40 42 41 50 42 43 43 44 44
REMARK SMILES IDX 48 45 51 46 45 47 46 48 49 49 47 50 73 51 74 52 82 53 75 54
REMARK SMILES IDX 76 55 80 56 83 57 77 58 78 59 81 60 79 61 58 62 59 63 67 64
REMARK SMILES IDX 60 65 61 66 65 67 68 68 62 69 63 70 66 71 64 72 8 73 9 74
REMARK SMILES IDX 10 75 11 76 12 77 13 78 14 79 15 80 19 81 16 82 18 83 17 84
REMARK SMILES IDX 20 85 21 86 22 88 23 89 24 90 28 91 25 92 27 93 26 94 29 95
REMARK SMILES IDX 30 96 31 97
REMARK H PARENT 88 25 56 36 20 87
REMARK Flexibility Score: inf
ROOT
ATOM      1  C   UNL A   1      31.496  28.060  23.937  1.00  0.00     0.202 C 
ENDROOT
BRANCH   1   2
ATOM      2  O   UNL A   1      30.777  29.302  23.925  1.00  0.00    -0.374 OA
BRANCH   2   3
ATOM      3  C   UNL A   1      31.086  30.227  24.972  1.00  0.00     0.202 C 
BRANCH   3   4
ATOM      4  C   UNL A   1      32.382  30.002  25.774  1.00  0.00     0.261 C 
BRANCH   4   5
ATOM      5  O   UNL A   1      32.397  30.757  27.001  1.00  0.00    -0.460 OA
BRANCH   5   6
ATOM      6  C   UNL A   1      33.280  31.698  27.411  1.00  0.00     0.338 C 
ATOM      7  O   UNL A   1      32.987  32.885  27.270  1.00  0.00    -0.246 OA
BRANCH   6   8
ATOM      8  C   UNL A   1      34.612  31.368  27.999  1.00  0.00     0.060 A 
ATOM      9  C   UNL A   1      34.967  30.107  28.465  1.00  0.00     0.016 A 
ATOM     10  C   UNL A   1      35.596  32.373  28.025  1.00  0.00     0.016 A 
ATOM     11  C   UNL A   1      36.214  29.836  28.973  1.00  0.00     0.010 A 
ATOM     12  C   UNL A   1      36.882  32.107  28.514  1.00  0.00     0.010 A 
ATOM     13  C   UNL A   1      37.180  30.830  28.992  1.00  0.00    -0.014 A 
BRANCH  13  14
ATOM     14  C   UNL A   1      38.432  30.445  29.649  1.00  0.00     0.031 A 
ATOM     15  C   UNL A   1      38.629  30.869  31.067  1.00  0.00     0.074 A 
ATOM     16  C   UNL A   1      39.176  29.484  29.073  1.00  0.00     0.049 A 
ATOM     17  N   UNL A   1      39.593  30.569  31.891  1.00  0.00    -0.248 NA
ATOM     18  C   UNL A   1      37.571  31.712  31.654  1.00  0.00     0.031 C 
ATOM     19  C   UNL A   1      38.894  28.876  27.766  1.00  0.00     0.029 A 
ATOM     20  N   UNL A   1      40.258  28.789  29.534  1.00  0.00    -0.354 N 
ATOM     21  C   UNL A   1      39.274  31.206  33.080  1.00  0.00     0.074 A 
ATOM     22  C   UNL A   1      38.019  31.893  32.886  1.00  0.00     0.031 C 
ATOM     23  C   UNL A   1      39.754  27.869  27.556  1.00  0.00     0.029 A 
ATOM     24  C   UNL A   1      40.695  27.818  28.667  1.00  0.00     0.049 A 
ATOM     25  H   UNL A   1      40.683  28.967  30.405  1.00  0.00     0.167 HD
ATOM     26  C   UNL A   1      39.996  31.224  34.222  1.00  0.00     0.037 A 
ATOM     27  C   UNL A   1      41.767  27.010  28.760  1.00  0.00     0.037 A 
ATOM     28  C   UNL A   1      41.247  30.532  34.361  1.00  0.00     0.049 A 
ATOM     29  C   UNL A   1      42.619  27.145  29.992  1.00  0.00     0.074 A 
ATOM     30  C   UNL A   1      42.158  30.576  35.397  1.00  0.00     0.029 A 
ATOM     31  N   UNL A   1      41.756  29.654  33.410  1.00  0.00    -0.354 N 
ATOM     32  N   UNL A   1      42.403  27.867  31.068  1.00  0.00    -0.248 NA
ATOM     33  C   UNL A   1      43.874  26.387  30.015  1.00  0.00     0.031 C 
ATOM     34  C   UNL A   1      43.236  29.750  35.055  1.00  0.00     0.029 A 
ATOM     35  C   UNL A   1      42.976  29.158  33.827  1.00  0.00     0.049 A 
ATOM     36  H   UNL A   1      41.312  29.422  32.562  1.00  0.00     0.167 HD
ATOM     37  C   UNL A   1      43.496  27.659  31.894  1.00  0.00     0.074 A 
ATOM     38  C   UNL A   1      44.353  26.709  31.209  1.00  0.00     0.031 C 
ATOM     39  C   UNL A   1      43.784  28.213  33.098  1.00  0.00     0.037 A 
BRANCH  26  40
ATOM     40  C   UNL A   1      39.492  32.093  35.331  1.00  0.00     0.064 A 
ATOM     41  C   UNL A   1      39.882  33.433  35.466  1.00  0.00     0.173 A 
ATOM     42  C   UNL A   1      38.643  31.555  36.311  1.00  0.00     0.173 A 
ATOM     43  F   UNL A   1      40.725  33.982  34.578  1.00  0.00    -0.203 F 
ATOM     44  C   UNL A   1      39.456  34.197  36.551  1.00  0.00     0.198 A 
ATOM     45  C   UNL A   1      38.204  32.326  37.383  1.00  0.00     0.198 A 
ATOM     46  F   UNL A   1      38.259  30.271  36.239  1.00  0.00    -0.203 F 
ATOM     47  F   UNL A   1      39.883  35.460  36.689  1.00  0.00    -0.200 F 
ATOM     48  C   UNL A   1      38.616  33.644  37.506  1.00  0.00     0.200 A 
ATOM     49  F   UNL A   1      37.397  31.787  38.308  1.00  0.00    -0.200 F 
ATOM     50  F   UNL A   1      38.216  34.376  38.555  1.00  0.00    -0.200 F 
ENDBRANCH  26  40
BRANCH  27  51
ATOM     51  C   UNL A   1      42.133  26.102  27.639  1.00  0.00     0.064 A 
ATOM     52  C   UNL A   1      41.516  24.856  27.467  1.00  0.00     0.173 A 
ATOM     53  C   UNL A   1      43.139  26.456  26.724  1.00  0.00     0.173 A 
ATOM     54  F   UNL A   1      40.565  24.454  28.324  1.00  0.00    -0.203 F 
ATOM     55  C   UNL A   1      41.900  23.996  26.436  1.00  0.00     0.198 A 
ATOM     56  C   UNL A   1      43.497  25.612  25.674  1.00  0.00     0.198 A 
ATOM     57  F   UNL A   1      43.774  27.631  26.842  1.00  0.00    -0.203 F 
ATOM     58  F   UNL A   1      41.329  22.789  26.326  1.00  0.00    -0.200 F 
ATOM     59  C   UNL A   1      42.885  24.377  25.538  1.00  0.00     0.200 A 
ATOM     60  F   UNL A   1      44.439  25.996  24.801  1.00  0.00    -0.200 F 
ATOM     61  F   UNL A   1      43.252  23.553  24.548  1.00  0.00    -0.200 F 
ENDBRANCH  27  51
BRANCH  39  62
ATOM     62  C   UNL A   1      45.071  27.788  33.731  1.00  0.00     0.064 A 
ATOM     63  C   UNL A   1      45.133  26.665  34.568  1.00  0.00     0.173 A 
ATOM     64  C   UNL A   1      46.254  28.491  33.469  1.00  0.00     0.173 A 
ATOM     65  F   UNL A   1      44.018  25.976  34.857  1.00  0.00    -0.203 F 
ATOM     66  C   UNL A   1      46.337  26.273  35.141  1.00  0.00     0.198 A 
ATOM     67  C   UNL A   1      47.461  28.080  34.023  1.00  0.00     0.198 A 
ATOM     68  F   UNL A   1      46.239  29.568  32.670  1.00  0.00    -0.203 F 
ATOM     69  F   UNL A   1      46.370  25.225  35.975  1.00  0.00    -0.200 F 
ATOM     70  C   UNL A   1      47.500  26.977  34.864  1.00  0.00     0.200 A 
ATOM     71  F   UNL A   1      48.586  28.753  33.746  1.00  0.00    -0.200 F 
ATOM     72  F   UNL A   1      48.660  26.595  35.413  1.00  0.00    -0.200 F 
ENDBRANCH  39  62
ENDBRANCH  13  14
ENDBRANCH   6   8
ENDBRANCH   5   6
ENDBRANCH   4   5
ENDBRANCH   3   4
ENDBRANCH   2   3
ENDBRANCH   1   2
BRANCH   1  73
ATOM     73  C   UNL A   1      32.449  27.934  22.750  1.00  0.00     0.261 C 
BRANCH  73  74
ATOM     74  O   UNL A   1      33.580  27.158  23.168  1.00  0.00    -0.462 OA
BRANCH  74  75
ATOM     75  C   UNL A   1      33.628  25.886  22.723  1.00  0.00     0.329 C 
ATOM     76  O   UNL A   1      33.610  25.559  21.537  1.00  0.00    -0.250 OA
BRANCH  75  77
ATOM     77  C   UNL A   1      33.701  24.850  23.853  1.00  0.00     0.197 C 
BRANCH  77  78
ATOM     78  C   UNL A   1      34.809  24.897  24.936  1.00  0.00     0.072 C 
BRANCH  78  79
ATOM     79  C   UNL A   1      35.878  23.834  24.969  1.00  0.00    -0.045 A 
ATOM     80  C   UNL A   1      35.845  22.756  24.082  1.00  0.00     0.004 A 
ATOM     81  C   UNL A   1      36.952  23.921  25.872  1.00  0.00     0.004 A 
ATOM     82  C   UNL A   1      36.839  21.773  24.127  1.00  0.00     0.000 A 
ATOM     83  C   UNL A   1      37.923  22.923  25.944  1.00  0.00     0.000 A 
ATOM     84  C   UNL A   1      37.865  21.847  25.068  1.00  0.00     0.000 A 
ENDBRANCH  78  79
ENDBRANCH  77  78
BRANCH  77  85
ATOM     85  N   UNL A   1      32.361  24.709  24.426  1.00  0.00    -0.338 N 
ATOM     86  C   UNL A   1      31.684  23.575  24.773  1.00  0.00     0.258 C 
ATOM     87  H   UNL A   1      31.879  25.553  24.584  1.00  0.00     0.164 HD
ATOM     88  O   UNL A   1      30.465  23.631  24.970  1.00  0.00    -0.269 OA
BRANCH  86  89
ATOM     89  C   UNL A   1      32.351  22.261  24.878  1.00  0.00     0.117 A 
ATOM     90  C   UNL A   1      32.292  21.421  23.755  1.00  0.00     0.021 A 
ATOM     91  C   UNL A   1      32.958  21.771  26.037  1.00  0.00     0.282 A 
ATOM     92  C   UNL A   1      32.855  20.140  23.792  1.00  0.00     0.001 A 
ATOM     93  C   UNL A   1      33.544  20.497  26.079  1.00  0.00     0.086 A 
ATOM     94  C   UNL A   1      33.485  19.681  24.949  1.00  0.00     0.007 A 
BRANCH  91  95
ATOM     95  N   UNL A   1      33.005  22.565  27.245  1.00  0.00     0.063 N 
ATOM     96  O   UNL A   1      34.128  22.758  27.736  1.00  0.00    -0.258 OA
ATOM     97  O   UNL A   1      31.942  23.000  27.695  1.00  0.00    -0.258 OA
ENDBRANCH  91  95
ENDBRANCH  86  89
ENDBRANCH  77  85
ENDBRANCH  75  77
ENDBRANCH  74  75
ENDBRANCH  73  74
ENDBRANCH   1  73
TORSDOF 19
ENDMDL
MODEL 3
REMARK VINA RESULT:     -11.4      4.365      9.829
REMARK SMILES O=C(OCCOCCOC(=O)[C@@H](Cc1ccccc1)NC(=O)c1ccccc1[N+](=O)[O-])c1ccc(-c2c3nc(c(-c4c(F)c(F)c(F)c(F)c4F)c4ccc([nH]4)c(-c4c(F)c(F)c(F)c(F)c4F)c4nc(c(-c5c(F)c(F)c(F)c(F)c5F)c5ccc2[nH]5)C=C4)C=C3)cc1
REMARK SMILES IDX 7 1 6 2 5 3 4 4 3 5 2 6 1 7 32 8 33 9 94 10 34 11 93 12
REMARK SMILES IDX 35 13 36 14 37 15 87 16 38 17 92 18 86 19 88 20 39 21 91 22
REMARK SMILES IDX 85 23 84 24 40 26 72 27 52 28 71 29 53 30 56 31 70 32 89 33
REMARK SMILES IDX 54 34 55 35 69 37 90 38 57 39 41 40 42 41 50 42 43 43 44 44
REMARK SMILES IDX 48 45 51 46 45 47 46 48 49 49 47 50 73 51 74 52 82 53 75 54
REMARK SMILES IDX 76 55 80 56 83 57 77 58 78 59 81 60 79 61 58 62 59 63 67 64
REMARK SMILES IDX 60 65 61 66 65 67 68 68 62 69 63 70 66 71 64 72 8 73 9 74
REMARK SMILES IDX 10 75 11 76 12 77 13 78 14 79 15 80 19 81 16 82 18 83 17 84
REMARK SMILES IDX 20 85 21 86 22 88 23 89 24 90 28 91 25 92 27 93 26 94 29 95
REMARK SMILES IDX 30 96 31 97
REMARK H PARENT 88 25 56 36 20 87
REMARK Flexibility Score: inf
ROOT
ATOM      1  C   UNL A   1      30.926  28.210  23.117  1.00  0.00     0.202 C 
ENDROOT
BRANCH   1   2
ATOM      2  O   UNL A   1      31.366  29.463  23.663  1.00  0.00    -0.374 OA
BRANCH   2   3
ATOM      3  C   UNL A   1      31.028  29.717  25.029  1.00  0.00     0.202 C 
BRANCH   3   4
ATOM      4  C   UNL A   1      32.119  29.497  26.094  1.00  0.00     0.261 C 
BRANCH   4   5
ATOM      5  O   UNL A   1      33.094  30.557  26.098  1.00  0.00    -0.460 OA
BRANCH   5   6
ATOM      6  C   UNL A   1      33.562  31.280  27.144  1.00  0.00     0.338 C 
ATOM      7  O   UNL A   1      32.887  32.220  27.562  1.00  0.00    -0.246 OA
BRANCH   6   8
ATOM      8  C   UNL A   1      34.877  31.013  27.799  1.00  0.00     0.060 A 
ATOM      9  C   UNL A   1      35.297  29.756  28.218  1.00  0.00     0.016 A 
ATOM     10  C   UNL A   1      35.778  32.083  27.944  1.00  0.00     0.016 A 
ATOM     11  C   UNL A   1      36.528  29.546  28.791  1.00  0.00     0.010 A 
ATOM     12  C   UNL A   1      37.049  31.882  28.500  1.00  0.00     0.010 A 
ATOM     13  C   UNL A   1      37.413  30.604  28.927  1.00  0.00    -0.014 A 
BRANCH  13  14
ATOM     14  C   UNL A   1      38.648  30.273  29.643  1.00  0.00     0.031 A 
ATOM     15  C   UNL A   1      38.755  30.696  31.071  1.00  0.00     0.074 A 
ATOM     16  C   UNL A   1      39.463  29.351  29.099  1.00  0.00     0.049 A 
ATOM     17  N   UNL A   1      39.691  30.435  31.940  1.00  0.00    -0.248 NA
ATOM     18  C   UNL A   1      37.632  31.486  31.608  1.00  0.00     0.031 C 
ATOM     19  C   UNL A   1      39.273  28.740  27.778  1.00  0.00     0.029 A 
ATOM     20  N   UNL A   1      40.552  28.703  29.610  1.00  0.00    -0.354 N 
ATOM     21  C   UNL A   1      39.286  31.050  33.114  1.00  0.00     0.074 A 
ATOM     22  C   UNL A   1      38.011  31.679  32.862  1.00  0.00     0.031 C 
ATOM     23  C   UNL A   1      40.187  27.774  27.606  1.00  0.00     0.029 A 
ATOM     24  C   UNL A   1      41.075  27.759  28.761  1.00  0.00     0.049 A 
ATOM     25  H   UNL A   1      40.925  28.895  30.501  1.00  0.00     0.167 HD
ATOM     26  C   UNL A   1      39.949  31.093  34.290  1.00  0.00     0.037 A 
ATOM     27  C   UNL A   1      42.177  27.001  28.903  1.00  0.00     0.037 A 
ATOM     28  C   UNL A   1      41.223  30.459  34.487  1.00  0.00     0.049 A 
ATOM     29  C   UNL A   1      42.961  27.167  30.175  1.00  0.00     0.074 A 
ATOM     30  C   UNL A   1      42.080  30.537  35.567  1.00  0.00     0.029 A 
ATOM     31  N   UNL A   1      41.818  29.611  33.558  1.00  0.00    -0.354 N 
ATOM     32  N   UNL A   1      42.660  27.871  31.243  1.00  0.00    -0.248 NA
ATOM     33  C   UNL A   1      44.247  26.467  30.257  1.00  0.00     0.031 C 
ATOM     34  C   UNL A   1      43.211  29.764  35.274  1.00  0.00     0.029 A 
ATOM     35  C   UNL A   1      43.038  29.169  34.032  1.00  0.00     0.049 A 
ATOM     36  H   UNL A   1      41.427  29.364  32.689  1.00  0.00     0.167 HD
ATOM     37  C   UNL A   1      43.719  27.708  32.120  1.00  0.00     0.074 A 
ATOM     38  C   UNL A   1      44.653  26.803  31.474  1.00  0.00     0.031 C 
ATOM     39  C   UNL A   1      43.923  28.267  33.340  1.00  0.00     0.037 A 
BRANCH  26  40
ATOM     40  C   UNL A   1      39.353  31.931  35.377  1.00  0.00     0.064 A 
ATOM     41  C   UNL A   1      39.646  33.295  35.514  1.00  0.00     0.173 A 
ATOM     42  C   UNL A   1      38.513  31.340  36.334  1.00  0.00     0.173 A 
ATOM     43  F   UNL A   1      40.477  33.897  34.650  1.00  0.00    -0.203 F 
ATOM     44  C   UNL A   1      39.135  34.033  36.580  1.00  0.00     0.198 A 
ATOM     45  C   UNL A   1      37.988  32.084  37.386  1.00  0.00     0.198 A 
ATOM     46  F   UNL A   1      38.220  30.032  36.259  1.00  0.00    -0.203 F 
ATOM     47  F   UNL A   1      39.469  35.323  36.723  1.00  0.00    -0.200 F 
ATOM     48  C   UNL A   1      38.305  33.428  37.513  1.00  0.00     0.200 A 
ATOM     49  F   UNL A   1      37.191  31.496  38.290  1.00  0.00    -0.200 F 
ATOM     50  F   UNL A   1      37.823  34.136  38.544  1.00  0.00    -0.200 F 
ENDBRANCH  26  40
BRANCH  27  51
ATOM     51  C   UNL A   1      42.639  26.118  27.797  1.00  0.00     0.064 A 
ATOM     52  C   UNL A   1      42.218  24.786  27.691  1.00  0.00     0.173 A 
ATOM     53  C   UNL A   1      43.543  26.588  26.829  1.00  0.00     0.173 A 
ATOM     54  F   UNL A   1      41.373  24.275  28.600  1.00  0.00    -0.203 F 
ATOM     55  C   UNL A   1      42.692  23.956  26.673  1.00  0.00     0.198 A 
ATOM     56  C   UNL A   1      43.989  25.770  25.792  1.00  0.00     0.198 A 
ATOM     57  F   UNL A   1      43.991  27.851  26.883  1.00  0.00    -0.203 F 
ATOM     58  F   UNL A   1      42.313  22.673  26.626  1.00  0.00    -0.200 F 
ATOM     59  C   UNL A   1      43.573  24.451  25.722  1.00  0.00     0.200 A 
ATOM     60  F   UNL A   1      44.827  26.261  24.869  1.00  0.00    -0.200 F 
ATOM     61  F   UNL A   1      44.027  23.656  24.745  1.00  0.00    -0.200 F 
ENDBRANCH  27  51
BRANCH  39  62
ATOM     62  C   UNL A   1      45.196  27.898  34.033  1.00  0.00     0.064 A 
ATOM     63  C   UNL A   1      45.263  26.785  34.883  1.00  0.00     0.173 A 
ATOM     64  C   UNL A   1      46.362  28.642  33.815  1.00  0.00     0.173 A 
ATOM     65  F   UNL A   1      44.164  26.057  35.132  1.00  0.00    -0.203 F 
ATOM     66  C   UNL A   1      46.455  26.445  35.513  1.00  0.00     0.198 A 
ATOM     67  C   UNL A   1      47.558  28.283  34.425  1.00  0.00     0.198 A 
ATOM     68  F   UNL A   1      46.341  29.711  33.004  1.00  0.00    -0.203 F 
ATOM     69  F   UNL A   1      46.491  25.406  36.359  1.00  0.00    -0.200 F 
ATOM     70  C   UNL A   1      47.602  27.190  35.279  1.00  0.00     0.200 A 
ATOM     71  F   UNL A   1      48.668  28.996  34.191  1.00  0.00    -0.200 F 
ATOM     72  F   UNL A   1      48.750  26.858  35.883  1.00  0.00    -0.200 F 
ENDBRANCH  39  62
ENDBRANCH  13  14
ENDBRANCH   6   8
ENDBRANCH   5   6
ENDBRANCH   4   5
ENDBRANCH   3   4
ENDBRANCH   2   3
ENDBRANCH   1   2
BRANCH   1  73
ATOM     73  C   UNL A   1      31.996  27.553  22.247  1.00  0.00     0.261 C 
BRANCH  73  74
ATOM     74  O   UNL A   1      31.789  26.134  22.284  1.00  0.00    -0.462 OA
BRANCH  74  75
ATOM     75  C   UNL A   1      32.843  25.368  21.938  1.00  0.00     0.329 C 
ATOM     76  O   UNL A   1      33.262  25.233  20.789  1.00  0.00    -0.250 OA
BRANCH  75  77
ATOM     77  C   UNL A   1      33.488  24.649  23.131  1.00  0.00     0.197 C 
BRANCH  77  78
ATOM     78  C   UNL A   1      34.470  23.465  22.939  1.00  0.00     0.072 C 
BRANCH  78  79
ATOM     79  C   UNL A   1      34.235  22.164  23.665  1.00  0.00    -0.045 A 
ATOM     80  C   UNL A   1      35.295  21.470  24.253  1.00  0.00     0.004 A 
ATOM     81  C   UNL A   1      32.938  21.637  23.796  1.00  0.00     0.004 A 
ATOM     82  C   UNL A   1      35.065  20.262  24.917  1.00  0.00     0.000 A 
ATOM     83  C   UNL A   1      32.712  20.414  24.426  1.00  0.00     0.000 A 
ATOM     84  C   UNL A   1      33.779  19.726  24.987  1.00  0.00     0.000 A 
ENDBRANCH  78  79
ENDBRANCH  77  78
BRANCH  77  85
ATOM     85  N   UNL A   1      34.006  25.666  24.048  1.00  0.00    -0.338 N 
ATOM     86  C   UNL A   1      33.899  25.740  25.408  1.00  0.00     0.258 C 
ATOM     87  H   UNL A   1      34.503  26.402  23.623  1.00  0.00     0.164 HD
ATOM     88  O   UNL A   1      34.146  26.808  25.979  1.00  0.00    -0.269 OA
BRANCH  86  89
ATOM     89  C   UNL A   1      33.449  24.596  26.225  1.00  0.00     0.117 A 
ATOM     90  C   UNL A   1      34.440  23.743  26.735  1.00  0.00     0.021 A 
ATOM     91  C   UNL A   1      32.110  24.262  26.453  1.00  0.00     0.282 A 
ATOM     92  C   UNL A   1      34.092  22.608  27.476  1.00  0.00     0.001 A 
ATOM     93  C   UNL A   1      31.751  23.139  27.213  1.00  0.00     0.086 A 
ATOM     94  C   UNL A   1      32.751  22.309  27.719  1.00  0.00     0.007 A 
BRANCH  91  95
ATOM     95  N   UNL A   1      31.040  25.070  25.911  1.00  0.00     0.063 N 
ATOM     96  O   UNL A   1      30.503  24.650  24.874  1.00  0.00    -0.258 OA
ATOM     97  O   UNL A   1      30.729  26.102  26.512  1.00  0.00    -0.258 OA
ENDBRANCH  91  95
ENDBRANCH  86  89
ENDBRANCH  77  85
ENDBRANCH  75  77
ENDBRANCH  74  75
ENDBRANCH  73  74
ENDBRANCH   1  73
TORSDOF 19
ENDMDL
