MODEL 1
REMARK VINA RESULT:     -10.7      0.000      0.000
REMARK SMILES CC[C@@H](C)[C@@H](C)Nc1cccc(F)c1C(=O)OCCOCCOC(=O)c1ccc(-c2c3nc(c(-c4c(F)c(F)c(F)c(F)c4F)c4ccc([nH]4)c(-c4c(F)c(F)c(F)c(F)c4F)c4nc(c(-c5c(F)c(F)c(F)c(F)c5F)c5ccc2[nH]5)C=C4)C=C3)cc1
REMARK SMILES IDX 19 1 18 2 17 3 15 4 16 5 14 6 8 7 9 8 10 9 12 10 11 11 13 12
REMARK SMILES IDX 7 13 5 15 6 16 3 17 4 18 2 19 1 20 20 21 21 22 22 23 23 24
REMARK SMILES IDX 24 25 25 26 26 27 27 28 88 29 28 30 87 31 29 32 30 33 31 34
REMARK SMILES IDX 81 35 32 36 86 37 80 38 82 39 33 40 85 41 79 42 78 43 34 45
REMARK SMILES IDX 66 46 46 47 65 48 47 49 50 50 64 51 83 52 48 53 49 54 63 56
REMARK SMILES IDX 84 57 51 58 35 59 36 60 44 61 37 62 38 63 42 64 45 65 39 66
REMARK SMILES IDX 40 67 43 68 41 69 67 70 68 71 76 72 69 73 70 74 74 75 77 76
REMARK SMILES IDX 71 77 72 78 75 79 73 80 52 81 53 82 61 83 54 84 55 85 59 86
REMARK SMILES IDX 62 87 56 88 57 89 60 90 58 91
REMARK H PARENT 7 14 82 44 50 55
REMARK Flexibility Score: inf
ROOT
ATOM      1  C   UNL A   1      33.543  28.534  25.184  1.00  0.00     0.202 C 
ENDROOT
BRANCH   1   2
ATOM      2  C   UNL A   1      34.144  27.612  24.120  1.00  0.00     0.261 C 
BRANCH   2   3
ATOM      3  O   UNL A   1      33.727  27.964  22.794  1.00  0.00    -0.460 OA
BRANCH   3   4
ATOM      4  C   UNL A   1      33.059  26.966  22.164  1.00  0.00     0.343 C 
ATOM      5  O   UNL A   1      33.547  26.254  21.297  1.00  0.00    -0.246 OA
BRANCH   4   6
ATOM      6  C   UNL A   1      31.732  26.699  22.776  1.00  0.00     0.118 A 
ATOM      7  C   UNL A   1      31.521  25.472  23.455  1.00  0.00     0.052 A 
ATOM      8  C   UNL A   1      30.248  25.217  23.989  1.00  0.00     0.027 A 
ATOM      9  C   UNL A   1      29.220  26.156  23.889  1.00  0.00     0.005 A 
ATOM     10  C   UNL A   1      30.695  27.629  22.679  1.00  0.00     0.139 A 
ATOM     11  C   UNL A   1      29.446  27.366  23.237  1.00  0.00     0.040 A 
ATOM     12  F   UNL A   1      30.858  28.793  22.033  1.00  0.00    -0.206 F 
BRANCH   7  13
ATOM     13  N   UNL A   1      32.545  24.538  23.607  1.00  0.00    -0.382 N 
ATOM     14  H   UNL A   1      33.227  24.466  22.900  1.00  0.00     0.160 HD
BRANCH  13  15
ATOM     15  C   UNL A   1      32.649  23.659  24.779  1.00  0.00     0.079 C 
ATOM     16  C   UNL A   1      33.379  24.456  25.861  1.00  0.00     0.031 C 
BRANCH  15  17
ATOM     17  C   UNL A   1      33.406  22.361  24.340  1.00  0.00     0.008 C 
ATOM     18  C   UNL A   1      34.659  22.716  23.515  1.00  0.00     0.010 C 
BRANCH  17  19
ATOM     19  C   UNL A   1      32.540  21.357  23.553  1.00  0.00     0.002 C 
ATOM     20  C   UNL A   1      32.533  19.965  24.179  1.00  0.00     0.004 C 
ENDBRANCH  17  19
ENDBRANCH  15  17
ENDBRANCH  13  15
ENDBRANCH   7  13
ENDBRANCH   4   6
ENDBRANCH   3   4
ENDBRANCH   2   3
ENDBRANCH   1   2
BRANCH   1  21
ATOM     21  O   UNL A   1      32.871  29.710  24.739  1.00  0.00    -0.374 OA
BRANCH  21  22
ATOM     22  C   UNL A   1      31.594  30.005  25.313  1.00  0.00     0.202 C 
BRANCH  22  23
ATOM     23  C   UNL A   1      31.505  31.234  26.226  1.00  0.00     0.261 C 
BRANCH  23  24
ATOM     24  O   UNL A   1      32.439  31.147  27.318  1.00  0.00    -0.460 OA
BRANCH  24  25
ATOM     25  C   UNL A   1      33.265  32.209  27.451  1.00  0.00     0.338 C 
ATOM     26  O   UNL A   1      32.973  33.395  27.355  1.00  0.00    -0.246 OA
BRANCH  25  27
ATOM     27  C   UNL A   1      34.578  31.761  27.949  1.00  0.00     0.060 A 
ATOM     28  C   UNL A   1      34.728  30.397  28.236  1.00  0.00     0.016 A 
ATOM     29  C   UNL A   1      35.626  32.655  28.177  1.00  0.00     0.016 A 
ATOM     30  C   UNL A   1      35.907  29.929  28.808  1.00  0.00     0.010 A 
ATOM     31  C   UNL A   1      36.804  32.187  28.766  1.00  0.00     0.010 A 
ATOM     32  C   UNL A   1      36.932  30.830  29.118  1.00  0.00    -0.014 A 
BRANCH  32  33
ATOM     33  C   UNL A   1      38.059  30.381  29.966  1.00  0.00     0.031 A 
ATOM     34  C   UNL A   1      39.056  29.418  29.385  1.00  0.00     0.074 A 
ATOM     35  C   UNL A   1      38.213  30.850  31.215  1.00  0.00     0.049 A 
ATOM     36  N   UNL A   1      40.097  28.860  29.949  1.00  0.00    -0.248 NA
ATOM     37  C   UNL A   1      38.854  29.033  27.979  1.00  0.00     0.031 C 
ATOM     38  C   UNL A   1      37.339  31.824  31.863  1.00  0.00     0.029 A 
ATOM     39  N   UNL A   1      39.163  30.563  32.164  1.00  0.00    -0.354 N 
ATOM     40  C   UNL A   1      40.666  28.056  28.970  1.00  0.00     0.074 A 
ATOM     41  C   UNL A   1      39.847  28.178  27.786  1.00  0.00     0.031 C 
ATOM     42  C   UNL A   1      37.788  32.050  33.109  1.00  0.00     0.029 A 
ATOM     43  C   UNL A   1      38.960  31.210  33.356  1.00  0.00     0.049 A 
ATOM     44  H   UNL A   1      39.917  29.950  32.004  1.00  0.00     0.167 HD
ATOM     45  C   UNL A   1      41.781  27.294  29.054  1.00  0.00     0.037 A 
ATOM     46  C   UNL A   1      39.633  31.116  34.520  1.00  0.00     0.037 A 
ATOM     47  C   UNL A   1      42.597  27.185  30.233  1.00  0.00     0.049 A 
ATOM     48  C   UNL A   1      40.828  30.204  34.612  1.00  0.00     0.074 A 
ATOM     49  C   UNL A   1      43.758  26.452  30.411  1.00  0.00     0.029 A 
ATOM     50  N   UNL A   1      42.335  27.821  31.436  1.00  0.00    -0.354 N 
ATOM     51  N   UNL A   1      41.368  29.454  33.681  1.00  0.00    -0.248 NA
ATOM     52  C   UNL A   1      41.506  30.122  35.913  1.00  0.00     0.031 C 
ATOM     53  C   UNL A   1      44.171  26.608  31.737  1.00  0.00     0.029 A 
ATOM     54  C   UNL A   1      43.296  27.478  32.371  1.00  0.00     0.049 A 
ATOM     55  H   UNL A   1      41.577  28.429  31.601  1.00  0.00     0.167 HD
ATOM     56  C   UNL A   1      42.457  28.831  34.274  1.00  0.00     0.074 A 
ATOM     57  C   UNL A   1      42.508  29.295  35.645  1.00  0.00     0.031 C 
ATOM     58  C   UNL A   1      43.335  27.954  33.730  1.00  0.00     0.037 A 
BRANCH  45  59
ATOM     59  C   UNL A   1      42.180  26.503  27.845  1.00  0.00     0.064 A 
ATOM     60  C   UNL A   1      41.654  25.220  27.634  1.00  0.00     0.173 A 
ATOM     61  C   UNL A   1      43.128  26.984  26.931  1.00  0.00     0.173 A 
ATOM     62  F   UNL A   1      40.744  24.714  28.481  1.00  0.00    -0.203 F 
ATOM     63  C   UNL A   1      42.074  24.440  26.560  1.00  0.00     0.198 A 
ATOM     64  C   UNL A   1      43.527  26.212  25.842  1.00  0.00     0.198 A 
ATOM     65  F   UNL A   1      43.649  28.211  27.081  1.00  0.00    -0.203 F 
ATOM     66  F   UNL A   1      41.579  23.207  26.395  1.00  0.00    -0.200 F 
ATOM     67  C   UNL A   1      43.007  24.939  25.664  1.00  0.00     0.200 A 
ATOM     68  F   UNL A   1      44.414  26.702  24.964  1.00  0.00    -0.200 F 
ATOM     69  F   UNL A   1      43.406  24.190  24.626  1.00  0.00    -0.200 F 
ENDBRANCH  45  59
BRANCH  46  70
ATOM     70  C   UNL A   1      39.181  31.909  35.691  1.00  0.00     0.064 A 
ATOM     71  C   UNL A   1      39.652  33.213  35.912  1.00  0.00     0.173 A 
ATOM     72  C   UNL A   1      38.288  31.371  36.628  1.00  0.00     0.173 A 
ATOM     73  F   UNL A   1      40.505  33.774  35.042  1.00  0.00    -0.203 F 
ATOM     74  C   UNL A   1      39.267  33.937  37.038  1.00  0.00     0.198 A 
ATOM     75  C   UNL A   1      37.884  32.106  37.740  1.00  0.00     0.198 A 
ATOM     76  F   UNL A   1      37.789  30.140  36.446  1.00  0.00    -0.203 F 
ATOM     77  F   UNL A   1      39.758  35.167  37.242  1.00  0.00    -0.200 F 
ATOM     78  C   UNL A   1      38.381  33.384  37.949  1.00  0.00     0.200 A 
ATOM     79  F   UNL A   1      37.008  31.579  38.607  1.00  0.00    -0.200 F 
ATOM     80  F   UNL A   1      38.003  34.084  39.027  1.00  0.00    -0.200 F 
ENDBRANCH  46  70
BRANCH  58  81
ATOM     81  C   UNL A   1      44.446  27.443  34.600  1.00  0.00     0.064 A 
ATOM     82  C   UNL A   1      45.660  28.141  34.683  1.00  0.00     0.173 A 
ATOM     83  C   UNL A   1      44.345  26.215  35.270  1.00  0.00     0.173 A 
ATOM     84  F   UNL A   1      45.810  29.315  34.050  1.00  0.00    -0.203 F 
ATOM     85  C   UNL A   1      46.741  27.618  35.386  1.00  0.00     0.198 A 
ATOM     86  C   UNL A   1      45.419  25.707  35.995  1.00  0.00     0.198 A 
ATOM     87  F   UNL A   1      43.200  25.516  35.229  1.00  0.00    -0.203 F 
ATOM     88  F   UNL A   1      47.904  28.282  35.417  1.00  0.00    -0.200 F 
ATOM     89  C   UNL A   1      46.618  26.402  36.044  1.00  0.00     0.200 A 
ATOM     90  F   UNL A   1      45.295  24.543  36.647  1.00  0.00    -0.200 F 
ATOM     91  F   UNL A   1      47.660  25.900  36.723  1.00  0.00    -0.200 F 
ENDBRANCH  58  81
ENDBRANCH  32  33
ENDBRANCH  25  27
ENDBRANCH  24  25
ENDBRANCH  23  24
ENDBRANCH  22  23
ENDBRANCH  21  22
ENDBRANCH   1  21
TORSDOF 18
ENDMDL
MODEL 2
REMARK VINA RESULT:     -10.4      0.906      7.440
REMARK SMILES CC[C@@H](C)[C@@H](C)Nc1cccc(F)c1C(=O)OCCOCCOC(=O)c1ccc(-c2c3nc(c(-c4c(F)c(F)c(F)c(F)c4F)c4ccc([nH]4)c(-c4c(F)c(F)c(F)c(F)c4F)c4nc(c(-c5c(F)c(F)c(F)c(F)c5F)c5ccc2[nH]5)C=C4)C=C3)cc1
REMARK SMILES IDX 19 1 18 2 17 3 15 4 16 5 14 6 8 7 9 8 10 9 12 10 11 11 13 12
REMARK SMILES IDX 7 13 5 15 6 16 3 17 4 18 2 19 1 20 20 21 21 22 22 23 23 24
REMARK SMILES IDX 24 25 25 26 26 27 27 28 88 29 28 30 87 31 29 32 30 33 31 34
REMARK SMILES IDX 81 35 32 36 86 37 80 38 82 39 33 40 85 41 79 42 78 43 34 45
REMARK SMILES IDX 66 46 46 47 65 48 47 49 50 50 64 51 83 52 48 53 49 54 63 56
REMARK SMILES IDX 84 57 51 58 35 59 36 60 44 61 37 62 38 63 42 64 45 65 39 66
REMARK SMILES IDX 40 67 43 68 41 69 67 70 68 71 76 72 69 73 70 74 74 75 77 76
REMARK SMILES IDX 71 77 72 78 75 79 73 80 52 81 53 82 61 83 54 84 55 85 59 86
REMARK SMILES IDX 62 87 56 88 57 89 60 90 58 91
REMARK H PARENT 7 14 82 44 50 55
REMARK Flexibility Score: inf
ROOT
ATOM      1  C   UNL A   1      32.516  29.596  27.233  1.00  0.00     0.202 C 
ENDROOT
BRANCH   1   2
ATOM      2  C   UNL A   1      33.668  28.606  27.041  1.00  0.00     0.261 C 
BRANCH   2   3
ATOM      3  O   UNL A   1      33.242  27.388  26.415  1.00  0.00    -0.460 OA
BRANCH   3   4
ATOM      4  C   UNL A   1      33.117  27.497  25.069  1.00  0.00     0.343 C 
ATOM      5  O   UNL A   1      33.999  27.910  24.328  1.00  0.00    -0.246 OA
BRANCH   4   6
ATOM      6  C   UNL A   1      31.865  26.876  24.565  1.00  0.00     0.118 A 
ATOM      7  C   UNL A   1      31.851  25.487  24.279  1.00  0.00     0.052 A 
ATOM      8  C   UNL A   1      30.673  24.926  23.762  1.00  0.00     0.027 A 
ATOM      9  C   UNL A   1      29.528  25.701  23.563  1.00  0.00     0.005 A 
ATOM     10  C   UNL A   1      30.715  27.642  24.359  1.00  0.00     0.139 A 
ATOM     11  C   UNL A   1      29.549  27.060  23.868  1.00  0.00     0.040 A 
ATOM     12  F   UNL A   1      30.699  28.960  24.609  1.00  0.00    -0.206 F 
BRANCH   7  13
ATOM     13  N   UNL A   1      32.967  24.685  24.511  1.00  0.00    -0.382 N 
ATOM     14  H   UNL A   1      33.856  25.028  24.261  1.00  0.00     0.160 HD
BRANCH  13  15
ATOM     15  C   UNL A   1      32.872  23.349  25.114  1.00  0.00     0.079 C 
ATOM     16  C   UNL A   1      33.525  23.443  26.493  1.00  0.00     0.031 C 
BRANCH  15  17
ATOM     17  C   UNL A   1      33.581  22.337  24.153  1.00  0.00     0.008 C 
ATOM     18  C   UNL A   1      32.824  22.239  22.813  1.00  0.00     0.010 C 
BRANCH  17  19
ATOM     19  C   UNL A   1      33.766  20.924  24.743  1.00  0.00     0.002 C 
ATOM     20  C   UNL A   1      32.654  19.963  24.333  1.00  0.00     0.004 C 
ENDBRANCH  17  19
ENDBRANCH  15  17
ENDBRANCH  13  15
ENDBRANCH   7  13
ENDBRANCH   4   6
ENDBRANCH   3   4
ENDBRANCH   2   3
ENDBRANCH   1   2
BRANCH   1  21
ATOM     21  O   UNL A   1      32.366  30.634  26.268  1.00  0.00    -0.374 OA
BRANCH  21  22
ATOM     22  C   UNL A   1      31.425  31.674  26.550  1.00  0.00     0.202 C 
BRANCH  22  23
ATOM     23  C   UNL A   1      31.993  33.059  26.880  1.00  0.00     0.261 C 
BRANCH  23  24
ATOM     24  O   UNL A   1      32.857  33.013  28.031  1.00  0.00    -0.460 OA
BRANCH  24  25
ATOM     25  C   UNL A   1      33.955  33.798  27.954  1.00  0.00     0.338 C 
ATOM     26  O   UNL A   1      33.993  35.009  27.773  1.00  0.00    -0.246 OA
BRANCH  25  27
ATOM     27  C   UNL A   1      35.150  33.023  28.333  1.00  0.00     0.060 A 
ATOM     28  C   UNL A   1      34.953  31.702  28.760  1.00  0.00     0.016 A 
ATOM     29  C   UNL A   1      36.430  33.583  28.319  1.00  0.00     0.016 A 
ATOM     30  C   UNL A   1      36.027  30.953  29.231  1.00  0.00     0.010 A 
ATOM     31  C   UNL A   1      37.505  32.835  28.807  1.00  0.00     0.010 A 
ATOM     32  C   UNL A   1      37.299  31.533  29.300  1.00  0.00    -0.014 A 
BRANCH  32  33
ATOM     33  C   UNL A   1      38.373  30.839  30.047  1.00  0.00     0.031 A 
ATOM     34  C   UNL A   1      38.563  31.167  31.501  1.00  0.00     0.074 A 
ATOM     35  C   UNL A   1      39.138  29.909  29.453  1.00  0.00     0.049 A 
ATOM     36  N   UNL A   1      39.458  30.718  32.343  1.00  0.00    -0.248 NA
ATOM     37  C   UNL A   1      37.617  32.132  32.086  1.00  0.00     0.031 C 
ATOM     38  C   UNL A   1      39.008  29.473  28.065  1.00  0.00     0.029 A 
ATOM     39  N   UNL A   1      40.180  29.165  29.946  1.00  0.00    -0.354 N 
ATOM     40  C   UNL A   1      39.186  31.347  33.551  1.00  0.00     0.074 A 
ATOM     41  C   UNL A   1      38.061  32.228  33.331  1.00  0.00     0.031 C 
ATOM     42  C   UNL A   1      39.943  28.542  27.813  1.00  0.00     0.029 A 
ATOM     43  C   UNL A   1      40.757  28.342  29.012  1.00  0.00     0.049 A 
ATOM     44  H   UNL A   1      40.485  29.217  30.881  1.00  0.00     0.167 HD
ATOM     45  C   UNL A   1      39.816  31.194  34.738  1.00  0.00     0.037 A 
ATOM     46  C   UNL A   1      41.833  27.536  29.111  1.00  0.00     0.037 A 
ATOM     47  C   UNL A   1      40.930  30.309  34.953  1.00  0.00     0.049 A 
ATOM     48  C   UNL A   1      42.563  27.437  30.424  1.00  0.00     0.074 A 
ATOM     49  C   UNL A   1      41.625  30.069  36.125  1.00  0.00     0.029 A 
ATOM     50  N   UNL A   1      41.514  29.524  33.971  1.00  0.00    -0.354 N 
ATOM     51  N   UNL A   1      42.296  28.027  31.565  1.00  0.00    -0.248 NA
ATOM     52  C   UNL A   1      43.745  26.564  30.466  1.00  0.00     0.031 C 
ATOM     53  C   UNL A   1      42.661  29.175  35.841  1.00  0.00     0.029 A 
ATOM     54  C   UNL A   1      42.579  28.818  34.504  1.00  0.00     0.049 A 
ATOM     55  H   UNL A   1      41.216  29.475  33.033  1.00  0.00     0.167 HD
ATOM     56  C   UNL A   1      43.258  27.582  32.462  1.00  0.00     0.074 A 
ATOM     57  C   UNL A   1      44.113  26.666  31.736  1.00  0.00     0.031 C 
ATOM     58  C   UNL A   1      43.417  27.905  33.769  1.00  0.00     0.037 A 
BRANCH  45  59
ATOM     59  C   UNL A   1      39.331  32.009  35.898  1.00  0.00     0.064 A 
ATOM     60  C   UNL A   1      39.879  33.276  36.151  1.00  0.00     0.173 A 
ATOM     61  C   UNL A   1      38.373  31.516  36.795  1.00  0.00     0.173 A 
ATOM     62  F   UNL A   1      40.800  33.792  35.323  1.00  0.00    -0.203 F 
ATOM     63  C   UNL A   1      39.497  34.012  37.269  1.00  0.00     0.198 A 
ATOM     64  C   UNL A   1      37.973  32.266  37.899  1.00  0.00     0.198 A 
ATOM     65  F   UNL A   1      37.809  30.317  36.588  1.00  0.00    -0.203 F 
ATOM     66  F   UNL A   1      40.055  35.206  37.506  1.00  0.00    -0.200 F 
ATOM     67  C   UNL A   1      38.542  33.508  38.139  1.00  0.00     0.200 A 
ATOM     68  F   UNL A   1      37.035  31.788  38.728  1.00  0.00    -0.200 F 
ATOM     69  F   UNL A   1      38.169  34.221  39.211  1.00  0.00    -0.200 F 
ENDBRANCH  45  59
BRANCH  46  70
ATOM     70  C   UNL A   1      42.280  26.766  27.924  1.00  0.00     0.064 A 
ATOM     71  C   UNL A   1      43.187  27.312  27.002  1.00  0.00     0.173 A 
ATOM     72  C   UNL A   1      41.790  25.477  27.671  1.00  0.00     0.173 A 
ATOM     73  F   UNL A   1      43.688  28.540  27.202  1.00  0.00    -0.203 F 
ATOM     74  C   UNL A   1      43.567  26.609  25.862  1.00  0.00     0.198 A 
ATOM     75  C   UNL A   1      42.191  24.765  26.543  1.00  0.00     0.198 A 
ATOM     76  F   UNL A   1      40.942  24.902  28.536  1.00  0.00    -0.203 F 
ATOM     77  F   UNL A   1      44.409  27.167  24.982  1.00  0.00    -0.200 F 
ATOM     78  C   UNL A   1      43.072  25.335  25.634  1.00  0.00     0.200 A 
ATOM     79  F   UNL A   1      41.729  23.524  26.338  1.00  0.00    -0.200 F 
ATOM     80  F   UNL A   1      43.444  24.654  24.542  1.00  0.00    -0.200 F 
ENDBRANCH  46  70
BRANCH  58  81
ATOM     81  C   UNL A   1      44.542  27.256  34.519  1.00  0.00     0.064 A 
ATOM     82  C   UNL A   1      45.818  27.840  34.530  1.00  0.00     0.173 A 
ATOM     83  C   UNL A   1      44.383  26.009  35.140  1.00  0.00     0.173 A 
ATOM     84  F   UNL A   1      46.023  29.027  33.938  1.00  0.00    -0.203 F 
ATOM     85  C   UNL A   1      46.899  27.189  35.116  1.00  0.00     0.198 A 
ATOM     86  C   UNL A   1      45.461  25.373  35.750  1.00  0.00     0.198 A 
ATOM     87  F   UNL A   1      43.181  25.415  35.166  1.00  0.00    -0.203 F 
ATOM     88  F   UNL A   1      48.117  27.747  35.078  1.00  0.00    -0.200 F 
ATOM     89  C   UNL A   1      46.719  25.957  35.728  1.00  0.00     0.200 A 
ATOM     90  F   UNL A   1      45.284  24.192  36.358  1.00  0.00    -0.200 F 
ATOM     91  F   UNL A   1      47.761  25.332  36.294  1.00  0.00    -0.200 F 
ENDBRANCH  58  81
ENDBRANCH  32  33
ENDBRANCH  25  27
ENDBRANCH  24  25
ENDBRANCH  23  24
ENDBRANCH  22  23
ENDBRANCH  21  22
ENDBRANCH   1  21
TORSDOF 18
ENDMDL
MODEL 3
REMARK VINA RESULT:     -10.4      1.474      3.091
REMARK SMILES CC[C@@H](C)[C@@H](C)Nc1cccc(F)c1C(=O)OCCOCCOC(=O)c1ccc(-c2c3nc(c(-c4c(F)c(F)c(F)c(F)c4F)c4ccc([nH]4)c(-c4c(F)c(F)c(F)c(F)c4F)c4nc(c(-c5c(F)c(F)c(F)c(F)c5F)c5ccc2[nH]5)C=C4)C=C3)cc1
REMARK SMILES IDX 19 1 18 2 17 3 15 4 16 5 14 6 8 7 9 8 10 9 12 10 11 11 13 12
REMARK SMILES IDX 7 13 5 15 6 16 3 17 4 18 2 19 1 20 20 21 21 22 22 23 23 24
REMARK SMILES IDX 24 25 25 26 26 27 27 28 88 29 28 30 87 31 29 32 30 33 31 34
REMARK SMILES IDX 81 35 32 36 86 37 80 38 82 39 33 40 85 41 79 42 78 43 34 45
REMARK SMILES IDX 66 46 46 47 65 48 47 49 50 50 64 51 83 52 48 53 49 54 63 56
REMARK SMILES IDX 84 57 51 58 35 59 36 60 44 61 37 62 38 63 42 64 45 65 39 66
REMARK SMILES IDX 40 67 43 68 41 69 67 70 68 71 76 72 69 73 70 74 74 75 77 76
REMARK SMILES IDX 71 77 72 78 75 79 73 80 52 81 53 82 61 83 54 84 55 85 59 86
REMARK SMILES IDX 62 87 56 88 57 89 60 90 58 91
REMARK H PARENT 7 14 82 44 50 55
REMARK Flexibility Score: inf
ROOT
ATOM      1  C   UNL A   1      32.441  26.404  24.809  1.00  0.00     0.202 C 
ENDROOT
BRANCH   1   2
ATOM      2  C   UNL A   1      33.747  25.650  24.546  1.00  0.00     0.261 C 
BRANCH   2   3
ATOM      3  O   UNL A   1      33.571  24.226  24.578  1.00  0.00    -0.460 OA
BRANCH   3   4
ATOM      4  C   UNL A   1      34.233  23.586  23.584  1.00  0.00     0.343 C 
ATOM      5  O   UNL A   1      34.182  23.908  22.405  1.00  0.00    -0.246 OA
BRANCH   4   6
ATOM      6  C   UNL A   1      35.187  22.571  24.102  1.00  0.00     0.118 A 
ATOM      7  C   UNL A   1      34.698  21.292  24.474  1.00  0.00     0.052 A 
ATOM      8  C   UNL A   1      35.605  20.361  25.003  1.00  0.00     0.027 A 
ATOM      9  C   UNL A   1      36.962  20.665  25.132  1.00  0.00     0.005 A 
ATOM     10  C   UNL A   1      36.545  22.865  24.239  1.00  0.00     0.139 A 
ATOM     11  C   UNL A   1      37.433  21.917  24.745  1.00  0.00     0.040 A 
ATOM     12  F   UNL A   1      37.037  24.068  23.908  1.00  0.00    -0.206 F 
BRANCH   7  13
ATOM     13  N   UNL A   1      33.356  20.951  24.312  1.00  0.00    -0.382 N 
ATOM     14  H   UNL A   1      32.722  21.173  25.032  1.00  0.00     0.160 HD
BRANCH  13  15
ATOM     15  C   UNL A   1      32.850  20.274  23.110  1.00  0.00     0.079 C 
ATOM     16  C   UNL A   1      31.778  21.188  22.513  1.00  0.00     0.031 C 
BRANCH  15  17
ATOM     17  C   UNL A   1      32.307  18.871  23.543  1.00  0.00     0.008 C 
ATOM     18  C   UNL A   1      32.528  18.645  25.052  1.00  0.00     0.010 C 
BRANCH  17  19
ATOM     19  C   UNL A   1      32.904  17.689  22.752  1.00  0.00     0.002 C 
ATOM     20  C   UNL A   1      33.809  16.805  23.606  1.00  0.00     0.004 C 
ENDBRANCH  17  19
ENDBRANCH  15  17
ENDBRANCH  13  15
ENDBRANCH   7  13
ENDBRANCH   4   6
ENDBRANCH   3   4
ENDBRANCH   2   3
ENDBRANCH   1   2
BRANCH   1  21
ATOM     21  O   UNL A   1      32.399  27.791  24.480  1.00  0.00    -0.374 OA
BRANCH  21  22
ATOM     22  C   UNL A   1      31.769  28.677  25.410  1.00  0.00     0.202 C 
BRANCH  22  23
ATOM     23  C   UNL A   1      32.421  30.048  25.620  1.00  0.00     0.261 C 
BRANCH  23  24
ATOM     24  O   UNL A   1      32.583  30.346  27.019  1.00  0.00    -0.460 OA
BRANCH  24  25
ATOM     25  C   UNL A   1      33.285  31.470  27.288  1.00  0.00     0.338 C 
ATOM     26  O   UNL A   1      32.866  32.620  27.315  1.00  0.00    -0.246 OA
BRANCH  25  27
ATOM     27  C   UNL A   1      34.633  31.113  27.766  1.00  0.00     0.060 A 
ATOM     28  C   UNL A   1      34.878  29.764  28.058  1.00  0.00     0.016 A 
ATOM     29  C   UNL A   1      35.624  32.076  27.972  1.00  0.00     0.016 A 
ATOM     30  C   UNL A   1      36.094  29.379  28.613  1.00  0.00     0.010 A 
ATOM     31  C   UNL A   1      36.839  31.691  28.543  1.00  0.00     0.010 A 
ATOM     32  C   UNL A   1      37.062  30.348  28.901  1.00  0.00    -0.014 A 
BRANCH  32  33
ATOM     33  C   UNL A   1      38.231  29.981  29.733  1.00  0.00     0.031 A 
ATOM     34  C   UNL A   1      39.242  29.023  29.169  1.00  0.00     0.074 A 
ATOM     35  C   UNL A   1      38.408  30.518  30.951  1.00  0.00     0.049 A 
ATOM     36  N   UNL A   1      40.318  28.529  29.725  1.00  0.00    -0.248 NA
ATOM     37  C   UNL A   1      39.009  28.560  27.790  1.00  0.00     0.031 C 
ATOM     38  C   UNL A   1      37.521  31.495  31.577  1.00  0.00     0.029 A 
ATOM     39  N   UNL A   1      39.396  30.311  31.881  1.00  0.00    -0.354 N 
ATOM     40  C   UNL A   1      40.885  27.696  28.769  1.00  0.00     0.074 A 
ATOM     41  C   UNL A   1      40.025  27.729  27.608  1.00  0.00     0.031 C 
ATOM     42  C   UNL A   1      38.000  31.798  32.795  1.00  0.00     0.029 A 
ATOM     43  C   UNL A   1      39.208  31.012  33.046  1.00  0.00     0.049 A 
ATOM     44  H   UNL A   1      40.165  29.717  31.727  1.00  0.00     0.167 HD
ATOM     45  C   UNL A   1      42.027  26.976  28.854  1.00  0.00     0.037 A 
ATOM     46  C   UNL A   1      39.920  31.000  34.190  1.00  0.00     0.037 A 
ATOM     47  C   UNL A   1      42.883  26.954  30.010  1.00  0.00     0.049 A 
ATOM     48  C   UNL A   1      41.148  30.134  34.287  1.00  0.00     0.074 A 
ATOM     49  C   UNL A   1      44.074  26.271  30.186  1.00  0.00     0.029 A 
ATOM     50  N   UNL A   1      42.637  27.643  31.187  1.00  0.00    -0.354 N 
ATOM     51  N   UNL A   1      41.684  29.356  33.378  1.00  0.00    -0.248 NA
ATOM     52  C   UNL A   1      41.869  30.141  35.568  1.00  0.00     0.031 C 
ATOM     53  C   UNL A   1      44.522  26.508  31.488  1.00  0.00     0.029 A 
ATOM     54  C   UNL A   1      43.639  27.380  32.106  1.00  0.00     0.049 A 
ATOM     55  H   UNL A   1      41.864  28.232  31.347  1.00  0.00     0.167 HD
ATOM     56  C   UNL A   1      42.813  28.800  33.965  1.00  0.00     0.074 A 
ATOM     57  C   UNL A   1      42.891  29.335  35.309  1.00  0.00     0.031 C 
ATOM     58  C   UNL A   1      43.704  27.926  33.437  1.00  0.00     0.037 A 
BRANCH  45  59
ATOM     59  C   UNL A   1      42.415  26.138  27.674  1.00  0.00     0.064 A 
ATOM     60  C   UNL A   1      41.872  24.855  27.508  1.00  0.00     0.173 A 
ATOM     61  C   UNL A   1      43.369  26.574  26.744  1.00  0.00     0.173 A 
ATOM     62  F   UNL A   1      40.957  24.391  28.373  1.00  0.00    -0.203 F 
ATOM     63  C   UNL A   1      42.282  24.033  26.463  1.00  0.00     0.198 A 
ATOM     64  C   UNL A   1      43.758  25.759  25.683  1.00  0.00     0.198 A 
ATOM     65  F   UNL A   1      43.906  27.798  26.850  1.00  0.00    -0.203 F 
ATOM     66  F   UNL A   1      41.771  22.800  26.341  1.00  0.00    -0.200 F 
ATOM     67  C   UNL A   1      43.222  24.487  25.549  1.00  0.00     0.200 A 
ATOM     68  F   UNL A   1      44.650  26.206  24.788  1.00  0.00    -0.200 F 
ATOM     69  F   UNL A   1      43.610  23.697  24.538  1.00  0.00    -0.200 F 
ENDBRANCH  45  59
BRANCH  46  70
ATOM     70  C   UNL A   1      39.477  31.837  35.334  1.00  0.00     0.064 A 
ATOM     71  C   UNL A   1      38.585  31.339  36.296  1.00  0.00     0.173 A 
ATOM     72  C   UNL A   1      39.917  33.160  35.475  1.00  0.00     0.173 A 
ATOM     73  F   UNL A   1      38.138  30.078  36.207  1.00  0.00    -0.203 F 
ATOM     74  C   UNL A   1      38.131  32.141  37.341  1.00  0.00     0.198 A 
ATOM     75  C   UNL A   1      39.482  33.953  36.534  1.00  0.00     0.198 A 
ATOM     76  F   UNL A   1      40.791  33.672  34.596  1.00  0.00    -0.203 F 
ATOM     77  F   UNL A   1      37.253  31.651  38.227  1.00  0.00    -0.200 F 
ATOM     78  C   UNL A   1      38.582  33.446  37.461  1.00  0.00     0.200 A 
ATOM     79  F   UNL A   1      39.938  35.206  36.662  1.00  0.00    -0.200 F 
ATOM     80  F   UNL A   1      38.153  34.215  38.471  1.00  0.00    -0.200 F 
ENDBRANCH  46  70
BRANCH  58  81
ATOM     81  C   UNL A   1      44.858  27.497  34.295  1.00  0.00     0.064 A 
ATOM     82  C   UNL A   1      44.731  26.395  35.155  1.00  0.00     0.173 A 
ATOM     83  C   UNL A   1      46.049  28.236  34.341  1.00  0.00     0.173 A 
ATOM     84  F   UNL A   1      43.606  25.665  35.157  1.00  0.00    -0.203 F 
ATOM     85  C   UNL A   1      45.748  26.061  36.044  1.00  0.00     0.198 A 
ATOM     86  C   UNL A   1      47.074  27.882  35.213  1.00  0.00     0.198 A 
ATOM     87  F   UNL A   1      46.221  29.291  33.531  1.00  0.00    -0.203 F 
ATOM     88  F   UNL A   1      45.588  25.030  36.885  1.00  0.00    -0.200 F 
ATOM     89  C   UNL A   1      46.919  26.803  36.071  1.00  0.00     0.200 A 
ATOM     90  F   UNL A   1      48.214  28.587  35.225  1.00  0.00    -0.200 F 
ATOM     91  F   UNL A   1      47.899  26.479  36.928  1.00  0.00    -0.200 F 
ENDBRANCH  58  81
ENDBRANCH  32  33
ENDBRANCH  25  27
ENDBRANCH  24  25
ENDBRANCH  23  24
ENDBRANCH  22  23
ENDBRANCH  21  22
ENDBRANCH   1  21
TORSDOF 18
ENDMDL
