MODEL 1
REMARK VINA RESULT:     -11.9      0.000      0.000
REMARK SMILES C#Cc1cccc(NS(=O)(=O)c2ccc(F)c(C(=O)OCCOCCOC(=O)c3ccc(-c4c5nc(c(-c6c(F)c(F)c(F)c(F)c6F)c6ccc([nH]6)c(-c6c(F)c(F)c(F)c(F)c6F)c6nc(c(-c7c(F)c(F)c(F)c(F)c7F)c7ccc4[nH]7)C=C6)C=C5)cc3)c2)c1
REMARK SMILES IDX 22 1 21 2 20 3 18 4 19 5 17 6 12 7 13 8 92 9 14 10 15 11
REMARK SMILES IDX 16 12 9 13 10 14 11 15 8 16 7 18 3 19 4 20 93 21 5 22 6 23
REMARK SMILES IDX 2 24 1 25 23 26 24 27 25 28 26 29 27 30 28 31 29 32 30 33
REMARK SMILES IDX 91 34 31 35 90 36 32 37 33 38 34 39 84 40 35 41 89 42 83 43
REMARK SMILES IDX 85 44 36 45 88 46 82 47 81 48 37 50 69 51 49 52 68 53 50 54
REMARK SMILES IDX 53 55 67 56 86 57 51 58 52 59 66 61 87 62 54 63 38 64 39 65
REMARK SMILES IDX 47 66 40 67 41 68 45 69 48 70 42 71 43 72 46 73 44 74 70 75
REMARK SMILES IDX 71 76 79 77 72 78 73 79 77 80 80 81 74 82 75 83 78 84 76 85
REMARK SMILES IDX 55 86 56 87 64 88 57 89 58 90 62 91 65 92 59 93 60 94 63 95
REMARK SMILES IDX 61 96
REMARK H PARENT 8 17 85 49 53 60
REMARK Flexibility Score: inf
ROOT
ATOM      1  C   UNL A   1      43.815  19.340  25.291  1.00  0.00     0.202 C 
ENDROOT
BRANCH   1   2
ATOM      2  C   UNL A   1      42.550  19.361  26.151  1.00  0.00     0.261 C 
BRANCH   2   3
ATOM      3  O   UNL A   1      41.754  20.529  25.923  1.00  0.00    -0.460 OA
BRANCH   3   4
ATOM      4  C   UNL A   1      40.423  20.292  25.927  1.00  0.00     0.341 C 
ATOM      5  O   UNL A   1      39.873  19.216  25.753  1.00  0.00    -0.246 OA
BRANCH   4   6
ATOM      6  C   UNL A   1      39.654  21.492  26.288  1.00  0.00     0.097 A 
ATOM      7  C   UNL A   1      37.757  22.915  25.785  1.00  0.00     0.088 A 
ATOM      8  C   UNL A   1      38.365  23.946  26.499  1.00  0.00     0.025 A 
ATOM      9  C   UNL A   1      38.431  21.700  25.632  1.00  0.00     0.041 A 
ATOM     10  C   UNL A   1      39.495  23.677  27.278  1.00  0.00     0.041 A 
ATOM     11  C   UNL A   1      40.124  22.440  27.189  1.00  0.00     0.137 A 
ATOM     12  F   UNL A   1      41.195  22.213  27.960  1.00  0.00    -0.206 F 
BRANCH   7  13
ATOM     13  S   UNL A   1      36.057  22.956  25.236  1.00  0.00     0.261 S 
ATOM     14  O   UNL A   1      35.959  24.077  24.326  1.00  0.00    -0.201 OA
ATOM     15  O   UNL A   1      35.249  22.888  26.435  1.00  0.00    -0.201 OA
BRANCH  13  16
ATOM     16  N   UNL A   1      35.692  21.565  24.389  1.00  0.00    -0.280 N 
ATOM     17  H   UNL A   1      36.282  21.357  23.629  1.00  0.00     0.180 HD
BRANCH  16  18
ATOM     18  C   UNL A   1      34.637  20.640  24.624  1.00  0.00     0.050 A 
ATOM     19  C   UNL A   1      34.036  18.294  24.611  1.00  0.00     0.026 A 
ATOM     20  C   UNL A   1      32.723  18.638  24.292  1.00  0.00     0.017 A 
ATOM     21  C   UNL A   1      35.001  19.295  24.748  1.00  0.00     0.044 A 
ATOM     22  C   UNL A   1      32.339  19.975  24.303  1.00  0.00     0.003 A 
ATOM     23  C   UNL A   1      33.283  20.973  24.559  1.00  0.00     0.027 A 
BRANCH  19  24
ATOM     24  C   UNL A   1      34.357  16.923  24.833  1.00  0.00    -0.070 C 
ATOM     25  C   UNL A   1      34.754  15.797  25.004  1.00  0.00     0.010 C 
ENDBRANCH  19  24
ENDBRANCH  16  18
ENDBRANCH  13  16
ENDBRANCH   7  13
ENDBRANCH   4   6
ENDBRANCH   3   4
ENDBRANCH   2   3
ENDBRANCH   1   2
BRANCH   1  26
ATOM     26  O   UNL A   1      44.029  20.394  24.359  1.00  0.00    -0.374 OA
BRANCH  26  27
ATOM     27  C   UNL A   1      44.858  21.489  24.742  1.00  0.00     0.202 C 
BRANCH  27  28
ATOM     28  C   UNL A   1      44.685  22.836  24.028  1.00  0.00     0.261 C 
BRANCH  28  29
ATOM     29  O   UNL A   1      43.881  23.777  24.758  1.00  0.00    -0.460 OA
BRANCH  29  30
ATOM     30  C   UNL A   1      44.536  24.907  25.123  1.00  0.00     0.338 C 
ATOM     31  O   UNL A   1      45.546  25.374  24.626  1.00  0.00    -0.246 OA
BRANCH  30  32
ATOM     32  C   UNL A   1      43.742  25.641  26.124  1.00  0.00     0.060 A 
ATOM     33  C   UNL A   1      43.973  27.016  26.267  1.00  0.00     0.016 A 
ATOM     34  C   UNL A   1      42.853  24.976  26.968  1.00  0.00     0.016 A 
ATOM     35  C   UNL A   1      43.342  27.727  27.283  1.00  0.00     0.010 A 
ATOM     36  C   UNL A   1      42.229  25.690  27.994  1.00  0.00     0.010 A 
ATOM     37  C   UNL A   1      42.494  27.059  28.177  1.00  0.00    -0.014 A 
BRANCH  37  38
ATOM     38  C   UNL A   1      41.976  27.769  29.372  1.00  0.00     0.031 A 
ATOM     39  C   UNL A   1      40.714  28.575  29.260  1.00  0.00     0.074 A 
ATOM     40  C   UNL A   1      42.620  27.677  30.549  1.00  0.00     0.049 A 
ATOM     41  N   UNL A   1      40.124  29.322  30.158  1.00  0.00    -0.248 NA
ATOM     42  C   UNL A   1      40.023  28.540  27.961  1.00  0.00     0.031 C 
ATOM     43  C   UNL A   1      43.826  26.890  30.789  1.00  0.00     0.029 A 
ATOM     44  N   UNL A   1      42.349  28.259  31.763  1.00  0.00    -0.354 N 
ATOM     45  C   UNL A   1      39.003  29.850  29.532  1.00  0.00     0.074 A 
ATOM     46  C   UNL A   1      39.011  29.370  28.168  1.00  0.00     0.031 C 
ATOM     47  C   UNL A   1      44.194  27.037  32.072  1.00  0.00     0.029 A 
ATOM     48  C   UNL A   1      43.278  27.966  32.731  1.00  0.00     0.049 A 
ATOM     49  H   UNL A   1      41.564  28.831  31.924  1.00  0.00     0.167 HD
ATOM     50  C   UNL A   1      38.049  30.653  30.058  1.00  0.00     0.037 A 
ATOM     51  C   UNL A   1      43.390  28.416  33.996  1.00  0.00     0.037 A 
ATOM     52  C   UNL A   1      38.045  31.119  31.421  1.00  0.00     0.049 A 
ATOM     53  C   UNL A   1      42.359  29.375  34.532  1.00  0.00     0.074 A 
ATOM     54  C   UNL A   1      37.109  31.919  32.051  1.00  0.00     0.029 A 
ATOM     55  N   UNL A   1      39.025  30.835  32.360  1.00  0.00    -0.354 N 
ATOM     56  N   UNL A   1      41.293  29.858  33.941  1.00  0.00    -0.248 NA
ATOM     57  C   UNL A   1      42.545  29.851  35.911  1.00  0.00     0.031 C 
ATOM     58  C   UNL A   1      37.560  32.180  33.347  1.00  0.00     0.029 A 
ATOM     59  C   UNL A   1      38.735  31.474  33.554  1.00  0.00     0.049 A 
ATOM     60  H   UNL A   1      39.812  30.263  32.201  1.00  0.00     0.167 HD
ATOM     61  C   UNL A   1      40.667  30.667  34.881  1.00  0.00     0.074 A 
ATOM     62  C   UNL A   1      41.466  30.601  36.087  1.00  0.00     0.031 C 
ATOM     63  C   UNL A   1      39.530  31.396  34.754  1.00  0.00     0.037 A 
BRANCH  50  64
ATOM     64  C   UNL A   1      36.928  31.101  29.164  1.00  0.00     0.064 A 
ATOM     65  C   UNL A   1      36.855  32.436  28.733  1.00  0.00     0.173 A 
ATOM     66  C   UNL A   1      35.880  30.241  28.807  1.00  0.00     0.173 A 
ATOM     67  F   UNL A   1      37.828  33.303  29.051  1.00  0.00    -0.203 F 
ATOM     68  C   UNL A   1      35.764  32.896  28.002  1.00  0.00     0.198 A 
ATOM     69  C   UNL A   1      34.806  30.697  28.044  1.00  0.00     0.198 A 
ATOM     70  F   UNL A   1      35.904  28.953  29.182  1.00  0.00    -0.203 F 
ATOM     71  F   UNL A   1      35.696  34.186  27.644  1.00  0.00    -0.200 F 
ATOM     72  C   UNL A   1      34.742  32.026  27.655  1.00  0.00     0.200 A 
ATOM     73  F   UNL A   1      33.831  29.848  27.689  1.00  0.00    -0.200 F 
ATOM     74  F   UNL A   1      33.696  32.469  26.946  1.00  0.00    -0.200 F 
ENDBRANCH  50  64
BRANCH  51  75
ATOM     75  C   UNL A   1      44.524  27.955  34.838  1.00  0.00     0.064 A 
ATOM     76  C   UNL A   1      45.754  28.632  34.843  1.00  0.00     0.173 A 
ATOM     77  C   UNL A   1      44.412  26.808  35.636  1.00  0.00     0.173 A 
ATOM     78  F   UNL A   1      45.915  29.737  34.098  1.00  0.00    -0.203 F 
ATOM     79  C   UNL A   1      46.833  28.164  35.588  1.00  0.00     0.198 A 
ATOM     80  C   UNL A   1      45.482  26.359  36.408  1.00  0.00     0.198 A 
ATOM     81  F   UNL A   1      43.251  26.139  35.686  1.00  0.00    -0.203 F 
ATOM     82  F   UNL A   1      48.009  28.806  35.537  1.00  0.00    -0.200 F 
ATOM     83  C   UNL A   1      46.695  27.030  36.373  1.00  0.00     0.200 A 
ATOM     84  F   UNL A   1      45.336  25.279  37.187  1.00  0.00    -0.200 F 
ATOM     85  F   UNL A   1      47.730  26.586  37.100  1.00  0.00    -0.200 F 
ENDBRANCH  51  75
BRANCH  63  86
ATOM     86  C   UNL A   1      39.046  32.165  35.952  1.00  0.00     0.064 A 
ATOM     87  C   UNL A   1      39.497  33.476  36.181  1.00  0.00     0.173 A 
ATOM     88  C   UNL A   1      38.221  31.579  36.922  1.00  0.00     0.173 A 
ATOM     89  F   UNL A   1      40.297  34.082  35.290  1.00  0.00    -0.203 F 
ATOM     90  C   UNL A   1      39.160  34.158  37.346  1.00  0.00     0.198 A 
ATOM     91  C   UNL A   1      37.855  32.279  38.070  1.00  0.00     0.198 A 
ATOM     92  F   UNL A   1      37.754  30.333  36.749  1.00  0.00    -0.203 F 
ATOM     93  F   UNL A   1      39.645  35.388  37.564  1.00  0.00    -0.200 F 
ATOM     94  C   UNL A   1      38.337  33.562  38.288  1.00  0.00     0.200 A 
ATOM     95  F   UNL A   1      37.037  31.711  38.966  1.00  0.00    -0.200 F 
ATOM     96  F   UNL A   1      38.005  34.222  39.405  1.00  0.00    -0.200 F 
ENDBRANCH  63  86
ENDBRANCH  37  38
ENDBRANCH  30  32
ENDBRANCH  29  30
ENDBRANCH  28  29
ENDBRANCH  27  28
ENDBRANCH  26  27
ENDBRANCH   1  26
TORSDOF 18
ENDMDL
MODEL 2
REMARK VINA RESULT:     -11.8      2.271      7.865
REMARK SMILES C#Cc1cccc(NS(=O)(=O)c2ccc(F)c(C(=O)OCCOCCOC(=O)c3ccc(-c4c5nc(c(-c6c(F)c(F)c(F)c(F)c6F)c6ccc([nH]6)c(-c6c(F)c(F)c(F)c(F)c6F)c6nc(c(-c7c(F)c(F)c(F)c(F)c7F)c7ccc4[nH]7)C=C6)C=C5)cc3)c2)c1
REMARK SMILES IDX 22 1 21 2 20 3 18 4 19 5 17 6 12 7 13 8 92 9 14 10 15 11
REMARK SMILES IDX 16 12 9 13 10 14 11 15 8 16 7 18 3 19 4 20 93 21 5 22 6 23
REMARK SMILES IDX 2 24 1 25 23 26 24 27 25 28 26 29 27 30 28 31 29 32 30 33
REMARK SMILES IDX 91 34 31 35 90 36 32 37 33 38 34 39 84 40 35 41 89 42 83 43
REMARK SMILES IDX 85 44 36 45 88 46 82 47 81 48 37 50 69 51 49 52 68 53 50 54
REMARK SMILES IDX 53 55 67 56 86 57 51 58 52 59 66 61 87 62 54 63 38 64 39 65
REMARK SMILES IDX 47 66 40 67 41 68 45 69 48 70 42 71 43 72 46 73 44 74 70 75
REMARK SMILES IDX 71 76 79 77 72 78 73 79 77 80 80 81 74 82 75 83 78 84 76 85
REMARK SMILES IDX 55 86 56 87 64 88 57 89 58 90 62 91 65 92 59 93 60 94 63 95
REMARK SMILES IDX 61 96
REMARK H PARENT 8 17 85 49 53 60
REMARK Flexibility Score: inf
ROOT
ATOM      1  C   UNL A   1      40.057  19.800  25.744  1.00  0.00     0.202 C 
ENDROOT
BRANCH   1   2
ATOM      2  C   UNL A   1      39.465  21.175  26.056  1.00  0.00     0.261 C 
BRANCH   2   3
ATOM      3  O   UNL A   1      38.184  21.370  25.445  1.00  0.00    -0.460 OA
BRANCH   3   4
ATOM      4  C   UNL A   1      37.629  22.573  25.712  1.00  0.00     0.341 C 
ATOM      5  O   UNL A   1      38.168  23.519  26.265  1.00  0.00    -0.246 OA
BRANCH   4   6
ATOM      6  C   UNL A   1      36.276  22.690  25.148  1.00  0.00     0.097 A 
ATOM      7  C   UNL A   1      33.891  22.495  25.537  1.00  0.00     0.088 A 
ATOM      8  C   UNL A   1      33.696  22.384  24.161  1.00  0.00     0.025 A 
ATOM      9  C   UNL A   1      35.194  22.592  26.035  1.00  0.00     0.041 A 
ATOM     10  C   UNL A   1      34.755  22.645  23.287  1.00  0.00     0.041 A 
ATOM     11  C   UNL A   1      36.042  22.822  23.784  1.00  0.00     0.137 A 
ATOM     12  F   UNL A   1      37.029  23.085  22.919  1.00  0.00    -0.206 F 
BRANCH   7  13
ATOM     13  S   UNL A   1      32.569  22.754  26.710  1.00  0.00     0.261 S 
ATOM     14  O   UNL A   1      33.030  22.192  27.961  1.00  0.00    -0.201 OA
ATOM     15  O   UNL A   1      31.366  22.271  26.066  1.00  0.00    -0.201 OA
BRANCH  13  16
ATOM     16  N   UNL A   1      32.312  24.388  26.936  1.00  0.00    -0.280 N 
ATOM     17  H   UNL A   1      32.015  24.655  27.835  1.00  0.00     0.180 HD
BRANCH  16  18
ATOM     18  C   UNL A   1      32.467  25.444  25.995  1.00  0.00     0.050 A 
ATOM     19  C   UNL A   1      31.355  26.709  24.256  1.00  0.00     0.026 A 
ATOM     20  C   UNL A   1      32.581  26.904  23.621  1.00  0.00     0.017 A 
ATOM     21  C   UNL A   1      31.294  25.953  25.428  1.00  0.00     0.044 A 
ATOM     22  C   UNL A   1      33.755  26.514  24.258  1.00  0.00     0.003 A 
ATOM     23  C   UNL A   1      33.700  25.861  25.491  1.00  0.00     0.027 A 
BRANCH  19  24
ATOM     24  C   UNL A   1      30.190  27.326  23.712  1.00  0.00    -0.070 C 
ATOM     25  C   UNL A   1      29.256  27.825  23.136  1.00  0.00     0.010 C 
ENDBRANCH  19  24
ENDBRANCH  16  18
ENDBRANCH  13  16
ENDBRANCH   7  13
ENDBRANCH   4   6
ENDBRANCH   3   4
ENDBRANCH   2   3
ENDBRANCH   1   2
BRANCH   1  26
ATOM     26  O   UNL A   1      41.466  19.678  25.590  1.00  0.00    -0.374 OA
BRANCH  26  27
ATOM     27  C   UNL A   1      42.311  20.605  26.268  1.00  0.00     0.202 C 
BRANCH  27  28
ATOM     28  C   UNL A   1      43.261  21.485  25.444  1.00  0.00     0.261 C 
BRANCH  28  29
ATOM     29  O   UNL A   1      42.659  22.705  24.979  1.00  0.00    -0.460 OA
BRANCH  29  30
ATOM     30  C   UNL A   1      43.440  23.804  25.125  1.00  0.00     0.338 C 
ATOM     31  O   UNL A   1      44.457  24.080  24.514  1.00  0.00    -0.246 OA
BRANCH  30  32
ATOM     32  C   UNL A   1      42.784  24.764  26.030  1.00  0.00     0.060 A 
ATOM     33  C   UNL A   1      43.289  26.070  26.080  1.00  0.00     0.016 A 
ATOM     34  C   UNL A   1      41.750  24.366  26.877  1.00  0.00     0.016 A 
ATOM     35  C   UNL A   1      42.786  26.977  27.010  1.00  0.00     0.010 A 
ATOM     36  C   UNL A   1      41.254  25.274  27.816  1.00  0.00     0.010 A 
ATOM     37  C   UNL A   1      41.790  26.571  27.909  1.00  0.00    -0.014 A 
BRANCH  37  38
ATOM     38  C   UNL A   1      41.393  27.467  29.021  1.00  0.00     0.031 A 
ATOM     39  C   UNL A   1      42.177  27.444  30.301  1.00  0.00     0.074 A 
ATOM     40  C   UNL A   1      40.351  28.306  28.880  1.00  0.00     0.049 A 
ATOM     41  N   UNL A   1      41.964  28.094  31.417  1.00  0.00    -0.248 NA
ATOM     42  C   UNL A   1      43.360  26.568  30.334  1.00  0.00     0.031 C 
ATOM     43  C   UNL A   1      39.545  28.450  27.671  1.00  0.00     0.029 A 
ATOM     44  N   UNL A   1      39.791  29.192  29.767  1.00  0.00    -0.354 N 
ATOM     45  C   UNL A   1      42.976  27.700  32.283  1.00  0.00     0.074 A 
ATOM     46  C   UNL A   1      43.783  26.728  31.579  1.00  0.00     0.031 C 
ATOM     47  C   UNL A   1      38.591  29.369  27.890  1.00  0.00     0.029 A 
ATOM     48  C   UNL A   1      38.690  29.844  29.269  1.00  0.00     0.049 A 
ATOM     49  H   UNL A   1      40.145  29.346  30.672  1.00  0.00     0.167 HD
ATOM     50  C   UNL A   1      43.213  28.124  33.546  1.00  0.00     0.037 A 
ATOM     51  C   UNL A   1      37.843  30.706  29.866  1.00  0.00     0.037 A 
ATOM     52  C   UNL A   1      42.407  29.100  34.235  1.00  0.00     0.049 A 
ATOM     53  C   UNL A   1      38.081  31.100  31.300  1.00  0.00     0.074 A 
ATOM     54  C   UNL A   1      42.582  29.610  35.509  1.00  0.00     0.029 A 
ATOM     55  N   UNL A   1      41.275  29.707  33.712  1.00  0.00    -0.354 N 
ATOM     56  N   UNL A   1      39.047  30.736  32.108  1.00  0.00    -0.248 NA
ATOM     57  C   UNL A   1      37.112  32.025  31.907  1.00  0.00     0.031 C 
ATOM     58  C   UNL A   1      41.514  30.468  35.786  1.00  0.00     0.029 A 
ATOM     59  C   UNL A   1      40.720  30.559  34.653  1.00  0.00     0.049 A 
ATOM     60  H   UNL A   1      40.919  29.555  32.806  1.00  0.00     0.167 HD
ATOM     61  C   UNL A   1      38.823  31.409  33.302  1.00  0.00     0.074 A 
ATOM     62  C   UNL A   1      37.633  32.212  33.111  1.00  0.00     0.031 C 
ATOM     63  C   UNL A   1      39.540  31.364  34.453  1.00  0.00     0.037 A 
BRANCH  50  64
ATOM     64  C   UNL A   1      44.379  27.534  34.285  1.00  0.00     0.064 A 
ATOM     65  C   UNL A   1      44.203  26.402  35.099  1.00  0.00     0.173 A 
ATOM     66  C   UNL A   1      45.646  28.133  34.265  1.00  0.00     0.173 A 
ATOM     67  F   UNL A   1      43.010  25.793  35.160  1.00  0.00    -0.203 F 
ATOM     68  C   UNL A   1      45.244  25.912  35.881  1.00  0.00     0.198 A 
ATOM     69  C   UNL A   1      46.696  27.618  35.022  1.00  0.00     0.198 A 
ATOM     70  F   UNL A   1      45.873  29.210  33.496  1.00  0.00    -0.203 F 
ATOM     71  F   UNL A   1      45.037  24.860  36.686  1.00  0.00    -0.200 F 
ATOM     72  C   UNL A   1      46.491  26.517  35.840  1.00  0.00     0.200 A 
ATOM     73  F   UNL A   1      47.907  28.190  34.962  1.00  0.00    -0.200 F 
ATOM     74  F   UNL A   1      47.493  26.039  36.589  1.00  0.00    -0.200 F 
ENDBRANCH  50  64
BRANCH  51  75
ATOM     75  C   UNL A   1      36.695  31.253  29.097  1.00  0.00     0.064 A 
ATOM     76  C   UNL A   1      36.662  32.596  28.688  1.00  0.00     0.173 A 
ATOM     77  C   UNL A   1      35.590  30.451  28.779  1.00  0.00     0.173 A 
ATOM     78  F   UNL A   1      37.694  33.407  28.965  1.00  0.00    -0.203 F 
ATOM     79  C   UNL A   1      35.559  33.120  28.019  1.00  0.00     0.198 A 
ATOM     80  C   UNL A   1      34.501  30.967  28.080  1.00  0.00     0.198 A 
ATOM     81  F   UNL A   1      35.583  29.156  29.126  1.00  0.00    -0.203 F 
ATOM     82  F   UNL A   1      35.537  34.417  27.681  1.00  0.00    -0.200 F 
ATOM     83  C   UNL A   1      34.482  32.305  27.711  1.00  0.00     0.200 A 
ATOM     84  F   UNL A   1      33.474  30.169  27.760  1.00  0.00    -0.200 F 
ATOM     85  F   UNL A   1      33.425  32.805  27.056  1.00  0.00    -0.200 F 
ENDBRANCH  51  75
BRANCH  63  86
ATOM     86  C   UNL A   1      39.093  32.227  35.599  1.00  0.00     0.064 A 
ATOM     87  C   UNL A   1      39.569  33.543  35.721  1.00  0.00     0.173 A 
ATOM     88  C   UNL A   1      38.280  31.729  36.626  1.00  0.00     0.173 A 
ATOM     89  F   UNL A   1      40.360  34.068  34.773  1.00  0.00    -0.203 F 
ATOM     90  C   UNL A   1      39.267  34.316  36.839  1.00  0.00     0.198 A 
ATOM     91  C   UNL A   1      37.949  32.517  37.726  1.00  0.00     0.198 A 
ATOM     92  F   UNL A   1      37.790  30.481  36.555  1.00  0.00    -0.203 F 
ATOM     93  F   UNL A   1      39.776  35.550  36.956  1.00  0.00    -0.200 F 
ATOM     94  C   UNL A   1      38.455  33.805  37.839  1.00  0.00     0.200 A 
ATOM     95  F   UNL A   1      37.141  32.031  38.678  1.00  0.00    -0.200 F 
ATOM     96  F   UNL A   1      38.157  34.551  38.910  1.00  0.00    -0.200 F 
ENDBRANCH  63  86
ENDBRANCH  37  38
ENDBRANCH  30  32
ENDBRANCH  29  30
ENDBRANCH  28  29
ENDBRANCH  27  28
ENDBRANCH  26  27
ENDBRANCH   1  26
TORSDOF 18
ENDMDL
MODEL 3
REMARK VINA RESULT:     -11.7      1.587      2.492
REMARK SMILES C#Cc1cccc(NS(=O)(=O)c2ccc(F)c(C(=O)OCCOCCOC(=O)c3ccc(-c4c5nc(c(-c6c(F)c(F)c(F)c(F)c6F)c6ccc([nH]6)c(-c6c(F)c(F)c(F)c(F)c6F)c6nc(c(-c7c(F)c(F)c(F)c(F)c7F)c7ccc4[nH]7)C=C6)C=C5)cc3)c2)c1
REMARK SMILES IDX 22 1 21 2 20 3 18 4 19 5 17 6 12 7 13 8 92 9 14 10 15 11
REMARK SMILES IDX 16 12 9 13 10 14 11 15 8 16 7 18 3 19 4 20 93 21 5 22 6 23
REMARK SMILES IDX 2 24 1 25 23 26 24 27 25 28 26 29 27 30 28 31 29 32 30 33
REMARK SMILES IDX 91 34 31 35 90 36 32 37 33 38 34 39 84 40 35 41 89 42 83 43
REMARK SMILES IDX 85 44 36 45 88 46 82 47 81 48 37 50 69 51 49 52 68 53 50 54
REMARK SMILES IDX 53 55 67 56 86 57 51 58 52 59 66 61 87 62 54 63 38 64 39 65
REMARK SMILES IDX 47 66 40 67 41 68 45 69 48 70 42 71 43 72 46 73 44 74 70 75
REMARK SMILES IDX 71 76 79 77 72 78 73 79 77 80 80 81 74 82 75 83 78 84 76 85
REMARK SMILES IDX 55 86 56 87 64 88 57 89 58 90 62 91 65 92 59 93 60 94 63 95
REMARK SMILES IDX 61 96
REMARK H PARENT 8 17 85 49 53 60
REMARK Flexibility Score: inf
ROOT
ATOM      1  C   UNL A   1      43.719  19.208  25.398  1.00  0.00     0.202 C 
ENDROOT
BRANCH   1   2
ATOM      2  C   UNL A   1      42.363  19.140  26.101  1.00  0.00     0.261 C 
BRANCH   2   3
ATOM      3  O   UNL A   1      41.640  20.373  26.015  1.00  0.00    -0.460 OA
BRANCH   3   4
ATOM      4  C   UNL A   1      40.300  20.217  25.933  1.00  0.00     0.341 C 
ATOM      5  O   UNL A   1      39.699  19.181  25.697  1.00  0.00    -0.246 OA
BRANCH   4   6
ATOM      6  C   UNL A   1      39.582  21.452  26.280  1.00  0.00     0.097 A 
ATOM      7  C   UNL A   1      37.804  22.997  25.706  1.00  0.00     0.088 A 
ATOM      8  C   UNL A   1      38.428  23.973  26.480  1.00  0.00     0.025 A 
ATOM      9  C   UNL A   1      38.414  21.748  25.561  1.00  0.00     0.041 A 
ATOM     10  C   UNL A   1      39.492  23.621  27.315  1.00  0.00     0.041 A 
ATOM     11  C   UNL A   1      40.053  22.351  27.231  1.00  0.00     0.137 A 
ATOM     12  F   UNL A   1      41.062  22.043  28.056  1.00  0.00    -0.206 F 
BRANCH   7  13
ATOM     13  S   UNL A   1      36.144  23.151  25.061  1.00  0.00     0.261 S 
ATOM     14  O   UNL A   1      35.444  21.954  25.472  1.00  0.00    -0.201 OA
ATOM     15  O   UNL A   1      36.292  23.494  23.662  1.00  0.00    -0.201 OA
BRANCH  13  16
ATOM     16  N   UNL A   1      35.379  24.465  25.750  1.00  0.00    -0.280 N 
ATOM     17  H   UNL A   1      35.958  25.088  26.244  1.00  0.00     0.180 HD
BRANCH  16  18
ATOM     18  C   UNL A   1      33.997  24.798  25.716  1.00  0.00     0.050 A 
ATOM     19  C   UNL A   1      32.414  26.631  25.717  1.00  0.00     0.026 A 
ATOM     20  C   UNL A   1      31.483  25.819  26.365  1.00  0.00     0.017 A 
ATOM     21  C   UNL A   1      33.683  26.129  25.419  1.00  0.00     0.044 A 
ATOM     22  C   UNL A   1      31.752  24.465  26.535  1.00  0.00     0.003 A 
ATOM     23  C   UNL A   1      32.979  23.937  26.126  1.00  0.00     0.027 A 
BRANCH  19  24
ATOM     24  C   UNL A   1      32.032  27.951  25.334  1.00  0.00    -0.070 C 
ATOM     25  C   UNL A   1      31.663  29.080  25.130  1.00  0.00     0.010 C 
ENDBRANCH  19  24
ENDBRANCH  16  18
ENDBRANCH  13  16
ENDBRANCH   7  13
ENDBRANCH   4   6
ENDBRANCH   3   4
ENDBRANCH   2   3
ENDBRANCH   1   2
BRANCH   1  26
ATOM     26  O   UNL A   1      43.950  20.244  24.451  1.00  0.00    -0.374 OA
BRANCH  26  27
ATOM     27  C   UNL A   1      44.840  21.303  24.797  1.00  0.00     0.202 C 
BRANCH  27  28
ATOM     28  C   UNL A   1      44.720  22.644  24.061  1.00  0.00     0.261 C 
BRANCH  28  29
ATOM     29  O   UNL A   1      43.933  23.619  24.764  1.00  0.00    -0.460 OA
BRANCH  29  30
ATOM     30  C   UNL A   1      44.621  24.724  25.145  1.00  0.00     0.338 C 
ATOM     31  O   UNL A   1      45.658  25.153  24.673  1.00  0.00    -0.246 OA
BRANCH  30  32
ATOM     32  C   UNL A   1      43.833  25.485  26.130  1.00  0.00     0.060 A 
ATOM     33  C   UNL A   1      44.113  26.850  26.282  1.00  0.00     0.016 A 
ATOM     34  C   UNL A   1      42.899  24.854  26.951  1.00  0.00     0.016 A 
ATOM     35  C   UNL A   1      43.486  27.583  27.286  1.00  0.00     0.010 A 
ATOM     36  C   UNL A   1      42.279  25.589  27.965  1.00  0.00     0.010 A 
ATOM     37  C   UNL A   1      42.592  26.947  28.157  1.00  0.00    -0.014 A 
BRANCH  37  38
ATOM     38  C   UNL A   1      42.074  27.673  29.342  1.00  0.00     0.031 A 
ATOM     39  C   UNL A   1      40.793  28.448  29.228  1.00  0.00     0.074 A 
ATOM     40  C   UNL A   1      42.735  27.624  30.512  1.00  0.00     0.049 A 
ATOM     41  N   UNL A   1      40.198  29.203  30.116  1.00  0.00    -0.248 NA
ATOM     42  C   UNL A   1      40.085  28.366  27.939  1.00  0.00     0.031 C 
ATOM     43  C   UNL A   1      43.962  26.869  30.754  1.00  0.00     0.029 A 
ATOM     44  N   UNL A   1      42.467  28.229  31.715  1.00  0.00    -0.354 N 
ATOM     45  C   UNL A   1      39.057  29.691  29.493  1.00  0.00     0.074 A 
ATOM     46  C   UNL A   1      39.058  29.178  28.141  1.00  0.00     0.031 C 
ATOM     47  C   UNL A   1      44.343  27.056  32.029  1.00  0.00     0.029 A 
ATOM     48  C   UNL A   1      43.415  27.980  32.677  1.00  0.00     0.049 A 
ATOM     49  H   UNL A   1      41.671  28.786  31.874  1.00  0.00     0.167 HD
ATOM     50  C   UNL A   1      38.091  30.485  30.012  1.00  0.00     0.037 A 
ATOM     51  C   UNL A   1      43.533  28.462  33.930  1.00  0.00     0.037 A 
ATOM     52  C   UNL A   1      38.095  30.983  31.364  1.00  0.00     0.049 A 
ATOM     53  C   UNL A   1      42.488  29.411  34.457  1.00  0.00     0.074 A 
ATOM     54  C   UNL A   1      37.149  31.777  31.988  1.00  0.00     0.029 A 
ATOM     55  N   UNL A   1      39.094  30.743  32.296  1.00  0.00    -0.354 N 
ATOM     56  N   UNL A   1      41.404  29.856  33.869  1.00  0.00    -0.248 NA
ATOM     57  C   UNL A   1      42.681  29.924  35.822  1.00  0.00     0.031 C 
ATOM     58  C   UNL A   1      37.611  32.079  33.271  1.00  0.00     0.029 A 
ATOM     59  C   UNL A   1      38.805  31.405  33.479  1.00  0.00     0.049 A 
ATOM     60  H   UNL A   1      39.891  30.185  32.141  1.00  0.00     0.167 HD
ATOM     61  C   UNL A   1      40.771  30.673  34.798  1.00  0.00     0.074 A 
ATOM     62  C   UNL A   1      41.588  30.654  35.994  1.00  0.00     0.031 C 
ATOM     63  C   UNL A   1      39.617  31.373  34.669  1.00  0.00     0.037 A 
BRANCH  50  64
ATOM     64  C   UNL A   1      36.949  30.885  29.123  1.00  0.00     0.064 A 
ATOM     65  C   UNL A   1      36.827  32.214  28.683  1.00  0.00     0.173 A 
ATOM     66  C   UNL A   1      35.930  29.987  28.781  1.00  0.00     0.173 A 
ATOM     67  F   UNL A   1      37.771  33.117  28.987  1.00  0.00    -0.203 F 
ATOM     68  C   UNL A   1      35.714  32.630  27.956  1.00  0.00     0.198 A 
ATOM     69  C   UNL A   1      34.835  30.398  28.023  1.00  0.00     0.198 A 
ATOM     70  F   UNL A   1      36.002  28.703  29.166  1.00  0.00    -0.203 F 
ATOM     71  F   UNL A   1      35.598  33.913  27.590  1.00  0.00    -0.200 F 
ATOM     72  C   UNL A   1      34.722  31.722  27.624  1.00  0.00     0.200 A 
ATOM     73  F   UNL A   1      33.888  29.513  27.682  1.00  0.00    -0.200 F 
ATOM     74  F   UNL A   1      33.655  32.122  26.919  1.00  0.00    -0.200 F 
ENDBRANCH  50  64
BRANCH  51  75
ATOM     75  C   UNL A   1      44.688  28.047  34.767  1.00  0.00     0.064 A 
ATOM     76  C   UNL A   1      45.904  28.750  34.736  1.00  0.00     0.173 A 
ATOM     77  C   UNL A   1      44.612  26.920  35.596  1.00  0.00     0.173 A 
ATOM     78  F   UNL A   1      46.031  29.837  33.961  1.00  0.00    -0.203 F 
ATOM     79  C   UNL A   1      47.002  28.323  35.478  1.00  0.00     0.198 A 
ATOM     80  C   UNL A   1      45.701  26.513  36.363  1.00  0.00     0.198 A 
ATOM     81  F   UNL A   1      43.466  26.228  35.680  1.00  0.00    -0.203 F 
ATOM     82  F   UNL A   1      48.163  28.988  35.393  1.00  0.00    -0.200 F 
ATOM     83  C   UNL A   1      46.900  27.209  36.294  1.00  0.00     0.200 A 
ATOM     84  F   UNL A   1      45.589  25.452  37.173  1.00  0.00    -0.200 F 
ATOM     85  F   UNL A   1      47.953  26.805  37.017  1.00  0.00    -0.200 F 
ENDBRANCH  51  75
BRANCH  63  86
ATOM     86  C   UNL A   1      39.131  32.160  35.855  1.00  0.00     0.064 A 
ATOM     87  C   UNL A   1      39.593  33.469  36.073  1.00  0.00     0.173 A 
ATOM     88  C   UNL A   1      38.294  31.593  36.825  1.00  0.00     0.173 A 
ATOM     89  F   UNL A   1      40.406  34.057  35.182  1.00  0.00    -0.203 F 
ATOM     90  C   UNL A   1      39.254  34.167  37.228  1.00  0.00     0.198 A 
ATOM     91  C   UNL A   1      37.926  32.308  37.962  1.00  0.00     0.198 A 
ATOM     92  F   UNL A   1      37.816  30.349  36.662  1.00  0.00    -0.203 F 
ATOM     93  F   UNL A   1      39.750  35.395  37.436  1.00  0.00    -0.200 F 
ATOM     94  C   UNL A   1      38.418  33.589  38.170  1.00  0.00     0.200 A 
ATOM     95  F   UNL A   1      37.096  31.758  38.858  1.00  0.00    -0.200 F 
ATOM     96  F   UNL A   1      38.084  34.265  39.277  1.00  0.00    -0.200 F 
ENDBRANCH  63  86
ENDBRANCH  37  38
ENDBRANCH  30  32
ENDBRANCH  29  30
ENDBRANCH  28  29
ENDBRANCH  27  28
ENDBRANCH  26  27
ENDBRANCH   1  26
TORSDOF 18
ENDMDL
