MODEL 1
REMARK VINA RESULT:     -12.7      0.000      0.000
REMARK SMILES CC(=O)NS(=O)(=O)c1cc(-c2ccn(C(F)F)c(=O)c2)ccc1C(=O)OCCOCCOC(=O)c1ccc(-c2c3nc(c(-c4c(F)c(F)c(F)c(F)c4F)c4ccc([nH]4)c(-c4c(F)c(F)c(F)c(F)c4F)c4nc(c(-c5c(F)c(F)c(F)c(F)c5F)c5ccc2[nH]5)C=C4)C=C3)cc1
REMARK SMILES IDX 29 1 28 2 27 3 26 4 24 5 25 6 23 7 8 8 9 9 10 10 22 11 21 12
REMARK SMILES IDX 5 13 6 14 7 15 4 16 1 17 2 18 3 19 11 21 12 22 20 23 13 24
REMARK SMILES IDX 18 25 14 26 19 27 15 28 16 29 17 30 30 31 31 32 32 33 33 34
REMARK SMILES IDX 34 35 35 36 36 37 97 38 37 39 96 40 38 41 39 42 40 43 90 44
REMARK SMILES IDX 41 45 95 46 89 47 91 48 42 49 94 50 88 51 87 52 43 54 75 55
REMARK SMILES IDX 55 56 74 57 56 58 59 59 73 60 92 61 57 62 58 63 72 65 93 66
REMARK SMILES IDX 60 67 44 68 45 69 53 70 46 71 47 72 51 73 54 74 48 75 49 76
REMARK SMILES IDX 52 77 50 78 76 79 77 80 85 81 78 82 79 83 83 84 86 85 80 86
REMARK SMILES IDX 81 87 84 88 82 89 61 90 62 91 70 92 63 93 64 94 68 95 71 96
REMARK SMILES IDX 65 97 66 98 69 99 67 100
REMARK H PARENT 4 20 91 53 59 64
REMARK Flexibility Score: inf
ROOT
ATOM      1  O   UNL A   1      32.302  29.936  27.233  1.00  0.00    -0.374 OA
ENDROOT
BRANCH   1   2
ATOM      2  C   UNL A   1      32.584  28.681  26.605  1.00  0.00     0.202 C 
BRANCH   2   3
ATOM      3  C   UNL A   1      31.450  27.671  26.782  1.00  0.00     0.261 C 
BRANCH   3   4
ATOM      4  O   UNL A   1      31.832  26.379  26.269  1.00  0.00    -0.460 OA
BRANCH   4   5
ATOM      5  C   UNL A   1      30.953  25.883  25.367  1.00  0.00     0.339 C 
ATOM      6  O   UNL A   1      30.069  26.478  24.777  1.00  0.00    -0.246 OA
BRANCH   5   7
ATOM      7  C   UNL A   1      31.351  24.505  25.040  1.00  0.00     0.080 A 
ATOM      8  C   UNL A   1      32.090  24.141  23.914  1.00  0.00     0.103 A 
ATOM      9  C   UNL A   1      32.440  22.793  23.711  1.00  0.00     0.032 A 
ATOM     10  C   UNL A   1      32.022  21.806  24.608  1.00  0.00    -0.017 A 
ATOM     11  C   UNL A   1      30.938  23.515  25.944  1.00  0.00     0.018 A 
ATOM     12  C   UNL A   1      31.262  22.173  25.722  1.00  0.00     0.010 A 
BRANCH   8  13
ATOM     13  S   UNL A   1      32.708  25.305  22.744  1.00  0.00     0.264 S 
ATOM     14  O   UNL A   1      31.653  25.546  21.783  1.00  0.00    -0.201 OA
ATOM     15  O   UNL A   1      34.021  24.908  22.297  1.00  0.00    -0.201 OA
BRANCH  13  16
ATOM     16  N   UNL A   1      32.906  26.746  23.589  1.00  0.00    -0.249 N 
ATOM     17  C   UNL A   1      34.252  28.408  22.288  1.00  0.00     0.115 C 
ATOM     18  C   UNL A   1      32.976  28.001  22.961  1.00  0.00     0.230 C 
ATOM     19  O   UNL A   1      32.033  28.762  23.093  1.00  0.00    -0.274 OA
ATOM     20  H   UNL A   1      32.974  26.708  24.570  1.00  0.00     0.183 HD
ENDBRANCH  13  16
ENDBRANCH   8  13
BRANCH  10  21
ATOM     21  C   UNL A   1      32.388  20.398  24.384  1.00  0.00    -0.011 A 
ATOM     22  C   UNL A   1      33.000  19.572  25.406  1.00  0.00     0.027 A 
ATOM     23  C   UNL A   1      32.146  19.872  23.171  1.00  0.00     0.080 A 
ATOM     24  C   UNL A   1      33.340  18.306  25.138  1.00  0.00     0.095 A 
ATOM     25  C   UNL A   1      32.517  18.464  22.860  1.00  0.00     0.255 A 
ATOM     26  N   UNL A   1      33.113  17.755  23.890  1.00  0.00    -0.258 N 
ATOM     27  O   UNL A   1      32.281  18.033  21.736  1.00  0.00    -0.269 OA
BRANCH  26  28
ATOM     28  C   UNL A   1      33.520  16.404  23.598  1.00  0.00     0.451 C 
ATOM     29  F   UNL A   1      34.537  16.381  22.702  1.00  0.00    -0.185 F 
ATOM     30  F   UNL A   1      33.932  15.770  24.722  1.00  0.00    -0.185 F 
ENDBRANCH  26  28
ENDBRANCH  10  21
ENDBRANCH   5   7
ENDBRANCH   4   5
ENDBRANCH   3   4
ENDBRANCH   2   3
ENDBRANCH   1   2
BRANCH   1  31
ATOM     31  C   UNL A   1      31.746  30.931  26.373  1.00  0.00     0.202 C 
BRANCH  31  32
ATOM     32  C   UNL A   1      31.647  32.312  27.036  1.00  0.00     0.261 C 
BRANCH  32  33
ATOM     33  O   UNL A   1      32.906  33.007  26.961  1.00  0.00    -0.460 OA
BRANCH  33  34
ATOM     34  C   UNL A   1      33.396  33.458  28.139  1.00  0.00     0.338 C 
ATOM     35  O   UNL A   1      32.816  34.170  28.941  1.00  0.00    -0.246 OA
BRANCH  34  36
ATOM     36  C   UNL A   1      34.724  32.860  28.428  1.00  0.00     0.060 A 
ATOM     37  C   UNL A   1      34.732  31.545  28.905  1.00  0.00     0.016 A 
ATOM     38  C   UNL A   1      35.933  33.548  28.275  1.00  0.00     0.016 A 
ATOM     39  C   UNL A   1      35.930  30.938  29.282  1.00  0.00     0.010 A 
ATOM     40  C   UNL A   1      37.142  32.930  28.634  1.00  0.00     0.010 A 
ATOM     41  C   UNL A   1      37.141  31.638  29.187  1.00  0.00    -0.014 A 
BRANCH  41  42
ATOM     42  C   UNL A   1      38.342  31.058  29.843  1.00  0.00     0.031 A 
ATOM     43  C   UNL A   1      38.623  31.403  31.282  1.00  0.00     0.074 A 
ATOM     44  C   UNL A   1      39.108  30.143  29.220  1.00  0.00     0.049 A 
ATOM     45  N   UNL A   1      39.501  30.887  32.105  1.00  0.00    -0.248 NA
ATOM     46  C   UNL A   1      37.799  32.470  31.874  1.00  0.00     0.031 C 
ATOM     47  C   UNL A   1      38.945  29.703  27.837  1.00  0.00     0.029 A 
ATOM     48  N   UNL A   1      40.164  29.400  29.688  1.00  0.00    -0.354 N 
ATOM     49  C   UNL A   1      39.320  31.549  33.312  1.00  0.00     0.074 A 
ATOM     50  C   UNL A   1      38.290  32.542  33.101  1.00  0.00     0.031 C 
ATOM     51  C   UNL A   1      39.858  28.751  27.573  1.00  0.00     0.029 A 
ATOM     52  C   UNL A   1      40.670  28.517  28.766  1.00  0.00     0.049 A 
ATOM     53  H   UNL A   1      40.524  29.490  30.600  1.00  0.00     0.167 HD
ATOM     54  C   UNL A   1      39.934  31.334  34.500  1.00  0.00     0.037 A 
ATOM     55  C   UNL A   1      41.665  27.614  28.876  1.00  0.00     0.037 A 
ATOM     56  C   UNL A   1      40.956  30.350  34.727  1.00  0.00     0.049 A 
ATOM     57  C   UNL A   1      42.372  27.432  30.195  1.00  0.00     0.074 A 
ATOM     58  C   UNL A   1      41.613  30.045  35.906  1.00  0.00     0.029 A 
ATOM     59  N   UNL A   1      41.477  29.516  33.750  1.00  0.00    -0.354 N 
ATOM     60  N   UNL A   1      42.148  28.018  31.344  1.00  0.00    -0.248 NA
ATOM     61  C   UNL A   1      43.464  26.446  30.230  1.00  0.00     0.031 C 
ATOM     62  C   UNL A   1      42.566  29.056  35.634  1.00  0.00     0.029 A 
ATOM     63  C   UNL A   1      42.470  28.716  34.295  1.00  0.00     0.049 A 
ATOM     64  H   UNL A   1      41.187  29.495  32.811  1.00  0.00     0.167 HD
ATOM     65  C   UNL A   1      43.049  27.459  32.242  1.00  0.00     0.074 A 
ATOM     66  C   UNL A   1      43.815  26.473  31.509  1.00  0.00     0.031 C 
ATOM     67  C   UNL A   1      43.226  27.737  33.558  1.00  0.00     0.037 A 
BRANCH  54  68
ATOM     68  C   UNL A   1      39.513  32.198  35.651  1.00  0.00     0.064 A 
ATOM     69  C   UNL A   1      38.523  31.781  36.554  1.00  0.00     0.173 A 
ATOM     70  C   UNL A   1      40.120  33.443  35.864  1.00  0.00     0.173 A 
ATOM     71  F   UNL A   1      37.903  30.605  36.382  1.00  0.00    -0.203 F 
ATOM     72  C   UNL A   1      38.139  32.595  37.616  1.00  0.00     0.198 A 
ATOM     73  C   UNL A   1      39.750  34.243  36.941  1.00  0.00     0.198 A 
ATOM     74  F   UNL A   1      41.072  33.884  35.028  1.00  0.00    -0.203 F 
ATOM     75  F   UNL A   1      37.158  32.200  38.440  1.00  0.00    -0.200 F 
ATOM     76  C   UNL A   1      38.756  33.823  37.811  1.00  0.00     0.200 A 
ATOM     77  F   UNL A   1      40.351  35.425  37.133  1.00  0.00    -0.200 F 
ATOM     78  F   UNL A   1      38.385  34.604  38.834  1.00  0.00    -0.200 F 
ENDBRANCH  54  68
BRANCH  55  79
ATOM     79  C   UNL A   1      42.051  26.791  27.701  1.00  0.00     0.064 A 
ATOM     80  C   UNL A   1      41.485  25.528  27.482  1.00  0.00     0.173 A 
ATOM     81  C   UNL A   1      43.021  27.239  26.793  1.00  0.00     0.173 A 
ATOM     82  F   UNL A   1      40.577  25.043  28.342  1.00  0.00    -0.203 F 
ATOM     83  C   UNL A   1      41.887  24.736  26.408  1.00  0.00     0.198 A 
ATOM     84  C   UNL A   1      43.405  26.457  25.706  1.00  0.00     0.198 A 
ATOM     85  F   UNL A   1      43.598  28.437  26.965  1.00  0.00    -0.203 F 
ATOM     86  F   UNL A   1      41.366  23.511  26.248  1.00  0.00    -0.200 F 
ATOM     87  C   UNL A   1      42.844  25.203  25.519  1.00  0.00     0.200 A 
ATOM     88  F   UNL A   1      44.327  26.912  24.848  1.00  0.00    -0.200 F 
ATOM     89  F   UNL A   1      43.234  24.439  24.489  1.00  0.00    -0.200 F 
ENDBRANCH  55  79
BRANCH  67  90
ATOM     90  C   UNL A   1      44.274  26.956  34.298  1.00  0.00     0.064 A 
ATOM     91  C   UNL A   1      43.981  25.724  34.900  1.00  0.00     0.173 A 
ATOM     92  C   UNL A   1      45.594  27.426  34.373  1.00  0.00     0.173 A 
ATOM     93  F   UNL A   1      42.730  25.236  34.868  1.00  0.00    -0.203 F 
ATOM     94  C   UNL A   1      44.966  25.002  35.570  1.00  0.00     0.198 A 
ATOM     95  C   UNL A   1      46.582  26.689  35.020  1.00  0.00     0.198 A 
ATOM     96  F   UNL A   1      45.929  28.595  33.807  1.00  0.00    -0.203 F 
ATOM     97  F   UNL A   1      44.654  23.847  36.175  1.00  0.00    -0.200 F 
ATOM     98  C   UNL A   1      46.266  25.482  35.624  1.00  0.00     0.200 A 
ATOM     99  F   UNL A   1      47.840  27.147  35.060  1.00  0.00    -0.200 F 
ATOM    100  F   UNL A   1      47.214  24.782  36.264  1.00  0.00    -0.200 F 
ENDBRANCH  67  90
ENDBRANCH  41  42
ENDBRANCH  34  36
ENDBRANCH  33  34
ENDBRANCH  32  33
ENDBRANCH  31  32
ENDBRANCH   1  31
TORSDOF 18
ENDMDL
MODEL 2
REMARK VINA RESULT:     -12.4      1.068      2.003
REMARK SMILES CC(=O)NS(=O)(=O)c1cc(-c2ccn(C(F)F)c(=O)c2)ccc1C(=O)OCCOCCOC(=O)c1ccc(-c2c3nc(c(-c4c(F)c(F)c(F)c(F)c4F)c4ccc([nH]4)c(-c4c(F)c(F)c(F)c(F)c4F)c4nc(c(-c5c(F)c(F)c(F)c(F)c5F)c5ccc2[nH]5)C=C4)C=C3)cc1
REMARK SMILES IDX 29 1 28 2 27 3 26 4 24 5 25 6 23 7 8 8 9 9 10 10 22 11 21 12
REMARK SMILES IDX 5 13 6 14 7 15 4 16 1 17 2 18 3 19 11 21 12 22 20 23 13 24
REMARK SMILES IDX 18 25 14 26 19 27 15 28 16 29 17 30 30 31 31 32 32 33 33 34
REMARK SMILES IDX 34 35 35 36 36 37 97 38 37 39 96 40 38 41 39 42 40 43 90 44
REMARK SMILES IDX 41 45 95 46 89 47 91 48 42 49 94 50 88 51 87 52 43 54 75 55
REMARK SMILES IDX 55 56 74 57 56 58 59 59 73 60 92 61 57 62 58 63 72 65 93 66
REMARK SMILES IDX 60 67 44 68 45 69 53 70 46 71 47 72 51 73 54 74 48 75 49 76
REMARK SMILES IDX 52 77 50 78 76 79 77 80 85 81 78 82 79 83 83 84 86 85 80 86
REMARK SMILES IDX 81 87 84 88 82 89 61 90 62 91 70 92 63 93 64 94 68 95 71 96
REMARK SMILES IDX 65 97 66 98 69 99 67 100
REMARK H PARENT 4 20 91 53 59 64
REMARK Flexibility Score: inf
ROOT
ATOM      1  O   UNL A   1      32.877  30.059  26.359  1.00  0.00    -0.374 OA
ENDROOT
BRANCH   1   2
ATOM      2  C   UNL A   1      32.797  28.962  27.275  1.00  0.00     0.202 C 
BRANCH   2   3
ATOM      3  C   UNL A   1      31.984  27.793  26.717  1.00  0.00     0.261 C 
BRANCH   3   4
ATOM      4  O   UNL A   1      32.751  26.574  26.755  1.00  0.00    -0.460 OA
BRANCH   4   5
ATOM      5  C   UNL A   1      33.380  26.303  25.587  1.00  0.00     0.339 C 
ATOM      6  O   UNL A   1      33.958  27.081  24.851  1.00  0.00    -0.246 OA
BRANCH   5   7
ATOM      7  C   UNL A   1      33.434  24.844  25.416  1.00  0.00     0.080 A 
ATOM      8  C   UNL A   1      32.410  24.073  24.861  1.00  0.00     0.103 A 
ATOM      9  C   UNL A   1      32.577  22.684  24.719  1.00  0.00     0.032 A 
ATOM     10  C   UNL A   1      33.745  22.057  25.163  1.00  0.00    -0.017 A 
ATOM     11  C   UNL A   1      34.609  24.215  25.854  1.00  0.00     0.018 A 
ATOM     12  C   UNL A   1      34.759  22.830  25.739  1.00  0.00     0.010 A 
BRANCH   8  13
ATOM     13  S   UNL A   1      30.917  24.761  24.227  1.00  0.00     0.264 S 
ATOM     14  O   UNL A   1      30.085  25.096  25.363  1.00  0.00    -0.201 OA
ATOM     15  O   UNL A   1      30.400  23.929  23.168  1.00  0.00    -0.201 OA
BRANCH  13  16
ATOM     16  N   UNL A   1      31.349  26.225  23.519  1.00  0.00    -0.249 N 
ATOM     17  C   UNL A   1      33.062  25.914  21.719  1.00  0.00     0.115 C 
ATOM     18  C   UNL A   1      31.697  26.348  22.163  1.00  0.00     0.230 C 
ATOM     19  O   UNL A   1      30.917  26.917  21.420  1.00  0.00    -0.274 OA
ATOM     20  H   UNL A   1      31.358  27.033  24.080  1.00  0.00     0.183 HD
ENDBRANCH  13  16
ENDBRANCH   8  13
BRANCH  10  21
ATOM     21  C   UNL A   1      33.908  20.602  25.016  1.00  0.00    -0.011 A 
ATOM     22  C   UNL A   1      35.194  19.973  24.782  1.00  0.00     0.027 A 
ATOM     23  C   UNL A   1      32.807  19.836  25.095  1.00  0.00     0.080 A 
ATOM     24  C   UNL A   1      35.279  18.647  24.626  1.00  0.00     0.095 A 
ATOM     25  C   UNL A   1      32.888  18.359  24.925  1.00  0.00     0.255 A 
ATOM     26  N   UNL A   1      34.154  17.847  24.688  1.00  0.00    -0.258 N 
ATOM     27  O   UNL A   1      31.853  17.705  24.999  1.00  0.00    -0.269 OA
BRANCH  26  28
ATOM     28  C   UNL A   1      34.250  16.426  24.476  1.00  0.00     0.451 C 
ATOM     29  F   UNL A   1      34.360  16.132  23.158  1.00  0.00    -0.185 F 
ATOM     30  F   UNL A   1      35.330  15.914  25.115  1.00  0.00    -0.185 F 
ENDBRANCH  26  28
ENDBRANCH  10  21
ENDBRANCH   5   7
ENDBRANCH   4   5
ENDBRANCH   3   4
ENDBRANCH   2   3
ENDBRANCH   1   2
BRANCH   1  31
ATOM     31  C   UNL A   1      31.709  30.877  26.290  1.00  0.00     0.202 C 
BRANCH  31  32
ATOM     32  C   UNL A   1      31.968  32.333  26.702  1.00  0.00     0.261 C 
BRANCH  32  33
ATOM     33  O   UNL A   1      32.645  32.394  27.970  1.00  0.00    -0.460 OA
BRANCH  33  34
ATOM     34  C   UNL A   1      33.592  33.355  28.082  1.00  0.00     0.338 C 
ATOM     35  O   UNL A   1      33.409  34.561  28.048  1.00  0.00    -0.246 OA
BRANCH  34  36
ATOM     36  C   UNL A   1      34.917  32.764  28.399  1.00  0.00     0.060 A 
ATOM     37  C   UNL A   1      34.922  31.459  28.901  1.00  0.00     0.016 A 
ATOM     38  C   UNL A   1      36.127  33.451  28.248  1.00  0.00     0.016 A 
ATOM     39  C   UNL A   1      36.115  30.862  29.304  1.00  0.00     0.010 A 
ATOM     40  C   UNL A   1      37.333  32.842  28.633  1.00  0.00     0.010 A 
ATOM     41  C   UNL A   1      37.326  31.562  29.210  1.00  0.00    -0.014 A 
BRANCH  41  42
ATOM     42  C   UNL A   1      38.520  30.996  29.892  1.00  0.00     0.031 A 
ATOM     43  C   UNL A   1      38.767  31.346  31.335  1.00  0.00     0.074 A 
ATOM     44  C   UNL A   1      39.310  30.090  29.285  1.00  0.00     0.049 A 
ATOM     45  N   UNL A   1      39.634  30.840  32.177  1.00  0.00    -0.248 NA
ATOM     46  C   UNL A   1      37.918  32.402  31.909  1.00  0.00     0.031 C 
ATOM     47  C   UNL A   1      39.181  29.647  27.900  1.00  0.00     0.029 A 
ATOM     48  N   UNL A   1      40.365  29.359  29.776  1.00  0.00    -0.354 N 
ATOM     49  C   UNL A   1      39.420  31.501  33.379  1.00  0.00     0.074 A 
ATOM     50  C   UNL A   1      38.383  32.482  33.146  1.00  0.00     0.031 C 
ATOM     51  C   UNL A   1      40.110  28.706  27.655  1.00  0.00     0.029 A 
ATOM     52  C   UNL A   1      40.900  28.483  28.865  1.00  0.00     0.049 A 
ATOM     53  H   UNL A   1      40.705  29.455  30.696  1.00  0.00     0.167 HD
ATOM     54  C   UNL A   1      40.011  31.294  34.580  1.00  0.00     0.037 A 
ATOM     55  C   UNL A   1      41.904  27.592  28.997  1.00  0.00     0.037 A 
ATOM     56  C   UNL A   1      41.040  30.322  34.830  1.00  0.00     0.049 A 
ATOM     57  C   UNL A   1      42.585  27.419  30.331  1.00  0.00     0.074 A 
ATOM     58  C   UNL A   1      41.676  30.025  36.022  1.00  0.00     0.029 A 
ATOM     59  N   UNL A   1      41.592  29.494  33.865  1.00  0.00    -0.354 N 
ATOM     60  N   UNL A   1      42.330  28.003  31.475  1.00  0.00    -0.248 NA
ATOM     61  C   UNL A   1      43.687  26.445  30.389  1.00  0.00     0.031 C 
ATOM     62  C   UNL A   1      42.646  29.048  35.771  1.00  0.00     0.029 A 
ATOM     63  C   UNL A   1      42.582  28.706  34.431  1.00  0.00     0.049 A 
ATOM     64  H   UNL A   1      41.321  29.469  32.920  1.00  0.00     0.167 HD
ATOM     65  C   UNL A   1      43.219  27.455  32.391  1.00  0.00     0.074 A 
ATOM     66  C   UNL A   1      44.012  26.478  31.675  1.00  0.00     0.031 C 
ATOM     67  C   UNL A   1      43.365  27.736  33.710  1.00  0.00     0.037 A 
BRANCH  54  68
ATOM     68  C   UNL A   1      39.556  32.153  35.722  1.00  0.00     0.064 A 
ATOM     69  C   UNL A   1      38.540  31.734  36.593  1.00  0.00     0.173 A 
ATOM     70  C   UNL A   1      40.158  33.397  35.958  1.00  0.00     0.173 A 
ATOM     71  F   UNL A   1      37.924  30.558  36.397  1.00  0.00    -0.203 F 
ATOM     72  C   UNL A   1      38.124  32.543  37.646  1.00  0.00     0.198 A 
ATOM     73  C   UNL A   1      39.756  34.193  37.026  1.00  0.00     0.198 A 
ATOM     74  F   UNL A   1      41.134  33.841  35.153  1.00  0.00    -0.203 F 
ATOM     75  F   UNL A   1      37.119  32.146  38.439  1.00  0.00    -0.200 F 
ATOM     76  C   UNL A   1      38.735  33.770  37.864  1.00  0.00     0.200 A 
ATOM     77  F   UNL A   1      40.351  35.374  37.242  1.00  0.00    -0.200 F 
ATOM     78  F   UNL A   1      38.334  34.548  38.879  1.00  0.00    -0.200 F 
ENDBRANCH  54  68
BRANCH  55  79
ATOM     79  C   UNL A   1      42.323  26.772  27.831  1.00  0.00     0.064 A 
ATOM     80  C   UNL A   1      43.318  27.217  26.950  1.00  0.00     0.173 A 
ATOM     81  C   UNL A   1      41.709  25.541  27.556  1.00  0.00     0.173 A 
ATOM     82  F   UNL A   1      43.911  28.402  27.154  1.00  0.00    -0.203 F 
ATOM     83  C   UNL A   1      43.672  26.470  25.828  1.00  0.00     0.198 A 
ATOM     84  C   UNL A   1      42.080  24.784  26.448  1.00  0.00     0.198 A 
ATOM     85  F   UNL A   1      40.745  25.078  28.364  1.00  0.00    -0.203 F 
ATOM     86  F   UNL A   1      44.592  26.940  24.975  1.00  0.00    -0.200 F 
ATOM     87  C   UNL A   1      43.056  25.252  25.580  1.00  0.00     0.200 A 
ATOM     88  F   UNL A   1      41.485  23.608  26.213  1.00  0.00    -0.200 F 
ATOM     89  F   UNL A   1      43.393  24.536  24.499  1.00  0.00    -0.200 F 
ENDBRANCH  55  79
BRANCH  67  90
ATOM     90  C   UNL A   1      44.406  26.967  34.473  1.00  0.00     0.064 A 
ATOM     91  C   UNL A   1      45.705  27.466  34.648  1.00  0.00     0.173 A 
ATOM     92  C   UNL A   1      44.089  25.737  35.069  1.00  0.00     0.173 A 
ATOM     93  F   UNL A   1      46.061  28.632  34.086  1.00  0.00    -0.203 F 
ATOM     94  C   UNL A   1      46.655  26.751  35.371  1.00  0.00     0.198 A 
ATOM     95  C   UNL A   1      45.034  25.037  35.815  1.00  0.00     0.198 A 
ATOM     96  F   UNL A   1      42.859  25.219  34.940  1.00  0.00    -0.203 F 
ATOM     97  F   UNL A   1      47.903  27.227  35.489  1.00  0.00    -0.200 F 
ATOM     98  C   UNL A   1      46.318  25.541  35.959  1.00  0.00     0.200 A 
ATOM     99  F   UNL A   1      44.703  23.875  36.393  1.00  0.00    -0.200 F 
ATOM    100  F   UNL A   1      47.233  24.857  36.660  1.00  0.00    -0.200 F 
ENDBRANCH  67  90
ENDBRANCH  41  42
ENDBRANCH  34  36
ENDBRANCH  33  34
ENDBRANCH  32  33
ENDBRANCH  31  32
ENDBRANCH   1  31
TORSDOF 18
ENDMDL
MODEL 3
REMARK VINA RESULT:     -12.1      4.658     10.499
REMARK SMILES CC(=O)NS(=O)(=O)c1cc(-c2ccn(C(F)F)c(=O)c2)ccc1C(=O)OCCOCCOC(=O)c1ccc(-c2c3nc(c(-c4c(F)c(F)c(F)c(F)c4F)c4ccc([nH]4)c(-c4c(F)c(F)c(F)c(F)c4F)c4nc(c(-c5c(F)c(F)c(F)c(F)c5F)c5ccc2[nH]5)C=C4)C=C3)cc1
REMARK SMILES IDX 29 1 28 2 27 3 26 4 24 5 25 6 23 7 8 8 9 9 10 10 22 11 21 12
REMARK SMILES IDX 5 13 6 14 7 15 4 16 1 17 2 18 3 19 11 21 12 22 20 23 13 24
REMARK SMILES IDX 18 25 14 26 19 27 15 28 16 29 17 30 30 31 31 32 32 33 33 34
REMARK SMILES IDX 34 35 35 36 36 37 97 38 37 39 96 40 38 41 39 42 40 43 90 44
REMARK SMILES IDX 41 45 95 46 89 47 91 48 42 49 94 50 88 51 87 52 43 54 75 55
REMARK SMILES IDX 55 56 74 57 56 58 59 59 73 60 92 61 57 62 58 63 72 65 93 66
REMARK SMILES IDX 60 67 44 68 45 69 53 70 46 71 47 72 51 73 54 74 48 75 49 76
REMARK SMILES IDX 52 77 50 78 76 79 77 80 85 81 78 82 79 83 83 84 86 85 80 86
REMARK SMILES IDX 81 87 84 88 82 89 61 90 62 91 70 92 63 93 64 94 68 95 71 96
REMARK SMILES IDX 65 97 66 98 69 99 67 100
REMARK H PARENT 4 20 91 53 59 64
REMARK Flexibility Score: inf
ROOT
ATOM      1  O   UNL A   1      35.005  22.430  24.409  1.00  0.00    -0.374 OA
ENDROOT
BRANCH   1   2
ATOM      2  C   UNL A   1      33.687  22.594  23.876  1.00  0.00     0.202 C 
BRANCH   2   3
ATOM      3  C   UNL A   1      32.794  23.445  24.778  1.00  0.00     0.261 C 
BRANCH   3   4
ATOM      4  O   UNL A   1      32.566  24.743  24.194  1.00  0.00    -0.460 OA
BRANCH   4   5
ATOM      5  C   UNL A   1      31.456  25.355  24.670  1.00  0.00     0.339 C 
ATOM      6  O   UNL A   1      30.351  24.873  24.840  1.00  0.00    -0.246 OA
BRANCH   5   7
ATOM      7  C   UNL A   1      31.832  26.692  25.150  1.00  0.00     0.080 A 
ATOM      8  C   UNL A   1      31.457  27.889  24.537  1.00  0.00     0.103 A 
ATOM      9  C   UNL A   1      31.851  29.117  25.097  1.00  0.00     0.032 A 
ATOM     10  C   UNL A   1      32.648  29.154  26.245  1.00  0.00    -0.017 A 
ATOM     11  C   UNL A   1      32.625  26.730  26.307  1.00  0.00     0.018 A 
ATOM     12  C   UNL A   1      33.039  27.953  26.844  1.00  0.00     0.010 A 
BRANCH   8  13
ATOM     13  S   UNL A   1      30.418  27.963  23.115  1.00  0.00     0.264 S 
ATOM     14  O   UNL A   1      29.093  27.560  23.534  1.00  0.00    -0.201 OA
ATOM     15  O   UNL A   1      31.058  27.309  22.000  1.00  0.00    -0.201 OA
BRANCH  13  16
ATOM     16  N   UNL A   1      30.304  29.593  22.714  1.00  0.00    -0.249 N 
ATOM     17  C   UNL A   1      28.072  30.151  21.726  1.00  0.00     0.115 C 
ATOM     18  C   UNL A   1      29.105  30.322  22.798  1.00  0.00     0.230 C 
ATOM     19  O   UNL A   1      29.004  31.158  23.679  1.00  0.00    -0.274 OA
ATOM     20  H   UNL A   1      31.115  30.058  22.407  1.00  0.00     0.183 HD
ENDBRANCH  13  16
ENDBRANCH   8  13
BRANCH  10  21
ATOM     21  C   UNL A   1      33.060  30.444  26.821  1.00  0.00    -0.011 A 
ATOM     22  C   UNL A   1      34.333  30.639  27.487  1.00  0.00     0.027 A 
ATOM     23  C   UNL A   1      32.204  31.476  26.725  1.00  0.00     0.080 A 
ATOM     24  C   UNL A   1      34.643  31.826  28.019  1.00  0.00     0.095 A 
ATOM     25  C   UNL A   1      32.537  32.804  27.311  1.00  0.00     0.255 A 
ATOM     26  N   UNL A   1      33.767  32.893  27.944  1.00  0.00    -0.258 N 
ATOM     27  O   UNL A   1      31.719  33.711  27.204  1.00  0.00    -0.269 OA
BRANCH  26  28
ATOM     28  C   UNL A   1      34.091  34.156  28.557  1.00  0.00     0.451 C 
ATOM     29  F   UNL A   1      33.640  34.212  29.833  1.00  0.00    -0.185 F 
ATOM     30  F   UNL A   1      35.431  34.355  28.572  1.00  0.00    -0.185 F 
ENDBRANCH  26  28
ENDBRANCH  10  21
ENDBRANCH   5   7
ENDBRANCH   4   5
ENDBRANCH   3   4
ENDBRANCH   2   3
ENDBRANCH   1   2
BRANCH   1  31
ATOM     31  C   UNL A   1      35.297  21.126  24.912  1.00  0.00     0.202 C 
BRANCH  31  32
ATOM     32  C   UNL A   1      36.800  20.815  24.943  1.00  0.00     0.261 C 
BRANCH  32  33
ATOM     33  O   UNL A   1      37.537  21.904  25.530  1.00  0.00    -0.460 OA
BRANCH  33  34
ATOM     34  C   UNL A   1      38.789  21.606  25.947  1.00  0.00     0.338 C 
ATOM     35  O   UNL A   1      39.433  20.611  25.656  1.00  0.00    -0.246 OA
BRANCH  34  36
ATOM     36  C   UNL A   1      39.377  22.730  26.719  1.00  0.00     0.060 A 
ATOM     37  C   UNL A   1      38.841  24.001  26.489  1.00  0.00     0.016 A 
ATOM     38  C   UNL A   1      40.434  22.578  27.624  1.00  0.00     0.016 A 
ATOM     39  C   UNL A   1      39.392  25.122  27.109  1.00  0.00     0.010 A 
ATOM     40  C   UNL A   1      40.975  23.704  28.266  1.00  0.00     0.010 A 
ATOM     41  C   UNL A   1      40.488  24.988  27.973  1.00  0.00    -0.014 A 
BRANCH  41  42
ATOM     42  C   UNL A   1      41.205  26.221  28.396  1.00  0.00     0.031 A 
ATOM     43  C   UNL A   1      42.597  26.467  27.877  1.00  0.00     0.074 A 
ATOM     44  C   UNL A   1      40.593  27.170  29.128  1.00  0.00     0.049 A 
ATOM     45  N   UNL A   1      43.340  27.542  27.968  1.00  0.00    -0.248 NA
ATOM     46  C   UNL A   1      43.234  25.354  27.155  1.00  0.00     0.031 C 
ATOM     47  C   UNL A   1      39.246  27.074  29.684  1.00  0.00     0.029 A 
ATOM     48  N   UNL A   1      41.025  28.419  29.505  1.00  0.00    -0.354 N 
ATOM     49  C   UNL A   1      44.518  27.241  27.297  1.00  0.00     0.074 A 
ATOM     50  C   UNL A   1      44.417  25.868  26.855  1.00  0.00     0.031 C 
ATOM     51  C   UNL A   1      38.953  28.224  30.316  1.00  0.00     0.029 A 
ATOM     52  C   UNL A   1      40.092  29.135  30.212  1.00  0.00     0.049 A 
ATOM     53  H   UNL A   1      41.920  28.768  29.287  1.00  0.00     0.167 HD
ATOM     54  C   UNL A   1      45.582  28.042  27.046  1.00  0.00     0.037 A 
ATOM     55  C   UNL A   1      40.146  30.389  30.708  1.00  0.00     0.037 A 
ATOM     56  C   UNL A   1      45.697  29.408  27.475  1.00  0.00     0.049 A 
ATOM     57  C   UNL A   1      41.364  31.242  30.462  1.00  0.00     0.074 A 
ATOM     58  C   UNL A   1      46.726  30.303  27.240  1.00  0.00     0.029 A 
ATOM     59  N   UNL A   1      44.752  30.077  28.238  1.00  0.00    -0.354 N 
ATOM     60  N   UNL A   1      42.443  30.969  29.773  1.00  0.00    -0.248 NA
ATOM     61  C   UNL A   1      41.358  32.589  31.055  1.00  0.00     0.031 C 
ATOM     62  C   UNL A   1      46.426  31.500  27.900  1.00  0.00     0.029 A 
ATOM     63  C   UNL A   1      45.189  31.365  28.508  1.00  0.00     0.049 A 
ATOM     64  H   UNL A   1      43.898  29.695  28.543  1.00  0.00     0.167 HD
ATOM     65  C   UNL A   1      43.232  32.112  29.828  1.00  0.00     0.074 A 
ATOM     66  C   UNL A   1      42.501  33.090  30.606  1.00  0.00     0.031 C 
ATOM     67  C   UNL A   1      44.454  32.331  29.282  1.00  0.00     0.037 A 
BRANCH  54  68
ATOM     68  C   UNL A   1      46.717  27.445  26.269  1.00  0.00     0.064 A 
ATOM     69  C   UNL A   1      47.659  26.604  26.881  1.00  0.00     0.173 A 
ATOM     70  C   UNL A   1      46.850  27.700  24.898  1.00  0.00     0.173 A 
ATOM     71  F   UNL A   1      47.582  26.344  28.194  1.00  0.00    -0.203 F 
ATOM     72  C   UNL A   1      48.711  26.060  26.149  1.00  0.00     0.198 A 
ATOM     73  C   UNL A   1      47.889  27.135  24.164  1.00  0.00     0.198 A 
ATOM     74  F   UNL A   1      45.973  28.497  24.269  1.00  0.00    -0.203 F 
ATOM     75  F   UNL A   1      49.628  25.299  26.760  1.00  0.00    -0.200 F 
ATOM     76  C   UNL A   1      48.822  26.323  24.791  1.00  0.00     0.200 A 
ATOM     77  F   UNL A   1      47.992  27.382  22.851  1.00  0.00    -0.200 F 
ATOM     78  F   UNL A   1      49.835  25.798  24.087  1.00  0.00    -0.200 F 
ENDBRANCH  54  68
BRANCH  55  79
ATOM     79  C   UNL A   1      38.997  30.929  31.480  1.00  0.00     0.064 A 
ATOM     80  C   UNL A   1      38.925  30.786  32.872  1.00  0.00     0.173 A 
ATOM     81  C   UNL A   1      37.930  31.569  30.832  1.00  0.00     0.173 A 
ATOM     82  F   UNL A   1      39.907  30.152  33.531  1.00  0.00    -0.203 F 
ATOM     83  C   UNL A   1      37.822  31.247  33.587  1.00  0.00     0.198 A 
ATOM     84  C   UNL A   1      36.838  32.051  31.550  1.00  0.00     0.198 A 
ATOM     85  F   UNL A   1      37.948  31.721  29.500  1.00  0.00    -0.203 F 
ATOM     86  F   UNL A   1      37.755  31.055  34.911  1.00  0.00    -0.200 F 
ATOM     87  C   UNL A   1      36.781  31.883  32.926  1.00  0.00     0.200 A 
ATOM     88  F   UNL A   1      35.837  32.666  30.909  1.00  0.00    -0.200 F 
ATOM     89  F   UNL A   1      35.717  32.323  33.612  1.00  0.00    -0.200 F 
ENDBRANCH  55  79
BRANCH  67  90
ATOM     90  C   UNL A   1      45.074  33.684  29.487  1.00  0.00     0.064 A 
ATOM     91  C   UNL A   1      46.010  33.915  30.505  1.00  0.00     0.173 A 
ATOM     92  C   UNL A   1      44.759  34.749  28.630  1.00  0.00     0.173 A 
ATOM     93  F   UNL A   1      46.336  32.931  31.359  1.00  0.00    -0.203 F 
ATOM     94  C   UNL A   1      46.589  35.170  30.674  1.00  0.00     0.198 A 
ATOM     95  C   UNL A   1      45.360  35.996  28.785  1.00  0.00     0.198 A 
ATOM     96  F   UNL A   1      43.876  34.580  27.635  1.00  0.00    -0.203 F 
ATOM     97  F   UNL A   1      47.449  35.380  31.681  1.00  0.00    -0.200 F 
ATOM     98  C   UNL A   1      46.269  36.207  29.811  1.00  0.00     0.200 A 
ATOM     99  F   UNL A   1      45.060  36.993  27.942  1.00  0.00    -0.200 F 
ATOM    100  F   UNL A   1      46.832  37.412  29.971  1.00  0.00    -0.200 F 
ENDBRANCH  67  90
ENDBRANCH  41  42
ENDBRANCH  34  36
ENDBRANCH  33  34
ENDBRANCH  32  33
ENDBRANCH  31  32
ENDBRANCH   1  31
TORSDOF 18
ENDMDL
