MODEL 1
REMARK VINA RESULT:     -11.8      0.000      0.000
REMARK SMILES C[C@@H](Sc1nc(-c2ccc3c(c2)OCO3)ccc1C#N)C(=O)OCCOCCOC(=O)c1ccc(-c2c3nc(c(-c4c(F)c(F)c(F)c(F)c4F)c4ccc([nH]4)c(-c4c(F)c(F)c(F)c(F)c4F)c4nc(c(-c5c(F)c(F)c(F)c(F)c5F)c5ccc2[nH]5)C=C4)C=C3)cc1
REMARK SMILES IDX 25 1 24 2 23 3 21 4 22 5 2 6 1 7 3 8 4 9 5 10 18 11 6 12
REMARK SMILES IDX 17 13 16 14 19 15 20 16 7 17 8 18 12 19 9 20 11 21 10 22
REMARK SMILES IDX 13 23 15 24 14 25 26 26 27 27 28 28 29 29 30 30 31 31 32 32
REMARK SMILES IDX 33 33 94 34 34 35 93 36 35 37 36 38 37 39 87 40 38 41 92 42
REMARK SMILES IDX 86 43 88 44 39 45 91 46 85 47 84 48 40 50 72 51 52 52 71 53
REMARK SMILES IDX 53 54 56 55 70 56 89 57 54 58 55 59 69 61 90 62 57 63 41 64
REMARK SMILES IDX 42 65 50 66 43 67 44 68 48 69 51 70 45 71 46 72 49 73 47 74
REMARK SMILES IDX 73 75 74 76 82 77 75 78 76 79 80 80 83 81 77 82 78 83 81 84
REMARK SMILES IDX 79 85 58 86 59 87 67 88 60 89 61 90 65 91 68 92 62 93 63 94
REMARK SMILES IDX 66 95 64 96
REMARK H PARENT 88 49 56 60
REMARK Flexibility Score: inf
ROOT
ATOM      1  C   UNL A   1      41.023  20.467  26.804  1.00  0.00     0.202 C 
ENDROOT
BRANCH   1   2
ATOM      2  C   UNL A   1      39.932  21.542  26.817  1.00  0.00     0.261 C 
BRANCH   2   3
ATOM      3  O   UNL A   1      39.191  21.585  25.588  1.00  0.00    -0.462 OA
BRANCH   3   4
ATOM      4  C   UNL A   1      38.019  22.282  25.627  1.00  0.00     0.319 C 
ATOM      5  O   UNL A   1      37.898  23.419  26.069  1.00  0.00    -0.251 OA
BRANCH   4   6
ATOM      6  C   UNL A   1      36.850  21.492  25.052  1.00  0.00     0.160 C 
ATOM      7  C   UNL A   1      37.187  20.034  24.747  1.00  0.00     0.032 C 
BRANCH   6   8
ATOM      8  S   UNL A   1      35.464  21.644  26.233  1.00  0.00    -0.090 SA
BRANCH   8   9
ATOM      9  C   UNL A   1      34.140  21.967  25.084  1.00  0.00     0.115 A 
ATOM     10  N   UNL A   1      33.848  23.281  24.905  1.00  0.00    -0.240 NA
ATOM     11  C   UNL A   1      33.507  20.955  24.369  1.00  0.00     0.084 A 
ATOM     12  C   UNL A   1      32.915  23.625  23.987  1.00  0.00     0.072 A 
ATOM     13  C   UNL A   1      32.578  21.323  23.394  1.00  0.00     0.024 A 
ATOM     14  C   UNL A   1      32.285  22.671  23.195  1.00  0.00     0.030 A 
BRANCH  11  15
ATOM     15  C   UNL A   1      33.753  19.565  24.613  1.00  0.00     0.102 C 
ATOM     16  N   UNL A   1      33.910  18.431  24.784  1.00  0.00    -0.192 NA
ENDBRANCH  11  15
BRANCH  12  17
ATOM     17  C   UNL A   1      32.609  25.059  23.876  1.00  0.00     0.004 A 
ATOM     18  C   UNL A   1      33.112  25.985  24.829  1.00  0.00     0.014 A 
ATOM     19  C   UNL A   1      31.798  25.547  22.833  1.00  0.00     0.061 A 
ATOM     20  C   UNL A   1      32.792  27.345  24.773  1.00  0.00     0.051 A 
ATOM     21  C   UNL A   1      31.485  26.891  22.811  1.00  0.00     0.166 A 
ATOM     22  C   UNL A   1      31.964  27.764  23.759  1.00  0.00     0.165 A 
ATOM     23  O   UNL A   1      30.680  27.508  21.904  1.00  0.00    -0.454 OA
ATOM     24  O   UNL A   1      31.523  29.036  23.568  1.00  0.00    -0.454 OA
ATOM     25  C   UNL A   1      30.662  28.854  22.424  1.00  0.00     0.468 C 
ENDBRANCH  12  17
ENDBRANCH   8   9
ENDBRANCH   6   8
ENDBRANCH   4   6
ENDBRANCH   3   4
ENDBRANCH   2   3
ENDBRANCH   1   2
BRANCH   1  26
ATOM     26  O   UNL A   1      41.768  20.262  25.608  1.00  0.00    -0.374 OA
BRANCH  26  27
ATOM     27  C   UNL A   1      43.189  20.237  25.686  1.00  0.00     0.202 C 
BRANCH  27  28
ATOM     28  C   UNL A   1      43.973  21.500  25.295  1.00  0.00     0.261 C 
BRANCH  28  29
ATOM     29  O   UNL A   1      43.139  22.624  24.965  1.00  0.00    -0.460 OA
BRANCH  29  30
ATOM     30  C   UNL A   1      43.781  23.817  25.008  1.00  0.00     0.338 C 
ATOM     31  O   UNL A   1      44.744  24.164  24.344  1.00  0.00    -0.246 OA
BRANCH  30  32
ATOM     32  C   UNL A   1      43.046  24.777  25.853  1.00  0.00     0.060 A 
ATOM     33  C   UNL A   1      43.607  26.051  26.010  1.00  0.00     0.016 A 
ATOM     34  C   UNL A   1      41.915  24.405  26.579  1.00  0.00     0.016 A 
ATOM     35  C   UNL A   1      43.078  26.936  26.942  1.00  0.00     0.010 A 
ATOM     36  C   UNL A   1      41.384  25.297  27.518  1.00  0.00     0.010 A 
ATOM     37  C   UNL A   1      41.990  26.550  27.736  1.00  0.00    -0.014 A 
BRANCH  37  38
ATOM     38  C   UNL A   1      41.585  27.412  28.875  1.00  0.00     0.031 A 
ATOM     39  C   UNL A   1      42.393  27.389  30.146  1.00  0.00     0.074 A 
ATOM     40  C   UNL A   1      40.547  28.258  28.753  1.00  0.00     0.049 A 
ATOM     41  N   UNL A   1      42.211  28.055  31.259  1.00  0.00    -0.248 NA
ATOM     42  C   UNL A   1      43.559  26.494  30.167  1.00  0.00     0.031 C 
ATOM     43  C   UNL A   1      39.713  28.401  27.561  1.00  0.00     0.029 A 
ATOM     44  N   UNL A   1      40.016  29.157  29.644  1.00  0.00    -0.354 N 
ATOM     45  C   UNL A   1      43.239  27.661  32.108  1.00  0.00     0.074 A 
ATOM     46  C   UNL A   1      44.009  26.661  31.402  1.00  0.00     0.031 C 
ATOM     47  C   UNL A   1      38.774  29.332  27.794  1.00  0.00     0.029 A 
ATOM     48  C   UNL A   1      38.913  29.818  29.165  1.00  0.00     0.049 A 
ATOM     49  H   UNL A   1      40.391  29.312  30.542  1.00  0.00     0.167 HD
ATOM     50  C   UNL A   1      43.525  28.106  33.356  1.00  0.00     0.037 A 
ATOM     51  C   UNL A   1      38.092  30.697  29.774  1.00  0.00     0.037 A 
ATOM     52  C   UNL A   1      42.749  29.097  34.059  1.00  0.00     0.049 A 
ATOM     53  C   UNL A   1      38.379  31.106  31.196  1.00  0.00     0.074 A 
ATOM     54  C   UNL A   1      42.953  29.614  35.326  1.00  0.00     0.029 A 
ATOM     55  N   UNL A   1      41.613  29.716  33.556  1.00  0.00    -0.354 N 
ATOM     56  N   UNL A   1      39.365  30.745  31.984  1.00  0.00    -0.248 NA
ATOM     57  C   UNL A   1      37.440  32.054  31.813  1.00  0.00     0.031 C 
ATOM     58  C   UNL A   1      41.906  30.495  35.616  1.00  0.00     0.029 A 
ATOM     59  C   UNL A   1      41.092  30.589  34.499  1.00  0.00     0.049 A 
ATOM     60  H   UNL A   1      41.233  29.558  32.661  1.00  0.00     0.167 HD
ATOM     61  C   UNL A   1      39.186  31.449  33.168  1.00  0.00     0.074 A 
ATOM     62  C   UNL A   1      38.010  32.274  32.988  1.00  0.00     0.031 C 
ATOM     63  C   UNL A   1      39.926  31.415  34.305  1.00  0.00     0.037 A 
BRANCH  50  64
ATOM     64  C   UNL A   1      44.717  27.514  34.053  1.00  0.00     0.064 A 
ATOM     65  C   UNL A   1      44.617  26.346  34.826  1.00  0.00     0.173 A 
ATOM     66  C   UNL A   1      45.987  28.096  33.912  1.00  0.00     0.173 A 
ATOM     67  F   UNL A   1      43.427  25.753  35.003  1.00  0.00    -0.203 F 
ATOM     68  C   UNL A   1      45.735  25.803  35.456  1.00  0.00     0.198 A 
ATOM     69  C   UNL A   1      47.109  27.528  34.512  1.00  0.00     0.198 A 
ATOM     70  F   UNL A   1      46.145  29.208  33.179  1.00  0.00    -0.203 F 
ATOM     71  F   UNL A   1      45.604  24.718  36.231  1.00  0.00    -0.200 F 
ATOM     72  C   UNL A   1      46.981  26.389  35.290  1.00  0.00     0.200 A 
ATOM     73  F   UNL A   1      48.315  28.085  34.334  1.00  0.00    -0.200 F 
ATOM     74  F   UNL A   1      48.058  25.857  35.885  1.00  0.00    -0.200 F 
ENDBRANCH  50  64
BRANCH  51  75
ATOM     75  C   UNL A   1      36.903  31.232  29.056  1.00  0.00     0.064 A 
ATOM     76  C   UNL A   1      36.856  32.564  28.618  1.00  0.00     0.173 A 
ATOM     77  C   UNL A   1      35.768  30.436  28.837  1.00  0.00     0.173 A 
ATOM     78  F   UNL A   1      37.904  33.374  28.822  1.00  0.00    -0.203 F 
ATOM     79  C   UNL A   1      35.707  33.087  28.027  1.00  0.00     0.198 A 
ATOM     80  C   UNL A   1      34.636  30.949  28.209  1.00  0.00     0.198 A 
ATOM     81  F   UNL A   1      35.759  29.155  29.235  1.00  0.00    -0.203 F 
ATOM     82  F   UNL A   1      35.663  34.382  27.686  1.00  0.00    -0.200 F 
ATOM     83  C   UNL A   1      34.600  32.278  27.818  1.00  0.00     0.200 A 
ATOM     84  F   UNL A   1      33.577  30.158  27.994  1.00  0.00    -0.200 F 
ATOM     85  F   UNL A   1      33.495  32.783  27.255  1.00  0.00    -0.200 F 
ENDBRANCH  51  75
BRANCH  63  86
ATOM     86  C   UNL A   1      39.520  32.337  35.422  1.00  0.00     0.064 A 
ATOM     87  C   UNL A   1      40.016  33.646  35.524  1.00  0.00     0.173 A 
ATOM     88  C   UNL A   1      38.605  31.909  36.397  1.00  0.00     0.173 A 
ATOM     89  F   UNL A   1      40.901  34.106  34.627  1.00  0.00    -0.203 F 
ATOM     90  C   UNL A   1      39.648  34.472  36.584  1.00  0.00     0.198 A 
ATOM     91  C   UNL A   1      38.206  32.753  37.430  1.00  0.00     0.198 A 
ATOM     92  F   UNL A   1      38.088  30.672  36.345  1.00  0.00    -0.203 F 
ATOM     93  F   UNL A   1      40.192  35.692  36.700  1.00  0.00    -0.200 F 
ATOM     94  C   UNL A   1      38.739  34.028  37.532  1.00  0.00     0.200 A 
ATOM     95  F   UNL A   1      37.310  32.327  38.332  1.00  0.00    -0.200 F 
ATOM     96  F   UNL A   1      38.383  34.825  38.549  1.00  0.00    -0.200 F 
ENDBRANCH  63  86
ENDBRANCH  37  38
ENDBRANCH  30  32
ENDBRANCH  29  30
ENDBRANCH  28  29
ENDBRANCH  27  28
ENDBRANCH  26  27
ENDBRANCH   1  26
TORSDOF 18
ENDMDL
MODEL 2
REMARK VINA RESULT:     -11.5      4.119      9.319
REMARK SMILES C[C@@H](Sc1nc(-c2ccc3c(c2)OCO3)ccc1C#N)C(=O)OCCOCCOC(=O)c1ccc(-c2c3nc(c(-c4c(F)c(F)c(F)c(F)c4F)c4ccc([nH]4)c(-c4c(F)c(F)c(F)c(F)c4F)c4nc(c(-c5c(F)c(F)c(F)c(F)c5F)c5ccc2[nH]5)C=C4)C=C3)cc1
REMARK SMILES IDX 25 1 24 2 23 3 21 4 22 5 2 6 1 7 3 8 4 9 5 10 18 11 6 12
REMARK SMILES IDX 17 13 16 14 19 15 20 16 7 17 8 18 12 19 9 20 11 21 10 22
REMARK SMILES IDX 13 23 15 24 14 25 26 26 27 27 28 28 29 29 30 30 31 31 32 32
REMARK SMILES IDX 33 33 94 34 34 35 93 36 35 37 36 38 37 39 87 40 38 41 92 42
REMARK SMILES IDX 86 43 88 44 39 45 91 46 85 47 84 48 40 50 72 51 52 52 71 53
REMARK SMILES IDX 53 54 56 55 70 56 89 57 54 58 55 59 69 61 90 62 57 63 41 64
REMARK SMILES IDX 42 65 50 66 43 67 44 68 48 69 51 70 45 71 46 72 49 73 47 74
REMARK SMILES IDX 73 75 74 76 82 77 75 78 76 79 80 80 83 81 77 82 78 83 81 84
REMARK SMILES IDX 79 85 58 86 59 87 67 88 60 89 61 90 65 91 68 92 62 93 63 94
REMARK SMILES IDX 66 95 64 96
REMARK H PARENT 88 49 56 60
REMARK Flexibility Score: inf
ROOT
ATOM      1  C   UNL A   1      35.525  33.118  28.835  1.00  0.00     0.202 C 
ENDROOT
BRANCH   1   2
ATOM      2  C   UNL A   1      35.661  31.847  27.994  1.00  0.00     0.261 C 
BRANCH   2   3
ATOM      3  O   UNL A   1      34.395  31.223  27.732  1.00  0.00    -0.462 OA
BRANCH   3   4
ATOM      4  C   UNL A   1      34.435  29.885  27.470  1.00  0.00     0.319 C 
ATOM      5  O   UNL A   1      35.410  29.167  27.660  1.00  0.00    -0.251 OA
BRANCH   4   6
ATOM      6  C   UNL A   1      33.120  29.360  26.909  1.00  0.00     0.160 C 
ATOM      7  C   UNL A   1      32.119  30.460  26.560  1.00  0.00     0.032 C 
BRANCH   6   8
ATOM      8  S   UNL A   1      33.529  28.319  25.463  1.00  0.00    -0.090 SA
BRANCH   8   9
ATOM      9  C   UNL A   1      31.883  28.034  24.839  1.00  0.00     0.115 A 
ATOM     10  N   UNL A   1      31.307  29.108  24.242  1.00  0.00    -0.240 NA
ATOM     11  C   UNL A   1      31.270  26.786  24.891  1.00  0.00     0.084 A 
ATOM     12  C   UNL A   1      30.092  28.961  23.662  1.00  0.00     0.072 A 
ATOM     13  C   UNL A   1      30.037  26.635  24.253  1.00  0.00     0.024 A 
ATOM     14  C   UNL A   1      29.447  27.729  23.625  1.00  0.00     0.030 A 
BRANCH  11  15
ATOM     15  C   UNL A   1      31.838  25.673  25.590  1.00  0.00     0.102 C 
ATOM     16  N   UNL A   1      32.268  24.742  26.128  1.00  0.00    -0.192 NA
ENDBRANCH  11  15
BRANCH  12  17
ATOM     17  C   UNL A   1      29.499  30.173  23.077  1.00  0.00     0.004 A 
ATOM     18  C   UNL A   1      29.257  31.322  23.876  1.00  0.00     0.014 A 
ATOM     19  C   UNL A   1      29.143  30.218  21.715  1.00  0.00     0.061 A 
ATOM     20  C   UNL A   1      28.647  32.467  23.353  1.00  0.00     0.051 A 
ATOM     21  C   UNL A   1      28.528  31.355  21.229  1.00  0.00     0.166 A 
ATOM     22  C   UNL A   1      28.282  32.446  22.028  1.00  0.00     0.165 A 
ATOM     23  O   UNL A   1      28.083  31.538  19.957  1.00  0.00    -0.454 OA
ATOM     24  O   UNL A   1      27.653  33.449  21.362  1.00  0.00    -0.454 OA
ATOM     25  C   UNL A   1      27.477  32.844  20.064  1.00  0.00     0.468 C 
ENDBRANCH  12  17
ENDBRANCH   8   9
ENDBRANCH   6   8
ENDBRANCH   4   6
ENDBRANCH   3   4
ENDBRANCH   2   3
ENDBRANCH   1   2
BRANCH   1  26
ATOM     26  O   UNL A   1      34.231  33.685  29.014  1.00  0.00    -0.374 OA
BRANCH  26  27
ATOM     27  C   UNL A   1      34.074  35.090  28.848  1.00  0.00     0.202 C 
BRANCH  27  28
ATOM     28  C   UNL A   1      32.883  35.786  29.528  1.00  0.00     0.261 C 
BRANCH  28  29
ATOM     29  O   UNL A   1      33.195  36.351  30.812  1.00  0.00    -0.460 OA
BRANCH  29  30
ATOM     30  C   UNL A   1      32.770  35.604  31.861  1.00  0.00     0.338 C 
ATOM     31  O   UNL A   1      31.618  35.326  32.153  1.00  0.00    -0.246 OA
BRANCH  30  32
ATOM     32  C   UNL A   1      33.910  34.971  32.549  1.00  0.00     0.060 A 
ATOM     33  C   UNL A   1      35.155  35.603  32.437  1.00  0.00     0.016 A 
ATOM     34  C   UNL A   1      33.798  33.728  33.172  1.00  0.00     0.016 A 
ATOM     35  C   UNL A   1      36.305  34.964  32.890  1.00  0.00     0.010 A 
ATOM     36  C   UNL A   1      34.956  33.087  33.627  1.00  0.00     0.010 A 
ATOM     37  C   UNL A   1      36.220  33.681  33.448  1.00  0.00    -0.014 A 
BRANCH  37  38
ATOM     38  C   UNL A   1      37.471  32.927  33.714  1.00  0.00     0.031 A 
ATOM     39  C   UNL A   1      38.232  33.180  34.989  1.00  0.00     0.074 A 
ATOM     40  C   UNL A   1      37.888  31.977  32.859  1.00  0.00     0.049 A 
ATOM     41  N   UNL A   1      39.346  32.638  35.414  1.00  0.00    -0.248 NA
ATOM     42  C   UNL A   1      37.663  34.179  35.906  1.00  0.00     0.031 C 
ATOM     43  C   UNL A   1      37.216  31.612  31.613  1.00  0.00     0.029 A 
ATOM     44  N   UNL A   1      38.979  31.145  32.909  1.00  0.00    -0.354 N 
ATOM     45  C   UNL A   1      39.608  33.228  36.645  1.00  0.00     0.074 A 
ATOM     46  C   UNL A   1      38.567  34.205  36.875  1.00  0.00     0.031 C 
ATOM     47  C   UNL A   1      37.910  30.630  31.014  1.00  0.00     0.029 A 
ATOM     48  C   UNL A   1      39.096  30.328  31.812  1.00  0.00     0.049 A 
ATOM     49  H   UNL A   1      39.616  31.135  33.660  1.00  0.00     0.167 HD
ATOM     50  C   UNL A   1      40.616  32.965  37.513  1.00  0.00     0.037 A 
ATOM     51  C   UNL A   1      40.065  29.454  31.478  1.00  0.00     0.037 A 
ATOM     52  C   UNL A   1      41.656  31.996  37.276  1.00  0.00     0.049 A 
ATOM     53  C   UNL A   1      41.225  29.248  32.419  1.00  0.00     0.074 A 
ATOM     54  C   UNL A   1      42.722  31.657  38.090  1.00  0.00     0.029 A 
ATOM     55  N   UNL A   1      41.765  31.215  36.134  1.00  0.00    -0.354 N 
ATOM     56  N   UNL A   1      41.454  29.793  33.590  1.00  0.00    -0.248 NA
ATOM     57  C   UNL A   1      42.260  28.294  31.993  1.00  0.00     0.031 C 
ATOM     58  C   UNL A   1      43.512  30.721  37.414  1.00  0.00     0.029 A 
ATOM     59  C   UNL A   1      42.895  30.415  36.211  1.00  0.00     0.049 A 
ATOM     60  H   UNL A   1      41.132  31.227  35.379  1.00  0.00     0.167 HD
ATOM     61  C   UNL A   1      42.633  29.223  34.054  1.00  0.00     0.074 A 
ATOM     62  C   UNL A   1      43.059  28.273  33.049  1.00  0.00     0.031 C 
ATOM     63  C   UNL A   1      43.305  29.464  35.208  1.00  0.00     0.037 A 
BRANCH  50  64
ATOM     64  C   UNL A   1      40.656  33.749  38.795  1.00  0.00     0.064 A 
ATOM     65  C   UNL A   1      41.475  34.879  38.945  1.00  0.00     0.173 A 
ATOM     66  C   UNL A   1      39.832  33.392  39.875  1.00  0.00     0.173 A 
ATOM     67  F   UNL A   1      42.289  35.261  37.949  1.00  0.00    -0.203 F 
ATOM     68  C   UNL A   1      41.490  35.602  40.136  1.00  0.00     0.198 A 
ATOM     69  C   UNL A   1      39.823  34.139  41.050  1.00  0.00     0.198 A 
ATOM     70  F   UNL A   1      39.024  32.326  39.786  1.00  0.00    -0.203 F 
ATOM     71  F   UNL A   1      42.320  36.646  40.273  1.00  0.00    -0.200 F 
ATOM     72  C   UNL A   1      40.658  35.238  41.184  1.00  0.00     0.200 A 
ATOM     73  F   UNL A   1      39.004  33.796  42.054  1.00  0.00    -0.200 F 
ATOM     74  F   UNL A   1      40.665  35.942  42.324  1.00  0.00    -0.200 F 
ENDBRANCH  50  64
BRANCH  51  75
ATOM     75  C   UNL A   1      40.002  28.724  30.182  1.00  0.00     0.064 A 
ATOM     76  C   UNL A   1      39.400  27.461  30.086  1.00  0.00     0.173 A 
ATOM     77  C   UNL A   1      40.587  29.254  29.022  1.00  0.00     0.173 A 
ATOM     78  F   UNL A   1      38.846  26.899  31.170  1.00  0.00    -0.203 F 
ATOM     79  C   UNL A   1      39.421  26.741  28.893  1.00  0.00     0.198 A 
ATOM     80  C   UNL A   1      40.571  28.552  27.819  1.00  0.00     0.198 A 
ATOM     81  F   UNL A   1      41.176  30.459  29.056  1.00  0.00    -0.203 F 
ATOM     82  F   UNL A   1      38.905  25.506  28.849  1.00  0.00    -0.200 F 
ATOM     83  C   UNL A   1      40.002  27.290  27.759  1.00  0.00     0.200 A 
ATOM     84  F   UNL A   1      41.118  29.094  26.723  1.00  0.00    -0.200 F 
ATOM     85  F   UNL A   1      40.027  26.596  26.614  1.00  0.00    -0.200 F 
ENDBRANCH  51  75
BRANCH  63  86
ATOM     86  C   UNL A   1      44.540  28.648  35.473  1.00  0.00     0.064 A 
ATOM     87  C   UNL A   1      45.817  29.079  35.081  1.00  0.00     0.173 A 
ATOM     88  C   UNL A   1      44.446  27.419  36.146  1.00  0.00     0.173 A 
ATOM     89  F   UNL A   1      45.967  30.239  34.425  1.00  0.00    -0.203 F 
ATOM     90  C   UNL A   1      46.943  28.291  35.311  1.00  0.00     0.198 A 
ATOM     91  C   UNL A   1      45.578  26.655  36.413  1.00  0.00     0.198 A 
ATOM     92  F   UNL A   1      43.253  26.960  36.555  1.00  0.00    -0.203 F 
ATOM     93  F   UNL A   1      48.140  28.691  34.862  1.00  0.00    -0.200 F 
ATOM     94  C   UNL A   1      46.824  27.084  35.982  1.00  0.00     0.200 A 
ATOM     95  F   UNL A   1      45.462  25.498  37.081  1.00  0.00    -0.200 F 
ATOM     96  F   UNL A   1      47.908  26.328  36.206  1.00  0.00    -0.200 F 
ENDBRANCH  63  86
ENDBRANCH  37  38
ENDBRANCH  30  32
ENDBRANCH  29  30
ENDBRANCH  28  29
ENDBRANCH  27  28
ENDBRANCH  26  27
ENDBRANCH   1  26
TORSDOF 18
ENDMDL
MODEL 3
REMARK VINA RESULT:     -11.4      4.606      7.400
REMARK SMILES C[C@@H](Sc1nc(-c2ccc3c(c2)OCO3)ccc1C#N)C(=O)OCCOCCOC(=O)c1ccc(-c2c3nc(c(-c4c(F)c(F)c(F)c(F)c4F)c4ccc([nH]4)c(-c4c(F)c(F)c(F)c(F)c4F)c4nc(c(-c5c(F)c(F)c(F)c(F)c5F)c5ccc2[nH]5)C=C4)C=C3)cc1
REMARK SMILES IDX 25 1 24 2 23 3 21 4 22 5 2 6 1 7 3 8 4 9 5 10 18 11 6 12
REMARK SMILES IDX 17 13 16 14 19 15 20 16 7 17 8 18 12 19 9 20 11 21 10 22
REMARK SMILES IDX 13 23 15 24 14 25 26 26 27 27 28 28 29 29 30 30 31 31 32 32
REMARK SMILES IDX 33 33 94 34 34 35 93 36 35 37 36 38 37 39 87 40 38 41 92 42
REMARK SMILES IDX 86 43 88 44 39 45 91 46 85 47 84 48 40 50 72 51 52 52 71 53
REMARK SMILES IDX 53 54 56 55 70 56 89 57 54 58 55 59 69 61 90 62 57 63 41 64
REMARK SMILES IDX 42 65 50 66 43 67 44 68 48 69 51 70 45 71 46 72 49 73 47 74
REMARK SMILES IDX 73 75 74 76 82 77 75 78 76 79 80 80 83 81 77 82 78 83 81 84
REMARK SMILES IDX 79 85 58 86 59 87 67 88 60 89 61 90 65 91 68 92 62 93 63 94
REMARK SMILES IDX 66 95 64 96
REMARK H PARENT 88 49 56 60
REMARK Flexibility Score: inf
ROOT
ATOM      1  C   UNL A   1      36.511  22.132  24.230  1.00  0.00     0.202 C 
ENDROOT
BRANCH   1   2
ATOM      2  C   UNL A   1      35.579  23.345  24.298  1.00  0.00     0.261 C 
BRANCH   2   3
ATOM      3  O   UNL A   1      34.918  23.599  23.048  1.00  0.00    -0.462 OA
BRANCH   3   4
ATOM      4  C   UNL A   1      33.770  24.332  23.123  1.00  0.00     0.319 C 
ATOM      5  O   UNL A   1      33.682  25.438  23.647  1.00  0.00    -0.251 OA
BRANCH   4   6
ATOM      6  C   UNL A   1      32.585  23.629  22.474  1.00  0.00     0.160 C 
ATOM      7  C   UNL A   1      32.903  22.220  21.980  1.00  0.00     0.032 C 
BRANCH   6   8
ATOM      8  S   UNL A   1      31.221  23.640  23.691  1.00  0.00    -0.090 SA
BRANCH   8   9
ATOM      9  C   UNL A   1      32.040  22.824  25.049  1.00  0.00     0.115 A 
ATOM     10  N   UNL A   1      32.378  21.531  24.815  1.00  0.00    -0.240 NA
ATOM     11  C   UNL A   1      32.373  23.486  26.227  1.00  0.00     0.084 A 
ATOM     12  C   UNL A   1      33.080  20.858  25.758  1.00  0.00     0.072 A 
ATOM     13  C   UNL A   1      33.134  22.796  27.173  1.00  0.00     0.024 A 
ATOM     14  C   UNL A   1      33.498  21.473  26.933  1.00  0.00     0.030 A 
BRANCH  11  15
ATOM     15  C   UNL A   1      31.948  24.823  26.510  1.00  0.00     0.102 C 
ATOM     16  N   UNL A   1      31.578  25.887  26.780  1.00  0.00    -0.192 NA
ENDBRANCH  11  15
BRANCH  12  17
ATOM     17  C   UNL A   1      33.373  19.446  25.467  1.00  0.00     0.004 A 
ATOM     18  C   UNL A   1      34.426  19.090  24.582  1.00  0.00     0.014 A 
ATOM     19  C   UNL A   1      32.607  18.415  26.043  1.00  0.00     0.061 A 
ATOM     20  C   UNL A   1      34.690  17.757  24.251  1.00  0.00     0.051 A 
ATOM     21  C   UNL A   1      32.879  17.109  25.686  1.00  0.00     0.166 A 
ATOM     22  C   UNL A   1      33.888  16.791  24.810  1.00  0.00     0.165 A 
ATOM     23  O   UNL A   1      32.204  16.009  26.116  1.00  0.00    -0.454 OA
ATOM     24  O   UNL A   1      33.976  15.454  24.577  1.00  0.00    -0.454 OA
ATOM     25  C   UNL A   1      32.867  14.971  25.363  1.00  0.00     0.468 C 
ENDBRANCH  12  17
ENDBRANCH   8   9
ENDBRANCH   6   8
ENDBRANCH   4   6
ENDBRANCH   3   4
ENDBRANCH   2   3
ENDBRANCH   1   2
BRANCH   1  26
ATOM     26  O   UNL A   1      37.095  21.650  25.436  1.00  0.00    -0.374 OA
BRANCH  26  27
ATOM     27  C   UNL A   1      38.507  21.474  25.487  1.00  0.00     0.202 C 
BRANCH  27  28
ATOM     28  C   UNL A   1      39.074  20.044  25.472  1.00  0.00     0.261 C 
BRANCH  28  29
ATOM     29  O   UNL A   1      39.920  19.743  26.595  1.00  0.00    -0.460 OA
BRANCH  29  30
ATOM     30  C   UNL A   1      41.230  19.601  26.274  1.00  0.00     0.338 C 
ATOM     31  O   UNL A   1      41.763  18.639  25.747  1.00  0.00    -0.246 OA
BRANCH  30  32
ATOM     32  C   UNL A   1      41.957  20.868  26.471  1.00  0.00     0.060 A 
ATOM     33  C   UNL A   1      42.206  21.264  27.792  1.00  0.00     0.016 A 
ATOM     34  C   UNL A   1      42.270  21.713  25.407  1.00  0.00     0.016 A 
ATOM     35  C   UNL A   1      42.708  22.534  28.057  1.00  0.00     0.010 A 
ATOM     36  C   UNL A   1      42.775  22.991  25.675  1.00  0.00     0.010 A 
ATOM     37  C   UNL A   1      42.954  23.424  27.003  1.00  0.00    -0.014 A 
BRANCH  37  38
ATOM     38  C   UNL A   1      43.270  24.841  27.315  1.00  0.00     0.031 A 
ATOM     39  C   UNL A   1      44.644  25.378  27.013  1.00  0.00     0.074 A 
ATOM     40  C   UNL A   1      42.320  25.660  27.801  1.00  0.00     0.049 A 
ATOM     41  N   UNL A   1      45.131  26.578  27.211  1.00  0.00    -0.248 NA
ATOM     42  C   UNL A   1      45.599  24.436  26.409  1.00  0.00     0.031 C 
ATOM     43  C   UNL A   1      40.943  25.268  28.097  1.00  0.00     0.029 A 
ATOM     44  N   UNL A   1      42.370  26.991  28.131  1.00  0.00    -0.354 N 
ATOM     45  C   UNL A   1      46.444  26.534  26.755  1.00  0.00     0.074 A 
ATOM     46  C   UNL A   1      46.693  25.178  26.319  1.00  0.00     0.031 C 
ATOM     47  C   UNL A   1      40.277  26.336  28.567  1.00  0.00     0.029 A 
ATOM     48  C   UNL A   1      41.192  27.473  28.645  1.00  0.00     0.049 A 
ATOM     49  H   UNL A   1      43.174  27.547  28.011  1.00  0.00     0.167 HD
ATOM     50  C   UNL A   1      47.351  27.539  26.690  1.00  0.00     0.037 A 
ATOM     51  C   UNL A   1      40.894  28.687  29.148  1.00  0.00     0.037 A 
ATOM     52  C   UNL A   1      47.100  28.887  27.134  1.00  0.00     0.049 A 
ATOM     53  C   UNL A   1      41.952  29.761  29.148  1.00  0.00     0.074 A 
ATOM     54  C   UNL A   1      47.953  29.976  27.112  1.00  0.00     0.029 A 
ATOM     55  N   UNL A   1      45.906  29.329  27.687  1.00  0.00    -0.354 N 
ATOM     56  N   UNL A   1      43.183  29.718  28.697  1.00  0.00    -0.248 NA
ATOM     57  C   UNL A   1      41.573  31.060  29.724  1.00  0.00     0.031 C 
ATOM     58  C   UNL A   1      47.300  31.058  27.713  1.00  0.00     0.029 A 
ATOM     59  C   UNL A   1      46.011  30.666  28.036  1.00  0.00     0.049 A 
ATOM     60  H   UNL A   1      45.102  28.773  27.814  1.00  0.00     0.167 HD
ATOM     61  C   UNL A   1      43.709  30.988  28.898  1.00  0.00     0.074 A 
ATOM     62  C   UNL A   1      42.658  31.785  29.491  1.00  0.00     0.031 C 
ATOM     63  C   UNL A   1      44.953  31.454  28.618  1.00  0.00     0.037 A 
BRANCH  50  64
ATOM     64  C   UNL A   1      48.710  27.217  26.134  1.00  0.00     0.064 A 
ATOM     65  C   UNL A   1      49.754  26.758  26.953  1.00  0.00     0.173 A 
ATOM     66  C   UNL A   1      48.961  27.327  24.757  1.00  0.00     0.173 A 
ATOM     67  F   UNL A   1      49.573  26.642  28.277  1.00  0.00    -0.203 F 
ATOM     68  C   UNL A   1      51.004  26.452  26.420  1.00  0.00     0.198 A 
ATOM     69  C   UNL A   1      50.201  26.984  24.223  1.00  0.00     0.198 A 
ATOM     70  F   UNL A   1      47.999  27.753  23.925  1.00  0.00    -0.203 F 
ATOM     71  F   UNL A   1      52.000  26.066  27.230  1.00  0.00    -0.200 F 
ATOM     72  C   UNL A   1      51.224  26.556  25.054  1.00  0.00     0.200 A 
ATOM     73  F   UNL A   1      50.405  27.067  22.900  1.00  0.00    -0.200 F 
ATOM     74  F   UNL A   1      52.423  26.249  24.541  1.00  0.00    -0.200 F 
ENDBRANCH  50  64
BRANCH  51  75
ATOM     75  C   UNL A   1      39.545  28.951  29.719  1.00  0.00     0.064 A 
ATOM     76  C   UNL A   1      38.517  29.497  28.936  1.00  0.00     0.173 A 
ATOM     77  C   UNL A   1      39.271  28.709  31.074  1.00  0.00     0.173 A 
ATOM     78  F   UNL A   1      38.733  29.768  27.641  1.00  0.00    -0.203 F 
ATOM     79  C   UNL A   1      37.283  29.826  29.495  1.00  0.00     0.198 A 
ATOM     80  C   UNL A   1      38.024  29.001  31.622  1.00  0.00     0.198 A 
ATOM     81  F   UNL A   1      40.217  28.188  31.869  1.00  0.00    -0.203 F 
ATOM     82  F   UNL A   1      36.346  30.415  28.742  1.00  0.00    -0.200 F 
ATOM     83  C   UNL A   1      37.036  29.573  30.836  1.00  0.00     0.200 A 
ATOM     84  F   UNL A   1      37.786  28.738  32.913  1.00  0.00    -0.200 F 
ATOM     85  F   UNL A   1      35.853  29.895  31.374  1.00  0.00    -0.200 F 
ENDBRANCH  51  75
BRANCH  63  86
ATOM     86  C   UNL A   1      45.226  32.906  28.897  1.00  0.00     0.064 A 
ATOM     87  C   UNL A   1      45.775  33.341  30.113  1.00  0.00     0.173 A 
ATOM     88  C   UNL A   1      44.949  33.879  27.923  1.00  0.00     0.173 A 
ATOM     89  F   UNL A   1      46.050  32.457  31.085  1.00  0.00    -0.203 F 
ATOM     90  C   UNL A   1      45.992  34.695  30.361  1.00  0.00     0.198 A 
ATOM     91  C   UNL A   1      45.207  35.227  28.157  1.00  0.00     0.198 A 
ATOM     92  F   UNL A   1      44.433  33.523  26.737  1.00  0.00    -0.203 F 
ATOM     93  F   UNL A   1      46.448  35.090  31.557  1.00  0.00    -0.200 F 
ATOM     94  C   UNL A   1      45.714  35.636  29.381  1.00  0.00     0.200 A 
ATOM     95  F   UNL A   1      44.958  36.132  27.200  1.00  0.00    -0.200 F 
ATOM     96  F   UNL A   1      45.927  36.938  29.619  1.00  0.00    -0.200 F 
ENDBRANCH  63  86
ENDBRANCH  37  38
ENDBRANCH  30  32
ENDBRANCH  29  30
ENDBRANCH  28  29
ENDBRANCH  27  28
ENDBRANCH  26  27
ENDBRANCH   1  26
TORSDOF 18
ENDMDL
