MODEL 1
REMARK VINA RESULT:     -10.3      0.000      0.000
REMARK SMILES Cc1nsc(N(C)C(=O)[C@@H](C)CCC[C@H](C)[NH3+])c1C(=O)OCCOCCOC(=O)c1ccc(-c2c3nc(c(-c4c(F)c(F)c(F)c(F)c4F)c4ccc([nH]4)c(-c4c(F)c(F)c(F)c(F)c4F)c4nc(c(-c5c(F)c(F)c(F)c(F)c5F)c5ccc2[nH]5)C=C4)C=C3)cc1
REMARK SMILES IDX 21 1 19 2 20 3 18 4 1 5 2 6 3 7 4 8 5 9 6 10 7 11 8 12 9 13
REMARK SMILES IDX 10 14 11 15 12 16 13 17 14 18 15 19 16 20 17 21 22 25 23 26
REMARK SMILES IDX 24 27 25 28 26 29 27 30 28 31 29 32 30 33 31 34 92 35 32 36
REMARK SMILES IDX 91 37 33 38 34 39 35 40 85 41 36 42 90 43 84 44 86 45 37 46
REMARK SMILES IDX 89 47 83 48 82 49 38 51 70 52 50 53 69 54 51 55 54 56 68 57
REMARK SMILES IDX 87 58 52 59 53 60 67 62 88 63 55 64 39 65 40 66 48 67 41 68
REMARK SMILES IDX 42 69 46 70 49 71 43 72 44 73 47 74 45 75 71 76 72 77 80 78
REMARK SMILES IDX 73 79 74 80 78 81 81 82 75 83 76 84 79 85 77 86 56 87 57 88
REMARK SMILES IDX 65 89 58 90 59 91 63 92 66 93 60 94 61 95 64 96 62 97
REMARK H PARENT 17 22 17 23 17 24 86 50 54 61
REMARK Flexibility Score: inf
ROOT
ATOM      1  O   UNL A   1      36.421  23.025  25.984  1.00  0.00    -0.460 OA
ENDROOT
BRANCH   1   2
ATOM      2  C   UNL A   1      35.759  23.207  24.809  1.00  0.00     0.343 C 
ATOM      3  O   UNL A   1      36.293  23.507  23.739  1.00  0.00    -0.246 OA
BRANCH   2   4
ATOM      4  C   UNL A   1      34.326  23.113  24.994  1.00  0.00     0.117 A 
ATOM      5  C   UNL A   1      34.342  20.492  24.982  1.00  0.00     0.069 C 
ATOM      6  C   UNL A   1      33.678  21.824  25.101  1.00  0.00     0.068 A 
ATOM      7  N   UNL A   1      32.364  21.840  25.296  1.00  0.00    -0.195 NA
ATOM      8  S   UNL A   1      31.856  23.397  25.357  1.00  0.00    -0.017 S 
ATOM      9  C   UNL A   1      33.386  24.151  25.052  1.00  0.00     0.133 A 
BRANCH   9  10
ATOM     10  N   UNL A   1      33.369  25.576  24.875  1.00  0.00    -0.305 N 
ATOM     11  C   UNL A   1      33.349  26.488  26.019  1.00  0.00     0.154 C 
BRANCH  10  12
ATOM     12  C   UNL A   1      33.339  26.090  23.581  1.00  0.00     0.230 C 
ATOM     13  O   UNL A   1      33.699  25.432  22.603  1.00  0.00    -0.274 OA
BRANCH  12  14
ATOM     14  C   UNL A   1      32.852  27.521  23.256  1.00  0.00     0.076 C 
ATOM     15  C   UNL A   1      33.893  28.576  22.879  1.00  0.00     0.018 C 
BRANCH  14  16
ATOM     16  C   UNL A   1      31.633  27.503  22.323  1.00  0.00     0.013 C 
BRANCH  16  17
ATOM     17  C   UNL A   1      30.610  28.628  22.586  1.00  0.00     0.007 C 
BRANCH  17  18
ATOM     18  C   UNL A   1      29.216  28.153  23.033  1.00  0.00     0.064 C 
BRANCH  18  19
ATOM     19  C   UNL A   1      28.087  29.122  22.651  1.00  0.00     0.177 C 
ATOM     20  C   UNL A   1      28.285  30.488  23.306  1.00  0.00     0.075 C 
BRANCH  19  21
ATOM     21  N   UNL A   1      26.789  28.577  23.052  1.00  0.00    -0.355 N 
ATOM     22  H   UNL A   1      26.850  28.219  24.006  1.00  0.00     0.344 HD
ATOM     23  H   UNL A   1      26.529  27.818  22.421  1.00  0.00     0.344 HD
ATOM     24  H   UNL A   1      26.083  29.312  23.009  1.00  0.00     0.344 HD
ENDBRANCH  19  21
ENDBRANCH  18  19
ENDBRANCH  17  18
ENDBRANCH  16  17
ENDBRANCH  14  16
ENDBRANCH  12  14
ENDBRANCH  10  12
ENDBRANCH   9  10
ENDBRANCH   2   4
ENDBRANCH   1   2
BRANCH   1  25
ATOM     25  C   UNL A   1      37.713  23.644  26.045  1.00  0.00     0.261 C 
BRANCH  25  26
ATOM     26  C   UNL A   1      38.785  22.569  26.242  1.00  0.00     0.202 C 
BRANCH  26  27
ATOM     27  O   UNL A   1      39.927  22.890  27.046  1.00  0.00    -0.374 OA
BRANCH  27  28
ATOM     28  C   UNL A   1      41.231  22.529  26.605  1.00  0.00     0.202 C 
BRANCH  28  29
ATOM     29  C   UNL A   1      42.208  23.629  26.234  1.00  0.00     0.261 C 
BRANCH  29  30
ATOM     30  O   UNL A   1      41.507  24.684  25.609  1.00  0.00    -0.460 OA
BRANCH  30  31
ATOM     31  C   UNL A   1      42.068  25.891  25.788  1.00  0.00     0.338 C 
ATOM     32  O   UNL A   1      43.266  26.174  25.757  1.00  0.00    -0.246 OA
BRANCH  31  33
ATOM     33  C   UNL A   1      41.010  26.822  26.180  1.00  0.00     0.060 A 
ATOM     34  C   UNL A   1      41.362  28.162  26.029  1.00  0.00     0.016 A 
ATOM     35  C   UNL A   1      40.041  26.387  27.099  1.00  0.00     0.016 A 
ATOM     36  C   UNL A   1      41.050  29.002  27.061  1.00  0.00     0.010 A 
ATOM     37  C   UNL A   1      39.754  27.219  28.146  1.00  0.00     0.010 A 
ATOM     38  C   UNL A   1      40.366  28.469  28.159  1.00  0.00    -0.014 A 
BRANCH  38  39
ATOM     39  C   UNL A   1      40.351  29.266  29.357  1.00  0.00     0.031 A 
ATOM     40  C   UNL A   1      39.190  30.163  29.454  1.00  0.00     0.074 A 
ATOM     41  C   UNL A   1      41.291  29.126  30.305  1.00  0.00     0.049 A 
ATOM     42  N   UNL A   1      39.183  31.451  29.485  1.00  0.00    -0.248 NA
ATOM     43  C   UNL A   1      37.862  29.542  29.358  1.00  0.00     0.031 C 
ATOM     44  C   UNL A   1      42.296  28.070  30.453  1.00  0.00     0.029 A 
ATOM     45  N   UNL A   1      41.453  29.869  31.427  1.00  0.00    -0.354 N 
ATOM     46  C   UNL A   1      37.844  31.809  29.556  1.00  0.00     0.074 A 
ATOM     47  C   UNL A   1      37.079  30.617  29.308  1.00  0.00     0.031 C 
ATOM     48  C   UNL A   1      42.787  28.113  31.713  1.00  0.00     0.029 A 
ATOM     49  C   UNL A   1      42.207  29.252  32.408  1.00  0.00     0.049 A 
ATOM     50  H   UNL A   1      41.069  30.769  31.535  1.00  0.00     0.167 HD
ATOM     51  C   UNL A   1      37.458  33.025  30.024  1.00  0.00     0.037 A 
ATOM     52  C   UNL A   1      42.218  29.600  33.717  1.00  0.00     0.037 A 
ATOM     53  C   UNL A   1      38.543  33.968  30.006  1.00  0.00     0.049 A 
ATOM     54  C   UNL A   1      41.675  30.987  33.818  1.00  0.00     0.074 A 
ATOM     55  C   UNL A   1      39.333  34.505  29.006  1.00  0.00     0.029 A 
ATOM     56  N   UNL A   1      39.197  34.238  31.184  1.00  0.00    -0.354 N 
ATOM     57  N   UNL A   1      42.292  32.050  33.377  1.00  0.00    -0.248 NA
ATOM     58  C   UNL A   1      40.236  31.141  34.004  1.00  0.00     0.031 C 
ATOM     59  C   UNL A   1      40.625  34.649  29.587  1.00  0.00     0.029 A 
ATOM     60  C   UNL A   1      40.541  34.216  30.911  1.00  0.00     0.049 A 
ATOM     61  H   UNL A   1      38.779  34.414  32.058  1.00  0.00     0.167 HD
ATOM     62  C   UNL A   1      41.289  32.857  32.852  1.00  0.00     0.074 A 
ATOM     63  C   UNL A   1      40.041  32.290  33.349  1.00  0.00     0.031 C 
ATOM     64  C   UNL A   1      41.541  33.731  31.833  1.00  0.00     0.037 A 
BRANCH  51  65
ATOM     65  C   UNL A   1      36.185  33.254  30.789  1.00  0.00     0.064 A 
ATOM     66  C   UNL A   1      35.185  34.063  30.223  1.00  0.00     0.173 A 
ATOM     67  C   UNL A   1      36.022  32.944  32.157  1.00  0.00     0.173 A 
ATOM     68  F   UNL A   1      35.253  34.436  28.936  1.00  0.00    -0.203 F 
ATOM     69  C   UNL A   1      34.138  34.580  30.990  1.00  0.00     0.198 A 
ATOM     70  C   UNL A   1      34.943  33.409  32.903  1.00  0.00     0.198 A 
ATOM     71  F   UNL A   1      36.949  32.279  32.857  1.00  0.00    -0.203 F 
ATOM     72  F   UNL A   1      33.280  35.450  30.439  1.00  0.00    -0.200 F 
ATOM     73  C   UNL A   1      34.019  34.255  32.328  1.00  0.00     0.200 A 
ATOM     74  F   UNL A   1      34.856  33.092  34.203  1.00  0.00    -0.200 F 
ATOM     75  F   UNL A   1      33.050  34.795  33.077  1.00  0.00    -0.200 F 
ENDBRANCH  51  65
BRANCH  52  76
ATOM     76  C   UNL A   1      42.348  28.689  34.878  1.00  0.00     0.064 A 
ATOM     77  C   UNL A   1      41.581  27.517  34.971  1.00  0.00     0.173 A 
ATOM     78  C   UNL A   1      43.388  28.826  35.822  1.00  0.00     0.173 A 
ATOM     79  F   UNL A   1      40.611  27.275  34.077  1.00  0.00    -0.203 F 
ATOM     80  C   UNL A   1      41.838  26.548  35.947  1.00  0.00     0.198 A 
ATOM     81  C   UNL A   1      43.630  27.870  36.807  1.00  0.00     0.198 A 
ATOM     82  F   UNL A   1      44.253  29.849  35.758  1.00  0.00    -0.203 F 
ATOM     83  F   UNL A   1      41.119  25.417  35.971  1.00  0.00    -0.200 F 
ATOM     84  C   UNL A   1      42.862  26.725  36.864  1.00  0.00     0.200 A 
ATOM     85  F   UNL A   1      44.648  28.041  37.663  1.00  0.00    -0.200 F 
ATOM     86  F   UNL A   1      43.133  25.779  37.773  1.00  0.00    -0.200 F 
ENDBRANCH  52  76
BRANCH  64  87
ATOM     87  C   UNL A   1      42.973  33.981  31.455  1.00  0.00     0.064 A 
ATOM     88  C   UNL A   1      43.671  33.194  30.524  1.00  0.00     0.173 A 
ATOM     89  C   UNL A   1      43.595  35.151  31.908  1.00  0.00     0.173 A 
ATOM     90  F   UNL A   1      43.099  32.125  29.958  1.00  0.00    -0.203 F 
ATOM     91  C   UNL A   1      44.954  33.541  30.102  1.00  0.00     0.198 A 
ATOM     92  C   UNL A   1      44.862  35.516  31.457  1.00  0.00     0.198 A 
ATOM     93  F   UNL A   1      42.949  35.976  32.747  1.00  0.00    -0.203 F 
ATOM     94  F   UNL A   1      45.601  32.769  29.217  1.00  0.00    -0.200 F 
ATOM     95  C   UNL A   1      45.544  34.706  30.562  1.00  0.00     0.200 A 
ATOM     96  F   UNL A   1      45.407  36.672  31.861  1.00  0.00    -0.200 F 
ATOM     97  F   UNL A   1      46.757  35.066  30.119  1.00  0.00    -0.200 F 
ENDBRANCH  64  87
ENDBRANCH  38  39
ENDBRANCH  31  33
ENDBRANCH  30  31
ENDBRANCH  29  30
ENDBRANCH  28  29
ENDBRANCH  27  28
ENDBRANCH  26  27
ENDBRANCH  25  26
ENDBRANCH   1  25
TORSDOF 22
ENDMDL
MODEL 2
REMARK VINA RESULT:     -10.2      3.840      7.794
REMARK SMILES Cc1nsc(N(C)C(=O)[C@@H](C)CCC[C@H](C)[NH3+])c1C(=O)OCCOCCOC(=O)c1ccc(-c2c3nc(c(-c4c(F)c(F)c(F)c(F)c4F)c4ccc([nH]4)c(-c4c(F)c(F)c(F)c(F)c4F)c4nc(c(-c5c(F)c(F)c(F)c(F)c5F)c5ccc2[nH]5)C=C4)C=C3)cc1
REMARK SMILES IDX 21 1 19 2 20 3 18 4 1 5 2 6 3 7 4 8 5 9 6 10 7 11 8 12 9 13
REMARK SMILES IDX 10 14 11 15 12 16 13 17 14 18 15 19 16 20 17 21 22 25 23 26
REMARK SMILES IDX 24 27 25 28 26 29 27 30 28 31 29 32 30 33 31 34 92 35 32 36
REMARK SMILES IDX 91 37 33 38 34 39 35 40 85 41 36 42 90 43 84 44 86 45 37 46
REMARK SMILES IDX 89 47 83 48 82 49 38 51 70 52 50 53 69 54 51 55 54 56 68 57
REMARK SMILES IDX 87 58 52 59 53 60 67 62 88 63 55 64 39 65 40 66 48 67 41 68
REMARK SMILES IDX 42 69 46 70 49 71 43 72 44 73 47 74 45 75 71 76 72 77 80 78
REMARK SMILES IDX 73 79 74 80 78 81 81 82 75 83 76 84 79 85 77 86 56 87 57 88
REMARK SMILES IDX 65 89 58 90 59 91 63 92 66 93 60 94 61 95 64 96 62 97
REMARK H PARENT 17 22 17 23 17 24 86 50 54 61
REMARK Flexibility Score: inf
ROOT
ATOM      1  O   UNL A   1      34.154  26.464  26.114  1.00  0.00    -0.460 OA
ENDROOT
BRANCH   1   2
ATOM      2  C   UNL A   1      34.065  25.416  25.250  1.00  0.00     0.343 C 
ATOM      3  O   UNL A   1      34.041  25.516  24.021  1.00  0.00    -0.246 OA
BRANCH   2   4
ATOM      4  C   UNL A   1      33.886  24.166  25.958  1.00  0.00     0.117 A 
ATOM      5  C   UNL A   1      36.414  23.505  25.741  1.00  0.00     0.069 C 
ATOM      6  C   UNL A   1      35.011  23.290  26.204  1.00  0.00     0.068 A 
ATOM      7  N   UNL A   1      34.753  22.179  26.886  1.00  0.00    -0.195 NA
ATOM      8  S   UNL A   1      33.157  22.141  27.254  1.00  0.00    -0.017 S 
ATOM      9  C   UNL A   1      32.699  23.605  26.450  1.00  0.00     0.133 A 
BRANCH   9  10
ATOM     10  N   UNL A   1      31.293  23.892  26.402  1.00  0.00    -0.305 N 
ATOM     11  C   UNL A   1      30.299  22.920  26.860  1.00  0.00     0.154 C 
BRANCH  10  12
ATOM     12  C   UNL A   1      30.876  25.112  25.877  1.00  0.00     0.230 C 
ATOM     13  O   UNL A   1      30.597  26.076  26.593  1.00  0.00    -0.274 OA
BRANCH  12  14
ATOM     14  C   UNL A   1      30.728  25.368  24.359  1.00  0.00     0.076 C 
ATOM     15  C   UNL A   1      30.613  24.163  23.425  1.00  0.00     0.018 C 
BRANCH  14  16
ATOM     16  C   UNL A   1      29.694  26.467  24.072  1.00  0.00     0.013 C 
BRANCH  16  17
ATOM     17  C   UNL A   1      30.139  27.501  23.016  1.00  0.00     0.007 C 
BRANCH  17  18
ATOM     18  C   UNL A   1      30.417  28.913  23.560  1.00  0.00     0.064 C 
BRANCH  18  19
ATOM     19  C   UNL A   1      29.418  29.969  23.062  1.00  0.00     0.177 C 
ATOM     20  C   UNL A   1      28.072  29.337  22.713  1.00  0.00     0.075 C 
BRANCH  19  21
ATOM     21  N   UNL A   1      29.950  30.657  21.883  1.00  0.00    -0.355 N 
ATOM     22  H   UNL A   1      30.953  30.805  21.998  1.00  0.00     0.344 HD
ATOM     23  H   UNL A   1      29.483  31.558  21.776  1.00  0.00     0.344 HD
ATOM     24  H   UNL A   1      29.783  30.087  21.053  1.00  0.00     0.344 HD
ENDBRANCH  19  21
ENDBRANCH  18  19
ENDBRANCH  17  18
ENDBRANCH  16  17
ENDBRANCH  14  16
ENDBRANCH  12  14
ENDBRANCH  10  12
ENDBRANCH   9  10
ENDBRANCH   2   4
ENDBRANCH   1   2
BRANCH   1  25
ATOM     25  C   UNL A   1      33.560  27.680  25.641  1.00  0.00     0.261 C 
BRANCH  25  26
ATOM     26  C   UNL A   1      33.377  28.647  26.814  1.00  0.00     0.202 C 
BRANCH  26  27
ATOM     27  O   UNL A   1      33.424  30.054  26.546  1.00  0.00    -0.374 OA
BRANCH  27  28
ATOM     28  C   UNL A   1      34.321  30.886  27.273  1.00  0.00     0.202 C 
BRANCH  28  29
ATOM     29  C   UNL A   1      35.684  30.338  27.650  1.00  0.00     0.261 C 
BRANCH  29  30
ATOM     30  O   UNL A   1      36.406  31.326  28.354  1.00  0.00    -0.460 OA
BRANCH  30  31
ATOM     31  C   UNL A   1      35.859  31.664  29.533  1.00  0.00     0.338 C 
ATOM     32  O   UNL A   1      34.898  32.406  29.730  1.00  0.00    -0.246 OA
BRANCH  31  33
ATOM     33  C   UNL A   1      36.702  31.105  30.592  1.00  0.00     0.060 A 
ATOM     34  C   UNL A   1      37.879  31.820  30.801  1.00  0.00     0.016 A 
ATOM     35  C   UNL A   1      36.571  29.742  30.904  1.00  0.00     0.016 A 
ATOM     36  C   UNL A   1      39.028  31.091  30.937  1.00  0.00     0.010 A 
ATOM     37  C   UNL A   1      37.722  29.011  31.009  1.00  0.00     0.010 A 
ATOM     38  C   UNL A   1      38.929  29.696  30.901  1.00  0.00    -0.014 A 
BRANCH  38  39
ATOM     39  C   UNL A   1      40.154  28.969  30.703  1.00  0.00     0.031 A 
ATOM     40  C   UNL A   1      40.936  28.781  31.934  1.00  0.00     0.074 A 
ATOM     41  C   UNL A   1      40.486  28.466  29.502  1.00  0.00     0.049 A 
ATOM     42  N   UNL A   1      42.114  29.229  32.202  1.00  0.00    -0.248 NA
ATOM     43  C   UNL A   1      40.252  28.132  33.061  1.00  0.00     0.031 C 
ATOM     44  C   UNL A   1      39.654  28.327  28.304  1.00  0.00     0.029 A 
ATOM     45  N   UNL A   1      41.641  27.849  29.152  1.00  0.00    -0.354 N 
ATOM     46  C   UNL A   1      42.386  28.797  33.493  1.00  0.00     0.074 A 
ATOM     47  C   UNL A   1      41.155  28.278  34.027  1.00  0.00     0.031 C 
ATOM     48  C   UNL A   1      40.254  27.459  27.458  1.00  0.00     0.029 A 
ATOM     49  C   UNL A   1      41.542  27.072  28.014  1.00  0.00     0.049 A 
ATOM     50  H   UNL A   1      42.476  27.946  29.663  1.00  0.00     0.167 HD
ATOM     51  C   UNL A   1      43.658  28.704  33.957  1.00  0.00     0.037 A 
ATOM     52  C   UNL A   1      42.410  26.093  27.660  1.00  0.00     0.037 A 
ATOM     53  C   UNL A   1      44.571  29.478  33.159  1.00  0.00     0.049 A 
ATOM     54  C   UNL A   1      43.673  26.316  28.423  1.00  0.00     0.074 A 
ATOM     55  C   UNL A   1      44.683  30.823  32.860  1.00  0.00     0.029 A 
ATOM     56  N   UNL A   1      45.352  28.824  32.236  1.00  0.00    -0.354 N 
ATOM     57  N   UNL A   1      44.487  27.317  28.217  1.00  0.00    -0.248 NA
ATOM     58  C   UNL A   1      43.803  25.674  29.726  1.00  0.00     0.031 C 
ATOM     59  C   UNL A   1      45.137  30.870  31.511  1.00  0.00     0.029 A 
ATOM     60  C   UNL A   1      45.300  29.554  31.076  1.00  0.00     0.049 A 
ATOM     61  H   UNL A   1      45.854  27.989  32.382  1.00  0.00     0.167 HD
ATOM     62  C   UNL A   1      44.934  27.684  29.481  1.00  0.00     0.074 A 
ATOM     63  C   UNL A   1      44.554  26.582  30.357  1.00  0.00     0.031 C 
ATOM     64  C   UNL A   1      45.310  28.968  29.756  1.00  0.00     0.037 A 
BRANCH  51  65
ATOM     65  C   UNL A   1      44.111  27.660  34.938  1.00  0.00     0.064 A 
ATOM     66  C   UNL A   1      44.210  26.323  34.516  1.00  0.00     0.173 A 
ATOM     67  C   UNL A   1      44.183  27.869  36.334  1.00  0.00     0.173 A 
ATOM     68  F   UNL A   1      44.131  26.010  33.213  1.00  0.00    -0.203 F 
ATOM     69  C   UNL A   1      44.303  25.270  35.428  1.00  0.00     0.198 A 
ATOM     70  C   UNL A   1      44.340  26.822  37.236  1.00  0.00     0.198 A 
ATOM     71  F   UNL A   1      43.992  29.072  36.889  1.00  0.00    -0.203 F 
ATOM     72  F   UNL A   1      44.265  24.005  34.987  1.00  0.00    -0.200 F 
ATOM     73  C   UNL A   1      44.365  25.520  36.787  1.00  0.00     0.200 A 
ATOM     74  F   UNL A   1      44.383  27.086  38.550  1.00  0.00    -0.200 F 
ATOM     75  F   UNL A   1      44.396  24.509  37.664  1.00  0.00    -0.200 F 
ENDBRANCH  51  65
BRANCH  52  76
ATOM     76  C   UNL A   1      42.083  24.819  26.979  1.00  0.00     0.064 A 
ATOM     77  C   UNL A   1      42.933  24.279  26.002  1.00  0.00     0.173 A 
ATOM     78  C   UNL A   1      41.039  23.980  27.426  1.00  0.00     0.173 A 
ATOM     79  F   UNL A   1      43.987  24.982  25.564  1.00  0.00    -0.203 F 
ATOM     80  C   UNL A   1      42.747  22.984  25.502  1.00  0.00     0.198 A 
ATOM     81  C   UNL A   1      40.843  22.699  26.913  1.00  0.00     0.198 A 
ATOM     82  F   UNL A   1      40.236  24.349  28.434  1.00  0.00    -0.203 F 
ATOM     83  F   UNL A   1      43.611  22.484  24.608  1.00  0.00    -0.200 F 
ATOM     84  C   UNL A   1      41.702  22.196  25.958  1.00  0.00     0.200 A 
ATOM     85  F   UNL A   1      39.848  21.937  27.392  1.00  0.00    -0.200 F 
ATOM     86  F   UNL A   1      41.549  20.943  25.509  1.00  0.00    -0.200 F 
ENDBRANCH  52  76
BRANCH  64  87
ATOM     87  C   UNL A   1      45.465  29.921  28.606  1.00  0.00     0.064 A 
ATOM     88  C   UNL A   1      44.395  30.654  28.065  1.00  0.00     0.173 A 
ATOM     89  C   UNL A   1      46.755  30.235  28.160  1.00  0.00     0.173 A 
ATOM     90  F   UNL A   1      43.148  30.492  28.523  1.00  0.00    -0.203 F 
ATOM     91  C   UNL A   1      44.605  31.626  27.089  1.00  0.00     0.198 A 
ATOM     92  C   UNL A   1      46.967  31.233  27.210  1.00  0.00     0.198 A 
ATOM     93  F   UNL A   1      47.821  29.614  28.689  1.00  0.00    -0.203 F 
ATOM     94  F   UNL A   1      43.566  32.307  26.585  1.00  0.00    -0.200 F 
ATOM     95  C   UNL A   1      45.892  31.920  26.669  1.00  0.00     0.200 A 
ATOM     96  F   UNL A   1      48.216  31.554  26.847  1.00  0.00    -0.200 F 
ATOM     97  F   UNL A   1      46.099  32.889  25.766  1.00  0.00    -0.200 F 
ENDBRANCH  64  87
ENDBRANCH  38  39
ENDBRANCH  31  33
ENDBRANCH  30  31
ENDBRANCH  29  30
ENDBRANCH  28  29
ENDBRANCH  27  28
ENDBRANCH  26  27
ENDBRANCH  25  26
ENDBRANCH   1  25
TORSDOF 22
ENDMDL
MODEL 3
REMARK VINA RESULT:     -10.1      3.349      4.836
REMARK SMILES Cc1nsc(N(C)C(=O)[C@@H](C)CCC[C@H](C)[NH3+])c1C(=O)OCCOCCOC(=O)c1ccc(-c2c3nc(c(-c4c(F)c(F)c(F)c(F)c4F)c4ccc([nH]4)c(-c4c(F)c(F)c(F)c(F)c4F)c4nc(c(-c5c(F)c(F)c(F)c(F)c5F)c5ccc2[nH]5)C=C4)C=C3)cc1
REMARK SMILES IDX 21 1 19 2 20 3 18 4 1 5 2 6 3 7 4 8 5 9 6 10 7 11 8 12 9 13
REMARK SMILES IDX 10 14 11 15 12 16 13 17 14 18 15 19 16 20 17 21 22 25 23 26
REMARK SMILES IDX 24 27 25 28 26 29 27 30 28 31 29 32 30 33 31 34 92 35 32 36
REMARK SMILES IDX 91 37 33 38 34 39 35 40 85 41 36 42 90 43 84 44 86 45 37 46
REMARK SMILES IDX 89 47 83 48 82 49 38 51 70 52 50 53 69 54 51 55 54 56 68 57
REMARK SMILES IDX 87 58 52 59 53 60 67 62 88 63 55 64 39 65 40 66 48 67 41 68
REMARK SMILES IDX 42 69 46 70 49 71 43 72 44 73 47 74 45 75 71 76 72 77 80 78
REMARK SMILES IDX 73 79 74 80 78 81 81 82 75 83 76 84 79 85 77 86 56 87 57 88
REMARK SMILES IDX 65 89 58 90 59 91 63 92 66 93 60 94 61 95 64 96 62 97
REMARK H PARENT 17 22 17 23 17 24 86 50 54 61
REMARK Flexibility Score: inf
ROOT
ATOM      1  O   UNL A   1      34.412  23.679  22.865  1.00  0.00    -0.460 OA
ENDROOT
BRANCH   1   2
ATOM      2  C   UNL A   1      33.378  22.892  23.269  1.00  0.00     0.343 C 
ATOM      3  O   UNL A   1      32.927  21.939  22.629  1.00  0.00    -0.246 OA
BRANCH   2   4
ATOM      4  C   UNL A   1      32.795  23.382  24.500  1.00  0.00     0.117 A 
ATOM      5  C   UNL A   1      33.589  21.301  25.884  1.00  0.00     0.069 C 
ATOM      6  C   UNL A   1      32.928  22.631  25.730  1.00  0.00     0.068 A 
ATOM      7  N   UNL A   1      32.382  23.174  26.813  1.00  0.00    -0.195 NA
ATOM      8  S   UNL A   1      31.689  24.601  26.398  1.00  0.00    -0.017 S 
ATOM      9  C   UNL A   1      32.028  24.538  24.701  1.00  0.00     0.133 A 
BRANCH   9  10
ATOM     10  N   UNL A   1      31.446  25.576  23.897  1.00  0.00    -0.305 N 
ATOM     11  C   UNL A   1      31.838  25.769  22.500  1.00  0.00     0.154 C 
BRANCH  10  12
ATOM     12  C   UNL A   1      30.514  26.430  24.478  1.00  0.00     0.230 C 
ATOM     13  O   UNL A   1      29.364  26.070  24.741  1.00  0.00    -0.274 OA
BRANCH  12  14
ATOM     14  C   UNL A   1      30.833  27.898  24.847  1.00  0.00     0.076 C 
ATOM     15  C   UNL A   1      32.112  28.190  25.633  1.00  0.00     0.018 C 
BRANCH  14  16
ATOM     16  C   UNL A   1      30.621  28.838  23.651  1.00  0.00     0.013 C 
BRANCH  16  17
ATOM     17  C   UNL A   1      29.425  28.465  22.751  1.00  0.00     0.007 C 
BRANCH  17  18
ATOM     18  C   UNL A   1      28.658  29.659  22.155  1.00  0.00     0.064 C 
BRANCH  18  19
ATOM     19  C   UNL A   1      28.887  30.975  22.916  1.00  0.00     0.177 C 
ATOM     20  C   UNL A   1      27.601  31.456  23.585  1.00  0.00     0.075 C 
BRANCH  19  21
ATOM     21  N   UNL A   1      29.376  32.012  22.005  1.00  0.00    -0.355 N 
ATOM     22  H   UNL A   1      30.282  31.734  21.628  1.00  0.00     0.344 HD
ATOM     23  H   UNL A   1      29.474  32.891  22.513  1.00  0.00     0.344 HD
ATOM     24  H   UNL A   1      28.712  32.134  21.240  1.00  0.00     0.344 HD
ENDBRANCH  19  21
ENDBRANCH  18  19
ENDBRANCH  17  18
ENDBRANCH  16  17
ENDBRANCH  14  16
ENDBRANCH  12  14
ENDBRANCH  10  12
ENDBRANCH   9  10
ENDBRANCH   2   4
ENDBRANCH   1   2
BRANCH   1  25
ATOM     25  C   UNL A   1      35.532  23.703  23.761  1.00  0.00     0.261 C 
BRANCH  25  26
ATOM     26  C   UNL A   1      36.518  22.598  23.373  1.00  0.00     0.202 C 
BRANCH  26  27
ATOM     27  O   UNL A   1      36.769  21.551  24.318  1.00  0.00    -0.374 OA
BRANCH  27  28
ATOM     28  C   UNL A   1      37.290  21.864  25.605  1.00  0.00     0.202 C 
BRANCH  28  29
ATOM     29  C   UNL A   1      38.790  22.014  25.769  1.00  0.00     0.261 C 
BRANCH  29  30
ATOM     30  O   UNL A   1      39.275  20.972  26.590  1.00  0.00    -0.460 OA
BRANCH  30  31
ATOM     31  C   UNL A   1      40.313  20.302  26.062  1.00  0.00     0.338 C 
ATOM     32  O   UNL A   1      40.283  19.243  25.435  1.00  0.00    -0.246 OA
BRANCH  31  33
ATOM     33  C   UNL A   1      41.541  20.976  26.486  1.00  0.00     0.060 A 
ATOM     34  C   UNL A   1      41.820  20.823  27.842  1.00  0.00     0.016 A 
ATOM     35  C   UNL A   1      42.003  22.065  25.729  1.00  0.00     0.016 A 
ATOM     36  C   UNL A   1      42.206  21.945  28.522  1.00  0.00     0.010 A 
ATOM     37  C   UNL A   1      42.361  23.194  26.413  1.00  0.00     0.010 A 
ATOM     38  C   UNL A   1      42.336  23.138  27.804  1.00  0.00    -0.014 A 
BRANCH  38  39
ATOM     39  C   UNL A   1      42.404  24.350  28.575  1.00  0.00     0.031 A 
ATOM     40  C   UNL A   1      41.283  25.270  28.330  1.00  0.00     0.074 A 
ATOM     41  C   UNL A   1      43.381  24.556  29.474  1.00  0.00     0.049 A 
ATOM     42  N   UNL A   1      41.326  26.459  27.836  1.00  0.00    -0.248 NA
ATOM     43  C   UNL A   1      39.930  24.733  28.529  1.00  0.00     0.031 C 
ATOM     44  C   UNL A   1      44.350  23.599  30.011  1.00  0.00     0.029 A 
ATOM     45  N   UNL A   1      43.621  25.679  30.193  1.00  0.00    -0.354 N 
ATOM     46  C   UNL A   1      40.006  26.885  27.791  1.00  0.00     0.074 A 
ATOM     47  C   UNL A   1      39.187  25.735  28.068  1.00  0.00     0.031 C 
ATOM     48  C   UNL A   1      44.900  24.121  31.132  1.00  0.00     0.029 A 
ATOM     49  C   UNL A   1      44.394  25.473  31.320  1.00  0.00     0.049 A 
ATOM     50  H   UNL A   1      43.275  26.565  29.936  1.00  0.00     0.167 HD
ATOM     51  C   UNL A   1      39.687  28.204  27.735  1.00  0.00     0.037 A 
ATOM     52  C   UNL A   1      44.477  26.319  32.374  1.00  0.00     0.037 A 
ATOM     53  C   UNL A   1      40.805  29.002  27.308  1.00  0.00     0.049 A 
ATOM     54  C   UNL A   1      43.991  27.654  31.918  1.00  0.00     0.074 A 
ATOM     55  C   UNL A   1      41.567  29.046  26.156  1.00  0.00     0.029 A 
ATOM     56  N   UNL A   1      41.520  29.690  28.257  1.00  0.00    -0.354 N 
ATOM     57  N   UNL A   1      44.627  28.415  31.068  1.00  0.00    -0.248 NA
ATOM     58  C   UNL A   1      42.569  27.946  32.063  1.00  0.00     0.031 C 
ATOM     59  C   UNL A   1      42.890  29.344  26.594  1.00  0.00     0.029 A 
ATOM     60  C   UNL A   1      42.850  29.489  27.982  1.00  0.00     0.049 A 
ATOM     61  H   UNL A   1      41.149  30.225  28.996  1.00  0.00     0.167 HD
ATOM     62  C   UNL A   1      43.633  28.992  30.287  1.00  0.00     0.074 A 
ATOM     63  C   UNL A   1      42.388  28.741  31.003  1.00  0.00     0.031 C 
ATOM     64  C   UNL A   1      43.871  29.365  28.994  1.00  0.00     0.037 A 
BRANCH  51  65
ATOM     65  C   UNL A   1      38.459  28.789  28.374  1.00  0.00     0.064 A 
ATOM     66  C   UNL A   1      37.699  29.730  27.659  1.00  0.00     0.173 A 
ATOM     67  C   UNL A   1      38.157  28.675  29.750  1.00  0.00     0.173 A 
ATOM     68  F   UNL A   1      37.919  29.935  26.350  1.00  0.00    -0.203 F 
ATOM     69  C   UNL A   1      36.757  30.545  28.289  1.00  0.00     0.198 A 
ATOM     70  C   UNL A   1      37.172  29.445  30.362  1.00  0.00     0.198 A 
ATOM     71  F   UNL A   1      38.871  27.905  30.580  1.00  0.00    -0.203 F 
ATOM     72  F   UNL A   1      36.148  31.515  27.593  1.00  0.00    -0.200 F 
ATOM     73  C   UNL A   1      36.496  30.404  29.639  1.00  0.00     0.200 A 
ATOM     74  F   UNL A   1      36.946  29.301  31.675  1.00  0.00    -0.200 F 
ATOM     75  F   UNL A   1      35.634  31.222  30.256  1.00  0.00    -0.200 F 
ENDBRANCH  51  65
BRANCH  52  76
ATOM     76  C   UNL A   1      44.625  25.949  33.802  1.00  0.00     0.064 A 
ATOM     77  C   UNL A   1      43.505  25.670  34.599  1.00  0.00     0.173 A 
ATOM     78  C   UNL A   1      45.882  25.640  34.366  1.00  0.00     0.173 A 
ATOM     79  F   UNL A   1      42.269  25.875  34.120  1.00  0.00    -0.203 F 
ATOM     80  C   UNL A   1      43.635  25.121  35.880  1.00  0.00     0.198 A 
ATOM     81  C   UNL A   1      46.011  25.113  35.650  1.00  0.00     0.198 A 
ATOM     82  F   UNL A   1      47.011  25.759  33.653  1.00  0.00    -0.203 F 
ATOM     83  F   UNL A   1      42.540  24.820  36.592  1.00  0.00    -0.200 F 
ATOM     84  C   UNL A   1      44.887  24.844  36.404  1.00  0.00     0.200 A 
ATOM     85  F   UNL A   1      47.229  24.816  36.126  1.00  0.00    -0.200 F 
ATOM     86  F   UNL A   1      45.010  24.282  37.615  1.00  0.00    -0.200 F 
ENDBRANCH  52  76
BRANCH  64  87
ATOM     87  C   UNL A   1      45.293  29.366  28.510  1.00  0.00     0.064 A 
ATOM     88  C   UNL A   1      45.923  28.231  27.974  1.00  0.00     0.173 A 
ATOM     89  C   UNL A   1      45.973  30.587  28.420  1.00  0.00     0.173 A 
ATOM     90  F   UNL A   1      45.290  27.053  27.919  1.00  0.00    -0.203 F 
ATOM     91  C   UNL A   1      47.196  28.308  27.413  1.00  0.00     0.198 A 
ATOM     92  C   UNL A   1      47.231  30.669  27.825  1.00  0.00     0.198 A 
ATOM     93  F   UNL A   1      45.392  31.716  28.855  1.00  0.00    -0.203 F 
ATOM     94  F   UNL A   1      47.778  27.208  26.914  1.00  0.00    -0.200 F 
ATOM     95  C   UNL A   1      47.845  29.529  27.331  1.00  0.00     0.200 A 
ATOM     96  F   UNL A   1      47.832  31.860  27.698  1.00  0.00    -0.200 F 
ATOM     97  F   UNL A   1      49.049  29.613  26.748  1.00  0.00    -0.200 F 
ENDBRANCH  64  87
ENDBRANCH  38  39
ENDBRANCH  31  33
ENDBRANCH  30  31
ENDBRANCH  29  30
ENDBRANCH  28  29
ENDBRANCH  27  28
ENDBRANCH  26  27
ENDBRANCH  25  26
ENDBRANCH   1  25
TORSDOF 22
ENDMDL
