MODEL 1
REMARK VINA RESULT:     -11.4      0.000      0.000
REMARK SMILES O=C(OCCOCCOC(=O)[C@@H]1CS[C@H](c2ncc(-c3ccccc3)s2)[NH2+]1)c1ccc(-c2c3nc(c(-c4c(F)c(F)c(F)c(F)c4F)c4ccc([nH]4)c(-c4c(F)c(F)c(F)c(F)c4F)c4nc(c(-c5c(F)c(F)c(F)c(F)c5F)c5ccc2[nH]5)C=C4)C=C3)cc1
REMARK SMILES IDX 6 1 5 2 4 3 3 4 2 5 1 6 28 7 29 8 90 9 30 10 89 11 31 12
REMARK SMILES IDX 32 13 33 14 83 15 34 16 88 17 82 18 84 19 35 20 87 21 81 22
REMARK SMILES IDX 80 23 36 25 68 26 48 27 67 28 49 29 52 30 66 31 85 32 50 33
REMARK SMILES IDX 51 34 65 36 86 37 53 38 37 39 38 40 46 41 39 42 40 43 44 44
REMARK SMILES IDX 47 45 41 46 42 47 45 48 43 49 69 50 70 51 78 52 71 53 72 54
REMARK SMILES IDX 76 55 79 56 73 57 74 58 77 59 75 60 54 61 55 62 63 63 56 64
REMARK SMILES IDX 57 65 61 66 64 67 58 68 59 69 62 70 60 71 7 72 8 73 9 74
REMARK SMILES IDX 10 75 11 76 12 77 13 78 27 79 14 80 15 81 16 84 17 85 26 86
REMARK SMILES IDX 18 87 19 88 20 89 21 90 25 91 22 92 24 93 23 94
REMARK H PARENT 84 24 52 35 27 82 27 83
REMARK Flexibility Score: inf
ROOT
ATOM      1  O   UNL A   1      32.771  29.108  24.110  1.00  0.00    -0.374 OA
ENDROOT
BRANCH   1   2
ATOM      2  C   UNL A   1      31.650  29.272  24.979  1.00  0.00     0.202 C 
BRANCH   2   3
ATOM      3  C   UNL A   1      31.892  30.115  26.233  1.00  0.00     0.261 C 
BRANCH   3   4
ATOM      4  O   UNL A   1      33.240  30.597  26.270  1.00  0.00    -0.460 OA
BRANCH   4   5
ATOM      5  C   UNL A   1      33.802  31.348  27.246  1.00  0.00     0.338 C 
ATOM      6  O   UNL A   1      33.260  32.404  27.569  1.00  0.00    -0.246 OA
BRANCH   5   7
ATOM      7  C   UNL A   1      35.017  30.927  28.002  1.00  0.00     0.060 A 
ATOM      8  C   UNL A   1      35.226  29.660  28.551  1.00  0.00     0.016 A 
ATOM      9  C   UNL A   1      36.053  31.870  28.106  1.00  0.00     0.016 A 
ATOM     10  C   UNL A   1      36.391  29.334  29.209  1.00  0.00     0.010 A 
ATOM     11  C   UNL A   1      37.245  31.551  28.758  1.00  0.00     0.010 A 
ATOM     12  C   UNL A   1      37.399  30.280  29.314  1.00  0.00    -0.014 A 
BRANCH  12  13
ATOM     13  C   UNL A   1      38.533  29.911  30.163  1.00  0.00     0.031 A 
ATOM     14  C   UNL A   1      39.658  29.176  29.522  1.00  0.00     0.074 A 
ATOM     15  C   UNL A   1      38.605  30.429  31.400  1.00  0.00     0.049 A 
ATOM     16  N   UNL A   1      40.754  28.717  30.053  1.00  0.00    -0.248 NA
ATOM     17  C   UNL A   1      39.539  28.935  28.072  1.00  0.00     0.031 C 
ATOM     18  C   UNL A   1      37.603  31.315  31.998  1.00  0.00     0.029 A 
ATOM     19  N   UNL A   1      39.585  30.342  32.345  1.00  0.00    -0.354 N 
ATOM     20  C   UNL A   1      41.422  28.075  29.021  1.00  0.00     0.074 A 
ATOM     21  C   UNL A   1      40.636  28.240  27.822  1.00  0.00     0.031 C 
ATOM     22  C   UNL A   1      38.046  31.727  33.196  1.00  0.00     0.029 A 
ATOM     23  C   UNL A   1      39.314  31.065  33.480  1.00  0.00     0.049 A 
ATOM     24  H   UNL A   1      40.406  29.812  32.225  1.00  0.00     0.167 HD
ATOM     25  C   UNL A   1      42.573  27.371  29.106  1.00  0.00     0.037 A 
ATOM     26  C   UNL A   1      40.016  31.139  34.624  1.00  0.00     0.037 A 
ATOM     27  C   UNL A   1      43.304  27.242  30.337  1.00  0.00     0.049 A 
ATOM     28  C   UNL A   1      41.266  30.301  34.714  1.00  0.00     0.074 A 
ATOM     29  C   UNL A   1      44.419  26.476  30.613  1.00  0.00     0.029 A 
ATOM     30  N   UNL A   1      42.974  27.917  31.509  1.00  0.00    -0.354 N 
ATOM     31  N   UNL A   1      41.838  29.572  33.783  1.00  0.00    -0.248 NA
ATOM     32  C   UNL A   1      41.943  30.260  36.013  1.00  0.00     0.031 C 
ATOM     33  C   UNL A   1      44.729  26.647  31.968  1.00  0.00     0.029 A 
ATOM     34  C   UNL A   1      43.852  27.573  32.520  1.00  0.00     0.049 A 
ATOM     35  H   UNL A   1      42.224  28.547  31.605  1.00  0.00     0.167 HD
ATOM     36  C   UNL A   1      42.941  28.981  34.380  1.00  0.00     0.074 A 
ATOM     37  C   UNL A   1      42.974  29.469  35.747  1.00  0.00     0.031 C 
ATOM     38  C   UNL A   1      43.836  28.102  33.862  1.00  0.00     0.037 A 
BRANCH  25  39
ATOM     39  C   UNL A   1      42.987  26.600  27.889  1.00  0.00     0.064 A 
ATOM     40  C   UNL A   1      42.736  25.227  27.740  1.00  0.00     0.173 A 
ATOM     41  C   UNL A   1      43.733  27.239  26.885  1.00  0.00     0.173 A 
ATOM     42  F   UNL A   1      42.063  24.557  28.689  1.00  0.00    -0.203 F 
ATOM     43  C   UNL A   1      43.250  24.518  26.657  1.00  0.00     0.198 A 
ATOM     44  C   UNL A   1      44.218  26.534  25.787  1.00  0.00     0.198 A 
ATOM     45  F   UNL A   1      44.017  28.546  26.983  1.00  0.00    -0.203 F 
ATOM     46  F   UNL A   1      43.067  23.193  26.577  1.00  0.00    -0.200 F 
ATOM     47  C   UNL A   1      43.988  25.171  25.681  1.00  0.00     0.200 A 
ATOM     48  F   UNL A   1      44.930  27.169  24.848  1.00  0.00    -0.200 F 
ATOM     49  F   UNL A   1      44.498  24.484  24.648  1.00  0.00    -0.200 F 
ENDBRANCH  25  39
BRANCH  26  50
ATOM     50  C   UNL A   1      39.530  31.967  35.760  1.00  0.00     0.064 A 
ATOM     51  C   UNL A   1      40.064  33.238  36.014  1.00  0.00     0.173 A 
ATOM     52  C   UNL A   1      38.511  31.514  36.616  1.00  0.00     0.173 A 
ATOM     53  F   UNL A   1      41.048  33.717  35.238  1.00  0.00    -0.203 F 
ATOM     54  C   UNL A   1      39.611  34.013  37.082  1.00  0.00     0.198 A 
ATOM     55  C   UNL A   1      38.034  32.304  37.660  1.00  0.00     0.198 A 
ATOM     56  F   UNL A   1      37.962  30.305  36.427  1.00  0.00    -0.203 F 
ATOM     57  F   UNL A   1      40.174  35.205  37.327  1.00  0.00    -0.200 F 
ATOM     58  C   UNL A   1      38.591  33.550  37.898  1.00  0.00     0.200 A 
ATOM     59  F   UNL A   1      37.034  31.858  38.432  1.00  0.00    -0.200 F 
ATOM     60  F   UNL A   1      38.151  34.299  38.919  1.00  0.00    -0.200 F 
ENDBRANCH  26  50
BRANCH  38  61
ATOM     61  C   UNL A   1      44.934  27.643  34.773  1.00  0.00     0.064 A 
ATOM     62  C   UNL A   1      44.822  26.465  35.522  1.00  0.00     0.173 A 
ATOM     63  C   UNL A   1      46.139  28.359  34.834  1.00  0.00     0.173 A 
ATOM     64  F   UNL A   1      43.683  25.757  35.503  1.00  0.00    -0.203 F 
ATOM     65  C   UNL A   1      45.876  26.025  36.316  1.00  0.00     0.198 A 
ATOM     66  C   UNL A   1      47.202  27.898  35.603  1.00  0.00     0.198 A 
ATOM     67  F   UNL A   1      46.293  29.488  34.126  1.00  0.00    -0.203 F 
ATOM     68  F   UNL A   1      45.736  24.917  37.056  1.00  0.00    -0.200 F 
ATOM     69  C   UNL A   1      47.068  26.735  36.347  1.00  0.00     0.200 A 
ATOM     70  F   UNL A   1      48.358  28.575  35.617  1.00  0.00    -0.200 F 
ATOM     71  F   UNL A   1      48.088  26.301  37.099  1.00  0.00    -0.200 F 
ENDBRANCH  38  61
ENDBRANCH  12  13
ENDBRANCH   5   7
ENDBRANCH   4   5
ENDBRANCH   3   4
ENDBRANCH   2   3
ENDBRANCH   1   2
BRANCH   1  72
ATOM     72  C   UNL A   1      32.458  28.796  22.755  1.00  0.00     0.202 C 
BRANCH  72  73
ATOM     73  C   UNL A   1      33.597  28.042  22.070  1.00  0.00     0.261 C 
BRANCH  73  74
ATOM     74  O   UNL A   1      33.691  26.690  22.564  1.00  0.00    -0.459 OA
BRANCH  74  75
ATOM     75  C   UNL A   1      33.042  25.760  21.799  1.00  0.00     0.365 C 
ATOM     76  O   UNL A   1      33.275  25.569  20.612  1.00  0.00    -0.245 OA
BRANCH  75  77
ATOM     77  C   UNL A   1      31.991  25.007  22.633  1.00  0.00     0.304 C 
ATOM     78  C   UNL A   1      32.030  25.385  24.114  1.00  0.00     0.153 C 
ATOM     79  N   UNL A   1      32.139  23.523  22.455  1.00  0.00    -0.317 N 
ATOM     80  S   UNL A   1      31.813  23.834  24.996  1.00  0.00    -0.085 SA
ATOM     81  C   UNL A   1      32.707  22.937  23.689  1.00  0.00     0.303 C 
ATOM     82  H   UNL A   1      32.762  23.335  21.670  1.00  0.00     0.348 HD
ATOM     83  H   UNL A   1      31.225  23.108  22.269  1.00  0.00     0.348 HD
BRANCH  81  84
ATOM     84  C   UNL A   1      34.228  23.021  23.828  1.00  0.00     0.162 A 
ATOM     85  N   UNL A   1      35.089  22.981  22.822  1.00  0.00    -0.242 NA
ATOM     86  S   UNL A   1      34.965  23.286  25.377  1.00  0.00    -0.112 S 
ATOM     87  C   UNL A   1      36.383  23.048  23.302  1.00  0.00     0.132 A 
ATOM     88  C   UNL A   1      36.515  23.099  24.673  1.00  0.00     0.055 A 
BRANCH  88  89
ATOM     89  C   UNL A   1      37.723  22.986  25.484  1.00  0.00    -0.007 A 
ATOM     90  C   UNL A   1      38.120  24.078  26.270  1.00  0.00     0.009 A 
ATOM     91  C   UNL A   1      38.462  21.801  25.545  1.00  0.00     0.009 A 
ATOM     92  C   UNL A   1      39.229  23.978  27.114  1.00  0.00     0.001 A 
ATOM     93  C   UNL A   1      39.575  21.706  26.386  1.00  0.00     0.001 A 
ATOM     94  C   UNL A   1      39.955  22.792  27.176  1.00  0.00     0.000 A 
ENDBRANCH  88  89
ENDBRANCH  81  84
ENDBRANCH  75  77
ENDBRANCH  74  75
ENDBRANCH  73  74
ENDBRANCH  72  73
ENDBRANCH   1  72
TORSDOF 16
ENDMDL
MODEL 2
REMARK VINA RESULT:     -11.2      2.052      8.701
REMARK SMILES O=C(OCCOCCOC(=O)[C@@H]1CS[C@H](c2ncc(-c3ccccc3)s2)[NH2+]1)c1ccc(-c2c3nc(c(-c4c(F)c(F)c(F)c(F)c4F)c4ccc([nH]4)c(-c4c(F)c(F)c(F)c(F)c4F)c4nc(c(-c5c(F)c(F)c(F)c(F)c5F)c5ccc2[nH]5)C=C4)C=C3)cc1
REMARK SMILES IDX 6 1 5 2 4 3 3 4 2 5 1 6 28 7 29 8 90 9 30 10 89 11 31 12
REMARK SMILES IDX 32 13 33 14 83 15 34 16 88 17 82 18 84 19 35 20 87 21 81 22
REMARK SMILES IDX 80 23 36 25 68 26 48 27 67 28 49 29 52 30 66 31 85 32 50 33
REMARK SMILES IDX 51 34 65 36 86 37 53 38 37 39 38 40 46 41 39 42 40 43 44 44
REMARK SMILES IDX 47 45 41 46 42 47 45 48 43 49 69 50 70 51 78 52 71 53 72 54
REMARK SMILES IDX 76 55 79 56 73 57 74 58 77 59 75 60 54 61 55 62 63 63 56 64
REMARK SMILES IDX 57 65 61 66 64 67 58 68 59 69 62 70 60 71 7 72 8 73 9 74
REMARK SMILES IDX 10 75 11 76 12 77 13 78 27 79 14 80 15 81 16 84 17 85 26 86
REMARK SMILES IDX 18 87 19 88 20 89 21 90 25 91 22 92 24 93 23 94
REMARK H PARENT 84 24 52 35 27 82 27 83
REMARK Flexibility Score: inf
ROOT
ATOM      1  O   UNL A   1      31.755  30.012  27.174  1.00  0.00    -0.374 OA
ENDROOT
BRANCH   1   2
ATOM      2  C   UNL A   1      31.865  31.167  26.342  1.00  0.00     0.202 C 
BRANCH   2   3
ATOM      3  C   UNL A   1      31.486  32.500  26.994  1.00  0.00     0.261 C 
BRANCH   3   4
ATOM      4  O   UNL A   1      32.601  33.398  27.004  1.00  0.00    -0.460 OA
BRANCH   4   5
ATOM      5  C   UNL A   1      33.271  33.840  28.094  1.00  0.00     0.338 C 
ATOM      6  O   UNL A   1      32.854  34.835  28.684  1.00  0.00    -0.246 OA
BRANCH   5   7
ATOM      7  C   UNL A   1      34.459  33.137  28.661  1.00  0.00     0.060 A 
ATOM      8  C   UNL A   1      34.519  31.778  28.972  1.00  0.00     0.016 A 
ATOM      9  C   UNL A   1      35.623  33.906  28.830  1.00  0.00     0.016 A 
ATOM     10  C   UNL A   1      35.665  31.193  29.463  1.00  0.00     0.010 A 
ATOM     11  C   UNL A   1      36.796  33.325  29.313  1.00  0.00     0.010 A 
ATOM     12  C   UNL A   1      36.803  31.966  29.636  1.00  0.00    -0.014 A 
BRANCH  12  13
ATOM     13  C   UNL A   1      37.923  31.310  30.310  1.00  0.00     0.031 A 
ATOM     14  C   UNL A   1      38.029  31.480  31.786  1.00  0.00     0.074 A 
ATOM     15  C   UNL A   1      38.663  30.428  29.618  1.00  0.00     0.049 A 
ATOM     16  N   UNL A   1      38.933  31.028  32.606  1.00  0.00    -0.248 NA
ATOM     17  C   UNL A   1      36.956  32.257  32.432  1.00  0.00     0.031 C 
ATOM     18  C   UNL A   1      38.465  30.093  28.206  1.00  0.00     0.029 A 
ATOM     19  N   UNL A   1      39.677  29.609  30.020  1.00  0.00    -0.354 N 
ATOM     20  C   UNL A   1      38.578  31.522  33.853  1.00  0.00     0.074 A 
ATOM     21  C   UNL A   1      37.353  32.268  33.694  1.00  0.00     0.031 C 
ATOM     22  C   UNL A   1      39.306  29.101  27.872  1.00  0.00     0.029 A 
ATOM     23  C   UNL A   1      40.152  28.798  29.019  1.00  0.00     0.049 A 
ATOM     24  H   UNL A   1      40.034  29.601  30.937  1.00  0.00     0.167 HD
ATOM     25  C   UNL A   1      39.262  31.388  35.011  1.00  0.00     0.037 A 
ATOM     26  C   UNL A   1      41.185  27.938  29.045  1.00  0.00     0.037 A 
ATOM     27  C   UNL A   1      40.482  30.632  35.097  1.00  0.00     0.049 A 
ATOM     28  C   UNL A   1      41.967  27.849  30.331  1.00  0.00     0.074 A 
ATOM     29  C   UNL A   1      41.349  30.495  36.162  1.00  0.00     0.029 A 
ATOM     30  N   UNL A   1      41.002  29.877  34.049  1.00  0.00    -0.354 N 
ATOM     31  N   UNL A   1      41.722  28.424  31.487  1.00  0.00    -0.248 NA
ATOM     32  C   UNL A   1      43.184  27.032  30.310  1.00  0.00     0.031 C 
ATOM     33  C   UNL A   1      42.422  29.700  35.740  1.00  0.00     0.029 A 
ATOM     34  C   UNL A   1      42.189  29.283  34.434  1.00  0.00     0.049 A 
ATOM     35  H   UNL A   1      40.585  29.780  33.163  1.00  0.00     0.167 HD
ATOM     36  C   UNL A   1      42.752  28.043  32.332  1.00  0.00     0.074 A 
ATOM     37  C   UNL A   1      43.606  27.158  31.561  1.00  0.00     0.031 C 
ATOM     38  C   UNL A   1      42.990  28.402  33.619  1.00  0.00     0.037 A 
BRANCH  25  39
ATOM     39  C   UNL A   1      38.775  32.186  36.182  1.00  0.00     0.064 A 
ATOM     40  C   UNL A   1      39.143  33.524  36.393  1.00  0.00     0.173 A 
ATOM     41  C   UNL A   1      37.988  31.563  37.165  1.00  0.00     0.173 A 
ATOM     42  F   UNL A   1      39.927  34.156  35.507  1.00  0.00    -0.203 F 
ATOM     43  C   UNL A   1      38.778  34.192  37.560  1.00  0.00     0.198 A 
ATOM     44  C   UNL A   1      37.598  32.244  38.315  1.00  0.00     0.198 A 
ATOM     45  F   UNL A   1      37.621  30.281  37.024  1.00  0.00    -0.203 F 
ATOM     46  F   UNL A   1      39.208  35.443  37.777  1.00  0.00    -0.200 F 
ATOM     47  C   UNL A   1      38.004  33.554  38.518  1.00  0.00     0.200 A 
ATOM     48  F   UNL A   1      36.851  31.623  39.237  1.00  0.00    -0.200 F 
ATOM     49  F   UNL A   1      37.669  34.192  39.648  1.00  0.00    -0.200 F 
ENDBRANCH  25  39
BRANCH  26  50
ATOM     50  C   UNL A   1      41.561  27.167  27.830  1.00  0.00     0.064 A 
ATOM     51  C   UNL A   1      41.105  25.856  27.631  1.00  0.00     0.173 A 
ATOM     52  C   UNL A   1      42.377  27.723  26.831  1.00  0.00     0.173 A 
ATOM     53  F   UNL A   1      40.334  25.269  28.559  1.00  0.00    -0.203 F 
ATOM     54  C   UNL A   1      41.461  25.130  26.494  1.00  0.00     0.198 A 
ATOM     55  C   UNL A   1      42.701  27.011  25.677  1.00  0.00     0.198 A 
ATOM     56  F   UNL A   1      42.848  28.972  26.963  1.00  0.00    -0.203 F 
ATOM     57  F   UNL A   1      41.047  23.863  26.356  1.00  0.00    -0.200 F 
ATOM     58  C   UNL A   1      42.251  25.711  25.514  1.00  0.00     0.200 A 
ATOM     59  F   UNL A   1      43.449  27.586  24.725  1.00  0.00    -0.200 F 
ATOM     60  F   UNL A   1      42.585  25.017  24.418  1.00  0.00    -0.200 F 
ENDBRANCH  26  50
BRANCH  38  61
ATOM     61  C   UNL A   1      44.204  27.810  34.270  1.00  0.00     0.064 A 
ATOM     62  C   UNL A   1      45.433  28.482  34.281  1.00  0.00     0.173 A 
ATOM     63  C   UNL A   1      44.107  26.589  34.954  1.00  0.00     0.173 A 
ATOM     64  F   UNL A   1      45.572  29.646  33.629  1.00  0.00    -0.203 F 
ATOM     65  C   UNL A   1      46.531  27.943  34.942  1.00  0.00     0.198 A 
ATOM     66  C   UNL A   1      45.198  26.070  35.641  1.00  0.00     0.198 A 
ATOM     67  F   UNL A   1      42.946  25.916  34.977  1.00  0.00    -0.203 F 
ATOM     68  F   UNL A   1      47.709  28.581  34.908  1.00  0.00    -0.200 F 
ATOM     69  C   UNL A   1      46.410  26.744  35.631  1.00  0.00     0.200 A 
ATOM     70  F   UNL A   1      45.075  24.922  36.321  1.00  0.00    -0.200 F 
ATOM     71  F   UNL A   1      47.465  26.236  36.282  1.00  0.00    -0.200 F 
ENDBRANCH  38  61
ENDBRANCH  12  13
ENDBRANCH   5   7
ENDBRANCH   4   5
ENDBRANCH   3   4
ENDBRANCH   2   3
ENDBRANCH   1   2
BRANCH   1  72
ATOM     72  C   UNL A   1      32.633  28.936  26.850  1.00  0.00     0.202 C 
BRANCH  72  73
ATOM     73  C   UNL A   1      31.901  27.596  26.824  1.00  0.00     0.261 C 
BRANCH  73  74
ATOM     74  O   UNL A   1      32.810  26.517  26.526  1.00  0.00    -0.459 OA
BRANCH  74  75
ATOM     75  C   UNL A   1      32.202  25.356  26.132  1.00  0.00     0.365 C 
ATOM     76  O   UNL A   1      31.291  24.819  26.749  1.00  0.00    -0.245 OA
BRANCH  75  77
ATOM     77  C   UNL A   1      32.825  24.831  24.827  1.00  0.00     0.304 C 
ATOM     78  C   UNL A   1      33.668  25.886  24.109  1.00  0.00     0.153 C 
ATOM     79  N   UNL A   1      31.762  24.285  23.916  1.00  0.00    -0.317 N 
ATOM     80  S   UNL A   1      33.274  25.691  22.366  1.00  0.00    -0.085 SA
ATOM     81  C   UNL A   1      31.567  25.214  22.781  1.00  0.00     0.303 C 
ATOM     82  H   UNL A   1      30.888  24.189  24.433  1.00  0.00     0.348 HD
ATOM     83  H   UNL A   1      32.050  23.372  23.565  1.00  0.00     0.348 HD
BRANCH  81  84
ATOM     84  C   UNL A   1      30.651  26.410  23.048  1.00  0.00     0.162 A 
ATOM     85  N   UNL A   1      29.589  26.396  23.839  1.00  0.00    -0.242 NA
ATOM     86  S   UNL A   1      31.013  27.971  22.381  1.00  0.00    -0.112 S 
ATOM     87  C   UNL A   1      28.972  27.632  23.828  1.00  0.00     0.132 A 
ATOM     88  C   UNL A   1      29.537  28.579  23.001  1.00  0.00     0.055 A 
BRANCH  88  89
ATOM     89  C   UNL A   1      29.025  29.893  22.627  1.00  0.00    -0.007 A 
ATOM     90  C   UNL A   1      28.728  30.823  23.635  1.00  0.00     0.009 A 
ATOM     91  C   UNL A   1      28.878  30.273  21.288  1.00  0.00     0.009 A 
ATOM     92  C   UNL A   1      28.307  32.113  23.308  1.00  0.00     0.001 A 
ATOM     93  C   UNL A   1      28.450  31.565  20.965  1.00  0.00     0.001 A 
ATOM     94  C   UNL A   1      28.171  32.487  21.974  1.00  0.00     0.000 A 
ENDBRANCH  88  89
ENDBRANCH  81  84
ENDBRANCH  75  77
ENDBRANCH  74  75
ENDBRANCH  73  74
ENDBRANCH  72  73
ENDBRANCH   1  72
TORSDOF 16
ENDMDL
MODEL 3
REMARK VINA RESULT:     -11.2      1.580      7.778
REMARK SMILES O=C(OCCOCCOC(=O)[C@@H]1CS[C@H](c2ncc(-c3ccccc3)s2)[NH2+]1)c1ccc(-c2c3nc(c(-c4c(F)c(F)c(F)c(F)c4F)c4ccc([nH]4)c(-c4c(F)c(F)c(F)c(F)c4F)c4nc(c(-c5c(F)c(F)c(F)c(F)c5F)c5ccc2[nH]5)C=C4)C=C3)cc1
REMARK SMILES IDX 6 1 5 2 4 3 3 4 2 5 1 6 28 7 29 8 90 9 30 10 89 11 31 12
REMARK SMILES IDX 32 13 33 14 83 15 34 16 88 17 82 18 84 19 35 20 87 21 81 22
REMARK SMILES IDX 80 23 36 25 68 26 48 27 67 28 49 29 52 30 66 31 85 32 50 33
REMARK SMILES IDX 51 34 65 36 86 37 53 38 37 39 38 40 46 41 39 42 40 43 44 44
REMARK SMILES IDX 47 45 41 46 42 47 45 48 43 49 69 50 70 51 78 52 71 53 72 54
REMARK SMILES IDX 76 55 79 56 73 57 74 58 77 59 75 60 54 61 55 62 63 63 56 64
REMARK SMILES IDX 57 65 61 66 64 67 58 68 59 69 62 70 60 71 7 72 8 73 9 74
REMARK SMILES IDX 10 75 11 76 12 77 13 78 27 79 14 80 15 81 16 84 17 85 26 86
REMARK SMILES IDX 18 87 19 88 20 89 21 90 25 91 22 92 24 93 23 94
REMARK H PARENT 84 24 52 35 27 82 27 83
REMARK Flexibility Score: inf
ROOT
ATOM      1  O   UNL A   1      32.013  29.916  27.259  1.00  0.00    -0.374 OA
ENDROOT
BRANCH   1   2
ATOM      2  C   UNL A   1      32.077  31.077  26.429  1.00  0.00     0.202 C 
BRANCH   2   3
ATOM      3  C   UNL A   1      31.587  32.381  27.064  1.00  0.00     0.261 C 
BRANCH   3   4
ATOM      4  O   UNL A   1      32.625  33.367  27.069  1.00  0.00    -0.460 OA
BRANCH   4   5
ATOM      5  C   UNL A   1      33.304  33.817  28.150  1.00  0.00     0.338 C 
ATOM      6  O   UNL A   1      32.894  34.819  28.734  1.00  0.00    -0.246 OA
BRANCH   5   7
ATOM      7  C   UNL A   1      34.495  33.117  28.715  1.00  0.00     0.060 A 
ATOM      8  C   UNL A   1      34.506  31.807  29.198  1.00  0.00     0.016 A 
ATOM      9  C   UNL A   1      35.709  33.823  28.693  1.00  0.00     0.016 A 
ATOM     10  C   UNL A   1      35.654  31.216  29.675  1.00  0.00     0.010 A 
ATOM     11  C   UNL A   1      36.885  33.233  29.160  1.00  0.00     0.010 A 
ATOM     12  C   UNL A   1      36.843  31.929  29.658  1.00  0.00    -0.014 A 
BRANCH  12  13
ATOM     13  C   UNL A   1      37.978  31.293  30.327  1.00  0.00     0.031 A 
ATOM     14  C   UNL A   1      38.101  31.486  31.800  1.00  0.00     0.074 A 
ATOM     15  C   UNL A   1      38.716  30.407  29.640  1.00  0.00     0.049 A 
ATOM     16  N   UNL A   1      39.019  31.054  32.615  1.00  0.00    -0.248 NA
ATOM     17  C   UNL A   1      37.029  32.264  32.448  1.00  0.00     0.031 C 
ATOM     18  C   UNL A   1      38.503  30.050  28.235  1.00  0.00     0.029 A 
ATOM     19  N   UNL A   1      39.743  29.603  30.040  1.00  0.00    -0.354 N 
ATOM     20  C   UNL A   1      38.675  31.564  33.858  1.00  0.00     0.074 A 
ATOM     21  C   UNL A   1      37.442  32.297  33.704  1.00  0.00     0.031 C 
ATOM     22  C   UNL A   1      39.349  29.060  27.905  1.00  0.00     0.029 A 
ATOM     23  C   UNL A   1      40.212  28.782  29.046  1.00  0.00     0.049 A 
ATOM     24  H   UNL A   1      40.111  29.612  30.953  1.00  0.00     0.167 HD
ATOM     25  C   UNL A   1      39.376  31.453  35.009  1.00  0.00     0.037 A 
ATOM     26  C   UNL A   1      41.253  27.931  29.071  1.00  0.00     0.037 A 
ATOM     27  C   UNL A   1      40.603  30.709  35.091  1.00  0.00     0.049 A 
ATOM     28  C   UNL A   1      42.052  27.868  30.348  1.00  0.00     0.074 A 
ATOM     29  C   UNL A   1      41.485  30.595  36.147  1.00  0.00     0.029 A 
ATOM     30  N   UNL A   1      41.116  29.943  34.048  1.00  0.00    -0.354 N 
ATOM     31  N   UNL A   1      41.816  28.458  31.499  1.00  0.00    -0.248 NA
ATOM     32  C   UNL A   1      43.275  27.061  30.324  1.00  0.00     0.031 C 
ATOM     33  C   UNL A   1      42.559  29.803  35.723  1.00  0.00     0.029 A 
ATOM     34  C   UNL A   1      42.313  29.365  34.427  1.00  0.00     0.049 A 
ATOM     35  H   UNL A   1      40.689  29.829  33.168  1.00  0.00     0.167 HD
ATOM     36  C   UNL A   1      42.861  28.098  32.336  1.00  0.00     0.074 A 
ATOM     37  C   UNL A   1      43.712  27.209  31.568  1.00  0.00     0.031 C 
ATOM     38  C   UNL A   1      43.112  28.479  33.615  1.00  0.00     0.037 A 
BRANCH  25  39
ATOM     39  C   UNL A   1      38.896  32.264  36.174  1.00  0.00     0.064 A 
ATOM     40  C   UNL A   1      39.306  33.588  36.396  1.00  0.00     0.173 A 
ATOM     41  C   UNL A   1      38.072  31.666  37.142  1.00  0.00     0.173 A 
ATOM     42  F   UNL A   1      40.126  34.195  35.524  1.00  0.00    -0.203 F 
ATOM     43  C   UNL A   1      38.944  34.266  37.559  1.00  0.00     0.198 A 
ATOM     44  C   UNL A   1      37.686  32.357  38.288  1.00  0.00     0.198 A 
ATOM     45  F   UNL A   1      37.664  30.398  36.991  1.00  0.00    -0.203 F 
ATOM     46  F   UNL A   1      39.414  35.500  37.787  1.00  0.00    -0.200 F 
ATOM     47  C   UNL A   1      38.134  33.652  38.502  1.00  0.00     0.200 A 
ATOM     48  F   UNL A   1      36.904  31.760  39.196  1.00  0.00    -0.200 F 
ATOM     49  F   UNL A   1      37.801  34.298  39.628  1.00  0.00    -0.200 F 
ENDBRANCH  25  39
BRANCH  26  50
ATOM     50  C   UNL A   1      41.620  27.145  27.863  1.00  0.00     0.064 A 
ATOM     51  C   UNL A   1      42.511  27.654  26.908  1.00  0.00     0.173 A 
ATOM     52  C   UNL A   1      41.099  25.860  27.637  1.00  0.00     0.173 A 
ATOM     53  F   UNL A   1      43.030  28.881  27.064  1.00  0.00    -0.203 F 
ATOM     54  C   UNL A   1      42.852  26.919  25.772  1.00  0.00     0.198 A 
ATOM     55  C   UNL A   1      41.469  25.111  26.521  1.00  0.00     0.198 A 
ATOM     56  F   UNL A   1      40.240  25.318  28.513  1.00  0.00    -0.203 F 
ATOM     57  F   UNL A   1      43.669  27.452  24.853  1.00  0.00    -0.200 F 
ATOM     58  C   UNL A   1      42.338  25.645  25.584  1.00  0.00     0.200 A 
ATOM     59  F   UNL A   1      40.984  23.873  26.357  1.00  0.00    -0.200 F 
ATOM     60  F   UNL A   1      42.674  24.936  24.498  1.00  0.00    -0.200 F 
ENDBRANCH  26  50
BRANCH  38  61
ATOM     61  C   UNL A   1      44.338  27.907  34.259  1.00  0.00     0.064 A 
ATOM     62  C   UNL A   1      45.566  28.582  34.229  1.00  0.00     0.173 A 
ATOM     63  C   UNL A   1      44.258  26.704  34.977  1.00  0.00     0.173 A 
ATOM     64  F   UNL A   1      45.690  29.728  33.544  1.00  0.00    -0.203 F 
ATOM     65  C   UNL A   1      46.678  28.063  34.884  1.00  0.00     0.198 A 
ATOM     66  C   UNL A   1      45.362  26.207  35.657  1.00  0.00     0.198 A 
ATOM     67  F   UNL A   1      43.099  26.030  35.039  1.00  0.00    -0.203 F 
ATOM     68  F   UNL A   1      47.853  28.702  34.811  1.00  0.00    -0.200 F 
ATOM     69  C   UNL A   1      46.572  26.883  35.606  1.00  0.00     0.200 A 
ATOM     70  F   UNL A   1      45.255  25.076  36.369  1.00  0.00    -0.200 F 
ATOM     71  F   UNL A   1      47.640  26.394  36.251  1.00  0.00    -0.200 F 
ENDBRANCH  38  61
ENDBRANCH  12  13
ENDBRANCH   5   7
ENDBRANCH   4   5
ENDBRANCH   3   4
ENDBRANCH   2   3
ENDBRANCH   1   2
BRANCH   1  72
ATOM     72  C   UNL A   1      33.180  29.097  27.261  1.00  0.00     0.202 C 
BRANCH  72  73
ATOM     73  C   UNL A   1      33.900  29.136  25.914  1.00  0.00     0.261 C 
BRANCH  73  74
ATOM     74  O   UNL A   1      33.433  28.081  25.048  1.00  0.00    -0.459 OA
BRANCH  74  75
ATOM     75  C   UNL A   1      33.428  28.400  23.718  1.00  0.00     0.365 C 
ATOM     76  O   UNL A   1      34.441  28.515  23.039  1.00  0.00    -0.245 OA
BRANCH  75  77
ATOM     77  C   UNL A   1      31.990  28.597  23.211  1.00  0.00     0.304 C 
ATOM     78  C   UNL A   1      30.940  28.311  24.285  1.00  0.00     0.153 C 
ATOM     79  N   UNL A   1      31.742  27.763  21.985  1.00  0.00    -0.317 N 
ATOM     80  S   UNL A   1      29.636  27.412  23.435  1.00  0.00    -0.085 SA
ATOM     81  C   UNL A   1      30.858  26.631  22.335  1.00  0.00     0.303 C 
ATOM     82  H   UNL A   1      32.630  27.406  21.632  1.00  0.00     0.348 HD
ATOM     83  H   UNL A   1      31.297  28.336  21.268  1.00  0.00     0.348 HD
BRANCH  81  84
ATOM     84  C   UNL A   1      31.546  25.415  22.961  1.00  0.00     0.162 A 
ATOM     85  N   UNL A   1      31.035  24.661  23.922  1.00  0.00    -0.242 NA
ATOM     86  S   UNL A   1      33.074  24.853  22.360  1.00  0.00    -0.112 S 
ATOM     87  C   UNL A   1      31.931  23.671  24.276  1.00  0.00     0.132 A 
ATOM     88  C   UNL A   1      33.140  23.690  23.615  1.00  0.00     0.055 A 
BRANCH  88  89
ATOM     89  C   UNL A   1      34.347  22.915  23.886  1.00  0.00    -0.007 A 
ATOM     90  C   UNL A   1      35.552  23.293  23.275  1.00  0.00     0.009 A 
ATOM     91  C   UNL A   1      34.347  21.842  24.783  1.00  0.00     0.009 A 
ATOM     92  C   UNL A   1      36.738  22.619  23.569  1.00  0.00     0.001 A 
ATOM     93  C   UNL A   1      35.537  21.165  25.071  1.00  0.00     0.001 A 
ATOM     94  C   UNL A   1      36.734  21.557  24.469  1.00  0.00     0.000 A 
ENDBRANCH  88  89
ENDBRANCH  81  84
ENDBRANCH  75  77
ENDBRANCH  74  75
ENDBRANCH  73  74
ENDBRANCH  72  73
ENDBRANCH   1  72
TORSDOF 16
ENDMDL
