MODEL 1
REMARK VINA RESULT:     -12.8      0.000      0.000
REMARK SMILES CSc1ccc(/C=C2\C(C)=C(CC(=O)OCCOCCOC(=O)c3ccc(-c4c5nc(c(-c6c(F)c(F)c(F)c(F)c6F)c6ccc([nH]6)c(-c6c(F)c(F)c(F)c(F)c6F)c6nc(c(-c7c(F)c(F)c(F)c(F)c7F)c7ccc4[nH]7)C=C6)C=C5)cc3)c3cc(F)ccc32)cc1
REMARK SMILES IDX 17 1 16 2 15 3 13 4 14 5 12 6 11 7 7 8 8 9 9 10 93 11 10 12
REMARK SMILES IDX 87 13 92 14 88 15 91 16 89 17 90 18 6 19 3 20 4 21 95 22
REMARK SMILES IDX 5 23 94 24 2 25 1 26 18 27 19 28 20 29 21 30 22 31 23 32
REMARK SMILES IDX 24 33 25 34 86 35 26 36 85 37 27 38 28 39 29 40 79 41 30 42
REMARK SMILES IDX 84 43 78 44 80 45 31 46 83 47 77 48 76 49 32 51 64 52 44 53
REMARK SMILES IDX 63 54 45 55 48 56 62 57 81 58 46 59 47 60 61 62 82 63 49 64
REMARK SMILES IDX 33 65 34 66 42 67 35 68 36 69 40 70 43 71 37 72 38 73 41 74
REMARK SMILES IDX 39 75 65 76 66 77 74 78 67 79 68 80 72 81 75 82 69 83 70 84
REMARK SMILES IDX 73 85 71 86 50 87 51 88 59 89 52 90 53 91 57 92 60 93 54 94
REMARK SMILES IDX 55 95 58 96 56 97
REMARK H PARENT 80 50 48 61
REMARK Flexibility Score: inf
ROOT
ATOM      1  C   UNL A   1      41.084  21.301  26.562  1.00  0.00     0.202 C 
ENDROOT
BRANCH   1   2
ATOM      2  C   UNL A   1      39.814  22.149  26.658  1.00  0.00     0.261 C 
BRANCH   2   3
ATOM      3  O   UNL A   1      38.783  21.702  25.760  1.00  0.00    -0.463 OA
BRANCH   3   4
ATOM      4  C   UNL A   1      37.834  22.629  25.467  1.00  0.00     0.310 C 
ATOM      5  O   UNL A   1      37.880  23.810  25.798  1.00  0.00    -0.252 OA
BRANCH   4   6
ATOM      6  C   UNL A   1      36.627  22.058  24.755  1.00  0.00     0.159 C 
BRANCH   6   7
ATOM      7  C   UNL A   1      35.489  21.483  25.603  1.00  0.00    -0.025 C 
ATOM      8  C   UNL A   1      33.108  23.943  24.866  1.00  0.00     0.017 C 
ATOM      9  C   UNL A   1      33.712  22.778  25.136  1.00  0.00    -0.014 C 
ATOM     10  C   UNL A   1      34.649  22.372  26.214  1.00  0.00    -0.039 C 
ATOM     11  C   UNL A   1      33.487  21.552  24.352  1.00  0.00    -0.010 A 
ATOM     12  C   UNL A   1      33.915  21.896  27.468  1.00  0.00     0.045 C 
ATOM     13  C   UNL A   1      34.517  20.694  24.780  1.00  0.00    -0.011 A 
ATOM     14  C   UNL A   1      32.317  21.077  23.777  1.00  0.00     0.012 A 
ATOM     15  C   UNL A   1      34.346  19.323  24.721  1.00  0.00     0.048 A 
ATOM     16  C   UNL A   1      32.155  19.694  23.698  1.00  0.00     0.040 A 
ATOM     17  C   UNL A   1      33.151  18.839  24.190  1.00  0.00     0.123 A 
ATOM     18  F   UNL A   1      32.908  17.521  24.236  1.00  0.00    -0.207 F 
BRANCH   8  19
ATOM     19  C   UNL A   1      32.873  25.124  25.723  1.00  0.00    -0.025 A 
ATOM     20  C   UNL A   1      32.255  27.829  25.872  1.00  0.00     0.007 A 
ATOM     21  C   UNL A   1      31.263  26.882  26.111  1.00  0.00     0.015 A 
ATOM     22  C   UNL A   1      33.590  27.434  25.830  1.00  0.00     0.015 A 
ATOM     23  C   UNL A   1      31.586  25.529  26.081  1.00  0.00     0.009 A 
ATOM     24  C   UNL A   1      33.902  26.076  25.762  1.00  0.00     0.009 A 
BRANCH  20  25
ATOM     25  S   UNL A   1      31.792  29.459  25.324  1.00  0.00    -0.130 SA
ATOM     26  C   UNL A   1      30.953  28.942  23.787  1.00  0.00     0.091 C 
ENDBRANCH  20  25
ENDBRANCH   8  19
ENDBRANCH   6   7
ENDBRANCH   4   6
ENDBRANCH   3   4
ENDBRANCH   2   3
ENDBRANCH   1   2
BRANCH   1  27
ATOM     27  O   UNL A   1      41.945  21.614  25.469  1.00  0.00    -0.374 OA
BRANCH  27  28
ATOM     28  C   UNL A   1      43.348  21.399  25.658  1.00  0.00     0.202 C 
BRANCH  28  29
ATOM     29  C   UNL A   1      44.249  22.328  24.842  1.00  0.00     0.261 C 
BRANCH  29  30
ATOM     30  O   UNL A   1      43.575  23.582  24.626  1.00  0.00    -0.460 OA
BRANCH  30  31
ATOM     31  C   UNL A   1      44.287  24.654  25.039  1.00  0.00     0.338 C 
ATOM     32  O   UNL A   1      45.367  25.030  24.625  1.00  0.00    -0.246 OA
BRANCH  31  33
ATOM     33  C   UNL A   1      43.453  25.452  25.952  1.00  0.00     0.060 A 
ATOM     34  C   UNL A   1      43.843  26.772  26.199  1.00  0.00     0.016 A 
ATOM     35  C   UNL A   1      42.382  24.882  26.640  1.00  0.00     0.016 A 
ATOM     36  C   UNL A   1      43.190  27.513  27.182  1.00  0.00     0.010 A 
ATOM     37  C   UNL A   1      41.721  25.631  27.620  1.00  0.00     0.010 A 
ATOM     38  C   UNL A   1      42.150  26.936  27.926  1.00  0.00    -0.014 A 
BRANCH  38  39
ATOM     39  C   UNL A   1      41.630  27.659  29.115  1.00  0.00     0.031 A 
ATOM     40  C   UNL A   1      42.351  27.531  30.431  1.00  0.00     0.074 A 
ATOM     41  C   UNL A   1      40.565  28.477  29.014  1.00  0.00     0.049 A 
ATOM     42  N   UNL A   1      42.111  28.130  31.570  1.00  0.00    -0.248 NA
ATOM     43  C   UNL A   1      43.496  26.609  30.466  1.00  0.00     0.031 C 
ATOM     44  C   UNL A   1      39.789  28.703  27.797  1.00  0.00     0.029 A 
ATOM     45  N   UNL A   1      39.961  29.273  29.954  1.00  0.00    -0.354 N 
ATOM     46  C   UNL A   1      43.074  27.660  32.454  1.00  0.00     0.074 A 
ATOM     47  C   UNL A   1      43.880  26.700  31.731  1.00  0.00     0.031 C 
ATOM     48  C   UNL A   1      38.810  29.584  28.064  1.00  0.00     0.029 A 
ATOM     49  C   UNL A   1      38.880  29.970  29.473  1.00  0.00     0.049 A 
ATOM     50  H   UNL A   1      40.271  29.338  30.886  1.00  0.00     0.167 HD
ATOM     51  C   UNL A   1      43.279  28.008  33.746  1.00  0.00     0.037 A 
ATOM     52  C   UNL A   1      38.040  30.817  30.100  1.00  0.00     0.037 A 
ATOM     53  C   UNL A   1      42.491  28.971  34.468  1.00  0.00     0.049 A 
ATOM     54  C   UNL A   1      38.261  31.149  31.553  1.00  0.00     0.074 A 
ATOM     55  C   UNL A   1      42.658  29.423  35.767  1.00  0.00     0.029 A 
ATOM     56  N   UNL A   1      41.383  29.627  33.958  1.00  0.00    -0.354 N 
ATOM     57  N   UNL A   1      39.212  30.745  32.360  1.00  0.00    -0.248 NA
ATOM     58  C   UNL A   1      37.294  32.063  32.179  1.00  0.00     0.031 C 
ATOM     59  C   UNL A   1      41.621  30.315  36.057  1.00  0.00     0.029 A 
ATOM     60  C   UNL A   1      40.835  30.455  34.925  1.00  0.00     0.049 A 
ATOM     61  H   UNL A   1      41.035  29.520  33.043  1.00  0.00     0.167 HD
ATOM     62  C   UNL A   1      38.972  31.372  33.577  1.00  0.00     0.074 A 
ATOM     63  C   UNL A   1      37.795  32.196  33.400  1.00  0.00     0.031 C 
ATOM     64  C   UNL A   1      39.667  31.274  34.737  1.00  0.00     0.037 A 
BRANCH  51  65
ATOM     65  C   UNL A   1      44.401  27.332  34.477  1.00  0.00     0.064 A 
ATOM     66  C   UNL A   1      44.219  26.100  35.122  1.00  0.00     0.173 A 
ATOM     67  C   UNL A   1      45.683  27.899  34.487  1.00  0.00     0.173 A 
ATOM     68  F   UNL A   1      43.008  25.524  35.150  1.00  0.00    -0.203 F 
ATOM     69  C   UNL A   1      45.280  25.468  35.767  1.00  0.00     0.198 A 
ATOM     70  C   UNL A   1      46.747  27.253  35.111  1.00  0.00     0.198 A 
ATOM     71  F   UNL A   1      45.908  29.073  33.880  1.00  0.00    -0.203 F 
ATOM     72  F   UNL A   1      45.078  24.308  36.406  1.00  0.00    -0.200 F 
ATOM     73  C   UNL A   1      46.543  26.040  35.754  1.00  0.00     0.200 A 
ATOM     74  F   UNL A   1      47.969  27.802  35.090  1.00  0.00    -0.200 F 
ATOM     75  F   UNL A   1      47.565  25.426  36.367  1.00  0.00    -0.200 F 
ENDBRANCH  51  65
BRANCH  52  76
ATOM     76  C   UNL A   1      36.902  31.416  29.357  1.00  0.00     0.064 A 
ATOM     77  C   UNL A   1      36.897  32.773  29.007  1.00  0.00     0.173 A 
ATOM     78  C   UNL A   1      35.782  30.647  29.007  1.00  0.00     0.173 A 
ATOM     79  F   UNL A   1      37.933  33.554  29.345  1.00  0.00    -0.203 F 
ATOM     80  C   UNL A   1      35.808  33.342  28.350  1.00  0.00     0.198 A 
ATOM     81  C   UNL A   1      34.706  31.211  28.327  1.00  0.00     0.198 A 
ATOM     82  F   UNL A   1      35.737  29.344  29.323  1.00  0.00    -0.203 F 
ATOM     83  F   UNL A   1      35.809  34.652  28.069  1.00  0.00    -0.200 F 
ATOM     84  C   UNL A   1      34.715  32.560  28.007  1.00  0.00     0.200 A 
ATOM     85  F   UNL A   1      33.656  30.450  27.991  1.00  0.00    -0.200 F 
ATOM     86  F   UNL A   1      33.668  33.108  27.376  1.00  0.00    -0.200 F 
ENDBRANCH  52  76
BRANCH  64  87
ATOM     87  C   UNL A   1      39.191  32.094  35.900  1.00  0.00     0.064 A 
ATOM     88  C   UNL A   1      39.638  33.408  36.102  1.00  0.00     0.173 A 
ATOM     89  C   UNL A   1      38.243  31.577  36.797  1.00  0.00     0.173 A 
ATOM     90  F   UNL A   1      40.554  33.943  35.281  1.00  0.00    -0.203 F 
ATOM     91  C   UNL A   1      39.170  34.166  37.172  1.00  0.00     0.198 A 
ATOM     92  C   UNL A   1      37.757  32.347  37.850  1.00  0.00     0.198 A 
ATOM     93  F   UNL A   1      37.778  30.328  36.642  1.00  0.00    -0.203 F 
ATOM     94  F   UNL A   1      39.643  35.405  37.371  1.00  0.00    -0.200 F 
ATOM     95  C   UNL A   1      38.226  33.638  38.040  1.00  0.00     0.200 A 
ATOM     96  F   UNL A   1      36.837  31.840  38.680  1.00  0.00    -0.200 F 
ATOM     97  F   UNL A   1      37.772  34.372  39.066  1.00  0.00    -0.200 F 
ENDBRANCH  64  87
ENDBRANCH  38  39
ENDBRANCH  31  33
ENDBRANCH  30  31
ENDBRANCH  29  30
ENDBRANCH  28  29
ENDBRANCH  27  28
ENDBRANCH   1  27
TORSDOF 17
ENDMDL
MODEL 2
REMARK VINA RESULT:     -12.2      1.939      3.646
REMARK SMILES CSc1ccc(/C=C2\C(C)=C(CC(=O)OCCOCCOC(=O)c3ccc(-c4c5nc(c(-c6c(F)c(F)c(F)c(F)c6F)c6ccc([nH]6)c(-c6c(F)c(F)c(F)c(F)c6F)c6nc(c(-c7c(F)c(F)c(F)c(F)c7F)c7ccc4[nH]7)C=C6)C=C5)cc3)c3cc(F)ccc32)cc1
REMARK SMILES IDX 17 1 16 2 15 3 13 4 14 5 12 6 11 7 7 8 8 9 9 10 93 11 10 12
REMARK SMILES IDX 87 13 92 14 88 15 91 16 89 17 90 18 6 19 3 20 4 21 95 22
REMARK SMILES IDX 5 23 94 24 2 25 1 26 18 27 19 28 20 29 21 30 22 31 23 32
REMARK SMILES IDX 24 33 25 34 86 35 26 36 85 37 27 38 28 39 29 40 79 41 30 42
REMARK SMILES IDX 84 43 78 44 80 45 31 46 83 47 77 48 76 49 32 51 64 52 44 53
REMARK SMILES IDX 63 54 45 55 48 56 62 57 81 58 46 59 47 60 61 62 82 63 49 64
REMARK SMILES IDX 33 65 34 66 42 67 35 68 36 69 40 70 43 71 37 72 38 73 41 74
REMARK SMILES IDX 39 75 65 76 66 77 74 78 67 79 68 80 72 81 75 82 69 83 70 84
REMARK SMILES IDX 73 85 71 86 50 87 51 88 59 89 52 90 53 91 57 92 60 93 54 94
REMARK SMILES IDX 55 95 58 96 56 97
REMARK H PARENT 80 50 48 61
REMARK Flexibility Score: inf
ROOT
ATOM      1  C   UNL A   1      40.934  21.723  26.971  1.00  0.00     0.202 C 
ENDROOT
BRANCH   1   2
ATOM      2  C   UNL A   1      39.553  22.380  26.926  1.00  0.00     0.261 C 
BRANCH   2   3
ATOM      3  O   UNL A   1      39.144  22.713  25.588  1.00  0.00    -0.463 OA
BRANCH   3   4
ATOM      4  C   UNL A   1      37.849  22.427  25.294  1.00  0.00     0.310 C 
ATOM      5  O   UNL A   1      37.474  21.456  24.643  1.00  0.00    -0.252 OA
BRANCH   4   6
ATOM      6  C   UNL A   1      36.871  23.481  25.767  1.00  0.00     0.159 C 
BRANCH   6   7
ATOM      7  C   UNL A   1      35.719  23.871  24.836  1.00  0.00    -0.025 C 
ATOM      8  C   UNL A   1      33.629  21.159  25.572  1.00  0.00     0.017 C 
ATOM      9  C   UNL A   1      34.095  22.380  25.277  1.00  0.00    -0.014 C 
ATOM     10  C   UNL A   1      35.031  22.857  24.228  1.00  0.00    -0.039 C 
ATOM     11  C   UNL A   1      33.676  23.598  25.989  1.00  0.00    -0.010 A 
ATOM     12  C   UNL A   1      34.314  23.183  22.918  1.00  0.00     0.045 C 
ATOM     13  C   UNL A   1      34.611  24.562  25.572  1.00  0.00    -0.011 A 
ATOM     14  C   UNL A   1      32.425  23.943  26.483  1.00  0.00     0.012 A 
ATOM     15  C   UNL A   1      34.267  25.902  25.557  1.00  0.00     0.048 A 
ATOM     16  C   UNL A   1      32.087  25.296  26.487  1.00  0.00     0.040 A 
ATOM     17  C   UNL A   1      32.993  26.250  26.005  1.00  0.00     0.123 A 
ATOM     18  F   UNL A   1      32.589  27.523  25.883  1.00  0.00    -0.207 F 
BRANCH   8  19
ATOM     19  C   UNL A   1      33.591  19.923  24.762  1.00  0.00    -0.025 A 
ATOM     20  C   UNL A   1      33.790  17.153  24.699  1.00  0.00     0.007 A 
ATOM     21  C   UNL A   1      32.535  17.752  24.681  1.00  0.00     0.015 A 
ATOM     22  C   UNL A   1      34.928  17.925  24.475  1.00  0.00     0.015 A 
ATOM     23  C   UNL A   1      32.439  19.141  24.667  1.00  0.00     0.009 A 
ATOM     24  C   UNL A   1      34.827  19.317  24.499  1.00  0.00     0.009 A 
BRANCH  20  25
ATOM     25  S   UNL A   1      33.954  15.486  25.303  1.00  0.00    -0.130 SA
ATOM     26  C   UNL A   1      32.206  15.252  25.774  1.00  0.00     0.091 C 
ENDBRANCH  20  25
ENDBRANCH   8  19
ENDBRANCH   6   7
ENDBRANCH   4   6
ENDBRANCH   3   4
ENDBRANCH   2   3
ENDBRANCH   1   2
BRANCH   1  27
ATOM     27  O   UNL A   1      41.657  21.737  25.741  1.00  0.00    -0.374 OA
BRANCH  27  28
ATOM     28  C   UNL A   1      43.059  21.454  25.802  1.00  0.00     0.202 C 
BRANCH  28  29
ATOM     29  C   UNL A   1      43.919  22.293  24.855  1.00  0.00     0.261 C 
BRANCH  29  30
ATOM     30  O   UNL A   1      43.281  23.564  24.627  1.00  0.00    -0.460 OA
BRANCH  30  31
ATOM     31  C   UNL A   1      44.050  24.621  24.972  1.00  0.00     0.338 C 
ATOM     32  O   UNL A   1      45.127  24.937  24.505  1.00  0.00    -0.246 OA
BRANCH  31  33
ATOM     33  C   UNL A   1      43.281  25.487  25.880  1.00  0.00     0.060 A 
ATOM     34  C   UNL A   1      43.873  26.687  26.285  1.00  0.00     0.016 A 
ATOM     35  C   UNL A   1      42.061  25.075  26.415  1.00  0.00     0.016 A 
ATOM     36  C   UNL A   1      43.265  27.458  27.275  1.00  0.00     0.010 A 
ATOM     37  C   UNL A   1      41.446  25.856  27.401  1.00  0.00     0.010 A 
ATOM     38  C   UNL A   1      42.067  27.030  27.866  1.00  0.00    -0.014 A 
BRANCH  38  39
ATOM     39  C   UNL A   1      41.564  27.742  29.069  1.00  0.00     0.031 A 
ATOM     40  C   UNL A   1      42.296  27.590  30.377  1.00  0.00     0.074 A 
ATOM     41  C   UNL A   1      40.507  28.571  28.988  1.00  0.00     0.049 A 
ATOM     42  N   UNL A   1      42.072  28.176  31.526  1.00  0.00    -0.248 NA
ATOM     43  C   UNL A   1      43.433  26.657  30.390  1.00  0.00     0.031 C 
ATOM     44  C   UNL A   1      39.722  28.821  27.781  1.00  0.00     0.029 A 
ATOM     45  N   UNL A   1      39.918  29.360  29.944  1.00  0.00    -0.354 N 
ATOM     46  C   UNL A   1      43.037  27.686  32.395  1.00  0.00     0.074 A 
ATOM     47  C   UNL A   1      43.828  26.728  31.652  1.00  0.00     0.031 C 
ATOM     48  C   UNL A   1      38.754  29.708  28.069  1.00  0.00     0.029 A 
ATOM     49  C   UNL A   1      38.840  30.074  29.482  1.00  0.00     0.049 A 
ATOM     50  H   UNL A   1      40.238  29.411  30.873  1.00  0.00     0.167 HD
ATOM     51  C   UNL A   1      43.258  28.015  33.690  1.00  0.00     0.037 A 
ATOM     52  C   UNL A   1      38.014  30.921  30.127  1.00  0.00     0.037 A 
ATOM     53  C   UNL A   1      42.485  28.977  34.431  1.00  0.00     0.049 A 
ATOM     54  C   UNL A   1      38.251  31.232  31.582  1.00  0.00     0.074 A 
ATOM     55  C   UNL A   1      42.668  29.409  35.734  1.00  0.00     0.029 A 
ATOM     56  N   UNL A   1      41.379  29.649  33.939  1.00  0.00    -0.354 N 
ATOM     57  N   UNL A   1      39.205  30.808  32.375  1.00  0.00    -0.248 NA
ATOM     58  C   UNL A   1      37.299  32.147  32.228  1.00  0.00     0.031 C 
ATOM     59  C   UNL A   1      41.642  30.308  36.045  1.00  0.00     0.029 A 
ATOM     60  C   UNL A   1      40.848  30.469  34.922  1.00  0.00     0.049 A 
ATOM     61  H   UNL A   1      41.022  29.558  33.026  1.00  0.00     0.167 HD
ATOM     62  C   UNL A   1      38.982  31.422  33.602  1.00  0.00     0.074 A 
ATOM     63  C   UNL A   1      37.812  32.259  33.446  1.00  0.00     0.031 C 
ATOM     64  C   UNL A   1      39.686  31.302  34.755  1.00  0.00     0.037 A 
BRANCH  51  65
ATOM     65  C   UNL A   1      44.379  27.319  34.402  1.00  0.00     0.064 A 
ATOM     66  C   UNL A   1      45.659  27.887  34.487  1.00  0.00     0.173 A 
ATOM     67  C   UNL A   1      44.156  26.096  35.049  1.00  0.00     0.173 A 
ATOM     68  F   UNL A   1      45.924  29.050  33.875  1.00  0.00    -0.203 F 
ATOM     69  C   UNL A   1      46.681  27.244  35.182  1.00  0.00     0.198 A 
ATOM     70  C   UNL A   1      45.173  25.468  35.764  1.00  0.00     0.198 A 
ATOM     71  F   UNL A   1      42.948  25.516  35.001  1.00  0.00    -0.203 F 
ATOM     72  F   UNL A   1      47.905  27.786  35.223  1.00  0.00    -0.200 F 
ATOM     73  C   UNL A   1      46.435  26.040  35.826  1.00  0.00     0.200 A 
ATOM     74  F   UNL A   1      44.931  24.309  36.393  1.00  0.00    -0.200 F 
ATOM     75  F   UNL A   1      47.416  25.427  36.501  1.00  0.00    -0.200 F 
ENDBRANCH  51  65
BRANCH  52  76
ATOM     76  C   UNL A   1      36.875  31.540  29.402  1.00  0.00     0.064 A 
ATOM     77  C   UNL A   1      36.861  32.911  29.108  1.00  0.00     0.173 A 
ATOM     78  C   UNL A   1      35.765  30.777  29.013  1.00  0.00     0.173 A 
ATOM     79  F   UNL A   1      37.888  33.686  29.485  1.00  0.00    -0.203 F 
ATOM     80  C   UNL A   1      35.770  33.497  28.468  1.00  0.00     0.198 A 
ATOM     81  C   UNL A   1      34.688  31.359  28.349  1.00  0.00     0.198 A 
ATOM     82  F   UNL A   1      35.730  29.462  29.274  1.00  0.00    -0.203 F 
ATOM     83  F   UNL A   1      35.761  34.818  28.242  1.00  0.00    -0.200 F 
ATOM     84  C   UNL A   1      34.687  32.720  28.086  1.00  0.00     0.200 A 
ATOM     85  F   UNL A   1      33.647  30.604  27.975  1.00  0.00    -0.200 F 
ATOM     86  F   UNL A   1      33.639  33.285  27.472  1.00  0.00    -0.200 F 
ENDBRANCH  52  76
BRANCH  64  87
ATOM     87  C   UNL A   1      39.228  32.112  35.932  1.00  0.00     0.064 A 
ATOM     88  C   UNL A   1      39.689  33.419  36.147  1.00  0.00     0.173 A 
ATOM     89  C   UNL A   1      38.284  31.591  36.831  1.00  0.00     0.173 A 
ATOM     90  F   UNL A   1      40.603  33.956  35.325  1.00  0.00    -0.203 F 
ATOM     91  C   UNL A   1      39.238  34.167  37.231  1.00  0.00     0.198 A 
ATOM     92  C   UNL A   1      37.815  32.352  37.898  1.00  0.00     0.198 A 
ATOM     93  F   UNL A   1      37.806  30.349  36.665  1.00  0.00    -0.203 F 
ATOM     94  F   UNL A   1      39.723  35.399  37.441  1.00  0.00    -0.200 F 
ATOM     95  C   UNL A   1      38.297  33.637  38.101  1.00  0.00     0.200 A 
ATOM     96  F   UNL A   1      36.897  31.843  38.731  1.00  0.00    -0.200 F 
ATOM     97  F   UNL A   1      37.859  34.361  39.140  1.00  0.00    -0.200 F 
ENDBRANCH  64  87
ENDBRANCH  38  39
ENDBRANCH  31  33
ENDBRANCH  30  31
ENDBRANCH  29  30
ENDBRANCH  28  29
ENDBRANCH  27  28
ENDBRANCH   1  27
TORSDOF 17
ENDMDL
MODEL 3
REMARK VINA RESULT:     -12.1      4.422      7.531
REMARK SMILES CSc1ccc(/C=C2\C(C)=C(CC(=O)OCCOCCOC(=O)c3ccc(-c4c5nc(c(-c6c(F)c(F)c(F)c(F)c6F)c6ccc([nH]6)c(-c6c(F)c(F)c(F)c(F)c6F)c6nc(c(-c7c(F)c(F)c(F)c(F)c7F)c7ccc4[nH]7)C=C6)C=C5)cc3)c3cc(F)ccc32)cc1
REMARK SMILES IDX 17 1 16 2 15 3 13 4 14 5 12 6 11 7 7 8 8 9 9 10 93 11 10 12
REMARK SMILES IDX 87 13 92 14 88 15 91 16 89 17 90 18 6 19 3 20 4 21 95 22
REMARK SMILES IDX 5 23 94 24 2 25 1 26 18 27 19 28 20 29 21 30 22 31 23 32
REMARK SMILES IDX 24 33 25 34 86 35 26 36 85 37 27 38 28 39 29 40 79 41 30 42
REMARK SMILES IDX 84 43 78 44 80 45 31 46 83 47 77 48 76 49 32 51 64 52 44 53
REMARK SMILES IDX 63 54 45 55 48 56 62 57 81 58 46 59 47 60 61 62 82 63 49 64
REMARK SMILES IDX 33 65 34 66 42 67 35 68 36 69 40 70 43 71 37 72 38 73 41 74
REMARK SMILES IDX 39 75 65 76 66 77 74 78 67 79 68 80 72 81 75 82 69 83 70 84
REMARK SMILES IDX 73 85 71 86 50 87 51 88 59 89 52 90 53 91 57 92 60 93 54 94
REMARK SMILES IDX 55 95 58 96 56 97
REMARK H PARENT 80 50 48 61
REMARK Flexibility Score: inf
ROOT
ATOM      1  C   UNL A   1      34.607  22.935  22.881  1.00  0.00     0.202 C 
ENDROOT
BRANCH   1   2
ATOM      2  C   UNL A   1      33.491  23.981  22.852  1.00  0.00     0.261 C 
BRANCH   2   3
ATOM      3  O   UNL A   1      33.787  25.079  21.972  1.00  0.00    -0.463 OA
BRANCH   3   4
ATOM      4  C   UNL A   1      32.786  25.986  21.827  1.00  0.00     0.310 C 
ATOM      5  O   UNL A   1      31.912  25.936  20.966  1.00  0.00    -0.252 OA
BRANCH   4   6
ATOM      6  C   UNL A   1      32.882  27.155  22.783  1.00  0.00     0.159 C 
BRANCH   6   7
ATOM      7  C   UNL A   1      31.726  27.390  23.760  1.00  0.00    -0.025 C 
ATOM      8  C   UNL A   1      32.897  25.320  26.330  1.00  0.00     0.017 C 
ATOM      9  C   UNL A   1      32.337  26.323  25.642  1.00  0.00    -0.014 C 
ATOM     10  C   UNL A   1      31.339  26.337  24.542  1.00  0.00    -0.039 C 
ATOM     11  C   UNL A   1      32.607  27.743  25.922  1.00  0.00    -0.010 A 
ATOM     12  C   UNL A   1      29.903  26.342  25.065  1.00  0.00     0.045 C 
ATOM     13  C   UNL A   1      32.070  28.408  24.805  1.00  0.00    -0.011 A 
ATOM     14  C   UNL A   1      32.800  28.379  27.140  1.00  0.00     0.012 A 
ATOM     15  C   UNL A   1      31.627  29.713  24.920  1.00  0.00     0.048 A 
ATOM     16  C   UNL A   1      32.371  29.702  27.250  1.00  0.00     0.040 A 
ATOM     17  C   UNL A   1      31.772  30.341  26.157  1.00  0.00     0.123 A 
ATOM     18  F   UNL A   1      31.238  31.559  26.331  1.00  0.00    -0.207 F 
BRANCH   8  19
ATOM     19  C   UNL A   1      32.475  23.912  26.492  1.00  0.00    -0.025 A 
ATOM     20  C   UNL A   1      32.301  21.373  25.379  1.00  0.00     0.007 A 
ATOM     21  C   UNL A   1      33.314  21.656  26.290  1.00  0.00     0.015 A 
ATOM     22  C   UNL A   1      31.233  22.256  25.236  1.00  0.00     0.015 A 
ATOM     23  C   UNL A   1      33.371  22.915  26.880  1.00  0.00     0.009 A 
ATOM     24  C   UNL A   1      31.317  23.530  25.800  1.00  0.00     0.009 A 
BRANCH  20  25
ATOM     25  S   UNL A   1      32.528  20.057  24.201  1.00  0.00    -0.130 SA
ATOM     26  C   UNL A   1      34.224  19.605  24.704  1.00  0.00     0.091 C 
ENDBRANCH  20  25
ENDBRANCH   8  19
ENDBRANCH   6   7
ENDBRANCH   4   6
ENDBRANCH   3   4
ENDBRANCH   2   3
ENDBRANCH   1   2
BRANCH   1  27
ATOM     27  O   UNL A   1      35.506  23.032  23.984  1.00  0.00    -0.374 OA
BRANCH  27  28
ATOM     28  C   UNL A   1      36.879  22.706  23.743  1.00  0.00     0.202 C 
BRANCH  28  29
ATOM     29  C   UNL A   1      37.360  21.426  24.427  1.00  0.00     0.261 C 
BRANCH  29  30
ATOM     30  O   UNL A   1      37.666  21.706  25.806  1.00  0.00    -0.460 OA
BRANCH  30  31
ATOM     31  C   UNL A   1      38.971  21.535  26.113  1.00  0.00     0.338 C 
ATOM     32  O   UNL A   1      39.705  20.634  25.754  1.00  0.00    -0.246 OA
BRANCH  31  33
ATOM     33  C   UNL A   1      39.456  22.742  26.800  1.00  0.00     0.060 A 
ATOM     34  C   UNL A   1      38.825  23.954  26.502  1.00  0.00     0.016 A 
ATOM     35  C   UNL A   1      40.580  22.705  27.625  1.00  0.00     0.016 A 
ATOM     36  C   UNL A   1      39.355  25.147  26.991  1.00  0.00     0.010 A 
ATOM     37  C   UNL A   1      41.104  23.903  28.124  1.00  0.00     0.010 A 
ATOM     38  C   UNL A   1      40.519  25.135  27.773  1.00  0.00    -0.014 A 
BRANCH  38  39
ATOM     39  C   UNL A   1      41.189  26.422  28.086  1.00  0.00     0.031 A 
ATOM     40  C   UNL A   1      42.600  26.654  27.613  1.00  0.00     0.074 A 
ATOM     41  C   UNL A   1      40.530  27.406  28.727  1.00  0.00     0.049 A 
ATOM     42  N   UNL A   1      43.344  27.727  27.713  1.00  0.00    -0.248 NA
ATOM     43  C   UNL A   1      43.259  25.529  26.932  1.00  0.00     0.031 C 
ATOM     44  C   UNL A   1      39.159  27.317  29.222  1.00  0.00     0.029 A 
ATOM     45  N   UNL A   1      40.931  28.675  29.063  1.00  0.00    -0.354 N 
ATOM     46  C   UNL A   1      44.552  27.407  27.109  1.00  0.00     0.074 A 
ATOM     47  C   UNL A   1      44.458  26.030  26.676  1.00  0.00     0.031 C 
ATOM     48  C   UNL A   1      38.829  28.486  29.797  1.00  0.00     0.029 A 
ATOM     49  C   UNL A   1      39.970  29.398  29.726  1.00  0.00     0.049 A 
ATOM     50  H   UNL A   1      41.822  29.034  28.848  1.00  0.00     0.167 HD
ATOM     51  C   UNL A   1      45.638  28.195  26.917  1.00  0.00     0.037 A 
ATOM     52  C   UNL A   1      40.011  30.649  30.224  1.00  0.00     0.037 A 
ATOM     53  C   UNL A   1      45.734  29.569  27.332  1.00  0.00     0.049 A 
ATOM     54  C   UNL A   1      41.250  31.486  30.041  1.00  0.00     0.074 A 
ATOM     55  C   UNL A   1      46.778  30.458  27.135  1.00  0.00     0.029 A 
ATOM     56  N   UNL A   1      44.755  30.252  28.034  1.00  0.00    -0.354 N 
ATOM     57  N   UNL A   1      42.363  31.193  29.414  1.00  0.00    -0.248 NA
ATOM     58  C   UNL A   1      41.232  32.834  30.629  1.00  0.00     0.031 C 
ATOM     59  C   UNL A   1      46.449  31.664  27.761  1.00  0.00     0.029 A 
ATOM     60  C   UNL A   1      45.183  31.542  28.308  1.00  0.00     0.049 A 
ATOM     61  H   UNL A   1      43.884  29.877  28.300  1.00  0.00     0.167 HD
ATOM     62  C   UNL A   1      43.165  32.324  29.511  1.00  0.00     0.074 A 
ATOM     63  C   UNL A   1      42.407  33.315  30.244  1.00  0.00     0.031 C 
ATOM     64  C   UNL A   1      44.418  32.522  29.034  1.00  0.00     0.037 A 
BRANCH  51  65
ATOM     65  C   UNL A   1      46.825  27.584  26.232  1.00  0.00     0.064 A 
ATOM     66  C   UNL A   1      46.980  27.644  24.840  1.00  0.00     0.173 A 
ATOM     67  C   UNL A   1      47.842  26.980  26.984  1.00  0.00     0.173 A 
ATOM     68  F   UNL A   1      46.028  28.202  24.077  1.00  0.00    -0.203 F 
ATOM     69  C   UNL A   1      48.106  27.103  24.223  1.00  0.00     0.198 A 
ATOM     70  C   UNL A   1      48.977  26.462  26.367  1.00  0.00     0.198 A 
ATOM     71  F   UNL A   1      47.742  26.904  28.320  1.00  0.00    -0.203 F 
ATOM     72  F   UNL A   1      48.219  27.140  22.889  1.00  0.00    -0.200 F 
ATOM     73  C   UNL A   1      49.106  26.520  24.987  1.00  0.00     0.200 A 
ATOM     74  F   UNL A   1      49.948  25.908  27.107  1.00  0.00    -0.200 F 
ATOM     75  F   UNL A   1      50.193  26.008  24.393  1.00  0.00    -0.200 F 
ENDBRANCH  51  65
BRANCH  52  76
ATOM     76  C   UNL A   1      38.836  31.194  30.953  1.00  0.00     0.064 A 
ATOM     77  C   UNL A   1      37.835  31.911  30.283  1.00  0.00     0.173 A 
ATOM     78  C   UNL A   1      38.706  31.031  32.340  1.00  0.00     0.173 A 
ATOM     79  F   UNL A   1      37.931  32.117  28.961  1.00  0.00    -0.203 F 
ATOM     80  C   UNL A   1      36.758  32.461  30.976  1.00  0.00     0.198 A 
ATOM     81  C   UNL A   1      37.615  31.558  33.027  1.00  0.00     0.198 A 
ATOM     82  F   UNL A   1      39.639  30.356  33.027  1.00  0.00    -0.203 F 
ATOM     83  F   UNL A   1      35.841  33.183  30.318  1.00  0.00    -0.200 F 
ATOM     84  C   UNL A   1      36.647  32.279  32.346  1.00  0.00     0.200 A 
ATOM     85  F   UNL A   1      37.508  31.374  34.349  1.00  0.00    -0.200 F 
ATOM     86  F   UNL A   1      35.611  32.809  33.012  1.00  0.00    -0.200 F 
ENDBRANCH  52  76
BRANCH  64  87
ATOM     87  C   UNL A   1      45.042  33.867  29.265  1.00  0.00     0.064 A 
ATOM     88  C   UNL A   1      45.879  34.108  30.365  1.00  0.00     0.173 A 
ATOM     89  C   UNL A   1      44.839  34.914  28.352  1.00  0.00     0.173 A 
ATOM     90  F   UNL A   1      46.093  33.145  31.273  1.00  0.00    -0.203 F 
ATOM     91  C   UNL A   1      46.470  35.354  30.554  1.00  0.00     0.198 A 
ATOM     92  C   UNL A   1      45.453  36.150  28.530  1.00  0.00     0.198 A 
ATOM     93  F   UNL A   1      44.054  34.732  27.280  1.00  0.00    -0.203 F 
ATOM     94  F   UNL A   1      47.233  35.575  31.634  1.00  0.00    -0.200 F 
ATOM     95  C   UNL A   1      46.263  36.371  29.634  1.00  0.00     0.200 A 
ATOM     96  F   UNL A   1      45.261  37.127  27.634  1.00  0.00    -0.200 F 
ATOM     97  F   UNL A   1      46.839  37.568  29.814  1.00  0.00    -0.200 F 
ENDBRANCH  64  87
ENDBRANCH  38  39
ENDBRANCH  31  33
ENDBRANCH  30  31
ENDBRANCH  29  30
ENDBRANCH  28  29
ENDBRANCH  27  28
ENDBRANCH   1  27
TORSDOF 17
ENDMDL
