MODEL 1
REMARK VINA RESULT:     -12.6      0.000      0.000
REMARK SMILES O=C(OCCOCCOC(=O)c1ccc(-c2c3nc(c(-c4c(F)c(F)c(F)c(F)c4F)c4ccc([nH]4)c(-c4c(F)c(F)c(F)c(F)c4F)c4nc(c(-c5c(F)c(F)c(F)c(F)c5F)c5ccc2[nH]5)C=C4)C=C3)cc1)C1=Cc2c(ccc(Cl)c2Oc2ccccc2)O[C@H]1C(F)(F)F
REMARK SMILES IDX 6 1 5 2 4 3 3 4 2 5 1 6 75 7 76 8 92 9 77 10 91 11 78 12
REMARK SMILES IDX 83 13 79 14 81 15 80 16 82 17 93 18 94 19 95 20 96 21 84 22
REMARK SMILES IDX 85 23 86 24 90 25 87 26 89 27 88 28 7 29 8 30 9 31 10 32
REMARK SMILES IDX 11 33 12 34 13 35 74 36 14 37 73 38 15 39 16 40 17 41 67 42
REMARK SMILES IDX 18 43 72 44 66 45 68 46 19 47 71 48 65 49 64 50 20 52 52 53
REMARK SMILES IDX 32 54 51 55 33 56 36 57 50 58 69 59 34 60 35 61 49 63 70 64
REMARK SMILES IDX 37 65 21 66 22 67 30 68 23 69 24 70 28 71 31 72 25 73 26 74
REMARK SMILES IDX 29 75 27 76 53 77 54 78 62 79 55 80 56 81 60 82 63 83 57 84
REMARK SMILES IDX 58 85 61 86 59 87 38 88 39 89 47 90 40 91 41 92 45 93 48 94
REMARK SMILES IDX 42 95 43 96 46 97 44 98
REMARK H PARENT 68 51 36 62
REMARK Flexibility Score: inf
ROOT
ATOM      1  O   UNL A   1      34.817  19.537  24.307  1.00  0.00    -0.374 OA
ENDROOT
BRANCH   1   2
ATOM      2  C   UNL A   1      33.744  19.644  25.189  1.00  0.00     0.202 C 
BRANCH   2   3
ATOM      3  C   UNL A   1      33.614  20.738  26.321  1.00  0.00     0.261 C 
BRANCH   3   4
ATOM      4  O   UNL A   1      32.871  21.862  25.838  1.00  0.00    -0.460 OA
BRANCH   4   5
ATOM      5  C   UNL A   1      33.360  23.115  25.913  1.00  0.00     0.338 C 
ATOM      6  O   UNL A   1      33.435  23.694  26.990  1.00  0.00    -0.246 OA
BRANCH   5   7
ATOM      7  C   UNL A   1      33.796  23.800  24.681  1.00  0.00     0.088 C 
ATOM      8  C   UNL A   1      34.101  25.098  24.550  1.00  0.00     0.031 C 
ATOM      9  C   UNL A   1      34.535  23.016  23.673  1.00  0.00     0.316 C 
ATOM     10  C   UNL A   1      33.327  25.722  23.523  1.00  0.00     0.062 A 
ATOM     11  O   UNL A   1      34.326  23.716  22.361  1.00  0.00    -0.475 OA
ATOM     12  C   UNL A   1      33.495  24.867  22.353  1.00  0.00     0.131 A 
ATOM     13  C   UNL A   1      32.479  26.862  23.662  1.00  0.00     0.156 A 
ATOM     14  C   UNL A   1      32.781  25.140  21.216  1.00  0.00     0.049 A 
ATOM     15  C   UNL A   1      31.693  26.984  22.487  1.00  0.00     0.084 A 
ATOM     16  C   UNL A   1      31.865  26.188  21.297  1.00  0.00     0.028 A 
ATOM     17  Cl  UNL A   1      30.277  27.958  22.456  1.00  0.00    -0.080 Cl
BRANCH   9  18
ATOM     18  C   UNL A   1      36.012  22.926  24.199  1.00  0.00     0.430 C 
ATOM     19  F   UNL A   1      36.794  22.134  23.405  1.00  0.00    -0.167 F 
ATOM     20  F   UNL A   1      36.627  24.125  24.247  1.00  0.00    -0.167 F 
ATOM     21  F   UNL A   1      36.074  22.367  25.430  1.00  0.00    -0.167 F 
ENDBRANCH   9  18
BRANCH  13  22
ATOM     22  O   UNL A   1      32.064  27.671  24.782  1.00  0.00    -0.455 OA
BRANCH  22  23
ATOM     23  C   UNL A   1      32.637  28.676  25.663  1.00  0.00     0.127 A 
ATOM     24  C   UNL A   1      31.714  30.239  25.787  1.00  0.00     0.047 A 
ATOM     25  C   UNL A   1      34.204  28.566  26.509  1.00  0.00     0.047 A 
ATOM     26  C   UNL A   1      32.278  31.602  26.877  1.00  0.00     0.004 A 
ATOM     27  C   UNL A   1      34.795  29.884  27.629  1.00  0.00     0.004 A 
ATOM     28  C   UNL A   1      33.868  31.442  27.784  1.00  0.00     0.000 A 
ENDBRANCH  22  23
ENDBRANCH  13  22
ENDBRANCH   5   7
ENDBRANCH   4   5
ENDBRANCH   3   4
ENDBRANCH   2   3
ENDBRANCH   1   2
BRANCH   1  29
ATOM     29  C   UNL A   1      36.046  19.108  24.998  1.00  0.00     0.202 C 
BRANCH  29  30
ATOM     30  C   UNL A   1      38.078  19.828  25.045  1.00  0.00     0.261 C 
BRANCH  30  31
ATOM     31  O   UNL A   1      38.649  21.025  25.746  1.00  0.00    -0.460 OA
BRANCH  31  32
ATOM     32  C   UNL A   1      39.825  20.908  26.381  1.00  0.00     0.338 C 
ATOM     33  O   UNL A   1      40.559  19.949  26.516  1.00  0.00    -0.246 OA
BRANCH  32  34
ATOM     34  C   UNL A   1      40.125  22.285  26.726  1.00  0.00     0.060 A 
ATOM     35  C   UNL A   1      39.308  23.272  26.187  1.00  0.00     0.016 A 
ATOM     36  C   UNL A   1      41.129  22.562  27.662  1.00  0.00     0.016 A 
ATOM     37  C   UNL A   1      39.527  24.588  26.563  1.00  0.00     0.010 A 
ATOM     38  C   UNL A   1      41.330  23.871  28.052  1.00  0.00     0.010 A 
ATOM     39  C   UNL A   1      40.547  24.885  27.480  1.00  0.00    -0.014 A 
BRANCH  39  40
ATOM     40  C   UNL A   1      41.037  26.264  27.608  1.00  0.00     0.031 A 
ATOM     41  C   UNL A   1      42.428  26.508  27.118  1.00  0.00     0.074 A 
ATOM     42  C   UNL A   1      40.333  27.221  28.227  1.00  0.00     0.049 A 
ATOM     43  N   UNL A   1      43.193  27.550  27.284  1.00  0.00    -0.248 NA
ATOM     44  C   UNL A   1      43.056  25.402  26.371  1.00  0.00     0.031 C 
ATOM     45  C   UNL A   1      38.975  27.081  28.737  1.00  0.00     0.029 A 
ATOM     46  N   UNL A   1      40.693  28.501  28.561  1.00  0.00    -0.354 N 
ATOM     47  C   UNL A   1      44.396  27.215  26.685  1.00  0.00     0.074 A 
ATOM     48  C   UNL A   1      44.271  25.873  26.168  1.00  0.00     0.031 C 
ATOM     49  C   UNL A   1      38.610  28.233  29.326  1.00  0.00     0.029 A 
ATOM     50  C   UNL A   1      39.743  29.157  29.302  1.00  0.00     0.049 A 
ATOM     51  H   UNL A   1      41.549  28.909  28.297  1.00  0.00     0.167 HD
ATOM     52  C   UNL A   1      45.517  27.962  26.592  1.00  0.00     0.037 A 
ATOM     53  C   UNL A   1      39.809  30.343  29.939  1.00  0.00     0.037 A 
ATOM     54  C   UNL A   1      45.641  29.277  27.151  1.00  0.00     0.049 A 
ATOM     55  C   UNL A   1      41.090  31.135  29.878  1.00  0.00     0.074 A 
ATOM     56  C   UNL A   1      46.725  30.132  27.100  1.00  0.00     0.029 A 
ATOM     57  N   UNL A   1      44.653  29.917  27.888  1.00  0.00    -0.354 N 
ATOM     58  N   UNL A   1      42.219  30.840  29.279  1.00  0.00    -0.248 NA
ATOM     59  C   UNL A   1      41.114  32.418  30.593  1.00  0.00     0.031 C 
ATOM     60  C   UNL A   1      46.421  31.258  27.869  1.00  0.00     0.029 A 
ATOM     61  C   UNL A   1      45.118  31.144  28.329  1.00  0.00     0.049 A 
ATOM     62  H   UNL A   1      43.758  29.552  28.069  1.00  0.00     0.167 HD
ATOM     63  C   UNL A   1      43.075  31.908  29.520  1.00  0.00     0.074 A 
ATOM     64  C   UNL A   1      42.334  32.861  30.318  1.00  0.00     0.031 C 
ATOM     65  C   UNL A   1      44.357  32.085  29.113  1.00  0.00     0.037 A 
BRANCH  52  66
ATOM     66  C   UNL A   1      46.698  27.328  25.925  1.00  0.00     0.064 A 
ATOM     67  C   UNL A   1      47.606  26.523  26.630  1.00  0.00     0.173 A 
ATOM     68  C   UNL A   1      46.947  27.567  24.566  1.00  0.00     0.173 A 
ATOM     69  F   UNL A   1      47.428  26.291  27.940  1.00  0.00    -0.203 F 
ATOM     70  C   UNL A   1      48.742  26.015  26.007  1.00  0.00     0.198 A 
ATOM     71  C   UNL A   1      48.061  27.023  23.937  1.00  0.00     0.198 A 
ATOM     72  F   UNL A   1      46.114  28.338  23.850  1.00  0.00    -0.203 F 
ATOM     73  F   UNL A   1      49.636  25.314  26.718  1.00  0.00    -0.200 F 
ATOM     74  C   UNL A   1      48.965  26.259  24.661  1.00  0.00     0.200 A 
ATOM     75  F   UNL A   1      48.270  27.252  22.633  1.00  0.00    -0.200 F 
ATOM     76  F   UNL A   1      50.060  25.771  24.063  1.00  0.00    -0.200 F 
ENDBRANCH  52  66
BRANCH  53  77
ATOM     77  C   UNL A   1      38.644  30.825  30.725  1.00  0.00     0.064 A 
ATOM     78  C   UNL A   1      38.568  30.619  32.109  1.00  0.00     0.173 A 
ATOM     79  C   UNL A   1      37.583  31.508  30.110  1.00  0.00     0.173 A 
ATOM     80  F   UNL A   1      39.542  29.947  32.740  1.00  0.00    -0.203 F 
ATOM     81  C   UNL A   1      37.471  31.064  32.844  1.00  0.00     0.198 A 
ATOM     82  C   UNL A   1      36.503  31.982  30.851  1.00  0.00     0.198 A 
ATOM     83  F   UNL A   1      37.603  31.731  28.787  1.00  0.00    -0.203 F 
ATOM     84  F   UNL A   1      37.402  30.812  34.159  1.00  0.00    -0.200 F 
ATOM     85  C   UNL A   1      36.444  31.754  32.217  1.00  0.00     0.200 A 
ATOM     86  F   UNL A   1      35.521  32.662  30.242  1.00  0.00    -0.200 F 
ATOM     87  F   UNL A   1      35.396  32.192  32.927  1.00  0.00    -0.200 F 
ENDBRANCH  53  77
BRANCH  65  88
ATOM     88  C   UNL A   1      45.035  33.377  29.469  1.00  0.00     0.064 A 
ATOM     89  C   UNL A   1      45.014  34.488  28.616  1.00  0.00     0.173 A 
ATOM     90  C   UNL A   1      45.631  33.528  30.733  1.00  0.00     0.173 A 
ATOM     91  F   UNL A   1      44.469  34.392  27.394  1.00  0.00    -0.203 F 
ATOM     92  C   UNL A   1      45.572  35.703  29.010  1.00  0.00     0.198 A 
ATOM     93  C   UNL A   1      46.157  34.752  31.136  1.00  0.00     0.198 A 
ATOM     94  F   UNL A   1      45.668  32.497  31.591  1.00  0.00    -0.203 F 
ATOM     95  F   UNL A   1      45.570  36.745  28.167  1.00  0.00    -0.200 F 
ATOM     96  C   UNL A   1      46.131  35.836  30.274  1.00  0.00     0.200 A 
ATOM     97  F   UNL A   1      46.676  34.883  32.365  1.00  0.00    -0.200 F 
ATOM     98  F   UNL A   1      46.644  37.013  30.660  1.00  0.00    -0.200 F 
ENDBRANCH  65  88
ENDBRANCH  39  40
ENDBRANCH  32  34
ENDBRANCH  31  32
ENDBRANCH  30  31
ENDBRANCH  29  30
ENDBRANCH   1  29
TORSDOF 17
ENDMDL
MODEL 2
REMARK VINA RESULT:     -12.3      3.994      9.743
REMARK SMILES O=C(OCCOCCOC(=O)c1ccc(-c2c3nc(c(-c4c(F)c(F)c(F)c(F)c4F)c4ccc([nH]4)c(-c4c(F)c(F)c(F)c(F)c4F)c4nc(c(-c5c(F)c(F)c(F)c(F)c5F)c5ccc2[nH]5)C=C4)C=C3)cc1)C1=Cc2c(ccc(Cl)c2Oc2ccccc2)O[C@H]1C(F)(F)F
REMARK SMILES IDX 6 1 5 2 4 3 3 4 2 5 1 6 75 7 76 8 92 9 77 10 91 11 78 12
REMARK SMILES IDX 83 13 79 14 81 15 80 16 82 17 93 18 94 19 95 20 96 21 84 22
REMARK SMILES IDX 85 23 86 24 90 25 87 26 89 27 88 28 7 29 8 30 9 31 10 32
REMARK SMILES IDX 11 33 12 34 13 35 74 36 14 37 73 38 15 39 16 40 17 41 67 42
REMARK SMILES IDX 18 43 72 44 66 45 68 46 19 47 71 48 65 49 64 50 20 52 52 53
REMARK SMILES IDX 32 54 51 55 33 56 36 57 50 58 69 59 34 60 35 61 49 63 70 64
REMARK SMILES IDX 37 65 21 66 22 67 30 68 23 69 24 70 28 71 31 72 25 73 26 74
REMARK SMILES IDX 29 75 27 76 53 77 54 78 62 79 55 80 56 81 60 82 63 83 57 84
REMARK SMILES IDX 58 85 61 86 59 87 38 88 39 89 47 90 40 91 41 92 45 93 48 94
REMARK SMILES IDX 42 95 43 96 46 97 44 98
REMARK H PARENT 68 51 36 62
REMARK Flexibility Score: inf
ROOT
ATOM      1  O   UNL A   1      30.256  29.706  24.444  1.00  0.00    -0.374 OA
ENDROOT
BRANCH   1   2
ATOM      2  C   UNL A   1      30.863  29.300  23.258  1.00  0.00     0.202 C 
BRANCH   2   3
ATOM      3  C   UNL A   1      31.049  27.796  22.809  1.00  0.00     0.261 C 
BRANCH   3   4
ATOM      4  O   UNL A   1      32.394  27.371  23.054  1.00  0.00    -0.460 OA
BRANCH   4   5
ATOM      5  C   UNL A   1      32.953  27.471  24.276  1.00  0.00     0.338 C 
ATOM      6  O   UNL A   1      33.797  28.327  24.509  1.00  0.00    -0.246 OA
BRANCH   5   7
ATOM      7  C   UNL A   1      32.552  26.529  25.337  1.00  0.00     0.088 C 
ATOM      8  C   UNL A   1      33.350  25.682  26.002  1.00  0.00     0.031 C 
ATOM      9  C   UNL A   1      31.398  26.885  26.185  1.00  0.00     0.316 C 
ATOM     10  C   UNL A   1      32.886  24.333  25.905  1.00  0.00     0.062 A 
ATOM     11  O   UNL A   1      30.855  25.590  26.719  1.00  0.00    -0.475 OA
ATOM     12  C   UNL A   1      31.483  24.388  26.300  1.00  0.00     0.131 A 
ATOM     13  C   UNL A   1      33.614  23.210  25.409  1.00  0.00     0.156 A 
ATOM     14  C   UNL A   1      30.716  23.258  26.208  1.00  0.00     0.049 A 
ATOM     15  C   UNL A   1      32.709  22.131  25.229  1.00  0.00     0.084 A 
ATOM     16  C   UNL A   1      31.331  22.137  25.651  1.00  0.00     0.028 A 
ATOM     17  Cl  UNL A   1      33.120  20.772  24.261  1.00  0.00    -0.080 Cl
BRANCH   9  18
ATOM     18  C   UNL A   1      31.942  27.912  27.241  1.00  0.00     0.430 C 
ATOM     19  F   UNL A   1      31.292  27.812  28.439  1.00  0.00    -0.167 F 
ATOM     20  F   UNL A   1      33.252  27.741  27.515  1.00  0.00    -0.167 F 
ATOM     21  F   UNL A   1      31.756  29.191  26.840  1.00  0.00    -0.167 F 
ENDBRANCH   9  18
BRANCH  13  22
ATOM     22  O   UNL A   1      34.914  23.045  24.806  1.00  0.00    -0.455 OA
BRANCH  22  23
ATOM     23  C   UNL A   1      36.271  22.738  25.227  1.00  0.00     0.127 A 
ATOM     24  C   UNL A   1      36.810  21.019  24.973  1.00  0.00     0.047 A 
ATOM     25  C   UNL A   1      37.386  23.841  26.080  1.00  0.00     0.047 A 
ATOM     26  C   UNL A   1      38.502  20.468  25.417  1.00  0.00     0.004 A 
ATOM     27  C   UNL A   1      39.091  23.348  26.518  1.00  0.00     0.004 A 
ATOM     28  C   UNL A   1      39.652  21.639  26.243  1.00  0.00     0.000 A 
ENDBRANCH  22  23
ENDBRANCH  13  22
ENDBRANCH   5   7
ENDBRANCH   4   5
ENDBRANCH   3   4
ENDBRANCH   2   3
ENDBRANCH   1   2
BRANCH   1  29
ATOM     29  C   UNL A   1      30.666  31.069  24.824  1.00  0.00     0.202 C 
BRANCH  29  30
ATOM     30  C   UNL A   1      31.690  31.917  26.522  1.00  0.00     0.261 C 
BRANCH  30  31
ATOM     31  O   UNL A   1      33.070  31.639  27.038  1.00  0.00    -0.460 OA
BRANCH  31  32
ATOM     32  C   UNL A   1      33.719  32.601  27.712  1.00  0.00     0.338 C 
ATOM     33  O   UNL A   1      33.387  33.737  27.986  1.00  0.00    -0.246 OA
BRANCH  32  34
ATOM     34  C   UNL A   1      34.877  31.890  28.221  1.00  0.00     0.060 A 
ATOM     35  C   UNL A   1      34.774  30.510  28.352  1.00  0.00     0.016 A 
ATOM     36  C   UNL A   1      36.072  32.584  28.447  1.00  0.00     0.016 A 
ATOM     37  C   UNL A   1      35.892  29.800  28.762  1.00  0.00     0.010 A 
ATOM     38  C   UNL A   1      37.190  31.873  28.835  1.00  0.00     0.010 A 
ATOM     39  C   UNL A   1      37.090  30.485  29.019  1.00  0.00    -0.014 A 
BRANCH  39  40
ATOM     40  C   UNL A   1      38.154  29.833  29.795  1.00  0.00     0.031 A 
ATOM     41  C   UNL A   1      38.332  30.324  31.195  1.00  0.00     0.074 A 
ATOM     42  C   UNL A   1      38.989  28.936  29.252  1.00  0.00     0.049 A 
ATOM     43  N   UNL A   1      39.300  30.092  32.035  1.00  0.00    -0.248 NA
ATOM     44  C   UNL A   1      37.290  31.237  31.699  1.00  0.00     0.031 C 
ATOM     45  C   UNL A   1      38.898  28.397  27.902  1.00  0.00     0.029 A 
ATOM     46  N   UNL A   1      40.110  28.349  29.779  1.00  0.00    -0.354 N 
ATOM     47  C   UNL A   1      38.996  30.849  33.155  1.00  0.00     0.074 A 
ATOM     48  C   UNL A   1      37.769  31.559  32.885  1.00  0.00     0.031 C 
ATOM     49  C   UNL A   1      39.925  27.554  27.699  1.00  0.00     0.029 A 
ATOM     50  C   UNL A   1      40.786  27.563  28.880  1.00  0.00     0.049 A 
ATOM     51  H   UNL A   1      40.403  28.478  30.710  1.00  0.00     0.167 HD
ATOM     52  C   UNL A   1      39.696  30.954  34.305  1.00  0.00     0.037 A 
ATOM     53  C   UNL A   1      41.992  26.971  28.984  1.00  0.00     0.037 A 
ATOM     54  C   UNL A   1      40.938  30.277  34.541  1.00  0.00     0.049 A 
ATOM     55  C   UNL A   1      42.788  27.151  30.251  1.00  0.00     0.074 A 
ATOM     56  C   UNL A   1      41.724  30.297  35.677  1.00  0.00     0.029 A 
ATOM     57  N   UNL A   1      41.590  29.479  33.611  1.00  0.00    -0.354 N 
ATOM     58  N   UNL A   1      42.487  27.834  31.330  1.00  0.00    -0.248 NA
ATOM     59  C   UNL A   1      44.100  26.492  30.312  1.00  0.00     0.031 C 
ATOM     60  C   UNL A   1      42.887  29.572  35.409  1.00  0.00     0.029 A 
ATOM     61  C   UNL A   1      42.789  29.030  34.136  1.00  0.00     0.049 A 
ATOM     62  H   UNL A   1      41.251  29.265  32.712  1.00  0.00     0.167 HD
ATOM     63  C   UNL A   1      43.554  27.665  32.204  1.00  0.00     0.074 A 
ATOM     64  C   UNL A   1      44.510  26.811  31.533  1.00  0.00     0.031 C 
ATOM     65  C   UNL A   1      43.723  28.168  33.453  1.00  0.00     0.037 A 
BRANCH  52  66
ATOM     66  C   UNL A   1      39.155  31.888  35.343  1.00  0.00     0.064 A 
ATOM     67  C   UNL A   1      39.440  33.262  35.326  1.00  0.00     0.173 A 
ATOM     68  C   UNL A   1      38.373  31.390  36.395  1.00  0.00     0.173 A 
ATOM     69  F   UNL A   1      40.209  33.781  34.356  1.00  0.00    -0.203 F 
ATOM     70  C   UNL A   1      38.996  34.096  36.347  1.00  0.00     0.198 A 
ATOM     71  C   UNL A   1      37.897  32.234  37.392  1.00  0.00     0.198 A 
ATOM     72  F   UNL A   1      38.081  30.082  36.462  1.00  0.00    -0.203 F 
ATOM     73  F   UNL A   1      39.345  35.389  36.353  1.00  0.00    -0.200 F 
ATOM     74  C   UNL A   1      38.220  33.583  37.375  1.00  0.00     0.200 A 
ATOM     75  F   UNL A   1      37.138  31.738  38.379  1.00  0.00    -0.200 F 
ATOM     76  F   UNL A   1      37.794  34.385  38.360  1.00  0.00    -0.200 F 
ENDBRANCH  52  66
BRANCH  53  77
ATOM     77  C   UNL A   1      42.536  26.197  27.838  1.00  0.00     0.064 A 
ATOM     78  C   UNL A   1      42.301  24.821  27.717  1.00  0.00     0.173 A 
ATOM     79  C   UNL A   1      43.299  26.817  26.836  1.00  0.00     0.173 A 
ATOM     80  F   UNL A   1      41.600  24.176  28.661  1.00  0.00    -0.203 F 
ATOM     81  C   UNL A   1      42.818  24.093  26.647  1.00  0.00     0.198 A 
ATOM     82  C   UNL A   1      43.788  26.095  25.750  1.00  0.00     0.198 A 
ATOM     83  F   UNL A   1      43.557  28.132  26.904  1.00  0.00    -0.203 F 
ATOM     84  F   UNL A   1      42.617  22.770  26.580  1.00  0.00    -0.200 F 
ATOM     85  C   UNL A   1      43.553  24.732  25.659  1.00  0.00     0.200 A 
ATOM     86  F   UNL A   1      44.483  26.721  24.790  1.00  0.00    -0.200 F 
ATOM     87  F   UNL A   1      44.039  24.034  24.624  1.00  0.00    -0.200 F 
ENDBRANCH  53  77
BRANCH  65  88
ATOM     88  C   UNL A   1      44.958  27.771  34.209  1.00  0.00     0.064 A 
ATOM     89  C   UNL A   1      46.115  28.562  34.213  1.00  0.00     0.173 A 
ATOM     90  C   UNL A   1      44.942  26.625  35.022  1.00  0.00     0.173 A 
ATOM     91  F   UNL A   1      46.186  29.659  33.445  1.00  0.00    -0.203 F 
ATOM     92  C   UNL A   1      47.214  28.216  34.997  1.00  0.00     0.198 A 
ATOM     93  C   UNL A   1      46.028  26.302  35.829  1.00  0.00     0.198 A 
ATOM     94  F   UNL A   1      43.854  25.839  35.062  1.00  0.00    -0.203 F 
ATOM     95  F   UNL A   1      48.322  28.969  34.963  1.00  0.00    -0.200 F 
ATOM     96  C   UNL A   1      47.164  27.095  35.814  1.00  0.00     0.200 A 
ATOM     97  F   UNL A   1      45.968  25.231  36.633  1.00  0.00    -0.200 F 
ATOM     98  F   UNL A   1      48.213  26.780  36.586  1.00  0.00    -0.200 F 
ENDBRANCH  65  88
ENDBRANCH  39  40
ENDBRANCH  32  34
ENDBRANCH  31  32
ENDBRANCH  30  31
ENDBRANCH  29  30
ENDBRANCH   1  29
TORSDOF 17
ENDMDL
MODEL 3
REMARK VINA RESULT:     -12.3      4.098      7.134
REMARK SMILES O=C(OCCOCCOC(=O)c1ccc(-c2c3nc(c(-c4c(F)c(F)c(F)c(F)c4F)c4ccc([nH]4)c(-c4c(F)c(F)c(F)c(F)c4F)c4nc(c(-c5c(F)c(F)c(F)c(F)c5F)c5ccc2[nH]5)C=C4)C=C3)cc1)C1=Cc2c(ccc(Cl)c2Oc2ccccc2)O[C@H]1C(F)(F)F
REMARK SMILES IDX 6 1 5 2 4 3 3 4 2 5 1 6 75 7 76 8 92 9 77 10 91 11 78 12
REMARK SMILES IDX 83 13 79 14 81 15 80 16 82 17 93 18 94 19 95 20 96 21 84 22
REMARK SMILES IDX 85 23 86 24 90 25 87 26 89 27 88 28 7 29 8 30 9 31 10 32
REMARK SMILES IDX 11 33 12 34 13 35 74 36 14 37 73 38 15 39 16 40 17 41 67 42
REMARK SMILES IDX 18 43 72 44 66 45 68 46 19 47 71 48 65 49 64 50 20 52 52 53
REMARK SMILES IDX 32 54 51 55 33 56 36 57 50 58 69 59 34 60 35 61 49 63 70 64
REMARK SMILES IDX 37 65 21 66 22 67 30 68 23 69 24 70 28 71 31 72 25 73 26 74
REMARK SMILES IDX 29 75 27 76 53 77 54 78 62 79 55 80 56 81 60 82 63 83 57 84
REMARK SMILES IDX 58 85 61 86 59 87 38 88 39 89 47 90 40 91 41 92 45 93 48 94
REMARK SMILES IDX 42 95 43 96 46 97 44 98
REMARK H PARENT 68 51 36 62
REMARK Flexibility Score: inf
ROOT
ATOM      1  O   UNL A   1      33.306  27.744  23.790  1.00  0.00    -0.374 OA
ENDROOT
BRANCH   1   2
ATOM      2  C   UNL A   1      33.162  27.681  22.406  1.00  0.00     0.202 C 
BRANCH   2   3
ATOM      3  C   UNL A   1      33.286  26.362  21.546  1.00  0.00     0.261 C 
BRANCH   3   4
ATOM      4  O   UNL A   1      33.827  25.302  22.342  1.00  0.00    -0.460 OA
BRANCH   4   5
ATOM      5  C   UNL A   1      33.405  24.031  22.205  1.00  0.00     0.338 C 
ATOM      6  O   UNL A   1      33.346  23.507  21.099  1.00  0.00    -0.246 OA
BRANCH   5   7
ATOM      7  C   UNL A   1      32.997  23.267  23.399  1.00  0.00     0.088 C 
ATOM      8  C   UNL A   1      33.739  23.024  24.488  1.00  0.00     0.031 C 
ATOM      9  C   UNL A   1      31.568  23.257  23.764  1.00  0.00     0.316 C 
ATOM     10  C   UNL A   1      33.836  21.624  24.760  1.00  0.00     0.062 A 
ATOM     11  O   UNL A   1      31.349  22.009  24.570  1.00  0.00    -0.475 OA
ATOM     12  C   UNL A   1      32.459  21.144  24.761  1.00  0.00     0.131 A 
ATOM     13  C   UNL A   1      35.033  20.856  24.878  1.00  0.00     0.156 A 
ATOM     14  C   UNL A   1      32.217  19.802  24.888  1.00  0.00     0.049 A 
ATOM     15  C   UNL A   1      34.686  19.480  24.874  1.00  0.00     0.084 A 
ATOM     16  C   UNL A   1      33.337  18.973  24.923  1.00  0.00     0.028 A 
ATOM     17  Cl  UNL A   1      35.861  18.262  24.571  1.00  0.00    -0.080 Cl
BRANCH   9  18
ATOM     18  C   UNL A   1      31.303  24.623  24.493  1.00  0.00     0.430 C 
ATOM     19  F   UNL A   1      32.426  25.110  25.100  1.00  0.00    -0.167 F 
ATOM     20  F   UNL A   1      30.885  25.594  23.656  1.00  0.00    -0.167 F 
ATOM     21  F   UNL A   1      30.389  24.495  25.484  1.00  0.00    -0.167 F 
ENDBRANCH   9  18
BRANCH  13  22
ATOM     22  O   UNL A   1      36.434  21.150  24.702  1.00  0.00    -0.455 OA
BRANCH  22  23
ATOM     23  C   UNL A   1      37.507  21.791  25.445  1.00  0.00     0.127 A 
ATOM     24  C   UNL A   1      37.253  23.547  25.848  1.00  0.00     0.047 A 
ATOM     25  C   UNL A   1      39.081  21.061  25.867  1.00  0.00     0.047 A 
ATOM     26  C   UNL A   1      38.491  24.500  26.808  1.00  0.00     0.004 A 
ATOM     27  C   UNL A   1      40.334  21.960  26.847  1.00  0.00     0.004 A 
ATOM     28  C   UNL A   1      40.080  23.708  27.281  1.00  0.00     0.000 A 
ENDBRANCH  22  23
ENDBRANCH  13  22
ENDBRANCH   5   7
ENDBRANCH   4   5
ENDBRANCH   3   4
ENDBRANCH   2   3
ENDBRANCH   1   2
BRANCH   1  29
ATOM     29  C   UNL A   1      32.375  28.716  24.388  1.00  0.00     0.202 C 
BRANCH  29  30
ATOM     30  C   UNL A   1      32.479  30.067  26.067  1.00  0.00     0.261 C 
BRANCH  30  31
ATOM     31  O   UNL A   1      33.548  30.211  27.109  1.00  0.00    -0.460 OA
BRANCH  31  32
ATOM     32  C   UNL A   1      33.842  31.435  27.575  1.00  0.00     0.338 C 
ATOM     33  O   UNL A   1      33.161  32.437  27.648  1.00  0.00    -0.246 OA
BRANCH  32  34
ATOM     34  C   UNL A   1      35.152  31.230  28.166  1.00  0.00     0.060 A 
ATOM     35  C   UNL A   1      35.476  29.941  28.573  1.00  0.00     0.016 A 
ATOM     36  C   UNL A   1      36.070  32.287  28.199  1.00  0.00     0.016 A 
ATOM     37  C   UNL A   1      36.748  29.706  29.069  1.00  0.00     0.010 A 
ATOM     38  C   UNL A   1      37.344  32.046  28.673  1.00  0.00     0.010 A 
ATOM     39  C   UNL A   1      37.672  30.761  29.134  1.00  0.00    -0.014 A 
BRANCH  39  40
ATOM     40  C   UNL A   1      38.867  30.637  29.978  1.00  0.00     0.031 A 
ATOM     41  C   UNL A   1      39.971  29.796  29.422  1.00  0.00     0.074 A 
ATOM     42  C   UNL A   1      38.926  31.144  31.217  1.00  0.00     0.049 A 
ATOM     43  N   UNL A   1      41.041  29.341  30.011  1.00  0.00    -0.248 NA
ATOM     44  C   UNL A   1      39.823  29.379  28.016  1.00  0.00     0.031 C 
ATOM     45  C   UNL A   1      37.906  31.972  31.846  1.00  0.00     0.029 A 
ATOM     46  N   UNL A   1      39.888  30.997  32.182  1.00  0.00    -0.354 N 
ATOM     47  C   UNL A   1      41.678  28.566  29.055  1.00  0.00     0.074 A 
ATOM     48  C   UNL A   1      40.873  28.596  27.858  1.00  0.00     0.031 C 
ATOM     49  C   UNL A   1      38.292  32.264  33.099  1.00  0.00     0.029 A 
ATOM     50  C   UNL A   1      39.548  31.571  33.381  1.00  0.00     0.049 A 
ATOM     51  H   UNL A   1      40.739  30.526  32.031  1.00  0.00     0.167 HD
ATOM     52  C   UNL A   1      42.831  27.874  29.177  1.00  0.00     0.037 A 
ATOM     53  C   UNL A   1      40.154  31.491  34.581  1.00  0.00     0.037 A 
ATOM     54  C   UNL A   1      43.597  27.818  30.389  1.00  0.00     0.049 A 
ATOM     55  C   UNL A   1      41.406  30.661  34.714  1.00  0.00     0.074 A 
ATOM     56  C   UNL A   1      44.790  27.162  30.619  1.00  0.00     0.029 A 
ATOM     57  N   UNL A   1      43.227  28.420  31.584  1.00  0.00    -0.354 N 
ATOM     58  N   UNL A   1      42.035  29.958  33.803  1.00  0.00    -0.248 NA
ATOM     59  C   UNL A   1      42.026  30.600  36.046  1.00  0.00     0.031 C 
ATOM     60  C   UNL A   1      45.106  27.305  31.973  1.00  0.00     0.029 A 
ATOM     61  C   UNL A   1      44.154  28.120  32.567  1.00  0.00     0.049 A 
ATOM     62  H   UNL A   1      42.426  28.977  31.712  1.00  0.00     0.167 HD
ATOM     63  C   UNL A   1      43.135  29.396  34.441  1.00  0.00     0.074 A 
ATOM     64  C   UNL A   1      43.090  29.843  35.816  1.00  0.00     0.031 C 
ATOM     65  C   UNL A   1      44.097  28.587  33.930  1.00  0.00     0.037 A 
BRANCH  52  66
ATOM     66  C   UNL A   1      43.270  27.078  27.988  1.00  0.00     0.064 A 
ATOM     67  C   UNL A   1      43.067  25.691  27.906  1.00  0.00     0.173 A 
ATOM     68  C   UNL A   1      43.942  27.708  26.932  1.00  0.00     0.173 A 
ATOM     69  F   UNL A   1      42.456  25.037  28.906  1.00  0.00    -0.203 F 
ATOM     70  C   UNL A   1      43.559  24.961  26.829  1.00  0.00     0.198 A 
ATOM     71  C   UNL A   1      44.396  26.981  25.838  1.00  0.00     0.198 A 
ATOM     72  F   UNL A   1      44.170  29.031  26.967  1.00  0.00    -0.203 F 
ATOM     73  F   UNL A   1      43.423  23.628  26.810  1.00  0.00    -0.200 F 
ATOM     74  C   UNL A   1      44.217  25.606  25.794  1.00  0.00     0.200 A 
ATOM     75  F   UNL A   1      45.023  27.608  24.832  1.00  0.00    -0.200 F 
ATOM     76  F   UNL A   1      44.692  24.901  24.758  1.00  0.00    -0.200 F 
ENDBRANCH  52  66
BRANCH  53  77
ATOM     77  C   UNL A   1      39.558  32.176  35.758  1.00  0.00     0.064 A 
ATOM     78  C   UNL A   1      38.600  31.540  36.558  1.00  0.00     0.173 A 
ATOM     79  C   UNL A   1      39.937  33.481  36.110  1.00  0.00     0.173 A 
ATOM     80  F   UNL A   1      38.184  30.303  36.249  1.00  0.00    -0.203 F 
ATOM     81  C   UNL A   1      38.035  32.186  37.656  1.00  0.00     0.198 A 
ATOM     82  C   UNL A   1      39.396  34.114  37.227  1.00  0.00     0.198 A 
ATOM     83  F   UNL A   1      40.848  34.138  35.376  1.00  0.00    -0.203 F 
ATOM     84  F   UNL A   1      37.087  31.572  38.377  1.00  0.00    -0.200 F 
ATOM     85  C   UNL A   1      38.440  33.469  37.995  1.00  0.00     0.200 A 
ATOM     86  F   UNL A   1      39.803  35.347  37.559  1.00  0.00    -0.200 F 
ATOM     87  F   UNL A   1      37.905  34.084  39.059  1.00  0.00    -0.200 F 
ENDBRANCH  53  77
BRANCH  65  88
ATOM     88  C   UNL A   1      45.218  28.170  34.838  1.00  0.00     0.064 A 
ATOM     89  C   UNL A   1      46.368  28.953  35.010  1.00  0.00     0.173 A 
ATOM     90  C   UNL A   1      45.088  27.010  35.622  1.00  0.00     0.173 A 
ATOM     91  F   UNL A   1      46.546  30.062  34.277  1.00  0.00    -0.203 F 
ATOM     92  C   UNL A   1      47.351  28.587  35.928  1.00  0.00     0.198 A 
ATOM     93  C   UNL A   1      46.056  26.668  36.561  1.00  0.00     0.198 A 
ATOM     94  F   UNL A   1      44.002  26.232  35.502  1.00  0.00    -0.203 F 
ATOM     95  F   UNL A   1      48.457  29.333  36.055  1.00  0.00    -0.200 F 
ATOM     96  C   UNL A   1      47.187  27.453  36.711  1.00  0.00     0.200 A 
ATOM     97  F   UNL A   1      45.884  25.584  37.331  1.00  0.00    -0.200 F 
ATOM     98  F   UNL A   1      48.122  27.118  37.611  1.00  0.00    -0.200 F 
ENDBRANCH  65  88
ENDBRANCH  39  40
ENDBRANCH  32  34
ENDBRANCH  31  32
ENDBRANCH  30  31
ENDBRANCH  29  30
ENDBRANCH   1  29
TORSDOF 17
ENDMDL
