MODEL 1
REMARK VINA RESULT:     -10.1      0.000      0.000
REMARK SMILES CCO[P@TB12](C)(=O)C[N@@H+]1CCC[C@@H]1C(=O)OCCOCCOC(=O)c1ccc(-c2c3nc(c(-c4c(F)c(F)c(F)c(F)c4F)c4ccc([nH]4)c(-c4c(F)c(F)c(F)c(F)c4F)c4nc(c(-c5c(F)c(F)c(F)c(F)c5F)c5ccc2[nH]5)C=C4)C=C3)cc1
REMARK SMILES IDX 17 1 16 2 15 3 13 4 14 5 12 6 8 7 9 8 10 10 11 11 7 12 4 13
REMARK SMILES IDX 6 14 5 15 3 16 2 17 1 18 18 19 19 20 20 21 21 22 22 23 23 24
REMARK SMILES IDX 24 25 25 26 86 27 26 28 85 29 27 30 28 31 29 32 79 33 30 34
REMARK SMILES IDX 84 35 78 36 80 37 31 38 83 39 77 40 76 41 32 43 64 44 44 45
REMARK SMILES IDX 63 46 45 47 48 48 62 49 81 50 46 51 47 52 61 54 82 55 49 56
REMARK SMILES IDX 33 57 34 58 42 59 35 60 36 61 40 62 43 63 37 64 38 65 41 66
REMARK SMILES IDX 39 67 65 68 66 69 74 70 67 71 68 72 72 73 75 74 69 75 70 76
REMARK SMILES IDX 73 77 71 78 50 79 51 80 59 81 52 82 53 83 57 84 60 85 54 86
REMARK SMILES IDX 55 87 58 88 56 89
REMARK H PARENT 8 9 80 42 48 53
REMARK Flexibility Score: inf
ROOT
ATOM      1  C   UNL A   1      34.415  21.619  26.265  1.00  0.00       nan C 
ENDROOT
BRANCH   1   2
ATOM      2  C   UNL A   1      33.917  23.005  26.678  1.00  0.00       nan C 
BRANCH   2   3
ATOM      3  O   UNL A   1      34.314  24.074  25.797  1.00  0.00       nan OA
BRANCH   3   4
ATOM      4  C   UNL A   1      33.367  24.463  24.896  1.00  0.00       nan C 
ATOM      5  O   UNL A   1      32.213  24.039  24.873  1.00  0.00       nan OA
BRANCH   4   6
ATOM      6  C   UNL A   1      33.856  25.533  23.925  1.00  0.00       nan C 
ATOM      7  N   UNL A   1      33.668  27.003  24.247  1.00  0.00       nan N 
ATOM      8  C   UNL A   1      33.837  27.618  22.912  1.00  0.00       nan C 
ATOM      9  H   UNL A   1      34.317  27.299  24.977  1.00  0.00       nan HD
ATOM     10  C   UNL A   1      33.140  26.684  21.934  1.00  0.00       nan C 
ATOM     11  C   UNL A   1      33.401  25.296  22.488  1.00  0.00       nan C 
BRANCH   7  12
ATOM     12  C   UNL A   1      32.350  27.386  24.817  1.00  0.00       nan C 
BRANCH  12  13
ATOM     13  P   UNL A   1      32.436  28.856  25.904  1.00  0.00       nan P 
ATOM     14  O   UNL A   1      31.416  28.231  26.869  1.00  0.00       nan OA
ATOM     15  C   UNL A   1      32.521  30.326  26.990  1.00  0.00       nan C 
BRANCH  13  16
ATOM     16  O   UNL A   1      33.970  28.564  26.424  1.00  0.00       nan OA
BRANCH  16  17
ATOM     17  C   UNL A   1      34.485  29.187  27.600  1.00  0.00       nan C 
ATOM     18  C   UNL A   1      35.970  29.455  27.394  1.00  0.00       nan C 
ENDBRANCH  16  17
ENDBRANCH  13  16
ENDBRANCH  12  13
ENDBRANCH   7  12
ENDBRANCH   4   6
ENDBRANCH   3   4
ENDBRANCH   2   3
ENDBRANCH   1   2
BRANCH   1  19
ATOM     19  O   UNL A   1      35.818  21.418  26.146  1.00  0.00       nan OA
BRANCH  19  20
ATOM     20  C   UNL A   1      36.306  20.712  25.013  1.00  0.00       nan C 
BRANCH  20  21
ATOM     21  C   UNL A   1      37.793  20.356  24.991  1.00  0.00       nan C 
BRANCH  21  22
ATOM     22  O   UNL A   1      38.647  21.484  25.255  1.00  0.00       nan OA
BRANCH  22  23
ATOM     23  C   UNL A   1      39.653  21.214  26.117  1.00  0.00       inf C 
ATOM     24  O   UNL A   1      40.346  20.206  26.156  1.00  0.00    -0.246 OA
BRANCH  23  25
ATOM     25  C   UNL A   1      39.933  22.358  27.000  1.00  0.00     0.060 A 
ATOM     26  C   UNL A   1      39.167  23.512  26.801  1.00  0.00     0.016 A 
ATOM     27  C   UNL A   1      41.042  22.375  27.848  1.00  0.00     0.016 A 
ATOM     28  C   UNL A   1      39.570  24.718  27.363  1.00  0.00     0.010 A 
ATOM     29  C   UNL A   1      41.450  23.591  28.411  1.00  0.00     0.010 A 
ATOM     30  C   UNL A   1      40.752  24.775  28.111  1.00  0.00    -0.014 A 
BRANCH  30  31
ATOM     31  C   UNL A   1      41.349  26.107  28.375  1.00  0.00     0.031 A 
ATOM     32  C   UNL A   1      42.724  26.405  27.838  1.00  0.00     0.074 A 
ATOM     33  C   UNL A   1      40.642  27.067  28.994  1.00  0.00     0.049 A 
ATOM     34  N   UNL A   1      43.407  27.521  27.870  1.00  0.00    -0.248 NA
ATOM     35  C   UNL A   1      43.423  25.294  27.171  1.00  0.00     0.031 C 
ATOM     36  C   UNL A   1      39.292  26.910  29.525  1.00  0.00     0.029 A 
ATOM     37  N   UNL A   1      40.966  28.372  29.266  1.00  0.00    -0.354 N 
ATOM     38  C   UNL A   1      44.609  27.247  27.230  1.00  0.00     0.074 A 
ATOM     39  C   UNL A   1      44.580  25.852  26.849  1.00  0.00     0.031 C 
ATOM     40  C   UNL A   1      38.897  28.078  30.061  1.00  0.00     0.029 A 
ATOM     41  C   UNL A   1      39.973  29.058  29.920  1.00  0.00     0.049 A 
ATOM     42  H   UNL A   1      41.827  28.779  29.016  1.00  0.00     0.167 HD
ATOM     43  C   UNL A   1      45.639  28.087  26.968  1.00  0.00     0.037 A 
ATOM     44  C   UNL A   1      39.941  30.331  30.354  1.00  0.00     0.037 A 
ATOM     45  C   UNL A   1      45.666  29.477  27.336  1.00  0.00     0.049 A 
ATOM     46  C   UNL A   1      41.112  31.237  30.079  1.00  0.00     0.074 A 
ATOM     47  C   UNL A   1      46.654  30.416  27.099  1.00  0.00     0.029 A 
ATOM     48  N   UNL A   1      44.652  30.128  28.023  1.00  0.00    -0.354 N 
ATOM     49  N   UNL A   1      42.230  30.978  29.445  1.00  0.00    -0.248 NA
ATOM     50  C   UNL A   1      41.008  32.619  30.569  1.00  0.00     0.031 C 
ATOM     51  C   UNL A   1      46.257  31.626  27.679  1.00  0.00     0.029 A 
ATOM     52  C   UNL A   1      45.001  31.452  28.238  1.00  0.00     0.049 A 
ATOM     53  H   UNL A   1      43.809  29.711  28.315  1.00  0.00     0.167 HD
ATOM     54  C   UNL A   1      42.951  32.165  29.439  1.00  0.00     0.074 A 
ATOM     55  C   UNL A   1      42.137  33.151  30.120  1.00  0.00     0.031 C 
ATOM     56  C   UNL A   1      44.177  32.418  28.917  1.00  0.00     0.037 A 
BRANCH  43  57
ATOM     57  C   UNL A   1      46.834  27.515  26.264  1.00  0.00     0.064 A 
ATOM     58  C   UNL A   1      46.983  27.608  24.872  1.00  0.00     0.173 A 
ATOM     59  C   UNL A   1      47.855  26.890  26.995  1.00  0.00     0.173 A 
ATOM     60  F   UNL A   1      46.027  28.184  24.128  1.00  0.00    -0.203 F 
ATOM     61  C   UNL A   1      48.102  27.076  24.236  1.00  0.00     0.198 A 
ATOM     62  C   UNL A   1      48.982  26.380  26.358  1.00  0.00     0.198 A 
ATOM     63  F   UNL A   1      47.760  26.777  28.329  1.00  0.00    -0.203 F 
ATOM     64  F   UNL A   1      48.206  27.140  22.901  1.00  0.00    -0.200 F 
ATOM     65  C   UNL A   1      49.103  26.468  24.978  1.00  0.00     0.200 A 
ATOM     66  F   UNL A   1      49.953  25.801  27.078  1.00  0.00    -0.200 F 
ATOM     67  F   UNL A   1      50.181  25.961  24.365  1.00  0.00    -0.200 F 
ENDBRANCH  43  57
BRANCH  44  68
ATOM     68  C   UNL A   1      38.749  30.828  31.088  1.00  0.00     0.064 A 
ATOM     69  C   UNL A   1      38.667  30.741  32.483  1.00  0.00     0.173 A 
ATOM     70  C   UNL A   1      37.665  31.394  30.401  1.00  0.00     0.173 A 
ATOM     71  F   UNL A   1      39.668  30.182  33.180  1.00  0.00    -0.203 F 
ATOM     72  C   UNL A   1      37.538  31.190  33.165  1.00  0.00     0.198 A 
ATOM     73  C   UNL A   1      36.549  31.866  31.086  1.00  0.00     0.198 A 
ATOM     74  F   UNL A   1      37.696  31.497  29.065  1.00  0.00    -0.203 F 
ATOM     75  F   UNL A   1      37.466  31.058  34.496  1.00  0.00    -0.200 F 
ATOM     76  C   UNL A   1      36.483  31.758  32.466  1.00  0.00     0.200 A 
ATOM     77  F   UNL A   1      35.535  32.421  30.408  1.00  0.00    -0.200 F 
ATOM     78  F   UNL A   1      35.398  32.192  33.124  1.00  0.00    -0.200 F 
ENDBRANCH  44  68
BRANCH  56  79
ATOM     79  C   UNL A   1      44.700  33.819  29.043  1.00  0.00     0.064 A 
ATOM     80  C   UNL A   1      45.492  34.211  30.131  1.00  0.00     0.173 A 
ATOM     81  C   UNL A   1      44.428  34.771  28.049  1.00  0.00     0.173 A 
ATOM     82  F   UNL A   1      45.768  33.339  31.114  1.00  0.00    -0.203 F 
ATOM     83  C   UNL A   1      45.968  35.516  30.236  1.00  0.00     0.198 A 
ATOM     84  C   UNL A   1      44.927  36.067  28.143  1.00  0.00     0.198 A 
ATOM     85  F   UNL A   1      43.681  34.442  26.985  1.00  0.00    -0.203 F 
ATOM     86  F   UNL A   1      46.683  35.882  31.308  1.00  0.00    -0.200 F 
ATOM     87  C   UNL A   1      45.691  36.439  29.241  1.00  0.00     0.200 A 
ATOM     88  F   UNL A   1      44.668  36.955  27.175  1.00  0.00    -0.200 F 
ATOM     89  F   UNL A   1      46.150  37.694  29.341  1.00  0.00    -0.200 F 
ENDBRANCH  56  79
ENDBRANCH  30  31
ENDBRANCH  23  25
ENDBRANCH  22  23
ENDBRANCH  21  22
ENDBRANCH  20  21
ENDBRANCH  19  20
ENDBRANCH   1  19
TORSDOF 18
ENDMDL
MODEL 2
REMARK VINA RESULT:     -10.1      4.061      9.956
REMARK SMILES CCO[P@TB12](C)(=O)C[N@@H+]1CCC[C@@H]1C(=O)OCCOCCOC(=O)c1ccc(-c2c3nc(c(-c4c(F)c(F)c(F)c(F)c4F)c4ccc([nH]4)c(-c4c(F)c(F)c(F)c(F)c4F)c4nc(c(-c5c(F)c(F)c(F)c(F)c5F)c5ccc2[nH]5)C=C4)C=C3)cc1
REMARK SMILES IDX 17 1 16 2 15 3 13 4 14 5 12 6 8 7 9 8 10 10 11 11 7 12 4 13
REMARK SMILES IDX 6 14 5 15 3 16 2 17 1 18 18 19 19 20 20 21 21 22 22 23 23 24
REMARK SMILES IDX 24 25 25 26 86 27 26 28 85 29 27 30 28 31 29 32 79 33 30 34
REMARK SMILES IDX 84 35 78 36 80 37 31 38 83 39 77 40 76 41 32 43 64 44 44 45
REMARK SMILES IDX 63 46 45 47 48 48 62 49 81 50 46 51 47 52 61 54 82 55 49 56
REMARK SMILES IDX 33 57 34 58 42 59 35 60 36 61 40 62 43 63 37 64 38 65 41 66
REMARK SMILES IDX 39 67 65 68 66 69 74 70 67 71 68 72 72 73 75 74 69 75 70 76
REMARK SMILES IDX 73 77 71 78 50 79 51 80 59 81 52 82 53 83 57 84 60 85 54 86
REMARK SMILES IDX 55 87 58 88 56 89
REMARK H PARENT 8 9 80 42 48 53
REMARK Flexibility Score: inf
ROOT
ATOM      1  C   UNL A   1      32.547  27.896  26.836  1.00  0.00       nan C 
ENDROOT
BRANCH   1   2
ATOM      2  C   UNL A   1      31.383  26.933  26.596  1.00  0.00       nan C 
BRANCH   2   3
ATOM      3  O   UNL A   1      31.377  26.309  25.296  1.00  0.00       nan OA
BRANCH   3   4
ATOM      4  C   UNL A   1      31.212  24.956  25.306  1.00  0.00       nan C 
ATOM      5  O   UNL A   1      30.791  24.313  26.267  1.00  0.00       nan OA
BRANCH   4   6
ATOM      6  C   UNL A   1      31.553  24.292  23.976  1.00  0.00       nan C 
ATOM      7  N   UNL A   1      32.642  23.238  23.903  1.00  0.00       nan N 
ATOM      8  C   UNL A   1      32.940  23.227  22.454  1.00  0.00       nan C 
ATOM      9  H   UNL A   1      32.323  22.360  24.316  1.00  0.00       nan HD
ATOM     10  C   UNL A   1      32.887  24.680  22.009  1.00  0.00       nan C 
ATOM     11  C   UNL A   1      31.777  25.290  22.844  1.00  0.00       nan C 
BRANCH   7  12
ATOM     12  C   UNL A   1      33.881  23.522  24.673  1.00  0.00       nan C 
BRANCH  12  13
ATOM     13  P   UNL A   1      34.966  22.059  24.856  1.00  0.00       nan P 
ATOM     14  O   UNL A   1      35.731  22.741  26.001  1.00  0.00       nan OA
ATOM     15  C   UNL A   1      36.050  20.596  25.039  1.00  0.00       nan C 
BRANCH  13  16
ATOM     16  O   UNL A   1      33.788  21.078  25.458  1.00  0.00       nan OA
BRANCH  16  17
ATOM     17  C   UNL A   1      33.642  19.733  25.009  1.00  0.00       nan C 
ATOM     18  C   UNL A   1      32.611  19.706  23.888  1.00  0.00       nan C 
ENDBRANCH  16  17
ENDBRANCH  13  16
ENDBRANCH  12  13
ENDBRANCH   7  12
ENDBRANCH   4   6
ENDBRANCH   3   4
ENDBRANCH   2   3
ENDBRANCH   1   2
BRANCH   1  19
ATOM     19  O   UNL A   1      32.764  28.935  25.888  1.00  0.00       nan OA
BRANCH  19  20
ATOM     20  C   UNL A   1      31.751  29.918  25.718  1.00  0.00       nan C 
BRANCH  20  21
ATOM     21  C   UNL A   1      31.909  31.232  26.484  1.00  0.00       nan C 
BRANCH  21  22
ATOM     22  O   UNL A   1      32.835  31.137  27.581  1.00  0.00       nan OA
BRANCH  22  23
ATOM     23  C   UNL A   1      33.630  32.222  27.717  1.00  0.00       inf C 
ATOM     24  O   UNL A   1      33.278  33.389  27.832  1.00  0.00    -0.246 OA
BRANCH  23  25
ATOM     25  C   UNL A   1      35.048  31.846  27.827  1.00  0.00     0.060 A 
ATOM     26  C   UNL A   1      35.346  30.480  27.766  1.00  0.00     0.016 A 
ATOM     27  C   UNL A   1      36.027  32.776  28.186  1.00  0.00     0.016 A 
ATOM     28  C   UNL A   1      36.595  30.023  28.170  1.00  0.00     0.010 A 
ATOM     29  C   UNL A   1      37.284  32.315  28.597  1.00  0.00     0.010 A 
ATOM     30  C   UNL A   1      37.544  30.933  28.655  1.00  0.00    -0.014 A 
BRANCH  30  31
ATOM     31  C   UNL A   1      38.699  30.399  29.416  1.00  0.00     0.031 A 
ATOM     32  C   UNL A   1      38.869  30.805  30.856  1.00  0.00     0.074 A 
ATOM     33  C   UNL A   1      39.525  29.492  28.868  1.00  0.00     0.049 A 
ATOM     34  N   UNL A   1      39.748  30.400  31.738  1.00  0.00    -0.248 NA
ATOM     35  C   UNL A   1      37.916  31.801  31.374  1.00  0.00     0.031 C 
ATOM     36  C   UNL A   1      39.441  28.996  27.497  1.00  0.00     0.029 A 
ATOM     37  N   UNL A   1      40.591  28.820  29.409  1.00  0.00    -0.354 N 
ATOM     38  C   UNL A   1      39.453  31.088  32.909  1.00  0.00     0.074 A 
ATOM     39  C   UNL A   1      38.337  31.961  32.619  1.00  0.00     0.031 C 
ATOM     40  C   UNL A   1      40.417  28.092  27.302  1.00  0.00     0.029 A 
ATOM     41  C   UNL A   1      41.199  27.959  28.531  1.00  0.00     0.049 A 
ATOM     42  H   UNL A   1      40.892  28.943  30.339  1.00  0.00     0.167 HD
ATOM     43  C   UNL A   1      40.048  30.988  34.121  1.00  0.00     0.037 A 
ATOM     44  C   UNL A   1      42.265  27.155  28.702  1.00  0.00     0.037 A 
ATOM     45  C   UNL A   1      41.150  30.112  34.415  1.00  0.00     0.049 A 
ATOM     46  C   UNL A   1      42.931  27.087  30.052  1.00  0.00     0.074 A 
ATOM     47  C   UNL A   1      41.810  29.924  35.616  1.00  0.00     0.029 A 
ATOM     48  N   UNL A   1      41.757  29.275  33.489  1.00  0.00    -0.354 N 
ATOM     49  N   UNL A   1      42.625  27.716  31.160  1.00  0.00    -0.248 NA
ATOM     50  C   UNL A   1      44.082  26.181  30.175  1.00  0.00     0.031 C 
ATOM     51  C   UNL A   1      42.844  29.003  35.408  1.00  0.00     0.029 A 
ATOM     52  C   UNL A   1      42.798  28.584  34.088  1.00  0.00     0.049 A 
ATOM     53  H   UNL A   1      41.487  29.185  32.547  1.00  0.00     0.167 HD
ATOM     54  C   UNL A   1      43.528  27.268  32.116  1.00  0.00     0.074 A 
ATOM     55  C   UNL A   1      44.384  26.301  31.460  1.00  0.00     0.031 C 
ATOM     56  C   UNL A   1      43.639  27.625  33.420  1.00  0.00     0.037 A 
BRANCH  43  57
ATOM     57  C   UNL A   1      39.528  31.868  35.219  1.00  0.00     0.064 A 
ATOM     58  C   UNL A   1      38.617  31.393  36.175  1.00  0.00     0.173 A 
ATOM     59  C   UNL A   1      39.968  33.195  35.332  1.00  0.00     0.173 A 
ATOM     60  F   UNL A   1      38.156  30.136  36.101  1.00  0.00    -0.203 F 
ATOM     61  C   UNL A   1      38.149  32.223  37.190  1.00  0.00     0.198 A 
ATOM     62  C   UNL A   1      39.516  34.014  36.363  1.00  0.00     0.198 A 
ATOM     63  F   UNL A   1      40.840  33.696  34.444  1.00  0.00    -0.203 F 
ATOM     64  F   UNL A   1      37.248  31.762  38.069  1.00  0.00    -0.200 F 
ATOM     65  C   UNL A   1      38.603  33.530  37.288  1.00  0.00     0.200 A 
ATOM     66  F   UNL A   1      39.963  35.274  36.461  1.00  0.00    -0.200 F 
ATOM     67  F   UNL A   1      38.155  34.326  38.269  1.00  0.00    -0.200 F 
ENDBRANCH  43  57
BRANCH  44  68
ATOM     68  C   UNL A   1      42.764  26.343  27.564  1.00  0.00     0.064 A 
ATOM     69  C   UNL A   1      43.769  26.822  26.714  1.00  0.00     0.173 A 
ATOM     70  C   UNL A   1      42.236  25.070  27.302  1.00  0.00     0.173 A 
ATOM     71  F   UNL A   1      44.285  28.045  26.910  1.00  0.00    -0.203 F 
ATOM     72  C   UNL A   1      44.220  26.064  25.636  1.00  0.00     0.198 A 
ATOM     73  C   UNL A   1      42.705  24.303  26.239  1.00  0.00     0.198 A 
ATOM     74  F   UNL A   1      41.271  24.569  28.086  1.00  0.00    -0.203 F 
ATOM     75  F   UNL A   1      45.153  26.562  24.814  1.00  0.00    -0.200 F 
ATOM     76  C   UNL A   1      43.692  24.803  25.403  1.00  0.00     0.200 A 
ATOM     77  F   UNL A   1      42.199  23.082  26.023  1.00  0.00    -0.200 F 
ATOM     78  F   UNL A   1      44.128  24.073  24.367  1.00  0.00    -0.200 F 
ENDBRANCH  44  68
BRANCH  56  79
ATOM     79  C   UNL A   1      44.708  26.950  34.226  1.00  0.00     0.064 A 
ATOM     80  C   UNL A   1      45.988  27.508  34.362  1.00  0.00     0.173 A 
ATOM     81  C   UNL A   1      44.442  25.744  34.894  1.00  0.00     0.173 A 
ATOM     82  F   UNL A   1      46.295  28.652  33.731  1.00  0.00    -0.203 F 
ATOM     83  C   UNL A   1      46.972  26.868  35.112  1.00  0.00     0.198 A 
ATOM     84  C   UNL A   1      45.419  25.121  35.664  1.00  0.00     0.198 A 
ATOM     85  F   UNL A   1      43.231  25.175  34.801  1.00  0.00    -0.203 F 
ATOM     86  F   UNL A   1      48.201  27.395  35.188  1.00  0.00    -0.200 F 
ATOM     87  C   UNL A   1      46.685  25.680  35.766  1.00  0.00     0.200 A 
ATOM     88  F   UNL A   1      45.138  23.979  36.305  1.00  0.00    -0.200 F 
ATOM     89  F   UNL A   1      47.632  25.066  36.488  1.00  0.00    -0.200 F 
ENDBRANCH  56  79
ENDBRANCH  30  31
ENDBRANCH  23  25
ENDBRANCH  22  23
ENDBRANCH  21  22
ENDBRANCH  20  21
ENDBRANCH  19  20
ENDBRANCH   1  19
TORSDOF 18
ENDMDL
MODEL 3
REMARK VINA RESULT:     -10.1      4.277      9.769
REMARK SMILES CCO[P@TB12](C)(=O)C[N@@H+]1CCC[C@@H]1C(=O)OCCOCCOC(=O)c1ccc(-c2c3nc(c(-c4c(F)c(F)c(F)c(F)c4F)c4ccc([nH]4)c(-c4c(F)c(F)c(F)c(F)c4F)c4nc(c(-c5c(F)c(F)c(F)c(F)c5F)c5ccc2[nH]5)C=C4)C=C3)cc1
REMARK SMILES IDX 17 1 16 2 15 3 13 4 14 5 12 6 8 7 9 8 10 10 11 11 7 12 4 13
REMARK SMILES IDX 6 14 5 15 3 16 2 17 1 18 18 19 19 20 20 21 21 22 22 23 23 24
REMARK SMILES IDX 24 25 25 26 86 27 26 28 85 29 27 30 28 31 29 32 79 33 30 34
REMARK SMILES IDX 84 35 78 36 80 37 31 38 83 39 77 40 76 41 32 43 64 44 44 45
REMARK SMILES IDX 63 46 45 47 48 48 62 49 81 50 46 51 47 52 61 54 82 55 49 56
REMARK SMILES IDX 33 57 34 58 42 59 35 60 36 61 40 62 43 63 37 64 38 65 41 66
REMARK SMILES IDX 39 67 65 68 66 69 74 70 67 71 68 72 72 73 75 74 69 75 70 76
REMARK SMILES IDX 73 77 71 78 50 79 51 80 59 81 52 82 53 83 57 84 60 85 54 86
REMARK SMILES IDX 55 87 58 88 56 89
REMARK H PARENT 8 9 80 42 48 53
REMARK Flexibility Score: inf
ROOT
ATOM      1  C   UNL A   1      33.051  27.529  26.486  1.00  0.00       nan C 
ENDROOT
BRANCH   1   2
ATOM      2  C   UNL A   1      31.695  26.895  26.797  1.00  0.00       nan C 
BRANCH   2   3
ATOM      3  O   UNL A   1      31.265  25.898  25.849  1.00  0.00       nan OA
BRANCH   3   4
ATOM      4  C   UNL A   1      31.372  24.609  26.278  1.00  0.00       nan C 
ATOM      5  O   UNL A   1      30.564  24.053  27.020  1.00  0.00       nan OA
BRANCH   4   6
ATOM      6  C   UNL A   1      32.583  23.878  25.707  1.00  0.00       nan C 
ATOM      7  N   UNL A   1      33.361  24.473  24.549  1.00  0.00       nan N 
ATOM      8  C   UNL A   1      34.092  23.288  24.050  1.00  0.00       nan C 
ATOM      9  H   UNL A   1      33.924  25.265  24.861  1.00  0.00       nan HD
ATOM     10  C   UNL A   1      33.113  22.128  24.140  1.00  0.00       nan C 
ATOM     11  C   UNL A   1      32.310  22.410  25.396  1.00  0.00       nan C 
BRANCH   7  12
ATOM     12  C   UNL A   1      32.553  25.068  23.453  1.00  0.00       nan C 
BRANCH  12  13
ATOM     13  P   UNL A   1      33.282  26.602  22.772  1.00  0.00       nan P 
ATOM     14  O   UNL A   1      33.100  26.079  21.338  1.00  0.00       nan OA
ATOM     15  C   UNL A   1      34.010  28.136  22.091  1.00  0.00       nan C 
BRANCH  13  16
ATOM     16  O   UNL A   1      32.015  27.565  23.195  1.00  0.00       nan OA
BRANCH  16  17
ATOM     17  C   UNL A   1      30.787  27.535  22.470  1.00  0.00       nan C 
ATOM     18  C   UNL A   1      30.305  28.966  22.275  1.00  0.00       nan C 
ENDBRANCH  16  17
ENDBRANCH  13  16
ENDBRANCH  12  13
ENDBRANCH   7  12
ENDBRANCH   4   6
ENDBRANCH   3   4
ENDBRANCH   2   3
ENDBRANCH   1   2
BRANCH   1  19
ATOM     19  O   UNL A   1      33.066  28.803  25.851  1.00  0.00       nan OA
BRANCH  19  20
ATOM     20  C   UNL A   1      31.922  29.637  25.982  1.00  0.00       nan C 
BRANCH  20  21
ATOM     21  C   UNL A   1      32.150  31.078  26.440  1.00  0.00       nan C 
BRANCH  21  22
ATOM     22  O   UNL A   1      32.864  31.166  27.686  1.00  0.00       nan OA
BRANCH  22  23
ATOM     23  C   UNL A   1      33.672  32.247  27.774  1.00  0.00       inf C 
ATOM     24  O   UNL A   1      33.334  33.421  27.855  1.00  0.00    -0.246 OA
BRANCH  23  25
ATOM     25  C   UNL A   1      35.088  31.861  27.876  1.00  0.00     0.060 A 
ATOM     26  C   UNL A   1      35.374  30.491  27.836  1.00  0.00     0.016 A 
ATOM     27  C   UNL A   1      36.079  32.787  28.207  1.00  0.00     0.016 A 
ATOM     28  C   UNL A   1      36.623  30.030  28.235  1.00  0.00     0.010 A 
ATOM     29  C   UNL A   1      37.337  32.322  28.613  1.00  0.00     0.010 A 
ATOM     30  C   UNL A   1      37.585  30.939  28.692  1.00  0.00    -0.014 A 
BRANCH  30  31
ATOM     31  C   UNL A   1      38.743  30.408  29.451  1.00  0.00     0.031 A 
ATOM     32  C   UNL A   1      38.913  30.812  30.892  1.00  0.00     0.074 A 
ATOM     33  C   UNL A   1      39.572  29.507  28.899  1.00  0.00     0.049 A 
ATOM     34  N   UNL A   1      39.795  30.409  31.772  1.00  0.00    -0.248 NA
ATOM     35  C   UNL A   1      37.957  31.802  31.414  1.00  0.00     0.031 C 
ATOM     36  C   UNL A   1      39.488  29.013  27.528  1.00  0.00     0.029 A 
ATOM     37  N   UNL A   1      40.642  28.838  29.437  1.00  0.00    -0.354 N 
ATOM     38  C   UNL A   1      39.499  31.093  32.944  1.00  0.00     0.074 A 
ATOM     39  C   UNL A   1      38.379  31.962  32.659  1.00  0.00     0.031 C 
ATOM     40  C   UNL A   1      40.468  28.114  27.329  1.00  0.00     0.029 A 
ATOM     41  C   UNL A   1      41.252  27.982  28.556  1.00  0.00     0.049 A 
ATOM     42  H   UNL A   1      40.943  28.960  30.367  1.00  0.00     0.167 HD
ATOM     43  C   UNL A   1      40.096  30.993  34.156  1.00  0.00     0.037 A 
ATOM     44  C   UNL A   1      42.322  27.182  28.724  1.00  0.00     0.037 A 
ATOM     45  C   UNL A   1      41.203  30.120  34.446  1.00  0.00     0.049 A 
ATOM     46  C   UNL A   1      42.990  27.113  30.073  1.00  0.00     0.074 A 
ATOM     47  C   UNL A   1      41.865  29.933  35.646  1.00  0.00     0.029 A 
ATOM     48  N   UNL A   1      41.812  29.288  33.517  1.00  0.00    -0.354 N 
ATOM     49  N   UNL A   1      42.684  27.739  31.183  1.00  0.00    -0.248 NA
ATOM     50  C   UNL A   1      44.146  26.212  30.192  1.00  0.00     0.031 C 
ATOM     51  C   UNL A   1      42.902  29.016  35.434  1.00  0.00     0.029 A 
ATOM     52  C   UNL A   1      42.857  28.601  34.113  1.00  0.00     0.049 A 
ATOM     53  H   UNL A   1      41.540  29.200  32.575  1.00  0.00     0.167 HD
ATOM     54  C   UNL A   1      43.589  27.292  32.136  1.00  0.00     0.074 A 
ATOM     55  C   UNL A   1      44.449  26.331  31.477  1.00  0.00     0.031 C 
ATOM     56  C   UNL A   1      43.701  27.647  33.441  1.00  0.00     0.037 A 
BRANCH  43  57
ATOM     57  C   UNL A   1      39.574  31.867  35.257  1.00  0.00     0.064 A 
ATOM     58  C   UNL A   1      39.989  33.199  35.399  1.00  0.00     0.173 A 
ATOM     59  C   UNL A   1      38.626  31.372  36.165  1.00  0.00     0.173 A 
ATOM     60  F   UNL A   1      40.904  33.714  34.565  1.00  0.00    -0.203 F 
ATOM     61  C   UNL A   1      39.490  33.998  36.425  1.00  0.00     0.198 A 
ATOM     62  C   UNL A   1      38.112  32.180  37.175  1.00  0.00     0.198 A 
ATOM     63  F   UNL A   1      38.196  30.105  36.070  1.00  0.00    -0.203 F 
ATOM     64  F   UNL A   1      39.929  35.256  36.568  1.00  0.00    -0.200 F 
ATOM     65  C   UNL A   1      38.548  33.491  37.308  1.00  0.00     0.200 A 
ATOM     66  F   UNL A   1      37.195  31.692  38.021  1.00  0.00    -0.200 F 
ATOM     67  F   UNL A   1      38.065  34.262  38.292  1.00  0.00    -0.200 F 
ENDBRANCH  43  57
BRANCH  44  68
ATOM     68  C   UNL A   1      42.823  26.375  27.584  1.00  0.00     0.064 A 
ATOM     69  C   UNL A   1      43.818  26.864  26.728  1.00  0.00     0.173 A 
ATOM     70  C   UNL A   1      42.307  25.096  27.325  1.00  0.00     0.173 A 
ATOM     71  F   UNL A   1      44.322  28.093  26.920  1.00  0.00    -0.203 F 
ATOM     72  C   UNL A   1      44.271  26.110  25.647  1.00  0.00     0.198 A 
ATOM     73  C   UNL A   1      42.778  24.334  26.260  1.00  0.00     0.198 A 
ATOM     74  F   UNL A   1      41.351  24.585  28.114  1.00  0.00    -0.203 F 
ATOM     75  F   UNL A   1      45.194  26.618  24.819  1.00  0.00    -0.200 F 
ATOM     76  C   UNL A   1      43.754  24.843  25.418  1.00  0.00     0.200 A 
ATOM     77  F   UNL A   1      42.283  23.107  26.047  1.00  0.00    -0.200 F 
ATOM     78  F   UNL A   1      44.192  24.118  24.379  1.00  0.00    -0.200 F 
ENDBRANCH  44  68
BRANCH  56  79
ATOM     79  C   UNL A   1      44.774  26.974  34.244  1.00  0.00     0.064 A 
ATOM     80  C   UNL A   1      46.060  27.523  34.356  1.00  0.00     0.173 A 
ATOM     81  C   UNL A   1      44.506  25.781  34.932  1.00  0.00     0.173 A 
ATOM     82  F   UNL A   1      46.369  28.655  33.705  1.00  0.00    -0.203 F 
ATOM     83  C   UNL A   1      47.047  26.886  35.103  1.00  0.00     0.198 A 
ATOM     84  C   UNL A   1      45.487  25.161  35.700  1.00  0.00     0.198 A 
ATOM     85  F   UNL A   1      43.289  25.220  34.864  1.00  0.00    -0.203 F 
ATOM     86  F   UNL A   1      48.282  27.403  35.157  1.00  0.00    -0.200 F 
ATOM     87  C   UNL A   1      46.759  25.710  35.778  1.00  0.00     0.200 A 
ATOM     88  F   UNL A   1      45.204  24.031  36.361  1.00  0.00    -0.200 F 
ATOM     89  F   UNL A   1      47.709  25.098  36.498  1.00  0.00    -0.200 F 
ENDBRANCH  56  79
ENDBRANCH  30  31
ENDBRANCH  23  25
ENDBRANCH  22  23
ENDBRANCH  21  22
ENDBRANCH  20  21
ENDBRANCH  19  20
ENDBRANCH   1  19
TORSDOF 18
ENDMDL
