MODEL 1
REMARK VINA RESULT:     -13.0      0.000      0.000
REMARK SMILES Cc1[nH]c2ccccc2c1[C@H](C(=O)OCCOCCOC(=O)c1ccc(-c2c3nc(c(-c4c(F)c(F)c(F)c(F)c4F)c4ccc([nH]4)c(-c4c(F)c(F)c(F)c(F)c4F)c4nc(c(-c5c(F)c(F)c(F)c(F)c5F)c5ccc2[nH]5)C=C4)C=C3)cc1)[NH+]1CCN(C(=O)c2ccco2)CC1
REMARK SMILES IDX 17 1 16 2 15 3 14 4 12 5 13 6 11 7 10 8 1 9 2 10 3 11 4 12
REMARK SMILES IDX 9 14 5 15 8 16 6 17 7 18 86 19 87 20 98 21 88 23 97 24 89 25
REMARK SMILES IDX 90 26 91 27 92 28 93 29 96 30 94 31 95 32 18 33 19 34 20 35
REMARK SMILES IDX 21 36 22 37 23 38 24 39 85 40 25 41 84 42 26 43 27 44 28 45
REMARK SMILES IDX 78 46 29 47 83 48 77 49 79 50 30 51 82 52 76 53 75 54 31 56
REMARK SMILES IDX 63 57 43 58 62 59 44 60 47 61 61 62 80 63 45 64 46 65 60 67
REMARK SMILES IDX 81 68 48 69 32 70 33 71 41 72 34 73 35 74 39 75 42 76 36 77
REMARK SMILES IDX 37 78 40 79 38 80 64 81 65 82 73 83 66 84 67 85 71 86 74 87
REMARK SMILES IDX 68 88 69 89 72 90 70 91 49 92 50 93 58 94 51 95 52 96 56 97
REMARK SMILES IDX 59 98 53 99 54 100 57 101 55 102
REMARK H PARENT 3 13 86 22 79 55 47 66
REMARK Flexibility Score: inf
ROOT
ATOM      1  O   UNL A   1      37.799  20.941  24.540  1.00  0.00    -0.374 OA
ENDROOT
BRANCH   1   2
ATOM      2  C   UNL A   1      36.521  21.567  24.631  1.00  0.00     0.202 C 
BRANCH   2   3
ATOM      3  C   UNL A   1      36.265  22.606  23.540  1.00  0.00     0.261 C 
BRANCH   3   4
ATOM      4  O   UNL A   1      35.494  23.731  24.031  1.00  0.00    -0.459 OA
BRANCH   4   5
ATOM      5  C   UNL A   1      34.222  23.850  23.567  1.00  0.00     0.370 C 
ATOM      6  O   UNL A   1      33.948  24.247  22.436  1.00  0.00    -0.245 OA
BRANCH   5   7
ATOM      7  C   UNL A   1      33.136  23.580  24.617  1.00  0.00     0.328 C 
BRANCH   7   8
ATOM      8  C   UNL A   1      33.086  22.209  25.306  1.00  0.00     0.049 A 
ATOM      9  C   UNL A   1      34.091  22.538  27.718  1.00  0.00     0.065 C 
ATOM     10  C   UNL A   1      33.472  21.823  26.587  1.00  0.00     0.022 A 
ATOM     11  N   UNL A   1      33.236  20.481  26.735  1.00  0.00    -0.358 N 
ATOM     12  C   UNL A   1      32.902  19.917  25.538  1.00  0.00     0.046 A 
ATOM     13  H   UNL A   1      33.298  19.992  27.587  1.00  0.00     0.166 HD
ATOM     14  C   UNL A   1      32.784  20.960  24.622  1.00  0.00     0.009 A 
ATOM     15  C   UNL A   1      32.722  18.569  25.212  1.00  0.00     0.027 A 
ATOM     16  C   UNL A   1      32.461  20.618  23.291  1.00  0.00     0.011 A 
ATOM     17  C   UNL A   1      32.417  18.264  23.886  1.00  0.00     0.002 A 
ATOM     18  C   UNL A   1      32.286  19.273  22.937  1.00  0.00     0.001 A 
ENDBRANCH   7   8
BRANCH   7  19
ATOM     19  N   UNL A   1      33.003  24.682  25.609  1.00  0.00    -0.316 N 
ATOM     20  C   UNL A   1      34.030  25.724  25.611  1.00  0.00     0.285 C 
ATOM     21  C   UNL A   1      31.668  25.281  25.693  1.00  0.00     0.285 C 
ATOM     22  H   UNL A   1      33.171  24.149  26.463  1.00  0.00     0.349 HD
ATOM     23  C   UNL A   1      33.825  26.908  24.653  1.00  0.00     0.181 C 
ATOM     24  C   UNL A   1      31.351  26.424  24.709  1.00  0.00     0.181 C 
ATOM     25  N   UNL A   1      32.448  27.358  24.440  1.00  0.00    -0.325 N 
ATOM     26  C   UNL A   1      32.303  28.452  23.556  1.00  0.00     0.289 C 
ATOM     27  O   UNL A   1      33.301  28.930  23.013  1.00  0.00    -0.265 OA
BRANCH  26  28
ATOM     28  C   UNL A   1      30.976  28.986  23.295  1.00  0.00     0.191 A 
ATOM     29  C   UNL A   1      30.161  29.882  23.966  1.00  0.00     0.056 A 
ATOM     30  O   UNL A   1      30.372  28.642  22.113  1.00  0.00    -0.459 OA
ATOM     31  C   UNL A   1      29.004  30.067  23.171  1.00  0.00     0.043 A 
ATOM     32  C   UNL A   1      29.182  29.291  22.053  1.00  0.00     0.196 A 
ENDBRANCH  26  28
ENDBRANCH   7  19
ENDBRANCH   5   7
ENDBRANCH   4   5
ENDBRANCH   3   4
ENDBRANCH   2   3
ENDBRANCH   1   2
BRANCH   1  33
ATOM     33  C   UNL A   1      37.872  19.587  24.988  1.00  0.00     0.202 C 
BRANCH  33  34
ATOM     34  C   UNL A   1      39.193  19.235  25.687  1.00  0.00     0.261 C 
BRANCH  34  35
ATOM     35  O   UNL A   1      40.007  20.407  25.893  1.00  0.00    -0.460 OA
BRANCH  35  36
ATOM     36  C   UNL A   1      40.733  20.438  27.038  1.00  0.00     0.338 C 
ATOM     37  O   UNL A   1      41.243  19.497  27.619  1.00  0.00    -0.246 OA
BRANCH  36  38
ATOM     38  C   UNL A   1      41.006  21.850  27.392  1.00  0.00     0.060 A 
ATOM     39  C   UNL A   1      40.292  22.847  26.715  1.00  0.00     0.016 A 
ATOM     40  C   UNL A   1      41.920  22.198  28.390  1.00  0.00     0.016 A 
ATOM     41  C   UNL A   1      40.501  24.194  27.022  1.00  0.00     0.010 A 
ATOM     42  C   UNL A   1      42.118  23.547  28.708  1.00  0.00     0.010 A 
ATOM     43  C   UNL A   1      41.433  24.555  28.005  1.00  0.00    -0.014 A 
BRANCH  43  44
ATOM     44  C   UNL A   1      41.846  25.974  28.155  1.00  0.00     0.031 A 
ATOM     45  C   UNL A   1      43.180  26.387  27.594  1.00  0.00     0.074 A 
ATOM     46  C   UNL A   1      41.066  26.889  28.759  1.00  0.00     0.049 A 
ATOM     47  N   UNL A   1      43.791  27.543  27.656  1.00  0.00    -0.248 NA
ATOM     48  C   UNL A   1      43.933  25.347  26.874  1.00  0.00     0.031 C 
ATOM     49  C   UNL A   1      39.739  26.639  29.318  1.00  0.00     0.029 A 
ATOM     50  N   UNL A   1      41.291  28.222  29.008  1.00  0.00    -0.354 N 
ATOM     51  C   UNL A   1      44.999  27.364  26.996  1.00  0.00     0.074 A 
ATOM     52  C   UNL A   1      45.055  25.982  26.573  1.00  0.00     0.031 C 
ATOM     53  C   UNL A   1      39.270  27.783  29.851  1.00  0.00     0.029 A 
ATOM     54  C   UNL A   1      40.274  28.837  29.697  1.00  0.00     0.049 A 
ATOM     55  H   UNL A   1      42.106  28.693  28.720  1.00  0.00     0.167 HD
ATOM     56  C   UNL A   1      45.972  28.271  26.749  1.00  0.00     0.037 A 
ATOM     57  C   UNL A   1      40.176  30.098  30.166  1.00  0.00     0.037 A 
ATOM     58  C   UNL A   1      45.917  29.652  27.138  1.00  0.00     0.049 A 
ATOM     59  C   UNL A   1      41.306  31.073  29.937  1.00  0.00     0.074 A 
ATOM     60  C   UNL A   1      46.835  30.655  26.885  1.00  0.00     0.029 A 
ATOM     61  N   UNL A   1      44.887  30.224  27.866  1.00  0.00    -0.354 N 
ATOM     62  N   UNL A   1      42.429  30.904  29.282  1.00  0.00    -0.248 NA
ATOM     63  C   UNL A   1      41.155  32.415  30.523  1.00  0.00     0.031 C 
ATOM     64  C   UNL A   1      46.384  31.826  27.503  1.00  0.00     0.029 A 
ATOM     65  C   UNL A   1      45.163  31.561  28.102  1.00  0.00     0.049 A 
ATOM     66  H   UNL A   1      44.078  29.751  28.171  1.00  0.00     0.167 HD
ATOM     67  C   UNL A   1      43.103  32.117  29.357  1.00  0.00     0.074 A 
ATOM     68  C   UNL A   1      42.260  33.020  30.110  1.00  0.00     0.031 C 
ATOM     69  C   UNL A   1      44.315  32.452  28.848  1.00  0.00     0.037 A 
BRANCH  56  70
ATOM     70  C   UNL A   1      47.193  27.787  26.028  1.00  0.00     0.064 A 
ATOM     71  C   UNL A   1      48.330  27.347  26.722  1.00  0.00     0.173 A 
ATOM     72  C   UNL A   1      47.215  27.745  24.627  1.00  0.00     0.173 A 
ATOM     73  F   UNL A   1      48.360  27.390  28.062  1.00  0.00    -0.203 F 
ATOM     74  C   UNL A   1      49.456  26.903  26.036  1.00  0.00     0.198 A 
ATOM     75  C   UNL A   1      48.333  27.274  23.945  1.00  0.00     0.198 A 
ATOM     76  F   UNL A   1      46.151  28.155  23.920  1.00  0.00    -0.203 F 
ATOM     77  F   UNL A   1      50.548  26.530  26.716  1.00  0.00    -0.200 F 
ATOM     78  C   UNL A   1      49.455  26.861  24.649  1.00  0.00     0.200 A 
ATOM     79  F   UNL A   1      48.329  27.228  22.606  1.00  0.00    -0.200 F 
ATOM     80  F   UNL A   1      50.539  26.429  23.990  1.00  0.00    -0.200 F 
ENDBRANCH  56  70
BRANCH  57  81
ATOM     81  C   UNL A   1      38.971  30.523  30.926  1.00  0.00     0.064 A 
ATOM     82  C   UNL A   1      37.874  31.105  30.276  1.00  0.00     0.173 A 
ATOM     83  C   UNL A   1      38.917  30.408  32.322  1.00  0.00     0.173 A 
ATOM     84  F   UNL A   1      37.895  31.270  28.944  1.00  0.00    -0.203 F 
ATOM     85  C   UNL A   1      36.775  31.572  30.995  1.00  0.00     0.198 A 
ATOM     86  C   UNL A   1      37.807  30.852  33.038  1.00  0.00     0.198 A 
ATOM     87  F   UNL A   1      39.947  29.871  32.992  1.00  0.00    -0.203 F 
ATOM     88  F   UNL A   1      35.763  32.173  30.355  1.00  0.00    -0.200 F 
ATOM     89  C   UNL A   1      36.741  31.441  32.375  1.00  0.00     0.200 A 
ATOM     90  F   UNL A   1      37.778  30.723  34.372  1.00  0.00    -0.200 F 
ATOM     91  F   UNL A   1      35.689  31.899  33.068  1.00  0.00    -0.200 F 
ENDBRANCH  57  81
BRANCH  69  92
ATOM     92  C   UNL A   1      44.803  33.854  29.066  1.00  0.00     0.064 A 
ATOM     93  C   UNL A   1      45.626  34.180  30.154  1.00  0.00     0.173 A 
ATOM     94  C   UNL A   1      44.510  34.864  28.137  1.00  0.00     0.173 A 
ATOM     95  F   UNL A   1      45.925  33.252  31.076  1.00  0.00    -0.203 F 
ATOM     96  C   UNL A   1      46.128  35.469  30.309  1.00  0.00     0.198 A 
ATOM     97  C   UNL A   1      45.035  36.145  28.282  1.00  0.00     0.198 A 
ATOM     98  F   UNL A   1      43.734  34.601  27.075  1.00  0.00    -0.203 F 
ATOM     99  F   UNL A   1      46.890  35.767  31.372  1.00  0.00    -0.200 F 
ATOM    100  C   UNL A   1      45.841  36.448  29.369  1.00  0.00     0.200 A 
ATOM    101  F   UNL A   1      44.767  37.085  27.365  1.00  0.00    -0.200 F 
ATOM    102  F   UNL A   1      46.339  37.684  29.512  1.00  0.00    -0.200 F 
ENDBRANCH  69  92
ENDBRANCH  43  44
ENDBRANCH  36  38
ENDBRANCH  35  36
ENDBRANCH  34  35
ENDBRANCH  33  34
ENDBRANCH   1  33
TORSDOF 17
ENDMDL
MODEL 2
REMARK VINA RESULT:     -12.9      0.347      1.578
REMARK SMILES Cc1[nH]c2ccccc2c1[C@H](C(=O)OCCOCCOC(=O)c1ccc(-c2c3nc(c(-c4c(F)c(F)c(F)c(F)c4F)c4ccc([nH]4)c(-c4c(F)c(F)c(F)c(F)c4F)c4nc(c(-c5c(F)c(F)c(F)c(F)c5F)c5ccc2[nH]5)C=C4)C=C3)cc1)[NH+]1CCN(C(=O)c2ccco2)CC1
REMARK SMILES IDX 17 1 16 2 15 3 14 4 12 5 13 6 11 7 10 8 1 9 2 10 3 11 4 12
REMARK SMILES IDX 9 14 5 15 8 16 6 17 7 18 86 19 87 20 98 21 88 23 97 24 89 25
REMARK SMILES IDX 90 26 91 27 92 28 93 29 96 30 94 31 95 32 18 33 19 34 20 35
REMARK SMILES IDX 21 36 22 37 23 38 24 39 85 40 25 41 84 42 26 43 27 44 28 45
REMARK SMILES IDX 78 46 29 47 83 48 77 49 79 50 30 51 82 52 76 53 75 54 31 56
REMARK SMILES IDX 63 57 43 58 62 59 44 60 47 61 61 62 80 63 45 64 46 65 60 67
REMARK SMILES IDX 81 68 48 69 32 70 33 71 41 72 34 73 35 74 39 75 42 76 36 77
REMARK SMILES IDX 37 78 40 79 38 80 64 81 65 82 73 83 66 84 67 85 71 86 74 87
REMARK SMILES IDX 68 88 69 89 72 90 70 91 49 92 50 93 58 94 51 95 52 96 56 97
REMARK SMILES IDX 59 98 53 99 54 100 57 101 55 102
REMARK H PARENT 3 13 86 22 79 55 47 66
REMARK Flexibility Score: inf
ROOT
ATOM      1  O   UNL A   1      37.803  20.954  24.503  1.00  0.00    -0.374 OA
ENDROOT
BRANCH   1   2
ATOM      2  C   UNL A   1      36.657  21.715  24.878  1.00  0.00     0.202 C 
BRANCH   2   3
ATOM      3  C   UNL A   1      36.322  22.845  23.906  1.00  0.00     0.261 C 
BRANCH   3   4
ATOM      4  O   UNL A   1      35.424  23.819  24.493  1.00  0.00    -0.459 OA
BRANCH   4   5
ATOM      5  C   UNL A   1      34.228  24.001  23.874  1.00  0.00     0.370 C 
ATOM      6  O   UNL A   1      34.103  24.585  22.799  1.00  0.00    -0.245 OA
BRANCH   5   7
ATOM      7  C   UNL A   1      33.014  23.538  24.691  1.00  0.00     0.328 C 
BRANCH   7   8
ATOM      8  C   UNL A   1      33.000  22.115  25.269  1.00  0.00     0.049 A 
ATOM      9  C   UNL A   1      34.026  22.273  27.689  1.00  0.00     0.065 C 
ATOM     10  C   UNL A   1      33.408  21.637  26.511  1.00  0.00     0.022 A 
ATOM     11  N   UNL A   1      33.202  20.283  26.554  1.00  0.00    -0.358 N 
ATOM     12  C   UNL A   1      32.865  19.809  25.319  1.00  0.00     0.046 A 
ATOM     13  H   UNL A   1      33.284  19.729  27.363  1.00  0.00     0.166 HD
ATOM     14  C   UNL A   1      32.715  20.918  24.490  1.00  0.00     0.009 A 
ATOM     15  C   UNL A   1      32.709  18.487  24.889  1.00  0.00     0.027 A 
ATOM     16  C   UNL A   1      32.384  20.676  23.140  1.00  0.00     0.011 A 
ATOM     17  C   UNL A   1      32.395  18.282  23.546  1.00  0.00     0.002 A 
ATOM     18  C   UNL A   1      32.232  19.360  22.681  1.00  0.00     0.001 A 
ENDBRANCH   7   8
BRANCH   7  19
ATOM     19  N   UNL A   1      32.588  24.534  25.712  1.00  0.00    -0.316 N 
ATOM     20  C   UNL A   1      33.522  25.611  26.042  1.00  0.00     0.285 C 
ATOM     21  C   UNL A   1      31.236  25.068  25.528  1.00  0.00     0.285 C 
ATOM     22  H   UNL A   1      32.587  23.929  26.533  1.00  0.00     0.349 HD
ATOM     23  C   UNL A   1      33.471  26.872  25.164  1.00  0.00     0.181 C 
ATOM     24  C   UNL A   1      31.085  26.286  24.596  1.00  0.00     0.181 C 
ATOM     25  N   UNL A   1      32.155  27.285  24.671  1.00  0.00    -0.325 N 
ATOM     26  C   UNL A   1      32.151  28.451  23.872  1.00  0.00     0.289 C 
ATOM     27  O   UNL A   1      33.217  29.019  23.621  1.00  0.00    -0.265 OA
BRANCH  26  28
ATOM     28  C   UNL A   1      30.891  28.954  23.352  1.00  0.00     0.191 A 
ATOM     29  C   UNL A   1      30.035  28.528  22.351  1.00  0.00     0.056 A 
ATOM     30  O   UNL A   1      30.321  30.027  23.990  1.00  0.00    -0.459 OA
ATOM     31  C   UNL A   1      28.914  29.394  22.364  1.00  0.00     0.043 A 
ATOM     32  C   UNL A   1      29.138  30.288  23.381  1.00  0.00     0.196 A 
ENDBRANCH  26  28
ENDBRANCH   7  19
ENDBRANCH   5   7
ENDBRANCH   4   5
ENDBRANCH   3   4
ENDBRANCH   2   3
ENDBRANCH   1   2
BRANCH   1  33
ATOM     33  C   UNL A   1      37.849  19.607  24.976  1.00  0.00     0.202 C 
BRANCH  33  34
ATOM     34  C   UNL A   1      39.164  19.241  25.678  1.00  0.00     0.261 C 
BRANCH  34  35
ATOM     35  O   UNL A   1      40.011  20.396  25.845  1.00  0.00    -0.460 OA
BRANCH  35  36
ATOM     36  C   UNL A   1      40.765  20.429  26.971  1.00  0.00     0.338 C 
ATOM     37  O   UNL A   1      41.301  19.490  27.532  1.00  0.00    -0.246 OA
BRANCH  36  38
ATOM     38  C   UNL A   1      41.030  21.842  27.327  1.00  0.00     0.060 A 
ATOM     39  C   UNL A   1      40.346  22.837  26.618  1.00  0.00     0.016 A 
ATOM     40  C   UNL A   1      41.906  22.191  28.358  1.00  0.00     0.016 A 
ATOM     41  C   UNL A   1      40.549  24.185  26.926  1.00  0.00     0.010 A 
ATOM     42  C   UNL A   1      42.098  23.541  28.676  1.00  0.00     0.010 A 
ATOM     43  C   UNL A   1      41.444  24.548  27.942  1.00  0.00    -0.014 A 
BRANCH  43  44
ATOM     44  C   UNL A   1      41.857  25.967  28.100  1.00  0.00     0.031 A 
ATOM     45  C   UNL A   1      43.189  26.384  27.537  1.00  0.00     0.074 A 
ATOM     46  C   UNL A   1      41.079  26.876  28.714  1.00  0.00     0.049 A 
ATOM     47  N   UNL A   1      43.799  27.539  27.605  1.00  0.00    -0.248 NA
ATOM     48  C   UNL A   1      43.939  25.350  26.806  1.00  0.00     0.031 C 
ATOM     49  C   UNL A   1      39.755  26.622  29.277  1.00  0.00     0.029 A 
ATOM     50  N   UNL A   1      41.305  28.208  28.972  1.00  0.00    -0.354 N 
ATOM     51  C   UNL A   1      45.005  27.366  26.939  1.00  0.00     0.074 A 
ATOM     52  C   UNL A   1      45.060  25.987  26.506  1.00  0.00     0.031 C 
ATOM     53  C   UNL A   1      39.287  27.762  29.820  1.00  0.00     0.029 A 
ATOM     54  C   UNL A   1      40.290  28.817  29.669  1.00  0.00     0.049 A 
ATOM     55  H   UNL A   1      42.118  28.681  28.684  1.00  0.00     0.167 HD
ATOM     56  C   UNL A   1      45.976  28.275  26.693  1.00  0.00     0.037 A 
ATOM     57  C   UNL A   1      40.193  30.074  30.147  1.00  0.00     0.037 A 
ATOM     58  C   UNL A   1      45.922  29.653  27.093  1.00  0.00     0.049 A 
ATOM     59  C   UNL A   1      41.322  31.053  29.920  1.00  0.00     0.074 A 
ATOM     60  C   UNL A   1      46.839  30.659  26.843  1.00  0.00     0.029 A 
ATOM     61  N   UNL A   1      44.894  30.220  27.829  1.00  0.00    -0.354 N 
ATOM     62  N   UNL A   1      42.442  30.889  29.260  1.00  0.00    -0.248 NA
ATOM     63  C   UNL A   1      41.173  32.390  30.516  1.00  0.00     0.031 C 
ATOM     64  C   UNL A   1      46.389  31.825  27.471  1.00  0.00     0.029 A 
ATOM     65  C   UNL A   1      45.171  31.555  28.073  1.00  0.00     0.049 A 
ATOM     66  H   UNL A   1      44.087  29.744  28.134  1.00  0.00     0.167 HD
ATOM     67  C   UNL A   1      43.116  32.102  29.341  1.00  0.00     0.074 A 
ATOM     68  C   UNL A   1      42.276  32.999  30.103  1.00  0.00     0.031 C 
ATOM     69  C   UNL A   1      44.325  32.440  28.829  1.00  0.00     0.037 A 
BRANCH  56  70
ATOM     70  C   UNL A   1      47.194  27.798  25.965  1.00  0.00     0.064 A 
ATOM     71  C   UNL A   1      47.241  27.749  24.564  1.00  0.00     0.173 A 
ATOM     72  C   UNL A   1      48.336  27.406  26.679  1.00  0.00     0.173 A 
ATOM     73  F   UNL A   1      46.166  28.095  23.840  1.00  0.00    -0.203 F 
ATOM     74  C   UNL A   1      48.382  27.300  23.904  1.00  0.00     0.198 A 
ATOM     75  C   UNL A   1      49.484  26.984  26.015  1.00  0.00     0.198 A 
ATOM     76  F   UNL A   1      48.338  27.436  28.020  1.00  0.00    -0.203 F 
ATOM     77  F   UNL A   1      48.391  27.218  22.567  1.00  0.00    -0.200 F 
ATOM     78  C   UNL A   1      49.504  26.925  24.630  1.00  0.00     0.200 A 
ATOM     79  F   UNL A   1      50.568  26.628  26.716  1.00  0.00    -0.200 F 
ATOM     80  F   UNL A   1      50.602  26.497  23.992  1.00  0.00    -0.200 F 
ENDBRANCH  56  70
BRANCH  57  81
ATOM     81  C   UNL A   1      38.991  30.494  30.915  1.00  0.00     0.064 A 
ATOM     82  C   UNL A   1      37.889  31.074  30.273  1.00  0.00     0.173 A 
ATOM     83  C   UNL A   1      38.945  30.374  32.311  1.00  0.00     0.173 A 
ATOM     84  F   UNL A   1      37.903  31.244  28.942  1.00  0.00    -0.203 F 
ATOM     85  C   UNL A   1      36.793  31.536  30.999  1.00  0.00     0.198 A 
ATOM     86  C   UNL A   1      37.837  30.813  33.035  1.00  0.00     0.198 A 
ATOM     87  F   UNL A   1      39.980  29.837  32.974  1.00  0.00    -0.203 F 
ATOM     88  F   UNL A   1      35.776  32.137  30.367  1.00  0.00    -0.200 F 
ATOM     89  C   UNL A   1      36.767  31.401  32.379  1.00  0.00     0.200 A 
ATOM     90  F   UNL A   1      37.816  30.679  34.368  1.00  0.00    -0.200 F 
ATOM     91  F   UNL A   1      35.717  31.853  33.079  1.00  0.00    -0.200 F 
ENDBRANCH  57  81
BRANCH  69  92
ATOM     92  C   UNL A   1      44.814  33.841  29.055  1.00  0.00     0.064 A 
ATOM     93  C   UNL A   1      44.458  34.888  28.192  1.00  0.00     0.173 A 
ATOM     94  C   UNL A   1      45.580  34.154  30.188  1.00  0.00     0.173 A 
ATOM     95  F   UNL A   1      43.735  34.637  27.090  1.00  0.00    -0.203 F 
ATOM     96  C   UNL A   1      44.861  36.195  28.450  1.00  0.00     0.198 A 
ATOM     97  C   UNL A   1      45.961  35.467  30.455  1.00  0.00     0.198 A 
ATOM     98  F   UNL A   1      45.941  33.191  31.048  1.00  0.00    -0.203 F 
ATOM     99  F   UNL A   1      44.533  37.176  27.597  1.00  0.00    -0.200 F 
ATOM    100  C   UNL A   1      45.603  36.485  29.585  1.00  0.00     0.200 A 
ATOM    101  F   UNL A   1      46.666  35.747  31.560  1.00  0.00    -0.200 F 
ATOM    102  F   UNL A   1      45.976  37.748  29.840  1.00  0.00    -0.200 F 
ENDBRANCH  69  92
ENDBRANCH  43  44
ENDBRANCH  36  38
ENDBRANCH  35  36
ENDBRANCH  34  35
ENDBRANCH  33  34
ENDBRANCH   1  33
TORSDOF 17
ENDMDL
MODEL 3
REMARK VINA RESULT:     -12.8      4.212      7.759
REMARK SMILES Cc1[nH]c2ccccc2c1[C@H](C(=O)OCCOCCOC(=O)c1ccc(-c2c3nc(c(-c4c(F)c(F)c(F)c(F)c4F)c4ccc([nH]4)c(-c4c(F)c(F)c(F)c(F)c4F)c4nc(c(-c5c(F)c(F)c(F)c(F)c5F)c5ccc2[nH]5)C=C4)C=C3)cc1)[NH+]1CCN(C(=O)c2ccco2)CC1
REMARK SMILES IDX 17 1 16 2 15 3 14 4 12 5 13 6 11 7 10 8 1 9 2 10 3 11 4 12
REMARK SMILES IDX 9 14 5 15 8 16 6 17 7 18 86 19 87 20 98 21 88 23 97 24 89 25
REMARK SMILES IDX 90 26 91 27 92 28 93 29 96 30 94 31 95 32 18 33 19 34 20 35
REMARK SMILES IDX 21 36 22 37 23 38 24 39 85 40 25 41 84 42 26 43 27 44 28 45
REMARK SMILES IDX 78 46 29 47 83 48 77 49 79 50 30 51 82 52 76 53 75 54 31 56
REMARK SMILES IDX 63 57 43 58 62 59 44 60 47 61 61 62 80 63 45 64 46 65 60 67
REMARK SMILES IDX 81 68 48 69 32 70 33 71 41 72 34 73 35 74 39 75 42 76 36 77
REMARK SMILES IDX 37 78 40 79 38 80 64 81 65 82 73 83 66 84 67 85 71 86 74 87
REMARK SMILES IDX 68 88 69 89 72 90 70 91 49 92 50 93 58 94 51 95 52 96 56 97
REMARK SMILES IDX 59 98 53 99 54 100 57 101 55 102
REMARK H PARENT 3 13 86 22 79 55 47 66
REMARK Flexibility Score: inf
ROOT
ATOM      1  O   UNL A   1      30.953  27.692  23.869  1.00  0.00    -0.374 OA
ENDROOT
BRANCH   1   2
ATOM      2  C   UNL A   1      30.638  27.175  22.578  1.00  0.00     0.202 C 
BRANCH   2   3
ATOM      3  C   UNL A   1      31.747  26.318  21.970  1.00  0.00     0.261 C 
BRANCH   3   4
ATOM      4  O   UNL A   1      32.031  25.146  22.772  1.00  0.00    -0.459 OA
BRANCH   4   5
ATOM      5  C   UNL A   1      33.074  24.369  22.374  1.00  0.00     0.370 C 
ATOM      6  O   UNL A   1      33.557  24.410  21.244  1.00  0.00    -0.245 OA
BRANCH   5   7
ATOM      7  C   UNL A   1      33.523  23.331  23.412  1.00  0.00     0.328 C 
BRANCH   7   8
ATOM      8  C   UNL A   1      34.521  23.746  24.503  1.00  0.00     0.049 A 
ATOM      9  C   UNL A   1      33.774  26.127  25.344  1.00  0.00     0.065 C 
ATOM     10  C   UNL A   1      34.582  24.895  25.287  1.00  0.00     0.022 A 
ATOM     11  N   UNL A   1      35.667  24.806  26.119  1.00  0.00    -0.358 N 
ATOM     12  C   UNL A   1      36.448  23.739  25.778  1.00  0.00     0.046 A 
ATOM     13  H   UNL A   1      35.856  25.424  26.861  1.00  0.00     0.166 HD
ATOM     14  C   UNL A   1      35.765  23.043  24.784  1.00  0.00     0.009 A 
ATOM     15  C   UNL A   1      37.705  23.369  26.267  1.00  0.00     0.027 A 
ATOM     16  C   UNL A   1      36.392  21.896  24.250  1.00  0.00     0.011 A 
ATOM     17  C   UNL A   1      38.303  22.240  25.709  1.00  0.00     0.002 A 
ATOM     18  C   UNL A   1      37.656  21.511  24.715  1.00  0.00     0.001 A 
ENDBRANCH   7   8
BRANCH   7  19
ATOM     19  N   UNL A   1      32.387  22.562  23.990  1.00  0.00    -0.316 N 
ATOM     20  C   UNL A   1      31.453  21.927  23.060  1.00  0.00     0.285 C 
ATOM     21  C   UNL A   1      32.752  21.633  25.063  1.00  0.00     0.285 C 
ATOM     22  H   UNL A   1      31.863  23.336  24.398  1.00  0.00     0.349 HD
ATOM     23  C   UNL A   1      31.814  20.519  22.560  1.00  0.00     0.181 C 
ATOM     24  C   UNL A   1      33.206  20.222  24.643  1.00  0.00     0.181 C 
ATOM     25  N   UNL A   1      32.487  19.630  23.510  1.00  0.00    -0.325 N 
ATOM     26  C   UNL A   1      32.799  18.344  23.013  1.00  0.00     0.289 C 
ATOM     27  O   UNL A   1      32.523  18.062  21.844  1.00  0.00    -0.265 OA
BRANCH  26  28
ATOM     28  C   UNL A   1      33.449  17.381  23.886  1.00  0.00     0.191 A 
ATOM     29  C   UNL A   1      34.766  17.166  24.254  1.00  0.00     0.056 A 
ATOM     30  O   UNL A   1      32.648  16.521  24.595  1.00  0.00    -0.459 OA
ATOM     31  C   UNL A   1      34.766  16.116  25.205  1.00  0.00     0.043 A 
ATOM     32  C   UNL A   1      33.452  15.760  25.378  1.00  0.00     0.196 A 
ENDBRANCH  26  28
ENDBRANCH   7  19
ENDBRANCH   5   7
ENDBRANCH   4   5
ENDBRANCH   3   4
ENDBRANCH   2   3
ENDBRANCH   1   2
BRANCH   1  33
ATOM     33  C   UNL A   1      31.683  28.919  23.897  1.00  0.00     0.202 C 
BRANCH  33  34
ATOM     34  C   UNL A   1      31.677  29.614  25.266  1.00  0.00     0.261 C 
BRANCH  34  35
ATOM     35  O   UNL A   1      32.986  30.114  25.608  1.00  0.00    -0.460 OA
BRANCH  35  36
ATOM     36  C   UNL A   1      33.054  30.921  26.695  1.00  0.00     0.338 C 
ATOM     37  O   UNL A   1      32.164  31.606  27.167  1.00  0.00    -0.246 OA
BRANCH  36  38
ATOM     38  C   UNL A   1      34.347  30.692  27.380  1.00  0.00     0.060 A 
ATOM     39  C   UNL A   1      34.725  29.369  27.645  1.00  0.00     0.016 A 
ATOM     40  C   UNL A   1      35.194  31.747  27.729  1.00  0.00     0.016 A 
ATOM     41  C   UNL A   1      35.942  29.099  28.275  1.00  0.00     0.010 A 
ATOM     42  C   UNL A   1      36.421  31.474  28.347  1.00  0.00     0.010 A 
ATOM     43  C   UNL A   1      36.789  30.150  28.652  1.00  0.00    -0.014 A 
BRANCH  43  44
ATOM     44  C   UNL A   1      37.950  29.891  29.542  1.00  0.00     0.031 A 
ATOM     45  C   UNL A   1      39.023  28.957  29.053  1.00  0.00     0.074 A 
ATOM     46  C   UNL A   1      38.069  30.470  30.751  1.00  0.00     0.049 A 
ATOM     47  N   UNL A   1      40.094  28.521  29.666  1.00  0.00    -0.248 NA
ATOM     48  C   UNL A   1      38.858  28.434  27.687  1.00  0.00     0.031 C 
ATOM     49  C   UNL A   1      37.126  31.418  31.338  1.00  0.00     0.029 A 
ATOM     50  N   UNL A   1      39.047  30.330  31.708  1.00  0.00    -0.354 N 
ATOM     51  C   UNL A   1      40.719  27.668  28.768  1.00  0.00     0.074 A 
ATOM     52  C   UNL A   1      39.892  27.616  27.582  1.00  0.00     0.031 C 
ATOM     53  C   UNL A   1      37.568  31.771  32.560  1.00  0.00     0.029 A 
ATOM     54  C   UNL A   1      38.809  31.053  32.852  1.00  0.00     0.049 A 
ATOM     55  H   UNL A   1      39.843  29.765  31.586  1.00  0.00     0.167 HD
ATOM     56  C   UNL A   1      41.885  26.997  28.906  1.00  0.00     0.037 A 
ATOM     57  C   UNL A   1      39.503  31.110  34.007  1.00  0.00     0.037 A 
ATOM     58  C   UNL A   1      42.729  27.061  30.066  1.00  0.00     0.049 A 
ATOM     59  C   UNL A   1      40.767  30.297  34.165  1.00  0.00     0.074 A 
ATOM     60  C   UNL A   1      43.955  26.454  30.275  1.00  0.00     0.029 A 
ATOM     61  N   UNL A   1      42.434  27.775  31.217  1.00  0.00    -0.354 N 
ATOM     62  N   UNL A   1      41.367  29.521  33.296  1.00  0.00    -0.248 NA
ATOM     63  C   UNL A   1      41.443  30.365  35.470  1.00  0.00     0.031 C 
ATOM     64  C   UNL A   1      44.379  26.761  31.572  1.00  0.00     0.029 A 
ATOM     65  C   UNL A   1      43.438  27.595  32.154  1.00  0.00     0.049 A 
ATOM     66  H   UNL A   1      41.629  28.327  31.349  1.00  0.00     0.167 HD
ATOM     67  C   UNL A   1      42.498  29.029  33.939  1.00  0.00     0.074 A 
ATOM     68  C   UNL A   1      42.509  29.603  35.267  1.00  0.00     0.031 C 
ATOM     69  C   UNL A   1      43.441  28.176  33.470  1.00  0.00     0.037 A 
BRANCH  56  70
ATOM     70  C   UNL A   1      42.311  26.119  27.771  1.00  0.00     0.064 A 
ATOM     71  C   UNL A   1      41.737  24.856  27.562  1.00  0.00     0.173 A 
ATOM     72  C   UNL A   1      43.291  26.557  26.868  1.00  0.00     0.173 A 
ATOM     73  F   UNL A   1      40.811  24.388  28.412  1.00  0.00    -0.203 F 
ATOM     74  C   UNL A   1      42.147  24.053  26.502  1.00  0.00     0.198 A 
ATOM     75  C   UNL A   1      43.679  25.762  25.793  1.00  0.00     0.198 A 
ATOM     76  F   UNL A   1      43.869  27.757  27.026  1.00  0.00    -0.203 F 
ATOM     77  F   UNL A   1      41.619  22.831  26.347  1.00  0.00    -0.200 F 
ATOM     78  C   UNL A   1      43.112  24.509  25.615  1.00  0.00     0.200 A 
ATOM     79  F   UNL A   1      44.606  26.206  24.934  1.00  0.00    -0.200 F 
ATOM     80  F   UNL A   1      43.502  23.735  24.593  1.00  0.00    -0.200 F 
ENDBRANCH  56  70
BRANCH  57  81
ATOM     81  C   UNL A   1      39.017  31.950  35.133  1.00  0.00     0.064 A 
ATOM     82  C   UNL A   1      39.307  33.320  35.191  1.00  0.00     0.173 A 
ATOM     83  C   UNL A   1      38.300  31.389  36.200  1.00  0.00     0.173 A 
ATOM     84  F   UNL A   1      40.022  33.894  34.211  1.00  0.00    -0.203 F 
ATOM     85  C   UNL A   1      38.916  34.094  36.282  1.00  0.00     0.198 A 
ATOM     86  C   UNL A   1      37.888  32.169  37.279  1.00  0.00     0.198 A 
ATOM     87  F   UNL A   1      38.009  30.080  36.199  1.00  0.00    -0.203 F 
ATOM     88  F   UNL A   1      39.254  35.390  36.338  1.00  0.00    -0.200 F 
ATOM     89  C   UNL A   1      38.203  33.518  37.323  1.00  0.00     0.200 A 
ATOM     90  F   UNL A   1      37.198  31.609  38.282  1.00  0.00    -0.200 F 
ATOM     91  F   UNL A   1      37.835  34.260  38.376  1.00  0.00    -0.200 F 
ENDBRANCH  57  81
BRANCH  69  92
ATOM     92  C   UNL A   1      44.578  27.818  34.382  1.00  0.00     0.064 A 
ATOM     93  C   UNL A   1      45.730  28.614  34.461  1.00  0.00     0.173 A 
ATOM     94  C   UNL A   1      44.482  26.713  35.242  1.00  0.00     0.173 A 
ATOM     95  F   UNL A   1      45.874  29.674  33.652  1.00  0.00    -0.203 F 
ATOM     96  C   UNL A   1      46.748  28.310  35.361  1.00  0.00     0.198 A 
ATOM     97  C   UNL A   1      45.491  26.427  36.157  1.00  0.00     0.198 A 
ATOM     98  F   UNL A   1      43.397  25.925  35.211  1.00  0.00    -0.203 F 
ATOM     99  F   UNL A   1      47.854  29.069  35.400  1.00  0.00    -0.200 F 
ATOM    100  C   UNL A   1      46.625  27.224  36.214  1.00  0.00     0.200 A 
ATOM    101  F   UNL A   1      45.363  25.385  36.991  1.00  0.00    -0.200 F 
ATOM    102  F   UNL A   1      47.599  26.943  37.091  1.00  0.00    -0.200 F 
ENDBRANCH  69  92
ENDBRANCH  43  44
ENDBRANCH  36  38
ENDBRANCH  35  36
ENDBRANCH  34  35
ENDBRANCH  33  34
ENDBRANCH   1  33
TORSDOF 17
ENDMDL
