MODEL 1
REMARK VINA RESULT:     -12.5      0.000      0.000
REMARK SMILES Cc1cc(OC(F)(F)F)cc2c1O[C@H](C(F)(F)F)C(C(=O)OCCOCCOC(=O)c1ccc(-c3c4nc(c(-c5c(F)c(F)c(F)c(F)c5F)c5ccc([nH]5)c(-c5c(F)c(F)c(F)c(F)c5F)c5nc(c(-c6c(F)c(F)c(F)c(F)c6F)c6ccc3[nH]6)C=C5)C=C4)cc1)=C2
REMARK SMILES IDX 25 1 24 2 23 3 22 4 20 5 21 6 19 7 1 8 2 9 3 10 12 11 4 12
REMARK SMILES IDX 11 13 13 14 10 15 94 16 14 17 5 18 6 19 7 20 8 21 9 22 15 23
REMARK SMILES IDX 16 24 17 25 18 26 26 27 27 28 28 29 29 30 30 31 31 32 32 33
REMARK SMILES IDX 93 34 33 35 92 36 34 37 35 38 36 39 86 40 37 41 91 42 85 43
REMARK SMILES IDX 87 44 38 45 90 46 84 47 83 48 39 50 71 51 51 52 70 53 52 54
REMARK SMILES IDX 55 55 69 56 88 57 53 58 54 59 68 61 89 62 56 63 40 64 41 65
REMARK SMILES IDX 49 66 42 67 43 68 47 69 50 70 44 71 45 72 48 73 46 74 72 75
REMARK SMILES IDX 73 76 81 77 74 78 75 79 79 80 82 81 76 82 77 83 80 84 78 85
REMARK SMILES IDX 57 86 58 87 66 88 59 89 60 90 64 91 67 92 61 93 62 94 65 95
REMARK SMILES IDX 63 96
REMARK H PARENT 87 49 55 60
REMARK Flexibility Score: inf
ROOT
ATOM      1  O   UNL A   1      35.126  20.988  24.748  1.00  0.00    -0.374 OA
ENDROOT
BRANCH   1   2
ATOM      2  C   UNL A   1      33.764  20.657  25.004  1.00  0.00     0.202 C 
BRANCH   2   3
ATOM      3  C   UNL A   1      32.783  20.901  23.855  1.00  0.00     0.261 C 
BRANCH   3   4
ATOM      4  O   UNL A   1      32.096  22.155  24.002  1.00  0.00    -0.460 OA
BRANCH   4   5
ATOM      5  C   UNL A   1      32.551  23.138  23.191  1.00  0.00     0.338 C 
ATOM      6  O   UNL A   1      33.140  23.000  22.131  1.00  0.00    -0.246 OA
BRANCH   5   7
ATOM      7  C   UNL A   1      32.137  24.453  23.713  1.00  0.00     0.087 C 
ATOM      8  C   UNL A   1      31.726  28.937  26.221  1.00  0.00     0.048 C 
ATOM      9  C   UNL A   1      31.307  28.376  24.888  1.00  0.00    -0.005 A 
ATOM     10  C   UNL A   1      30.729  29.254  23.949  1.00  0.00     0.054 A 
ATOM     11  C   UNL A   1      31.516  27.033  24.538  1.00  0.00     0.131 A 
ATOM     12  C   UNL A   1      30.353  28.803  22.683  1.00  0.00     0.130 A 
ATOM     13  C   UNL A   1      31.167  26.589  23.261  1.00  0.00     0.021 A 
ATOM     14  O   UNL A   1      32.057  26.209  25.484  1.00  0.00    -0.475 OA
ATOM     15  C   UNL A   1      30.568  27.466  22.351  1.00  0.00     0.058 A 
ATOM     16  C   UNL A   1      31.489  25.238  22.845  1.00  0.00     0.027 C 
ATOM     17  C   UNL A   1      32.470  24.861  25.120  1.00  0.00     0.316 C 
BRANCH  12  18
ATOM     18  O   UNL A   1      29.786  29.544  21.687  1.00  0.00    -0.406 OA
BRANCH  18  19
ATOM     19  C   UNL A   1      28.460  30.003  21.874  1.00  0.00     0.573 C 
ATOM     20  F   UNL A   1      27.912  30.388  20.701  1.00  0.00    -0.132 F 
ATOM     21  F   UNL A   1      27.688  29.052  22.442  1.00  0.00    -0.132 F 
ATOM     22  F   UNL A   1      28.484  31.073  22.698  1.00  0.00    -0.132 F 
ENDBRANCH  18  19
ENDBRANCH  12  18
BRANCH  17  23
ATOM     23  C   UNL A   1      33.964  24.719  25.447  1.00  0.00     0.430 C 
ATOM     24  F   UNL A   1      34.676  24.387  24.342  1.00  0.00    -0.167 F 
ATOM     25  F   UNL A   1      34.492  25.877  25.907  1.00  0.00    -0.167 F 
ATOM     26  F   UNL A   1      34.193  23.769  26.380  1.00  0.00    -0.167 F 
ENDBRANCH  17  23
ENDBRANCH   5   7
ENDBRANCH   4   5
ENDBRANCH   3   4
ENDBRANCH   2   3
ENDBRANCH   1   2
BRANCH   1  27
ATOM     27  C   UNL A   1      36.114  19.991  25.030  1.00  0.00     0.202 C 
BRANCH  27  28
ATOM     28  C   UNL A   1      37.567  20.363  24.714  1.00  0.00     0.261 C 
BRANCH  28  29
ATOM     29  O   UNL A   1      38.027  21.443  25.551  1.00  0.00    -0.460 OA
BRANCH  29  30
ATOM     30  C   UNL A   1      39.230  21.240  26.135  1.00  0.00     0.338 C 
ATOM     31  O   UNL A   1      39.949  20.257  26.046  1.00  0.00    -0.246 OA
BRANCH  30  32
ATOM     32  C   UNL A   1      39.674  22.471  26.807  1.00  0.00     0.060 A 
ATOM     33  C   UNL A   1      39.059  23.675  26.443  1.00  0.00     0.016 A 
ATOM     34  C   UNL A   1      40.772  22.459  27.667  1.00  0.00     0.016 A 
ATOM     35  C   UNL A   1      39.575  24.885  26.901  1.00  0.00     0.010 A 
ATOM     36  C   UNL A   1      41.302  23.674  28.109  1.00  0.00     0.010 A 
ATOM     37  C   UNL A   1      40.732  24.890  27.690  1.00  0.00    -0.014 A 
BRANCH  37  38
ATOM     38  C   UNL A   1      41.462  26.162  27.900  1.00  0.00     0.031 A 
ATOM     39  C   UNL A   1      40.771  27.268  28.648  1.00  0.00     0.074 A 
ATOM     40  C   UNL A   1      42.721  26.319  27.463  1.00  0.00     0.049 A 
ATOM     41  N   UNL A   1      41.191  28.478  28.916  1.00  0.00    -0.248 NA
ATOM     42  C   UNL A   1      39.427  26.968  29.168  1.00  0.00     0.031 C 
ATOM     43  C   UNL A   1      43.513  25.297  26.782  1.00  0.00     0.029 A 
ATOM     44  N   UNL A   1      43.554  27.407  27.527  1.00  0.00    -0.354 N 
ATOM     45  C   UNL A   1      40.171  29.076  29.644  1.00  0.00     0.074 A 
ATOM     46  C   UNL A   1      39.098  28.111  29.750  1.00  0.00     0.031 C 
ATOM     47  C   UNL A   1      44.717  25.813  26.480  1.00  0.00     0.029 A 
ATOM     48  C   UNL A   1      44.767  27.207  26.918  1.00  0.00     0.049 A 
ATOM     49  H   UNL A   1      43.304  28.253  27.967  1.00  0.00     0.167 HD
ATOM     50  C   UNL A   1      40.137  30.317  30.183  1.00  0.00     0.037 A 
ATOM     51  C   UNL A   1      45.789  28.062  26.722  1.00  0.00     0.037 A 
ATOM     52  C   UNL A   1      41.194  31.283  30.060  1.00  0.00     0.049 A 
ATOM     53  C   UNL A   1      45.679  29.476  27.231  1.00  0.00     0.074 A 
ATOM     54  C   UNL A   1      41.252  32.569  30.564  1.00  0.00     0.029 A 
ATOM     55  N   UNL A   1      42.380  31.066  29.374  1.00  0.00    -0.354 N 
ATOM     56  N   UNL A   1      44.713  30.035  27.918  1.00  0.00    -0.248 NA
ATOM     57  C   UNL A   1      46.799  30.379  26.929  1.00  0.00     0.031 C 
ATOM     58  C   UNL A   1      42.454  33.147  30.144  1.00  0.00     0.029 A 
ATOM     59  C   UNL A   1      43.165  32.205  29.416  1.00  0.00     0.049 A 
ATOM     60  H   UNL A   1      42.627  30.226  28.923  1.00  0.00     0.167 HD
ATOM     61  C   UNL A   1      45.113  31.346  28.145  1.00  0.00     0.074 A 
ATOM     62  C   UNL A   1      46.418  31.495  27.534  1.00  0.00     0.031 C 
ATOM     63  C   UNL A   1      44.459  32.338  28.798  1.00  0.00     0.037 A 
BRANCH  50  64
ATOM     64  C   UNL A   1      38.904  30.708  30.941  1.00  0.00     0.064 A 
ATOM     65  C   UNL A   1      38.819  30.545  32.331  1.00  0.00     0.173 A 
ATOM     66  C   UNL A   1      37.815  31.292  30.278  1.00  0.00     0.173 A 
ATOM     67  F   UNL A   1      39.829  29.975  33.007  1.00  0.00    -0.203 F 
ATOM     68  C   UNL A   1      37.682  30.940  33.029  1.00  0.00     0.198 A 
ATOM     69  C   UNL A   1      36.688  31.708  30.982  1.00  0.00     0.198 A 
ATOM     70  F   UNL A   1      37.849  31.471  28.949  1.00  0.00    -0.203 F 
ATOM     71  F   UNL A   1      37.608  30.746  34.353  1.00  0.00    -0.200 F 
ATOM     72  C   UNL A   1      36.621  31.528  32.356  1.00  0.00     0.200 A 
ATOM     73  F   UNL A   1      35.668  32.283  30.332  1.00  0.00    -0.200 F 
ATOM     74  F   UNL A   1      35.531  31.918  33.031  1.00  0.00    -0.200 F 
ENDBRANCH  50  64
BRANCH  51  75
ATOM     75  C   UNL A   1      47.003  27.608  25.997  1.00  0.00     0.064 A 
ATOM     76  C   UNL A   1      48.116  27.118  26.693  1.00  0.00     0.173 A 
ATOM     77  C   UNL A   1      47.076  27.660  24.597  1.00  0.00     0.173 A 
ATOM     78  F   UNL A   1      48.102  27.076  28.033  1.00  0.00    -0.203 F 
ATOM     79  C   UNL A   1      49.260  26.702  26.015  1.00  0.00     0.198 A 
ATOM     80  C   UNL A   1      48.213  27.223  23.920  1.00  0.00     0.198 A 
ATOM     81  F   UNL A   1      46.040  28.128  23.887  1.00  0.00    -0.203 F 
ATOM     82  F   UNL A   1      50.324  26.269  26.706  1.00  0.00    -0.200 F 
ATOM     83  C   UNL A   1      49.305  26.748  24.630  1.00  0.00     0.200 A 
ATOM     84  F   UNL A   1      48.249  27.262  22.581  1.00  0.00    -0.200 F 
ATOM     85  F   UNL A   1      50.404  26.343  23.980  1.00  0.00    -0.200 F 
ENDBRANCH  51  75
BRANCH  63  86
ATOM     86  C   UNL A   1      45.139  33.670  28.897  1.00  0.00     0.064 A 
ATOM     87  C   UNL A   1      46.043  33.953  29.931  1.00  0.00     0.173 A 
ATOM     88  C   UNL A   1      44.941  34.647  27.910  1.00  0.00     0.173 A 
ATOM     89  F   UNL A   1      46.256  33.056  30.905  1.00  0.00    -0.203 F 
ATOM     90  C   UNL A   1      46.714  35.172  29.980  1.00  0.00     0.198 A 
ATOM     91  C   UNL A   1      45.634  35.853  27.947  1.00  0.00     0.198 A 
ATOM     92  F   UNL A   1      44.094  34.421  26.895  1.00  0.00    -0.203 F 
ATOM     93  F   UNL A   1      47.550  35.434  30.994  1.00  0.00    -0.200 F 
ATOM     94  C   UNL A   1      46.516  36.117  28.984  1.00  0.00     0.200 A 
ATOM     95  F   UNL A   1      45.453  36.760  26.976  1.00  0.00    -0.200 F 
ATOM     96  F   UNL A   1      47.174  37.284  29.025  1.00  0.00    -0.200 F 
ENDBRANCH  63  86
ENDBRANCH  37  38
ENDBRANCH  30  32
ENDBRANCH  29  30
ENDBRANCH  28  29
ENDBRANCH  27  28
ENDBRANCH   1  27
TORSDOF 17
ENDMDL
MODEL 2
REMARK VINA RESULT:     -12.4      1.720      7.544
REMARK SMILES Cc1cc(OC(F)(F)F)cc2c1O[C@H](C(F)(F)F)C(C(=O)OCCOCCOC(=O)c1ccc(-c3c4nc(c(-c5c(F)c(F)c(F)c(F)c5F)c5ccc([nH]5)c(-c5c(F)c(F)c(F)c(F)c5F)c5nc(c(-c6c(F)c(F)c(F)c(F)c6F)c6ccc3[nH]6)C=C5)C=C4)cc1)=C2
REMARK SMILES IDX 25 1 24 2 23 3 22 4 20 5 21 6 19 7 1 8 2 9 3 10 12 11 4 12
REMARK SMILES IDX 11 13 13 14 10 15 94 16 14 17 5 18 6 19 7 20 8 21 9 22 15 23
REMARK SMILES IDX 16 24 17 25 18 26 26 27 27 28 28 29 29 30 30 31 31 32 32 33
REMARK SMILES IDX 93 34 33 35 92 36 34 37 35 38 36 39 86 40 37 41 91 42 85 43
REMARK SMILES IDX 87 44 38 45 90 46 84 47 83 48 39 50 71 51 51 52 70 53 52 54
REMARK SMILES IDX 55 55 69 56 88 57 53 58 54 59 68 61 89 62 56 63 40 64 41 65
REMARK SMILES IDX 49 66 42 67 43 68 47 69 50 70 44 71 45 72 48 73 46 74 72 75
REMARK SMILES IDX 73 76 81 77 74 78 75 79 79 80 82 81 76 82 77 83 80 84 78 85
REMARK SMILES IDX 57 86 58 87 66 88 59 89 60 90 64 91 67 92 61 93 62 94 65 95
REMARK SMILES IDX 63 96
REMARK H PARENT 87 49 55 60
REMARK Flexibility Score: inf
ROOT
ATOM      1  O   UNL A   1      37.679  21.263  24.854  1.00  0.00    -0.374 OA
ENDROOT
BRANCH   1   2
ATOM      2  C   UNL A   1      36.709  21.889  25.691  1.00  0.00     0.202 C 
BRANCH   2   3
ATOM      3  C   UNL A   1      35.272  21.900  25.166  1.00  0.00     0.261 C 
BRANCH   3   4
ATOM      4  O   UNL A   1      34.798  23.240  24.950  1.00  0.00    -0.460 OA
BRANCH   4   5
ATOM      5  C   UNL A   1      34.602  23.559  23.649  1.00  0.00     0.338 C 
ATOM      6  O   UNL A   1      35.032  22.961  22.675  1.00  0.00    -0.246 OA
BRANCH   5   7
ATOM      7  C   UNL A   1      33.680  24.704  23.545  1.00  0.00     0.087 C 
ATOM      8  C   UNL A   1      29.587  27.816  23.189  1.00  0.00     0.048 C 
ATOM      9  C   UNL A   1      30.986  27.892  23.740  1.00  0.00    -0.005 A 
ATOM     10  C   UNL A   1      31.351  29.041  24.470  1.00  0.00     0.054 A 
ATOM     11  C   UNL A   1      31.910  26.846  23.594  1.00  0.00     0.131 A 
ATOM     12  C   UNL A   1      32.620  29.155  25.038  1.00  0.00     0.130 A 
ATOM     13  C   UNL A   1      33.170  26.948  24.188  1.00  0.00     0.021 A 
ATOM     14  O   UNL A   1      31.526  25.759  22.860  1.00  0.00    -0.475 OA
ATOM     15  C   UNL A   1      33.526  28.107  24.884  1.00  0.00     0.058 A 
ATOM     16  C   UNL A   1      34.088  25.826  24.148  1.00  0.00     0.027 C 
ATOM     17  C   UNL A   1      32.364  24.570  22.832  1.00  0.00     0.316 C 
BRANCH  12  18
ATOM     18  O   UNL A   1      33.100  30.207  25.763  1.00  0.00    -0.406 OA
BRANCH  18  19
ATOM     19  C   UNL A   1      33.102  30.094  27.175  1.00  0.00     0.573 C 
ATOM     20  F   UNL A   1      32.076  29.325  27.600  1.00  0.00    -0.132 F 
ATOM     21  F   UNL A   1      34.268  29.581  27.623  1.00  0.00    -0.132 F 
ATOM     22  F   UNL A   1      32.953  31.327  27.708  1.00  0.00    -0.132 F 
ENDBRANCH  18  19
ENDBRANCH  12  18
BRANCH  17  23
ATOM     23  C   UNL A   1      31.526  23.387  23.340  1.00  0.00     0.430 C 
ATOM     24  F   UNL A   1      31.881  22.235  22.719  1.00  0.00    -0.167 F 
ATOM     25  F   UNL A   1      31.701  23.176  24.665  1.00  0.00    -0.167 F 
ATOM     26  F   UNL A   1      30.204  23.572  23.130  1.00  0.00    -0.167 F 
ENDBRANCH  17  23
ENDBRANCH   5   7
ENDBRANCH   4   5
ENDBRANCH   3   4
ENDBRANCH   2   3
ENDBRANCH   1   2
BRANCH   1  27
ATOM     27  C   UNL A   1      37.839  19.846  24.970  1.00  0.00     0.202 C 
BRANCH  27  28
ATOM     28  C   UNL A   1      39.064  19.360  25.753  1.00  0.00     0.261 C 
BRANCH  28  29
ATOM     29  O   UNL A   1      40.116  20.345  25.748  1.00  0.00    -0.460 OA
BRANCH  29  30
ATOM     30  C   UNL A   1      40.850  20.402  26.883  1.00  0.00     0.338 C 
ATOM     31  O   UNL A   1      41.502  19.507  27.398  1.00  0.00    -0.246 OA
BRANCH  30  32
ATOM     32  C   UNL A   1      40.903  21.786  27.376  1.00  0.00     0.060 A 
ATOM     33  C   UNL A   1      40.228  22.770  26.643  1.00  0.00     0.016 A 
ATOM     34  C   UNL A   1      41.722  22.131  28.452  1.00  0.00     0.016 A 
ATOM     35  C   UNL A   1      40.410  24.116  26.953  1.00  0.00     0.010 A 
ATOM     36  C   UNL A   1      41.921  23.482  28.748  1.00  0.00     0.010 A 
ATOM     37  C   UNL A   1      41.300  24.477  27.972  1.00  0.00    -0.014 A 
BRANCH  37  38
ATOM     38  C   UNL A   1      41.742  25.886  28.083  1.00  0.00     0.031 A 
ATOM     39  C   UNL A   1      43.097  26.256  27.545  1.00  0.00     0.074 A 
ATOM     40  C   UNL A   1      40.945  26.823  28.622  1.00  0.00     0.049 A 
ATOM     41  N   UNL A   1      43.713  27.410  27.566  1.00  0.00    -0.248 NA
ATOM     42  C   UNL A   1      43.858  25.179  26.889  1.00  0.00     0.031 C 
ATOM     43  C   UNL A   1      39.591  26.595  29.118  1.00  0.00     0.029 A 
ATOM     44  N   UNL A   1      41.169  28.158  28.843  1.00  0.00    -0.354 N 
ATOM     45  C   UNL A   1      44.923  27.201  26.920  1.00  0.00     0.074 A 
ATOM     46  C   UNL A   1      44.972  25.805  26.544  1.00  0.00     0.031 C 
ATOM     47  C   UNL A   1      39.105  27.754  29.598  1.00  0.00     0.029 A 
ATOM     48  C   UNL A   1      40.126  28.793  29.470  1.00  0.00     0.049 A 
ATOM     49  H   UNL A   1      41.999  28.618  28.577  1.00  0.00     0.167 HD
ATOM     50  C   UNL A   1      45.903  28.097  26.655  1.00  0.00     0.037 A 
ATOM     51  C   UNL A   1      40.022  30.063  29.907  1.00  0.00     0.037 A 
ATOM     52  C   UNL A   1      45.862  29.480  27.047  1.00  0.00     0.049 A 
ATOM     53  C   UNL A   1      41.175  31.012  29.704  1.00  0.00     0.074 A 
ATOM     54  C   UNL A   1      46.808  30.466  26.832  1.00  0.00     0.029 A 
ATOM     55  N   UNL A   1      44.818  30.069  27.744  1.00  0.00    -0.354 N 
ATOM     56  N   UNL A   1      42.316  30.809  29.092  1.00  0.00    -0.248 NA
ATOM     57  C   UNL A   1      41.027  32.364  30.261  1.00  0.00     0.031 C 
ATOM     58  C   UNL A   1      46.356  31.642  27.439  1.00  0.00     0.029 A 
ATOM     59  C   UNL A   1      45.109  31.399  27.994  1.00  0.00     0.049 A 
ATOM     60  H   UNL A   1      43.993  29.609  28.021  1.00  0.00     0.167 HD
ATOM     61  C   UNL A   1      43.013  32.007  29.174  1.00  0.00     0.074 A 
ATOM     62  C   UNL A   1      42.161  32.938  29.884  1.00  0.00     0.031 C 
ATOM     63  C   UNL A   1      44.250  32.309  28.706  1.00  0.00     0.037 A 
BRANCH  50  64
ATOM     64  C   UNL A   1      47.113  27.603  25.922  1.00  0.00     0.064 A 
ATOM     65  C   UNL A   1      47.201  27.680  24.524  1.00  0.00     0.173 A 
ATOM     66  C   UNL A   1      48.211  27.089  26.625  1.00  0.00     0.173 A 
ATOM     67  F   UNL A   1      46.169  28.150  23.807  1.00  0.00    -0.203 F 
ATOM     68  C   UNL A   1      48.342  27.247  23.855  1.00  0.00     0.198 A 
ATOM     69  C   UNL A   1      49.361  26.677  25.954  1.00  0.00     0.198 A 
ATOM     70  F   UNL A   1      48.175  26.995  27.962  1.00  0.00    -0.203 F 
ATOM     71  F   UNL A   1      48.394  27.300  22.518  1.00  0.00    -0.200 F 
ATOM     72  C   UNL A   1      49.423  26.753  24.571  1.00  0.00     0.200 A 
ATOM     73  F   UNL A   1      50.407  26.209  26.647  1.00  0.00    -0.200 F 
ATOM     74  F   UNL A   1      50.526  26.347  23.926  1.00  0.00    -0.200 F 
ENDBRANCH  50  64
BRANCH  51  75
ATOM     75  C   UNL A   1      38.784  30.508  30.594  1.00  0.00     0.064 A 
ATOM     76  C   UNL A   1      37.682  30.974  29.863  1.00  0.00     0.173 A 
ATOM     77  C   UNL A   1      38.677  30.481  31.993  1.00  0.00     0.173 A 
ATOM     78  F   UNL A   1      37.749  31.043  28.526  1.00  0.00    -0.203 F 
ATOM     79  C   UNL A   1      36.523  31.403  30.506  1.00  0.00     0.198 A 
ATOM     80  C   UNL A   1      37.509  30.890  32.633  1.00  0.00     0.198 A 
ATOM     81  F   UNL A   1      39.707  30.051  32.737  1.00  0.00    -0.203 F 
ATOM     82  F   UNL A   1      35.497  31.876  29.786  1.00  0.00    -0.200 F 
ATOM     83  C   UNL A   1      36.435  31.354  31.890  1.00  0.00     0.200 A 
ATOM     84  F   UNL A   1      37.426  30.834  33.969  1.00  0.00    -0.200 F 
ATOM     85  F   UNL A   1      35.318  31.762  32.506  1.00  0.00    -0.200 F 
ENDBRANCH  51  75
BRANCH  63  86
ATOM     86  C   UNL A   1      44.757  33.702  28.936  1.00  0.00     0.064 A 
ATOM     87  C   UNL A   1      45.541  34.018  30.053  1.00  0.00     0.173 A 
ATOM     88  C   UNL A   1      44.516  34.713  27.993  1.00  0.00     0.173 A 
ATOM     89  F   UNL A   1      45.789  33.088  30.989  1.00  0.00    -0.203 F 
ATOM     90  C   UNL A   1      46.057  35.300  30.227  1.00  0.00     0.198 A 
ATOM     91  C   UNL A   1      45.055  35.986  28.155  1.00  0.00     0.198 A 
ATOM     92  F   UNL A   1      43.779  34.459  26.902  1.00  0.00    -0.203 F 
ATOM     93  F   UNL A   1      46.778  35.589  31.318  1.00  0.00    -0.200 F 
ATOM     94  C   UNL A   1      45.821  36.280  29.274  1.00  0.00     0.200 A 
ATOM     95  F   UNL A   1      44.838  36.928  27.227  1.00  0.00    -0.200 F 
ATOM     96  F   UNL A   1      46.329  37.509  29.434  1.00  0.00    -0.200 F 
ENDBRANCH  63  86
ENDBRANCH  37  38
ENDBRANCH  30  32
ENDBRANCH  29  30
ENDBRANCH  28  29
ENDBRANCH  27  28
ENDBRANCH   1  27
TORSDOF 17
ENDMDL
MODEL 3
REMARK VINA RESULT:     -12.4      1.603      2.703
REMARK SMILES Cc1cc(OC(F)(F)F)cc2c1O[C@H](C(F)(F)F)C(C(=O)OCCOCCOC(=O)c1ccc(-c3c4nc(c(-c5c(F)c(F)c(F)c(F)c5F)c5ccc([nH]5)c(-c5c(F)c(F)c(F)c(F)c5F)c5nc(c(-c6c(F)c(F)c(F)c(F)c6F)c6ccc3[nH]6)C=C5)C=C4)cc1)=C2
REMARK SMILES IDX 25 1 24 2 23 3 22 4 20 5 21 6 19 7 1 8 2 9 3 10 12 11 4 12
REMARK SMILES IDX 11 13 13 14 10 15 94 16 14 17 5 18 6 19 7 20 8 21 9 22 15 23
REMARK SMILES IDX 16 24 17 25 18 26 26 27 27 28 28 29 29 30 30 31 31 32 32 33
REMARK SMILES IDX 93 34 33 35 92 36 34 37 35 38 36 39 86 40 37 41 91 42 85 43
REMARK SMILES IDX 87 44 38 45 90 46 84 47 83 48 39 50 71 51 51 52 70 53 52 54
REMARK SMILES IDX 55 55 69 56 88 57 53 58 54 59 68 61 89 62 56 63 40 64 41 65
REMARK SMILES IDX 49 66 42 67 43 68 47 69 50 70 44 71 45 72 48 73 46 74 72 75
REMARK SMILES IDX 73 76 81 77 74 78 75 79 79 80 82 81 76 82 77 83 80 84 78 85
REMARK SMILES IDX 57 86 58 87 66 88 59 89 60 90 64 91 67 92 61 93 62 94 65 95
REMARK SMILES IDX 63 96
REMARK H PARENT 87 49 55 60
REMARK Flexibility Score: inf
ROOT
ATOM      1  O   UNL A   1      36.186  20.737  24.767  1.00  0.00    -0.374 OA
ENDROOT
BRANCH   1   2
ATOM      2  C   UNL A   1      34.959  20.862  25.482  1.00  0.00     0.202 C 
BRANCH   2   3
ATOM      3  C   UNL A   1      33.855  21.667  24.793  1.00  0.00     0.261 C 
BRANCH   3   4
ATOM      4  O   UNL A   1      34.175  23.067  24.740  1.00  0.00    -0.460 OA
BRANCH   4   5
ATOM      5  C   UNL A   1      34.191  23.589  23.491  1.00  0.00     0.338 C 
ATOM      6  O   UNL A   1      34.719  23.107  22.502  1.00  0.00    -0.246 OA
BRANCH   5   7
ATOM      7  C   UNL A   1      33.368  24.811  23.446  1.00  0.00     0.087 C 
ATOM      8  C   UNL A   1      29.552  28.270  23.283  1.00  0.00     0.048 C 
ATOM      9  C   UNL A   1      30.962  28.208  23.806  1.00  0.00    -0.005 A 
ATOM     10  C   UNL A   1      31.438  29.295  24.566  1.00  0.00     0.054 A 
ATOM     11  C   UNL A   1      31.790  27.093  23.605  1.00  0.00     0.131 A 
ATOM     12  C   UNL A   1      32.723  29.281  25.110  1.00  0.00     0.130 A 
ATOM     13  C   UNL A   1      33.065  27.067  24.174  1.00  0.00     0.021 A 
ATOM     14  O   UNL A   1      31.300  26.070  22.843  1.00  0.00    -0.475 OA
ATOM     15  C   UNL A   1      33.532  28.166  24.902  1.00  0.00     0.058 A 
ATOM     16  C   UNL A   1      33.883  25.873  24.077  1.00  0.00     0.027 C 
ATOM     17  C   UNL A   1      32.033  24.815  22.757  1.00  0.00     0.316 C 
BRANCH  12  18
ATOM     18  O   UNL A   1      33.304  30.262  25.860  1.00  0.00    -0.406 OA
BRANCH  18  19
ATOM     19  C   UNL A   1      33.278  30.124  27.269  1.00  0.00     0.573 C 
ATOM     20  F   UNL A   1      33.289  31.332  27.874  1.00  0.00    -0.132 F 
ATOM     21  F   UNL A   1      32.195  29.426  27.672  1.00  0.00    -0.132 F 
ATOM     22  F   UNL A   1      34.382  29.449  27.658  1.00  0.00    -0.132 F 
ENDBRANCH  18  19
ENDBRANCH  12  18
BRANCH  17  23
ATOM     23  C   UNL A   1      31.106  23.690  23.243  1.00  0.00     0.430 C 
ATOM     24  F   UNL A   1      31.137  23.581  24.594  1.00  0.00    -0.167 F 
ATOM     25  F   UNL A   1      29.815  23.921  22.909  1.00  0.00    -0.167 F 
ATOM     26  F   UNL A   1      31.450  22.489  22.730  1.00  0.00    -0.167 F 
ENDBRANCH  17  23
ENDBRANCH   5   7
ENDBRANCH   4   5
ENDBRANCH   3   4
ENDBRANCH   2   3
ENDBRANCH   1   2
BRANCH   1  27
ATOM     27  C   UNL A   1      36.903  19.505  24.893  1.00  0.00     0.202 C 
BRANCH  27  28
ATOM     28  C   UNL A   1      38.426  19.614  25.034  1.00  0.00     0.261 C 
BRANCH  28  29
ATOM     29  O   UNL A   1      38.806  20.830  25.708  1.00  0.00    -0.460 OA
BRANCH  29  30
ATOM     30  C   UNL A   1      39.976  20.767  26.384  1.00  0.00     0.338 C 
ATOM     31  O   UNL A   1      40.763  19.834  26.430  1.00  0.00    -0.246 OA
BRANCH  30  32
ATOM     32  C   UNL A   1      40.289  22.080  26.967  1.00  0.00     0.060 A 
ATOM     33  C   UNL A   1      39.716  23.213  26.377  1.00  0.00     0.016 A 
ATOM     34  C   UNL A   1      41.240  22.203  27.980  1.00  0.00     0.016 A 
ATOM     35  C   UNL A   1      40.134  24.484  26.764  1.00  0.00     0.010 A 
ATOM     36  C   UNL A   1      41.674  23.478  28.353  1.00  0.00     0.010 A 
ATOM     37  C   UNL A   1      41.154  24.618  27.714  1.00  0.00    -0.014 A 
BRANCH  37  38
ATOM     38  C   UNL A   1      41.821  25.930  27.883  1.00  0.00     0.031 A 
ATOM     39  C   UNL A   1      41.086  27.017  28.618  1.00  0.00     0.074 A 
ATOM     40  C   UNL A   1      43.063  26.142  27.421  1.00  0.00     0.049 A 
ATOM     41  N   UNL A   1      41.446  28.252  28.852  1.00  0.00    -0.248 NA
ATOM     42  C   UNL A   1      39.767  26.659  29.168  1.00  0.00     0.031 C 
ATOM     43  C   UNL A   1      43.896  25.148  26.750  1.00  0.00     0.029 A 
ATOM     44  N   UNL A   1      43.839  27.273  27.447  1.00  0.00    -0.354 N 
ATOM     45  C   UNL A   1      40.408  28.814  29.584  1.00  0.00     0.074 A 
ATOM     46  C   UNL A   1      39.389  27.797  29.730  1.00  0.00     0.031 C 
ATOM     47  C   UNL A   1      45.067  25.717  26.416  1.00  0.00     0.029 A 
ATOM     48  C   UNL A   1      45.051  27.122  26.822  1.00  0.00     0.049 A 
ATOM     49  H   UNL A   1      43.553  28.114  27.872  1.00  0.00     0.167 HD
ATOM     50  C   UNL A   1      40.318  30.063  30.096  1.00  0.00     0.037 A 
ATOM     51  C   UNL A   1      46.024  28.024  26.590  1.00  0.00     0.037 A 
ATOM     52  C   UNL A   1      41.322  31.079  29.933  1.00  0.00     0.049 A 
ATOM     53  C   UNL A   1      45.849  29.441  27.069  1.00  0.00     0.074 A 
ATOM     54  C   UNL A   1      41.321  32.378  30.407  1.00  0.00     0.029 A 
ATOM     55  N   UNL A   1      42.506  30.908  29.232  1.00  0.00    -0.354 N 
ATOM     56  N   UNL A   1      44.866  29.966  27.760  1.00  0.00    -0.248 NA
ATOM     57  C   UNL A   1      46.915  30.394  26.727  1.00  0.00     0.031 C 
ATOM     58  C   UNL A   1      42.484  33.008  29.955  1.00  0.00     0.029 A 
ATOM     59  C   UNL A   1      43.231  32.087  29.236  1.00  0.00     0.049 A 
ATOM     60  H   UNL A   1      42.789  30.072  28.796  1.00  0.00     0.167 HD
ATOM     61  C   UNL A   1      45.201  31.300  27.951  1.00  0.00     0.074 A 
ATOM     62  C   UNL A   1      46.486  31.503  27.314  1.00  0.00     0.031 C 
ATOM     63  C   UNL A   1      44.507  32.272  28.593  1.00  0.00     0.037 A 
BRANCH  50  64
ATOM     64  C   UNL A   1      39.079  30.408  30.866  1.00  0.00     0.064 A 
ATOM     65  C   UNL A   1      39.036  30.303  32.264  1.00  0.00     0.173 A 
ATOM     66  C   UNL A   1      37.940  30.888  30.205  1.00  0.00     0.173 A 
ATOM     67  F   UNL A   1      40.095  29.833  32.939  1.00  0.00    -0.203 F 
ATOM     68  C   UNL A   1      37.890  30.655  32.972  1.00  0.00     0.198 A 
ATOM     69  C   UNL A   1      36.803  31.261  30.918  1.00  0.00     0.198 A 
ATOM     70  F   UNL A   1      37.932  31.007  28.869  1.00  0.00    -0.203 F 
ATOM     71  F   UNL A   1      37.859  30.518  34.304  1.00  0.00    -0.200 F 
ATOM     72  C   UNL A   1      36.778  31.141  32.299  1.00  0.00     0.200 A 
ATOM     73  F   UNL A   1      35.733  31.738  30.268  1.00  0.00    -0.200 F 
ATOM     74  F   UNL A   1      35.680  31.490  32.983  1.00  0.00    -0.200 F 
ENDBRANCH  50  64
BRANCH  51  75
ATOM     75  C   UNL A   1      47.248  27.617  25.854  1.00  0.00     0.064 A 
ATOM     76  C   UNL A   1      47.304  27.687  24.455  1.00  0.00     0.173 A 
ATOM     77  C   UNL A   1      48.382  27.145  26.531  1.00  0.00     0.173 A 
ATOM     78  F   UNL A   1      46.234  28.105  23.763  1.00  0.00    -0.203 F 
ATOM     79  C   UNL A   1      48.447  27.295  23.761  1.00  0.00     0.198 A 
ATOM     80  C   UNL A   1      49.532  26.774  25.838  1.00  0.00     0.198 A 
ATOM     81  F   UNL A   1      48.374  27.052  27.869  1.00  0.00    -0.203 F 
ATOM     82  F   UNL A   1      48.463  27.340  22.422  1.00  0.00    -0.200 F 
ATOM     83  C   UNL A   1      49.562  26.846  24.453  1.00  0.00     0.200 A 
ATOM     84  F   UNL A   1      50.609  26.348  26.510  1.00  0.00    -0.200 F 
ATOM     85  F   UNL A   1      50.661  26.474  23.785  1.00  0.00    -0.200 F 
ENDBRANCH  51  75
BRANCH  63  86
ATOM     86  C   UNL A   1      45.118  33.639  28.651  1.00  0.00     0.064 A 
ATOM     87  C   UNL A   1      44.806  34.619  27.698  1.00  0.00     0.173 A 
ATOM     88  C   UNL A   1      45.969  33.996  29.708  1.00  0.00     0.173 A 
ATOM     89  F   UNL A   1      44.008  34.322  26.661  1.00  0.00    -0.203 F 
ATOM     90  C   UNL A   1      45.334  35.904  27.794  1.00  0.00     0.198 A 
ATOM     91  C   UNL A   1      46.473  35.289  29.816  1.00  0.00     0.198 A 
ATOM     92  F   UNL A   1      46.291  33.098  30.650  1.00  0.00    -0.203 F 
ATOM     93  F   UNL A   1      45.048  36.816  26.854  1.00  0.00    -0.200 F 
ATOM     94  C   UNL A   1      46.159  36.240  28.856  1.00  0.00     0.200 A 
ATOM     95  F   UNL A   1      47.259  35.617  30.851  1.00  0.00    -0.200 F 
ATOM     96  F   UNL A   1      46.655  37.481  28.956  1.00  0.00    -0.200 F 
ENDBRANCH  63  86
ENDBRANCH  37  38
ENDBRANCH  30  32
ENDBRANCH  29  30
ENDBRANCH  28  29
ENDBRANCH  27  28
ENDBRANCH   1  27
TORSDOF 17
ENDMDL
