MODEL 1
REMARK VINA RESULT:     -12.7      0.000      0.000
REMARK SMILES Cc1cccc(NS(=O)(=O)c2ccc(Br)c(C(=O)OCCOCCOC(=O)c3ccc(-c4c5nc(c(-c6c(F)c(F)c(F)c(F)c6F)c6ccc([nH]6)c(-c6c(F)c(F)c(F)c(F)c6F)c6nc(c(-c7c(F)c(F)c(F)c(F)c7F)c7ccc4[nH]7)C=C6)C=C5)cc3)c2)c1
REMARK SMILES IDX 21 1 20 2 19 3 17 4 18 5 16 6 11 7 12 8 91 9 13 10 14 11
REMARK SMILES IDX 15 12 8 13 9 14 10 15 7 16 6 18 1 19 2 20 3 21 92 22 4 23
REMARK SMILES IDX 5 24 22 25 23 26 24 27 25 28 26 29 27 30 28 31 29 32 90 33
REMARK SMILES IDX 30 34 89 35 31 36 32 37 33 38 83 39 34 40 88 41 82 42 84 43
REMARK SMILES IDX 35 44 87 45 81 46 80 47 36 49 68 50 48 51 67 52 49 53 52 54
REMARK SMILES IDX 66 55 85 56 50 57 51 58 65 60 86 61 53 62 37 63 38 64 46 65
REMARK SMILES IDX 39 66 40 67 44 68 47 69 41 70 42 71 45 72 43 73 69 74 70 75
REMARK SMILES IDX 78 76 71 77 72 78 76 79 79 80 73 81 74 82 77 83 75 84 54 85
REMARK SMILES IDX 55 86 63 87 56 88 57 89 61 90 64 91 58 92 59 93 62 94 60 95
REMARK H PARENT 7 17 84 48 52 59
REMARK Flexibility Score: inf
ROOT
ATOM      1  C   UNL A   1      33.588  28.587  25.175  1.00  0.00     0.202 C 
ENDROOT
BRANCH   1   2
ATOM      2  C   UNL A   1      33.459  27.799  23.915  1.00  0.00     0.261 C 
BRANCH   2   3
ATOM      3  O   UNL A   1      33.930  26.439  24.044  1.00  0.00    -0.460 OA
BRANCH   3   4
ATOM      4  C   UNL A   1      33.539  25.418  23.248  1.00  0.00     0.339 C 
ATOM      5  O   UNL A   1      33.746  25.278  22.067  1.00  0.00    -0.246 OA
BRANCH   4   6
ATOM      6  C   UNL A   1      32.800  24.448  24.101  1.00  0.00     0.075 A 
ATOM      7  C   UNL A   1      33.005  22.575  25.632  1.00  0.00     0.088 A 
ATOM      8  C   UNL A   1      31.739  22.854  26.136  1.00  0.00     0.023 A 
ATOM      9  C   UNL A   1      33.563  23.389  24.637  1.00  0.00     0.039 A 
ATOM     10  C   UNL A   1      30.940  23.791  25.506  1.00  0.00     0.018 A 
ATOM     11  C   UNL A   1      31.451  24.592  24.491  1.00  0.00     0.032 A 
ATOM     12  Br  UNL A   1      30.138  25.811  23.829  1.00  0.00    -0.050 Br
BRANCH   7  13
ATOM     13  S   UNL A   1      33.890  21.174  26.261  1.00  0.00     0.261 S 
ATOM     14  O   UNL A   1      34.113  21.451  27.664  1.00  0.00    -0.201 OA
ATOM     15  O   UNL A   1      35.002  20.915  25.372  1.00  0.00    -0.201 OA
BRANCH  13  16
ATOM     16  N   UNL A   1      32.905  19.781  26.230  1.00  0.00    -0.280 N 
ATOM     17  H   UNL A   1      32.241  19.665  26.949  1.00  0.00     0.180 HD
BRANCH  16  18
ATOM     18  C   UNL A   1      32.988  18.768  25.215  1.00  0.00     0.049 A 
ATOM     19  C   UNL A   1      32.153  18.453  21.501  1.00  0.00     0.044 C 
ATOM     20  C   UNL A   1      32.700  18.166  22.869  1.00  0.00    -0.049 A 
ATOM     21  C   UNL A   1      33.309  16.934  23.125  1.00  0.00     0.003 A 
ATOM     22  C   UNL A   1      32.581  19.095  23.913  1.00  0.00     0.030 A 
ATOM     23  C   UNL A   1      33.631  16.574  24.433  1.00  0.00     0.002 A 
ATOM     24  C   UNL A   1      33.394  17.462  25.486  1.00  0.00     0.027 A 
ENDBRANCH  16  18
ENDBRANCH  13  16
ENDBRANCH   7  13
ENDBRANCH   4   6
ENDBRANCH   3   4
ENDBRANCH   2   3
ENDBRANCH   1   2
BRANCH   1  25
ATOM     25  O   UNL A   1      32.465  29.440  25.201  1.00  0.00    -0.374 OA
BRANCH  25  26
ATOM     26  C   UNL A   1      32.454  30.393  26.240  1.00  0.00     0.202 C 
BRANCH  26  27
ATOM     27  C   UNL A   1      33.569  30.123  27.255  1.00  0.00     0.261 C 
BRANCH  27  28
ATOM     28  O   UNL A   1      34.457  31.265  27.323  1.00  0.00    -0.460 OA
BRANCH  28  29
ATOM     29  C   UNL A   1      35.199  31.396  28.463  1.00  0.00     0.338 C 
ATOM     30  O   UNL A   1      35.287  32.416  29.128  1.00  0.00    -0.246 OA
BRANCH  29  31
ATOM     31  C   UNL A   1      36.121  30.226  28.617  1.00  0.00     0.060 A 
ATOM     32  C   UNL A   1      36.278  29.600  29.874  1.00  0.00     0.016 A 
ATOM     33  C   UNL A   1      37.077  30.028  27.628  1.00  0.00     0.016 A 
ATOM     34  C   UNL A   1      37.476  28.931  30.193  1.00  0.00     0.010 A 
ATOM     35  C   UNL A   1      38.301  29.519  28.001  1.00  0.00     0.010 A 
ATOM     36  C   UNL A   1      38.528  28.980  29.282  1.00  0.00    -0.014 A 
BRANCH  36  37
ATOM     37  C   UNL A   1      39.915  28.542  29.496  1.00  0.00     0.031 A 
ATOM     38  C   UNL A   1      40.283  27.229  28.928  1.00  0.00     0.074 A 
ATOM     39  C   UNL A   1      40.901  29.375  29.916  1.00  0.00     0.049 A 
ATOM     40  N   UNL A   1      41.404  26.643  29.152  1.00  0.00    -0.248 NA
ATOM     41  C   UNL A   1      39.387  26.430  28.099  1.00  0.00     0.031 C 
ATOM     42  C   UNL A   1      42.326  29.337  29.566  1.00  0.00     0.029 A 
ATOM     43  N   UNL A   1      40.813  30.526  30.700  1.00  0.00    -0.354 N 
ATOM     44  C   UNL A   1      41.499  25.566  28.307  1.00  0.00     0.074 A 
ATOM     45  C   UNL A   1      40.185  25.427  27.735  1.00  0.00     0.031 C 
ATOM     46  C   UNL A   1      42.993  30.264  30.279  1.00  0.00     0.029 A 
ATOM     47  C   UNL A   1      42.070  30.835  31.242  1.00  0.00     0.049 A 
ATOM     48  H   UNL A   1      39.989  31.045  30.852  1.00  0.00     0.167 HD
ATOM     49  C   UNL A   1      42.724  24.995  28.134  1.00  0.00     0.037 A 
ATOM     50  C   UNL A   1      42.209  30.957  32.590  1.00  0.00     0.037 A 
ATOM     51  C   UNL A   1      43.733  25.700  28.947  1.00  0.00     0.049 A 
ATOM     52  C   UNL A   1      42.941  29.747  33.104  1.00  0.00     0.074 A 
ATOM     53  C   UNL A   1      44.693  26.666  28.692  1.00  0.00     0.029 A 
ATOM     54  N   UNL A   1      43.578  25.703  30.324  1.00  0.00    -0.354 N 
ATOM     55  N   UNL A   1      43.522  28.880  32.321  1.00  0.00    -0.248 NA
ATOM     56  C   UNL A   1      42.994  29.352  34.506  1.00  0.00     0.031 C 
ATOM     57  C   UNL A   1      45.105  27.231  29.946  1.00  0.00     0.029 A 
ATOM     58  C   UNL A   1      44.425  26.586  30.966  1.00  0.00     0.049 A 
ATOM     59  H   UNL A   1      42.929  25.133  30.797  1.00  0.00     0.167 HD
ATOM     60  C   UNL A   1      43.877  27.781  33.026  1.00  0.00     0.074 A 
ATOM     61  C   UNL A   1      43.549  28.132  34.403  1.00  0.00     0.031 C 
ATOM     62  C   UNL A   1      44.371  26.657  32.426  1.00  0.00     0.037 A 
BRANCH  49  63
ATOM     63  C   UNL A   1      43.060  23.922  27.115  1.00  0.00     0.064 A 
ATOM     64  C   UNL A   1      42.690  22.583  27.358  1.00  0.00     0.173 A 
ATOM     65  C   UNL A   1      43.732  24.120  25.890  1.00  0.00     0.173 A 
ATOM     66  F   UNL A   1      41.971  22.243  28.436  1.00  0.00    -0.203 F 
ATOM     67  C   UNL A   1      43.027  21.536  26.492  1.00  0.00     0.198 A 
ATOM     68  C   UNL A   1      44.113  23.070  25.047  1.00  0.00     0.198 A 
ATOM     69  F   UNL A   1      43.986  25.335  25.400  1.00  0.00    -0.203 F 
ATOM     70  F   UNL A   1      42.631  20.287  26.775  1.00  0.00    -0.200 F 
ATOM     71  C   UNL A   1      43.761  21.775  25.348  1.00  0.00     0.200 A 
ATOM     72  F   UNL A   1      44.802  23.334  23.927  1.00  0.00    -0.200 F 
ATOM     73  F   UNL A   1      44.094  20.773  24.526  1.00  0.00    -0.200 F 
ENDBRANCH  49  63
BRANCH  50  74
ATOM     74  C   UNL A   1      41.020  31.637  33.201  1.00  0.00     0.064 A 
ATOM     75  C   UNL A   1      40.894  33.032  33.023  1.00  0.00     0.173 A 
ATOM     76  C   UNL A   1      39.841  30.917  33.457  1.00  0.00     0.173 A 
ATOM     77  F   UNL A   1      41.979  33.774  32.751  1.00  0.00    -0.203 F 
ATOM     78  C   UNL A   1      39.641  33.651  32.977  1.00  0.00     0.198 A 
ATOM     79  C   UNL A   1      38.589  31.534  33.363  1.00  0.00     0.198 A 
ATOM     80  F   UNL A   1      39.888  29.589  33.628  1.00  0.00    -0.203 F 
ATOM     81  F   UNL A   1      39.543  34.954  32.671  1.00  0.00    -0.200 F 
ATOM     82  C   UNL A   1      38.490  32.891  33.096  1.00  0.00     0.200 A 
ATOM     83  F   UNL A   1      37.475  30.789  33.411  1.00  0.00    -0.200 F 
ATOM     84  F   UNL A   1      37.293  33.443  32.845  1.00  0.00    -0.200 F 
ENDBRANCH  50  74
BRANCH  62  85
ATOM     85  C   UNL A   1      44.794  25.486  33.254  1.00  0.00     0.064 A 
ATOM     86  C   UNL A   1      46.132  25.065  33.273  1.00  0.00     0.173 A 
ATOM     87  C   UNL A   1      43.889  24.721  34.017  1.00  0.00     0.173 A 
ATOM     88  F   UNL A   1      47.045  25.636  32.472  1.00  0.00    -0.203 F 
ATOM     89  C   UNL A   1      46.563  24.057  34.127  1.00  0.00     0.198 A 
ATOM     90  C   UNL A   1      44.311  23.660  34.806  1.00  0.00     0.198 A 
ATOM     91  F   UNL A   1      42.580  24.995  34.064  1.00  0.00    -0.203 F 
ATOM     92  F   UNL A   1      47.872  23.781  34.215  1.00  0.00    -0.200 F 
ATOM     93  C   UNL A   1      45.653  23.357  34.896  1.00  0.00     0.200 A 
ATOM     94  F   UNL A   1      43.407  22.954  35.500  1.00  0.00    -0.200 F 
ATOM     95  F   UNL A   1      46.068  22.394  35.728  1.00  0.00    -0.200 F 
ENDBRANCH  62  85
ENDBRANCH  36  37
ENDBRANCH  29  31
ENDBRANCH  28  29
ENDBRANCH  27  28
ENDBRANCH  26  27
ENDBRANCH  25  26
ENDBRANCH   1  25
TORSDOF 17
ENDMDL
MODEL 2
REMARK VINA RESULT:     -12.7      1.682      2.338
REMARK SMILES Cc1cccc(NS(=O)(=O)c2ccc(Br)c(C(=O)OCCOCCOC(=O)c3ccc(-c4c5nc(c(-c6c(F)c(F)c(F)c(F)c6F)c6ccc([nH]6)c(-c6c(F)c(F)c(F)c(F)c6F)c6nc(c(-c7c(F)c(F)c(F)c(F)c7F)c7ccc4[nH]7)C=C6)C=C5)cc3)c2)c1
REMARK SMILES IDX 21 1 20 2 19 3 17 4 18 5 16 6 11 7 12 8 91 9 13 10 14 11
REMARK SMILES IDX 15 12 8 13 9 14 10 15 7 16 6 18 1 19 2 20 3 21 92 22 4 23
REMARK SMILES IDX 5 24 22 25 23 26 24 27 25 28 26 29 27 30 28 31 29 32 90 33
REMARK SMILES IDX 30 34 89 35 31 36 32 37 33 38 83 39 34 40 88 41 82 42 84 43
REMARK SMILES IDX 35 44 87 45 81 46 80 47 36 49 68 50 48 51 67 52 49 53 52 54
REMARK SMILES IDX 66 55 85 56 50 57 51 58 65 60 86 61 53 62 37 63 38 64 46 65
REMARK SMILES IDX 39 66 40 67 44 68 47 69 41 70 42 71 45 72 43 73 69 74 70 75
REMARK SMILES IDX 78 76 71 77 72 78 76 79 79 80 73 81 74 82 77 83 75 84 54 85
REMARK SMILES IDX 55 86 63 87 56 88 57 89 61 90 64 91 58 92 59 93 62 94 60 95
REMARK H PARENT 7 17 84 48 52 59
REMARK Flexibility Score: inf
ROOT
ATOM      1  C   UNL A   1      33.172  29.328  24.621  1.00  0.00     0.202 C 
ENDROOT
BRANCH   1   2
ATOM      2  C   UNL A   1      33.910  28.139  24.109  1.00  0.00     0.261 C 
BRANCH   2   3
ATOM      3  O   UNL A   1      33.435  27.684  22.822  1.00  0.00    -0.460 OA
BRANCH   3   4
ATOM      4  C   UNL A   1      33.160  26.394  22.522  1.00  0.00     0.339 C 
ATOM      5  O   UNL A   1      33.630  25.725  21.634  1.00  0.00    -0.246 OA
BRANCH   4   6
ATOM      6  C   UNL A   1      32.161  25.912  23.513  1.00  0.00     0.075 A 
ATOM      7  C   UNL A   1      31.787  24.476  25.434  1.00  0.00     0.088 A 
ATOM      8  C   UNL A   1      30.662  25.223  25.767  1.00  0.00     0.023 A 
ATOM      9  C   UNL A   1      32.566  24.833  24.326  1.00  0.00     0.039 A 
ATOM     10  C   UNL A   1      30.184  26.177  24.887  1.00  0.00     0.018 A 
ATOM     11  C   UNL A   1      30.916  26.532  23.760  1.00  0.00     0.032 A 
ATOM     12  Br  UNL A   1      30.034  27.889  22.747  1.00  0.00    -0.050 Br
BRANCH   7  13
ATOM     13  S   UNL A   1      32.206  23.066  26.423  1.00  0.00     0.261 S 
ATOM     14  O   UNL A   1      32.180  21.934  25.519  1.00  0.00    -0.201 OA
ATOM     15  O   UNL A   1      31.372  23.088  27.605  1.00  0.00    -0.201 OA
BRANCH  13  16
ATOM     16  N   UNL A   1      33.822  23.172  26.962  1.00  0.00    -0.280 N 
ATOM     17  H   UNL A   1      33.983  23.440  27.896  1.00  0.00     0.180 HD
BRANCH  16  18
ATOM     18  C   UNL A   1      34.960  22.892  26.131  1.00  0.00     0.049 A 
ATOM     19  C   UNL A   1      36.905  19.806  24.997  1.00  0.00     0.044 C 
ATOM     20  C   UNL A   1      36.403  21.217  25.101  1.00  0.00    -0.049 A 
ATOM     21  C   UNL A   1      37.028  22.228  24.365  1.00  0.00     0.003 A 
ATOM     22  C   UNL A   1      35.340  21.553  25.953  1.00  0.00     0.030 A 
ATOM     23  C   UNL A   1      36.712  23.563  24.609  1.00  0.00     0.002 A 
ATOM     24  C   UNL A   1      35.734  23.896  25.552  1.00  0.00     0.027 A 
ENDBRANCH  16  18
ENDBRANCH  13  16
ENDBRANCH   7  13
ENDBRANCH   4   6
ENDBRANCH   3   4
ENDBRANCH   2   3
ENDBRANCH   1   2
BRANCH   1  25
ATOM     25  O   UNL A   1      33.560  29.459  25.971  1.00  0.00    -0.374 OA
BRANCH  25  26
ATOM     26  C   UNL A   1      32.654  30.156  26.796  1.00  0.00     0.202 C 
BRANCH  26  27
ATOM     27  C   UNL A   1      33.367  31.228  27.625  1.00  0.00     0.261 C 
BRANCH  27  28
ATOM     28  O   UNL A   1      34.792  31.178  27.370  1.00  0.00    -0.460 OA
BRANCH  28  29
ATOM     29  C   UNL A   1      35.612  31.284  28.458  1.00  0.00     0.338 C 
ATOM     30  O   UNL A   1      35.802  32.309  29.095  1.00  0.00    -0.246 OA
BRANCH  29  31
ATOM     31  C   UNL A   1      36.472  30.064  28.577  1.00  0.00     0.060 A 
ATOM     32  C   UNL A   1      36.627  29.417  29.823  1.00  0.00     0.016 A 
ATOM     33  C   UNL A   1      37.391  29.826  27.563  1.00  0.00     0.016 A 
ATOM     34  C   UNL A   1      37.793  28.680  30.106  1.00  0.00     0.010 A 
ATOM     35  C   UNL A   1      38.595  29.247  27.899  1.00  0.00     0.010 A 
ATOM     36  C   UNL A   1      38.824  28.682  29.169  1.00  0.00    -0.014 A 
BRANCH  36  37
ATOM     37  C   UNL A   1      40.190  28.168  29.343  1.00  0.00     0.031 A 
ATOM     38  C   UNL A   1      40.428  26.778  28.903  1.00  0.00     0.074 A 
ATOM     39  C   UNL A   1      41.256  28.965  29.606  1.00  0.00     0.049 A 
ATOM     40  N   UNL A   1      41.520  26.137  29.120  1.00  0.00    -0.248 NA
ATOM     41  C   UNL A   1      39.424  25.965  28.224  1.00  0.00     0.031 C 
ATOM     42  C   UNL A   1      42.648  28.784  29.175  1.00  0.00     0.029 A 
ATOM     43  N   UNL A   1      41.301  30.196  30.262  1.00  0.00    -0.354 N 
ATOM     44  C   UNL A   1      41.482  24.972  28.395  1.00  0.00     0.074 A 
ATOM     45  C   UNL A   1      40.126  24.871  27.925  1.00  0.00     0.031 C 
ATOM     46  C   UNL A   1      43.424  29.728  29.737  1.00  0.00     0.029 A 
ATOM     47  C   UNL A   1      42.611  30.466  30.686  1.00  0.00     0.049 A 
ATOM     48  H   UNL A   1      40.527  30.788  30.406  1.00  0.00     0.167 HD
ATOM     49  C   UNL A   1      42.652  24.297  28.211  1.00  0.00     0.037 A 
ATOM     50  C   UNL A   1      42.852  30.720  32.001  1.00  0.00     0.037 A 
ATOM     51  C   UNL A   1      43.760  25.006  28.876  1.00  0.00     0.049 A 
ATOM     52  C   UNL A   1      43.535  29.520  32.600  1.00  0.00     0.074 A 
ATOM     53  C   UNL A   1      44.763  25.866  28.456  1.00  0.00     0.029 A 
ATOM     54  N   UNL A   1      43.702  25.167  30.251  1.00  0.00    -0.354 N 
ATOM     55  N   UNL A   1      44.000  28.534  31.883  1.00  0.00    -0.248 NA
ATOM     56  C   UNL A   1      43.660  29.273  34.031  1.00  0.00     0.031 C 
ATOM     57  C   UNL A   1      45.298  26.528  29.612  1.00  0.00     0.029 A 
ATOM     58  C   UNL A   1      44.649  26.048  30.738  1.00  0.00     0.049 A 
ATOM     59  H   UNL A   1      43.051  24.701  30.824  1.00  0.00     0.167 HD
ATOM     60  C   UNL A   1      44.329  27.493  32.682  1.00  0.00     0.074 A 
ATOM     61  C   UNL A   1      44.122  28.011  34.030  1.00  0.00     0.031 C 
ATOM     62  C   UNL A   1      44.703  26.277  32.181  1.00  0.00     0.037 A 
BRANCH  49  63
ATOM     63  C   UNL A   1      42.842  23.099  27.299  1.00  0.00     0.064 A 
ATOM     64  C   UNL A   1      42.176  21.888  27.579  1.00  0.00     0.173 A 
ATOM     65  C   UNL A   1      43.650  23.056  26.141  1.00  0.00     0.173 A 
ATOM     66  F   UNL A   1      41.307  21.791  28.594  1.00  0.00    -0.203 F 
ATOM     67  C   UNL A   1      42.360  20.729  26.818  1.00  0.00     0.198 A 
ATOM     68  C   UNL A   1      43.872  21.886  25.407  1.00  0.00     0.198 A 
ATOM     69  F   UNL A   1      44.199  24.150  25.610  1.00  0.00    -0.203 F 
ATOM     70  F   UNL A   1      41.683  19.616  27.131  1.00  0.00    -0.200 F 
ATOM     71  C   UNL A   1      43.228  20.720  25.746  1.00  0.00     0.200 A 
ATOM     72  F   UNL A   1      44.701  21.913  24.352  1.00  0.00    -0.200 F 
ATOM     73  F   UNL A   1      43.413  19.608  25.023  1.00  0.00    -0.200 F 
ENDBRANCH  49  63
BRANCH  50  74
ATOM     74  C   UNL A   1      41.757  31.547  32.606  1.00  0.00     0.064 A 
ATOM     75  C   UNL A   1      41.743  32.931  32.324  1.00  0.00     0.173 A 
ATOM     76  C   UNL A   1      40.534  30.958  32.967  1.00  0.00     0.173 A 
ATOM     77  F   UNL A   1      42.874  33.551  31.950  1.00  0.00    -0.203 F 
ATOM     78  C   UNL A   1      40.548  33.655  32.282  1.00  0.00     0.198 A 
ATOM     79  C   UNL A   1      39.337  31.675  32.877  1.00  0.00     0.198 A 
ATOM     80  F   UNL A   1      40.474  29.647  33.240  1.00  0.00    -0.203 F 
ATOM     81  F   UNL A   1      40.548  34.935  31.879  1.00  0.00    -0.200 F 
ATOM     82  C   UNL A   1      39.342  33.012  32.508  1.00  0.00     0.200 A 
ATOM     83  F   UNL A   1      38.166  31.039  33.029  1.00  0.00    -0.200 F 
ATOM     84  F   UNL A   1      38.187  33.649  32.265  1.00  0.00    -0.200 F 
ENDBRANCH  50  74
BRANCH  62  85
ATOM     85  C   UNL A   1      45.103  25.173  33.106  1.00  0.00     0.064 A 
ATOM     86  C   UNL A   1      44.142  24.479  33.857  1.00  0.00     0.173 A 
ATOM     87  C   UNL A   1      46.446  24.796  33.311  1.00  0.00     0.173 A 
ATOM     88  F   UNL A   1      42.854  24.856  33.842  1.00  0.00    -0.203 F 
ATOM     89  C   UNL A   1      44.483  23.375  34.628  1.00  0.00     0.198 A 
ATOM     90  C   UNL A   1      46.791  23.744  34.149  1.00  0.00     0.198 A 
ATOM     91  F   UNL A   1      47.463  25.396  32.683  1.00  0.00    -0.203 F 
ATOM     92  F   UNL A   1      43.517  22.657  35.217  1.00  0.00    -0.200 F 
ATOM     93  C   UNL A   1      45.807  23.006  34.771  1.00  0.00     0.200 A 
ATOM     94  F   UNL A   1      48.084  23.437  34.322  1.00  0.00    -0.200 F 
ATOM     95  F   UNL A   1      46.136  21.934  35.504  1.00  0.00    -0.200 F 
ENDBRANCH  62  85
ENDBRANCH  36  37
ENDBRANCH  29  31
ENDBRANCH  28  29
ENDBRANCH  27  28
ENDBRANCH  26  27
ENDBRANCH  25  26
ENDBRANCH   1  25
TORSDOF 17
ENDMDL
MODEL 3
REMARK VINA RESULT:     -12.3      4.432      6.566
REMARK SMILES Cc1cccc(NS(=O)(=O)c2ccc(Br)c(C(=O)OCCOCCOC(=O)c3ccc(-c4c5nc(c(-c6c(F)c(F)c(F)c(F)c6F)c6ccc([nH]6)c(-c6c(F)c(F)c(F)c(F)c6F)c6nc(c(-c7c(F)c(F)c(F)c(F)c7F)c7ccc4[nH]7)C=C6)C=C5)cc3)c2)c1
REMARK SMILES IDX 21 1 20 2 19 3 17 4 18 5 16 6 11 7 12 8 91 9 13 10 14 11
REMARK SMILES IDX 15 12 8 13 9 14 10 15 7 16 6 18 1 19 2 20 3 21 92 22 4 23
REMARK SMILES IDX 5 24 22 25 23 26 24 27 25 28 26 29 27 30 28 31 29 32 90 33
REMARK SMILES IDX 30 34 89 35 31 36 32 37 33 38 83 39 34 40 88 41 82 42 84 43
REMARK SMILES IDX 35 44 87 45 81 46 80 47 36 49 68 50 48 51 67 52 49 53 52 54
REMARK SMILES IDX 66 55 85 56 50 57 51 58 65 60 86 61 53 62 37 63 38 64 46 65
REMARK SMILES IDX 39 66 40 67 44 68 47 69 41 70 42 71 45 72 43 73 69 74 70 75
REMARK SMILES IDX 78 76 71 77 72 78 76 79 79 80 73 81 74 82 77 83 75 84 54 85
REMARK SMILES IDX 55 86 63 87 56 88 57 89 61 90 64 91 58 92 59 93 62 94 60 95
REMARK H PARENT 7 17 84 48 52 59
REMARK Flexibility Score: inf
ROOT
ATOM      1  C   UNL A   1      33.301  36.685  29.777  1.00  0.00     0.202 C 
ENDROOT
BRANCH   1   2
ATOM      2  C   UNL A   1      32.701  35.401  29.316  1.00  0.00     0.261 C 
BRANCH   2   3
ATOM      3  O   UNL A   1      33.673  34.343  29.155  1.00  0.00    -0.460 OA
BRANCH   3   4
ATOM      4  C   UNL A   1      34.389  34.130  28.028  1.00  0.00     0.339 C 
ATOM      5  O   UNL A   1      34.696  34.936  27.183  1.00  0.00    -0.246 OA
BRANCH   4   6
ATOM      6  C   UNL A   1      34.770  32.692  28.009  1.00  0.00     0.075 A 
ATOM      7  C   UNL A   1      34.128  30.466  27.284  1.00  0.00     0.088 A 
ATOM      8  C   UNL A   1      35.452  30.054  27.392  1.00  0.00     0.023 A 
ATOM      9  C   UNL A   1      33.779  31.795  27.556  1.00  0.00     0.039 A 
ATOM     10  C   UNL A   1      36.386  30.889  27.980  1.00  0.00     0.018 A 
ATOM     11  C   UNL A   1      36.064  32.203  28.294  1.00  0.00     0.032 A 
ATOM     12  Br  UNL A   1      37.548  33.127  29.062  1.00  0.00    -0.050 Br
BRANCH   7  13
ATOM     13  S   UNL A   1      32.896  29.283  26.810  1.00  0.00     0.261 S 
ATOM     14  O   UNL A   1      31.651  29.772  27.365  1.00  0.00    -0.201 OA
ATOM     15  O   UNL A   1      33.391  27.966  27.148  1.00  0.00    -0.201 OA
BRANCH  13  16
ATOM     16  N   UNL A   1      32.669  29.301  25.118  1.00  0.00    -0.280 N 
ATOM     17  H   UNL A   1      33.442  29.520  24.548  1.00  0.00     0.180 HD
BRANCH  16  18
ATOM     18  C   UNL A   1      31.416  29.012  24.479  1.00  0.00     0.049 A 
ATOM     19  C   UNL A   1      28.342  30.969  23.333  1.00  0.00     0.044 C 
ATOM     20  C   UNL A   1      29.340  29.863  23.524  1.00  0.00    -0.049 A 
ATOM     21  C   UNL A   1      29.048  28.581  23.049  1.00  0.00     0.003 A 
ATOM     22  C   UNL A   1      30.548  30.079  24.204  1.00  0.00     0.030 A 
ATOM     23  C   UNL A   1      29.864  27.507  23.400  1.00  0.00     0.002 A 
ATOM     24  C   UNL A   1      31.003  27.713  24.184  1.00  0.00     0.027 A 
ENDBRANCH  16  18
ENDBRANCH  13  16
ENDBRANCH   7  13
ENDBRANCH   4   6
ENDBRANCH   3   4
ENDBRANCH   2   3
ENDBRANCH   1   2
BRANCH   1  25
ATOM     25  O   UNL A   1      32.562  37.058  30.918  1.00  0.00    -0.374 OA
BRANCH  25  26
ATOM     26  C   UNL A   1      33.322  37.569  31.990  1.00  0.00     0.202 C 
BRANCH  26  27
ATOM     27  C   UNL A   1      33.677  36.469  32.995  1.00  0.00     0.261 C 
BRANCH  27  28
ATOM     28  O   UNL A   1      34.550  35.498  32.371  1.00  0.00    -0.460 OA
BRANCH  28  29
ATOM     29  C   UNL A   1      34.614  34.265  32.958  1.00  0.00     0.338 C 
ATOM     30  O   UNL A   1      33.648  33.617  33.331  1.00  0.00    -0.246 OA
BRANCH  29  31
ATOM     31  C   UNL A   1      36.023  33.955  33.357  1.00  0.00     0.060 A 
ATOM     32  C   UNL A   1      37.101  34.666  32.786  1.00  0.00     0.016 A 
ATOM     33  C   UNL A   1      36.260  32.734  33.978  1.00  0.00     0.016 A 
ATOM     34  C   UNL A   1      38.374  34.071  32.680  1.00  0.00     0.010 A 
ATOM     35  C   UNL A   1      37.455  32.098  33.726  1.00  0.00     0.010 A 
ATOM     36  C   UNL A   1      38.519  32.741  33.065  1.00  0.00    -0.014 A 
BRANCH  36  37
ATOM     37  C   UNL A   1      39.683  31.870  32.845  1.00  0.00     0.031 A 
ATOM     38  C   UNL A   1      39.479  30.716  31.946  1.00  0.00     0.074 A 
ATOM     39  C   UNL A   1      40.949  32.223  33.182  1.00  0.00     0.049 A 
ATOM     40  N   UNL A   1      40.346  29.786  31.769  1.00  0.00    -0.248 NA
ATOM     41  C   UNL A   1      38.243  30.480  31.206  1.00  0.00     0.031 C 
ATOM     42  C   UNL A   1      42.199  31.862  32.503  1.00  0.00     0.029 A 
ATOM     43  N   UNL A   1      41.390  33.086  34.187  1.00  0.00    -0.354 N 
ATOM     44  C   UNL A   1      39.928  29.005  30.720  1.00  0.00     0.074 A 
ATOM     45  C   UNL A   1      38.576  29.426  30.462  1.00  0.00     0.031 C 
ATOM     46  C   UNL A   1      43.249  32.315  33.212  1.00  0.00     0.029 A 
ATOM     47  C   UNL A   1      42.745  32.846  34.465  1.00  0.00     0.049 A 
ATOM     48  H   UNL A   1      40.833  33.763  34.635  1.00  0.00     0.167 HD
ATOM     49  C   UNL A   1      40.836  28.168  30.145  1.00  0.00     0.037 A 
ATOM     50  C   UNL A   1      43.127  32.545  35.736  1.00  0.00     0.037 A 
ATOM     51  C   UNL A   1      42.140  28.288  30.823  1.00  0.00     0.049 A 
ATOM     52  C   UNL A   1      43.463  31.080  35.797  1.00  0.00     0.074 A 
ATOM     53  C   UNL A   1      43.324  28.958  30.553  1.00  0.00     0.029 A 
ATOM     54  N   UNL A   1      42.213  27.958  32.166  1.00  0.00    -0.354 N 
ATOM     55  N   UNL A   1      43.577  30.330  34.735  1.00  0.00    -0.248 NA
ATOM     56  C   UNL A   1      43.595  30.317  37.032  1.00  0.00     0.031 C 
ATOM     57  C   UNL A   1      44.096  29.006  31.762  1.00  0.00     0.029 A 
ATOM     58  C   UNL A   1      43.403  28.338  32.757  1.00  0.00     0.049 A 
ATOM     59  H   UNL A   1      41.489  27.499  32.651  1.00  0.00     0.167 HD
ATOM     60  C   UNL A   1      43.634  29.026  35.090  1.00  0.00     0.074 A 
ATOM     61  C   UNL A   1      43.667  29.065  36.548  1.00  0.00     0.031 C 
ATOM     62  C   UNL A   1      43.606  28.016  34.170  1.00  0.00     0.037 A 
BRANCH  49  63
ATOM     63  C   UNL A   1      40.614  27.367  28.876  1.00  0.00     0.064 A 
ATOM     64  C   UNL A   1      39.679  26.311  28.864  1.00  0.00     0.173 A 
ATOM     65  C   UNL A   1      41.269  27.569  27.641  1.00  0.00     0.173 A 
ATOM     66  F   UNL A   1      38.915  26.047  29.932  1.00  0.00    -0.203 F 
ATOM     67  C   UNL A   1      39.475  25.493  27.747  1.00  0.00     0.198 A 
ATOM     68  C   UNL A   1      41.102  26.722  26.539  1.00  0.00     0.198 A 
ATOM     69  F   UNL A   1      42.037  28.633  27.402  1.00  0.00    -0.203 F 
ATOM     70  F   UNL A   1      38.559  24.516  27.800  1.00  0.00    -0.200 F 
ATOM     71  C   UNL A   1      40.205  25.681  26.592  1.00  0.00     0.200 A 
ATOM     72  F   UNL A   1      41.805  26.945  25.418  1.00  0.00    -0.200 F 
ATOM     73  F   UNL A   1      40.019  24.891  25.528  1.00  0.00    -0.200 F 
ENDBRANCH  49  63
BRANCH  50  74
ATOM     74  C   UNL A   1      42.358  33.352  36.740  1.00  0.00     0.064 A 
ATOM     75  C   UNL A   1      42.753  34.691  36.953  1.00  0.00     0.173 A 
ATOM     76  C   UNL A   1      41.029  33.021  37.055  1.00  0.00     0.173 A 
ATOM     77  F   UNL A   1      44.003  35.077  36.651  1.00  0.00    -0.203 F 
ATOM     78  C   UNL A   1      41.833  35.671  37.336  1.00  0.00     0.198 A 
ATOM     79  C   UNL A   1      40.103  34.014  37.391  1.00  0.00     0.198 A 
ATOM     80  F   UNL A   1      40.586  31.770  36.869  1.00  0.00    -0.203 F 
ATOM     81  F   UNL A   1      42.205  36.958  37.398  1.00  0.00    -0.200 F 
ATOM     82  C   UNL A   1      40.499  35.338  37.505  1.00  0.00     0.200 A 
ATOM     83  F   UNL A   1      38.802  33.705  37.489  1.00  0.00    -0.200 F 
ATOM     84  F   UNL A   1      39.583  36.304  37.666  1.00  0.00    -0.200 F 
ENDBRANCH  50  74
BRANCH  62  85
ATOM     85  C   UNL A   1      43.721  26.592  34.610  1.00  0.00     0.064 A 
ATOM     86  C   UNL A   1      42.586  25.869  35.009  1.00  0.00     0.173 A 
ATOM     87  C   UNL A   1      44.953  25.914  34.694  1.00  0.00     0.173 A 
ATOM     88  F   UNL A   1      41.388  26.466  35.102  1.00  0.00    -0.203 F 
ATOM     89  C   UNL A   1      42.658  24.514  35.306  1.00  0.00     0.198 A 
ATOM     90  C   UNL A   1      45.031  24.581  35.073  1.00  0.00     0.198 A 
ATOM     91  F   UNL A   1      46.115  26.496  34.373  1.00  0.00    -0.203 F 
ATOM     92  F   UNL A   1      41.530  23.830  35.546  1.00  0.00    -0.200 F 
ATOM     93  C   UNL A   1      43.880  23.869  35.335  1.00  0.00     0.200 A 
ATOM     94  F   UNL A   1      46.230  23.987  35.152  1.00  0.00    -0.200 F 
ATOM     95  F   UNL A   1      43.949  22.560  35.609  1.00  0.00    -0.200 F 
ENDBRANCH  62  85
ENDBRANCH  36  37
ENDBRANCH  29  31
ENDBRANCH  28  29
ENDBRANCH  27  28
ENDBRANCH  26  27
ENDBRANCH  25  26
ENDBRANCH   1  25
TORSDOF 17
ENDMDL
