MODEL 1
REMARK VINA RESULT:     -10.6      0.000      0.000
REMARK SMILES CCCc1nc(C[N@H+]2CCCC[C@@H]2C(=O)OCCOCCOC(=O)c2ccc(-c3c4nc(c(-c5c(F)c(F)c(F)c(F)c5F)c5ccc([nH]5)c(-c5c(F)c(F)c(F)c(F)c5F)c5nc(c(-c6c(F)c(F)c(F)c(F)c6F)c6ccc3[nH]6)C=C5)C=C4)cc2)cs1
REMARK SMILES IDX 18 1 17 2 16 3 14 4 15 5 13 6 8 7 9 8 10 10 12 11 11 12 7 13
REMARK SMILES IDX 6 14 4 15 5 16 89 17 88 18 3 19 2 20 1 21 19 22 20 23 21 24
REMARK SMILES IDX 22 25 23 26 24 27 25 28 26 29 87 30 27 31 86 32 28 33 29 34
REMARK SMILES IDX 30 35 80 36 31 37 85 38 79 39 81 40 32 41 84 42 78 43 77 44
REMARK SMILES IDX 33 46 65 47 45 48 64 49 46 50 49 51 63 52 82 53 47 54 48 55
REMARK SMILES IDX 62 57 83 58 50 59 34 60 35 61 43 62 36 63 37 64 41 65 44 66
REMARK SMILES IDX 38 67 39 68 42 69 40 70 66 71 67 72 75 73 68 74 69 75 73 76
REMARK SMILES IDX 76 77 70 78 71 79 74 80 72 81 51 82 52 83 60 84 53 85 54 86
REMARK SMILES IDX 58 87 61 88 55 89 56 90 59 91 57 92
REMARK H PARENT 8 9 81 45 49 56
REMARK Flexibility Score: inf
ROOT
ATOM      1  C   UNL A   1      30.648  26.448  26.224  1.00  0.00     0.202 C 
ENDROOT
BRANCH   1   2
ATOM      2  C   UNL A   1      31.533  25.204  26.054  1.00  0.00     0.261 C 
BRANCH   2   3
ATOM      3  O   UNL A   1      31.387  24.226  27.093  1.00  0.00    -0.459 OA
BRANCH   3   4
ATOM      4  C   UNL A   1      32.413  23.329  27.139  1.00  0.00     0.364 C 
ATOM      5  O   UNL A   1      32.476  22.434  27.978  1.00  0.00    -0.245 OA
BRANCH   4   6
ATOM      6  C   UNL A   1      33.431  23.476  25.979  1.00  0.00     0.295 C 
ATOM      7  N   UNL A   1      33.561  22.221  25.186  1.00  0.00    -0.318 N 
ATOM      8  C   UNL A   1      34.496  22.365  24.056  1.00  0.00     0.263 C 
ATOM      9  H   UNL A   1      33.945  21.561  25.861  1.00  0.00     0.349 HD
ATOM     10  C   UNL A   1      35.868  22.884  24.484  1.00  0.00     0.062 C 
ATOM     11  C   UNL A   1      34.808  23.988  26.444  1.00  0.00     0.078 C 
ATOM     12  C   UNL A   1      35.741  24.188  25.255  1.00  0.00     0.013 C 
BRANCH   7  13
ATOM     13  C   UNL A   1      32.280  21.627  24.716  1.00  0.00     0.321 C 
BRANCH  13  14
ATOM     14  C   UNL A   1      32.355  20.169  24.326  1.00  0.00     0.106 A 
ATOM     15  C   UNL A   1      32.568  18.005  24.816  1.00  0.00     0.093 A 
ATOM     16  N   UNL A   1      32.540  19.220  25.329  1.00  0.00    -0.240 NA
ATOM     17  S   UNL A   1      32.541  17.947  23.102  1.00  0.00    -0.127 S 
ATOM     18  C   UNL A   1      32.214  19.615  23.066  1.00  0.00     0.096 A 
BRANCH  15  19
ATOM     19  C   UNL A   1      32.679  16.755  25.636  1.00  0.00     0.067 C 
BRANCH  19  20
ATOM     20  C   UNL A   1      33.577  15.666  25.036  1.00  0.00     0.004 C 
ATOM     21  C   UNL A   1      35.070  15.883  25.264  1.00  0.00     0.004 C 
ENDBRANCH  19  20
ENDBRANCH  15  19
ENDBRANCH  13  14
ENDBRANCH   7  13
ENDBRANCH   4   6
ENDBRANCH   3   4
ENDBRANCH   2   3
ENDBRANCH   1   2
BRANCH   1  22
ATOM     22  O   UNL A   1      31.051  27.656  25.593  1.00  0.00    -0.374 OA
BRANCH  22  23
ATOM     23  C   UNL A   1      32.377  28.139  25.813  1.00  0.00     0.202 C 
BRANCH  23  24
ATOM     24  C   UNL A   1      32.741  28.633  27.217  1.00  0.00     0.261 C 
BRANCH  24  25
ATOM     25  O   UNL A   1      34.169  28.704  27.402  1.00  0.00    -0.460 OA
BRANCH  25  26
ATOM     26  C   UNL A   1      34.643  29.931  27.713  1.00  0.00     0.338 C 
ATOM     27  O   UNL A   1      34.019  30.986  27.741  1.00  0.00    -0.246 OA
BRANCH  26  28
ATOM     28  C   UNL A   1      36.017  29.825  28.222  1.00  0.00     0.060 A 
ATOM     29  C   UNL A   1      37.070  30.041  27.324  1.00  0.00     0.016 A 
ATOM     30  C   UNL A   1      36.270  29.416  29.532  1.00  0.00     0.016 A 
ATOM     31  C   UNL A   1      38.385  29.815  27.723  1.00  0.00     0.010 A 
ATOM     32  C   UNL A   1      37.589  29.172  29.926  1.00  0.00     0.010 A 
ATOM     33  C   UNL A   1      38.648  29.341  29.014  1.00  0.00    -0.014 A 
BRANCH  33  34
ATOM     34  C   UNL A   1      40.011  28.881  29.366  1.00  0.00     0.031 A 
ATOM     35  C   UNL A   1      40.884  29.770  30.208  1.00  0.00     0.074 A 
ATOM     36  C   UNL A   1      40.458  27.681  28.958  1.00  0.00     0.049 A 
ATOM     37  N   UNL A   1      42.132  29.613  30.563  1.00  0.00    -0.248 NA
ATOM     38  C   UNL A   1      40.261  31.001  30.721  1.00  0.00     0.031 C 
ATOM     39  C   UNL A   1      39.684  26.709  28.189  1.00  0.00     0.029 A 
ATOM     40  N   UNL A   1      41.682  27.082  29.126  1.00  0.00    -0.354 N 
ATOM     41  C   UNL A   1      42.443  30.719  31.344  1.00  0.00     0.074 A 
ATOM     42  C   UNL A   1      41.263  31.555  31.388  1.00  0.00     0.031 C 
ATOM     43  C   UNL A   1      40.460  25.642  27.928  1.00  0.00     0.029 A 
ATOM     44  C   UNL A   1      41.793  25.876  28.480  1.00  0.00     0.049 A 
ATOM     45  H   UNL A   1      42.408  27.479  29.657  1.00  0.00     0.167 HD
ATOM     46  C   UNL A   1      43.606  31.004  31.976  1.00  0.00     0.037 A 
ATOM     47  C   UNL A   1      42.864  25.072  28.324  1.00  0.00     0.037 A 
ATOM     48  C   UNL A   1      44.781  30.177  31.920  1.00  0.00     0.049 A 
ATOM     49  C   UNL A   1      44.180  25.468  28.945  1.00  0.00     0.074 A 
ATOM     50  C   UNL A   1      46.013  30.385  32.515  1.00  0.00     0.029 A 
ATOM     51  N   UNL A   1      44.869  28.982  31.221  1.00  0.00    -0.354 N 
ATOM     52  N   UNL A   1      44.466  26.513  29.683  1.00  0.00    -0.248 NA
ATOM     53  C   UNL A   1      45.323  24.576  28.703  1.00  0.00     0.031 C 
ATOM     54  C   UNL A   1      46.861  29.335  32.143  1.00  0.00     0.029 A 
ATOM     55  C   UNL A   1      46.142  28.452  31.352  1.00  0.00     0.049 A 
ATOM     56  H   UNL A   1      44.136  28.571  30.709  1.00  0.00     0.167 HD
ATOM     57  C   UNL A   1      45.810  26.392  30.013  1.00  0.00     0.074 A 
ATOM     58  C   UNL A   1      46.280  25.165  29.406  1.00  0.00     0.031 C 
ATOM     59  C   UNL A   1      46.587  27.224  30.749  1.00  0.00     0.037 A 
BRANCH  46  60
ATOM     60  C   UNL A   1      43.670  32.272  32.773  1.00  0.00     0.064 A 
ATOM     61  C   UNL A   1      43.373  32.290  34.143  1.00  0.00     0.173 A 
ATOM     62  C   UNL A   1      44.082  33.471  32.173  1.00  0.00     0.173 A 
ATOM     63  F   UNL A   1      42.962  31.171  34.759  1.00  0.00    -0.203 F 
ATOM     64  C   UNL A   1      43.472  33.466  34.882  1.00  0.00     0.198 A 
ATOM     65  C   UNL A   1      44.202  34.640  32.919  1.00  0.00     0.198 A 
ATOM     66  F   UNL A   1      44.379  33.506  30.865  1.00  0.00    -0.203 F 
ATOM     67  F   UNL A   1      43.151  33.467  36.183  1.00  0.00    -0.200 F 
ATOM     68  C   UNL A   1      43.893  34.638  34.272  1.00  0.00     0.200 A 
ATOM     69  F   UNL A   1      44.619  35.770  32.330  1.00  0.00    -0.200 F 
ATOM     70  F   UNL A   1      43.997  35.766  34.985  1.00  0.00    -0.200 F 
ENDBRANCH  46  60
BRANCH  47  71
ATOM     71  C   UNL A   1      42.757  23.833  27.511  1.00  0.00     0.064 A 
ATOM     72  C   UNL A   1      42.321  22.627  28.078  1.00  0.00     0.173 A 
ATOM     73  C   UNL A   1      43.128  23.820  26.158  1.00  0.00     0.173 A 
ATOM     74  F   UNL A   1      41.983  22.582  29.375  1.00  0.00    -0.203 F 
ATOM     75  C   UNL A   1      42.284  21.452  27.330  1.00  0.00     0.198 A 
ATOM     76  C   UNL A   1      43.062  22.652  25.404  1.00  0.00     0.198 A 
ATOM     77  F   UNL A   1      43.557  24.946  25.569  1.00  0.00    -0.203 F 
ATOM     78  F   UNL A   1      41.917  20.302  27.912  1.00  0.00    -0.200 F 
ATOM     79  C   UNL A   1      42.650  21.466  25.992  1.00  0.00     0.200 A 
ATOM     80  F   UNL A   1      43.410  22.672  24.110  1.00  0.00    -0.200 F 
ATOM     81  F   UNL A   1      42.619  20.334  25.275  1.00  0.00    -0.200 F 
ENDBRANCH  47  71
BRANCH  59  82
ATOM     82  C   UNL A   1      48.017  26.823  30.964  1.00  0.00     0.064 A 
ATOM     83  C   UNL A   1      48.381  25.935  31.987  1.00  0.00     0.173 A 
ATOM     84  C   UNL A   1      49.022  27.286  30.102  1.00  0.00     0.173 A 
ATOM     85  F   UNL A   1      47.457  25.477  32.844  1.00  0.00    -0.203 F 
ATOM     86  C   UNL A   1      49.706  25.538  32.148  1.00  0.00     0.198 A 
ATOM     87  C   UNL A   1      50.342  26.866  30.251  1.00  0.00     0.198 A 
ATOM     88  F   UNL A   1      48.722  28.131  29.106  1.00  0.00    -0.203 F 
ATOM     89  F   UNL A   1      50.039  24.717  33.154  1.00  0.00    -0.200 F 
ATOM     90  C   UNL A   1      50.682  25.996  31.276  1.00  0.00     0.200 A 
ATOM     91  F   UNL A   1      51.281  27.300  29.400  1.00  0.00    -0.200 F 
ATOM     92  F   UNL A   1      51.954  25.603  31.427  1.00  0.00    -0.200 F 
ENDBRANCH  59  82
ENDBRANCH  33  34
ENDBRANCH  26  28
ENDBRANCH  25  26
ENDBRANCH  24  25
ENDBRANCH  23  24
ENDBRANCH  22  23
ENDBRANCH   1  22
TORSDOF 18
ENDMDL
MODEL 2
REMARK VINA RESULT:     -10.6      3.759      8.476
REMARK SMILES CCCc1nc(C[N@H+]2CCCC[C@@H]2C(=O)OCCOCCOC(=O)c2ccc(-c3c4nc(c(-c5c(F)c(F)c(F)c(F)c5F)c5ccc([nH]5)c(-c5c(F)c(F)c(F)c(F)c5F)c5nc(c(-c6c(F)c(F)c(F)c(F)c6F)c6ccc3[nH]6)C=C5)C=C4)cc2)cs1
REMARK SMILES IDX 18 1 17 2 16 3 14 4 15 5 13 6 8 7 9 8 10 10 12 11 11 12 7 13
REMARK SMILES IDX 6 14 4 15 5 16 89 17 88 18 3 19 2 20 1 21 19 22 20 23 21 24
REMARK SMILES IDX 22 25 23 26 24 27 25 28 26 29 87 30 27 31 86 32 28 33 29 34
REMARK SMILES IDX 30 35 80 36 31 37 85 38 79 39 81 40 32 41 84 42 78 43 77 44
REMARK SMILES IDX 33 46 65 47 45 48 64 49 46 50 49 51 63 52 82 53 47 54 48 55
REMARK SMILES IDX 62 57 83 58 50 59 34 60 35 61 43 62 36 63 37 64 41 65 44 66
REMARK SMILES IDX 38 67 39 68 42 69 40 70 66 71 67 72 75 73 68 74 69 75 73 76
REMARK SMILES IDX 76 77 70 78 71 79 74 80 72 81 51 82 52 83 60 84 53 85 54 86
REMARK SMILES IDX 58 87 61 88 55 89 56 90 59 91 57 92
REMARK H PARENT 8 9 81 45 49 56
REMARK Flexibility Score: inf
ROOT
ATOM      1  C   UNL A   1      37.587  22.516  25.706  1.00  0.00     0.202 C 
ENDROOT
BRANCH   1   2
ATOM      2  C   UNL A   1      36.599  23.547  25.140  1.00  0.00     0.261 C 
BRANCH   2   3
ATOM      3  O   UNL A   1      36.211  23.312  23.780  1.00  0.00    -0.459 OA
BRANCH   3   4
ATOM      4  C   UNL A   1      34.866  23.415  23.575  1.00  0.00     0.364 C 
ATOM      5  O   UNL A   1      34.338  23.173  22.493  1.00  0.00    -0.245 OA
BRANCH   4   6
ATOM      6  C   UNL A   1      34.060  23.761  24.853  1.00  0.00     0.295 C 
ATOM      7  N   UNL A   1      33.240  22.610  25.326  1.00  0.00    -0.318 N 
ATOM      8  C   UNL A   1      32.502  22.916  26.564  1.00  0.00     0.263 C 
ATOM      9  H   UNL A   1      32.578  22.470  24.563  1.00  0.00     0.349 HD
ATOM     10  C   UNL A   1      31.652  24.181  26.450  1.00  0.00     0.062 C 
ATOM     11  C   UNL A   1      33.202  25.032  24.702  1.00  0.00     0.078 C 
ATOM     12  C   UNL A   1      32.495  25.367  26.010  1.00  0.00     0.013 C 
BRANCH   7  13
ATOM     13  C   UNL A   1      33.971  21.322  25.474  1.00  0.00     0.321 C 
BRANCH  13  14
ATOM     14  C   UNL A   1      33.482  20.201  24.586  1.00  0.00     0.106 A 
ATOM     15  C   UNL A   1      33.612  18.131  23.772  1.00  0.00     0.093 A 
ATOM     16  N   UNL A   1      34.181  18.996  24.589  1.00  0.00    -0.240 NA
ATOM     17  S   UNL A   1      32.319  18.763  22.840  1.00  0.00    -0.127 S 
ATOM     18  C   UNL A   1      32.365  20.186  23.771  1.00  0.00     0.096 A 
BRANCH  15  19
ATOM     19  C   UNL A   1      34.075  16.715  23.602  1.00  0.00     0.067 C 
BRANCH  19  20
ATOM     20  C   UNL A   1      34.172  15.905  24.902  1.00  0.00     0.004 C 
ATOM     21  C   UNL A   1      35.590  15.749  25.443  1.00  0.00     0.004 C 
ENDBRANCH  19  20
ENDBRANCH  15  19
ENDBRANCH  13  14
ENDBRANCH   7  13
ENDBRANCH   4   6
ENDBRANCH   3   4
ENDBRANCH   2   3
ENDBRANCH   1   2
BRANCH   1  22
ATOM     22  O   UNL A   1      38.110  21.528  24.827  1.00  0.00    -0.374 OA
BRANCH  22  23
ATOM     23  C   UNL A   1      38.065  20.157  25.226  1.00  0.00     0.202 C 
BRANCH  23  24
ATOM     24  C   UNL A   1      39.356  19.513  25.741  1.00  0.00     0.261 C 
BRANCH  24  25
ATOM     25  O   UNL A   1      40.424  20.475  25.848  1.00  0.00    -0.460 OA
BRANCH  25  26
ATOM     26  C   UNL A   1      40.984  20.569  27.076  1.00  0.00     0.338 C 
ATOM     27  O   UNL A   1      41.455  19.662  27.752  1.00  0.00    -0.246 OA
BRANCH  26  28
ATOM     28  C   UNL A   1      41.142  21.981  27.448  1.00  0.00     0.060 A 
ATOM     29  C   UNL A   1      40.586  22.951  26.604  1.00  0.00     0.016 A 
ATOM     30  C   UNL A   1      41.914  22.353  28.549  1.00  0.00     0.016 A 
ATOM     31  C   UNL A   1      40.830  24.302  26.838  1.00  0.00     0.010 A 
ATOM     32  C   UNL A   1      42.172  23.709  28.773  1.00  0.00     0.010 A 
ATOM     33  C   UNL A   1      41.657  24.686  27.901  1.00  0.00    -0.014 A 
BRANCH  33  34
ATOM     34  C   UNL A   1      42.104  26.094  28.015  1.00  0.00     0.031 A 
ATOM     35  C   UNL A   1      43.449  26.475  27.464  1.00  0.00     0.074 A 
ATOM     36  C   UNL A   1      41.315  27.021  28.583  1.00  0.00     0.049 A 
ATOM     37  N   UNL A   1      44.079  27.620  27.527  1.00  0.00    -0.248 NA
ATOM     38  C   UNL A   1      44.182  25.424  26.739  1.00  0.00     0.031 C 
ATOM     39  C   UNL A   1      39.969  26.782  29.100  1.00  0.00     0.029 A 
ATOM     40  N   UNL A   1      41.542  28.352  28.832  1.00  0.00    -0.354 N 
ATOM     41  C   UNL A   1      45.276  27.429  26.848  1.00  0.00     0.074 A 
ATOM     42  C   UNL A   1      45.300  26.052  26.405  1.00  0.00     0.031 C 
ATOM     43  C   UNL A   1      39.497  27.925  29.628  1.00  0.00     0.029 A 
ATOM     44  C   UNL A   1      40.522  28.961  29.519  1.00  0.00     0.049 A 
ATOM     45  H   UNL A   1      42.356  28.823  28.545  1.00  0.00     0.167 HD
ATOM     46  C   UNL A   1      46.260  28.327  26.608  1.00  0.00     0.037 A 
ATOM     47  C   UNL A   1      40.445  30.205  30.033  1.00  0.00     0.037 A 
ATOM     48  C   UNL A   1      46.238  29.692  27.060  1.00  0.00     0.049 A 
ATOM     49  C   UNL A   1      41.603  31.152  29.848  1.00  0.00     0.074 A 
ATOM     50  C   UNL A   1      47.193  30.677  26.879  1.00  0.00     0.029 A 
ATOM     51  N   UNL A   1      45.207  30.262  27.790  1.00  0.00    -0.354 N 
ATOM     52  N   UNL A   1      42.730  30.967  29.203  1.00  0.00    -0.248 NA
ATOM     53  C   UNL A   1      41.482  32.479  30.469  1.00  0.00     0.031 C 
ATOM     54  C   UNL A   1      46.757  31.834  27.536  1.00  0.00     0.029 A 
ATOM     55  C   UNL A   1      45.511  31.580  28.088  1.00  0.00     0.049 A 
ATOM     56  H   UNL A   1      44.380  29.799  28.058  1.00  0.00     0.167 HD
ATOM     57  C   UNL A   1      43.438  32.156  29.321  1.00  0.00     0.074 A 
ATOM     58  C   UNL A   1      42.609  33.063  30.085  1.00  0.00     0.031 C 
ATOM     59  C   UNL A   1      44.667  32.469  28.841  1.00  0.00     0.037 A 
BRANCH  46  60
ATOM     60  C   UNL A   1      47.453  27.858  25.831  1.00  0.00     0.064 A 
ATOM     61  C   UNL A   1      48.618  27.419  26.476  1.00  0.00     0.173 A 
ATOM     62  C   UNL A   1      47.414  27.800  24.429  1.00  0.00     0.173 A 
ATOM     63  F   UNL A   1      48.709  27.468  27.813  1.00  0.00    -0.203 F 
ATOM     64  C   UNL A   1      49.707  26.950  25.745  1.00  0.00     0.198 A 
ATOM     65  C   UNL A   1      48.496  27.309  23.704  1.00  0.00     0.198 A 
ATOM     66  F   UNL A   1      46.321  28.207  23.766  1.00  0.00    -0.203 F 
ATOM     67  F   UNL A   1      50.823  26.566  26.380  1.00  0.00    -0.200 F 
ATOM     68  C   UNL A   1      49.642  26.888  24.361  1.00  0.00     0.200 A 
ATOM     69  F   UNL A   1      48.427  27.240  22.366  1.00  0.00    -0.200 F 
ATOM     70  F   UNL A   1      50.687  26.428  23.660  1.00  0.00    -0.200 F 
ENDBRANCH  46  60
BRANCH  47  71
ATOM     71  C   UNL A   1      39.249  30.620  30.811  1.00  0.00     0.064 A 
ATOM     72  C   UNL A   1      39.153  30.365  32.186  1.00  0.00     0.173 A 
ATOM     73  C   UNL A   1      38.159  31.245  30.186  1.00  0.00     0.173 A 
ATOM     74  F   UNL A   1      40.156  29.743  32.822  1.00  0.00    -0.203 F 
ATOM     75  C   UNL A   1      38.003  30.696  32.900  1.00  0.00     0.198 A 
ATOM     76  C   UNL A   1      37.023  31.602  30.907  1.00  0.00     0.198 A 
ATOM     77  F   UNL A   1      38.198  31.507  28.871  1.00  0.00    -0.203 F 
ATOM     78  F   UNL A   1      37.916  30.389  34.202  1.00  0.00    -0.200 F 
ATOM     79  C   UNL A   1      36.941  31.319  32.262  1.00  0.00     0.200 A 
ATOM     80  F   UNL A   1      36.002  32.211  30.288  1.00  0.00    -0.200 F 
ATOM     81  F   UNL A   1      35.834  31.632  32.949  1.00  0.00    -0.200 F 
ENDBRANCH  47  71
BRANCH  59  82
ATOM     82  C   UNL A   1      45.177  33.856  29.103  1.00  0.00     0.064 A 
ATOM     83  C   UNL A   1      44.886  34.918  28.235  1.00  0.00     0.173 A 
ATOM     84  C   UNL A   1      45.915  34.134  30.263  1.00  0.00     0.173 A 
ATOM     85  F   UNL A   1      44.197  34.698  27.106  1.00  0.00    -0.203 F 
ATOM     86  C   UNL A   1      45.331  36.208  28.513  1.00  0.00     0.198 A 
ATOM     87  C   UNL A   1      46.335  35.430  30.550  1.00  0.00     0.198 A 
ATOM     88  F   UNL A   1      46.213  33.152  31.127  1.00  0.00    -0.203 F 
ATOM     89  F   UNL A   1      45.072  37.203  27.653  1.00  0.00    -0.200 F 
ATOM     90  C   UNL A   1      46.046  36.465  29.673  1.00  0.00     0.200 A 
ATOM     91  F   UNL A   1      47.015  35.678  31.678  1.00  0.00    -0.200 F 
ATOM     92  F   UNL A   1      46.462  37.709  29.943  1.00  0.00    -0.200 F 
ENDBRANCH  59  82
ENDBRANCH  33  34
ENDBRANCH  26  28
ENDBRANCH  25  26
ENDBRANCH  24  25
ENDBRANCH  23  24
ENDBRANCH  22  23
ENDBRANCH   1  22
TORSDOF 18
ENDMDL
MODEL 3
REMARK VINA RESULT:     -10.3      4.814      9.679
REMARK SMILES CCCc1nc(C[N@H+]2CCCC[C@@H]2C(=O)OCCOCCOC(=O)c2ccc(-c3c4nc(c(-c5c(F)c(F)c(F)c(F)c5F)c5ccc([nH]5)c(-c5c(F)c(F)c(F)c(F)c5F)c5nc(c(-c6c(F)c(F)c(F)c(F)c6F)c6ccc3[nH]6)C=C5)C=C4)cc2)cs1
REMARK SMILES IDX 18 1 17 2 16 3 14 4 15 5 13 6 8 7 9 8 10 10 12 11 11 12 7 13
REMARK SMILES IDX 6 14 4 15 5 16 89 17 88 18 3 19 2 20 1 21 19 22 20 23 21 24
REMARK SMILES IDX 22 25 23 26 24 27 25 28 26 29 87 30 27 31 86 32 28 33 29 34
REMARK SMILES IDX 30 35 80 36 31 37 85 38 79 39 81 40 32 41 84 42 78 43 77 44
REMARK SMILES IDX 33 46 65 47 45 48 64 49 46 50 49 51 63 52 82 53 47 54 48 55
REMARK SMILES IDX 62 57 83 58 50 59 34 60 35 61 43 62 36 63 37 64 41 65 44 66
REMARK SMILES IDX 38 67 39 68 42 69 40 70 66 71 67 72 75 73 68 74 69 75 73 76
REMARK SMILES IDX 76 77 70 78 71 79 74 80 72 81 51 82 52 83 60 84 53 85 54 86
REMARK SMILES IDX 58 87 61 88 55 89 56 90 59 91 57 92
REMARK H PARENT 8 9 81 45 49 56
REMARK Flexibility Score: inf
ROOT
ATOM      1  C   UNL A   1      44.136  19.943  25.366  1.00  0.00     0.202 C 
ENDROOT
BRANCH   1   2
ATOM      2  C   UNL A   1      42.698  19.669  25.832  1.00  0.00     0.261 C 
BRANCH   2   3
ATOM      3  O   UNL A   1      41.770  20.722  25.542  1.00  0.00    -0.459 OA
BRANCH   3   4
ATOM      4  C   UNL A   1      40.482  20.414  25.870  1.00  0.00     0.364 C 
ATOM      5  O   UNL A   1      40.018  19.283  25.752  1.00  0.00    -0.245 OA
BRANCH   4   6
ATOM      6  C   UNL A   1      39.695  21.591  26.501  1.00  0.00     0.295 C 
ATOM      7  N   UNL A   1      38.703  22.173  25.554  1.00  0.00    -0.318 N 
ATOM      8  C   UNL A   1      37.922  23.266  26.159  1.00  0.00     0.263 C 
ATOM      9  H   UNL A   1      39.289  22.548  24.808  1.00  0.00     0.349 HD
ATOM     10  C   UNL A   1      38.800  24.358  26.765  1.00  0.00     0.062 C 
ATOM     11  C   UNL A   1      40.609  22.683  27.091  1.00  0.00     0.078 C 
ATOM     12  C   UNL A   1      39.785  23.773  27.766  1.00  0.00     0.013 C 
BRANCH   7  13
ATOM     13  C   UNL A   1      37.791  21.193  24.903  1.00  0.00     0.321 C 
BRANCH  13  14
ATOM     14  C   UNL A   1      36.482  21.765  24.410  1.00  0.00     0.106 A 
ATOM     15  C   UNL A   1      34.258  21.910  24.440  1.00  0.00     0.093 A 
ATOM     16  N   UNL A   1      35.297  21.297  24.974  1.00  0.00    -0.240 NA
ATOM     17  S   UNL A   1      34.632  22.951  23.129  1.00  0.00    -0.127 S 
ATOM     18  C   UNL A   1      36.287  22.763  23.472  1.00  0.00     0.096 A 
BRANCH  15  19
ATOM     19  C   UNL A   1      32.842  21.690  24.880  1.00  0.00     0.067 C 
BRANCH  19  20
ATOM     20  C   UNL A   1      32.177  20.429  24.311  1.00  0.00     0.004 C 
ATOM     21  C   UNL A   1      32.685  19.122  24.912  1.00  0.00     0.004 C 
ENDBRANCH  19  20
ENDBRANCH  15  19
ENDBRANCH  13  14
ENDBRANCH   7  13
ENDBRANCH   4   6
ENDBRANCH   3   4
ENDBRANCH   2   3
ENDBRANCH   1   2
BRANCH   1  22
ATOM     22  O   UNL A   1      44.331  20.538  24.089  1.00  0.00    -0.374 OA
BRANCH  22  23
ATOM     23  C   UNL A   1      45.031  21.780  24.008  1.00  0.00     0.202 C 
BRANCH  23  24
ATOM     24  C   UNL A   1      44.251  23.069  24.291  1.00  0.00     0.261 C 
BRANCH  24  25
ATOM     25  O   UNL A   1      44.664  23.678  25.530  1.00  0.00    -0.460 OA
BRANCH  25  26
ATOM     26  C   UNL A   1      44.909  25.006  25.457  1.00  0.00     0.338 C 
ATOM     27  O   UNL A   1      45.593  25.594  24.626  1.00  0.00    -0.246 OA
BRANCH  26  28
ATOM     28  C   UNL A   1      44.069  25.726  26.424  1.00  0.00     0.060 A 
ATOM     29  C   UNL A   1      44.327  27.087  26.634  1.00  0.00     0.016 A 
ATOM     30  C   UNL A   1      43.116  25.054  27.190  1.00  0.00     0.016 A 
ATOM     31  C   UNL A   1      43.654  27.777  27.639  1.00  0.00     0.010 A 
ATOM     32  C   UNL A   1      42.454  25.744  28.211  1.00  0.00     0.010 A 
ATOM     33  C   UNL A   1      42.742  27.098  28.459  1.00  0.00    -0.014 A 
BRANCH  33  34
ATOM     34  C   UNL A   1      42.201  27.764  29.667  1.00  0.00     0.031 A 
ATOM     35  C   UNL A   1      40.945  28.580  29.545  1.00  0.00     0.074 A 
ATOM     36  C   UNL A   1      42.810  27.627  30.857  1.00  0.00     0.049 A 
ATOM     37  N   UNL A   1      40.342  29.316  30.443  1.00  0.00    -0.248 NA
ATOM     38  C   UNL A   1      40.276  28.559  28.235  1.00  0.00     0.031 C 
ATOM     39  C   UNL A   1      43.999  26.815  31.108  1.00  0.00     0.029 A 
ATOM     40  N   UNL A   1      42.515  28.183  32.077  1.00  0.00    -0.354 N 
ATOM     41  C   UNL A   1      39.223  29.841  29.809  1.00  0.00     0.074 A 
ATOM     42  C   UNL A   1      39.243  29.363  28.443  1.00  0.00     0.031 C 
ATOM     43  C   UNL A   1      44.348  26.945  32.401  1.00  0.00     0.029 A 
ATOM     44  C   UNL A   1      43.430  27.877  33.053  1.00  0.00     0.049 A 
ATOM     45  H   UNL A   1      41.724  28.746  32.236  1.00  0.00     0.167 HD
ATOM     46  C   UNL A   1      38.259  30.639  30.326  1.00  0.00     0.037 A 
ATOM     47  C   UNL A   1      43.532  28.329  34.319  1.00  0.00     0.037 A 
ATOM     48  C   UNL A   1      38.249  31.121  31.681  1.00  0.00     0.049 A 
ATOM     49  C   UNL A   1      42.508  29.307  34.836  1.00  0.00     0.074 A 
ATOM     50  C   UNL A   1      37.324  31.946  32.297  1.00  0.00     0.029 A 
ATOM     51  N   UNL A   1      39.216  30.824  32.629  1.00  0.00    -0.354 N 
ATOM     52  N   UNL A   1      41.451  29.797  34.233  1.00  0.00    -0.248 NA
ATOM     53  C   UNL A   1      42.695  29.801  36.208  1.00  0.00     0.031 C 
ATOM     54  C   UNL A   1      37.753  32.181  33.608  1.00  0.00     0.029 A 
ATOM     55  C   UNL A   1      38.922  31.467  33.820  1.00  0.00     0.049 A 
ATOM     56  H   UNL A   1      39.995  30.241  32.478  1.00  0.00     0.167 HD
ATOM     57  C   UNL A   1      40.837  30.634  35.157  1.00  0.00     0.074 A 
ATOM     58  C   UNL A   1      41.631  30.576  36.366  1.00  0.00     0.031 C 
ATOM     59  C   UNL A   1      39.719  31.387  35.016  1.00  0.00     0.037 A 
BRANCH  46  60
ATOM     60  C   UNL A   1      37.142  31.055  29.418  1.00  0.00     0.064 A 
ATOM     61  C   UNL A   1      36.089  30.182  29.107  1.00  0.00     0.173 A 
ATOM     62  C   UNL A   1      37.095  32.355  28.893  1.00  0.00     0.173 A 
ATOM     63  F   UNL A   1      36.096  28.924  29.574  1.00  0.00    -0.203 F 
ATOM     64  C   UNL A   1      35.037  30.590  28.292  1.00  0.00     0.198 A 
ATOM     65  C   UNL A   1      36.030  32.767  28.098  1.00  0.00     0.198 A 
ATOM     66  F   UNL A   1      38.077  33.228  29.162  1.00  0.00    -0.203 F 
ATOM     67  F   UNL A   1      34.058  29.729  27.982  1.00  0.00    -0.200 F 
ATOM     68  C   UNL A   1      35.004  31.884  27.794  1.00  0.00     0.200 A 
ATOM     69  F   UNL A   1      35.994  34.022  27.625  1.00  0.00    -0.200 F 
ATOM     70  F   UNL A   1      33.986  32.279  27.019  1.00  0.00    -0.200 F 
ENDBRANCH  46  60
BRANCH  47  71
ATOM     71  C   UNL A   1      44.667  27.902  35.177  1.00  0.00     0.064 A 
ATOM     72  C   UNL A   1      44.534  26.840  36.082  1.00  0.00     0.173 A 
ATOM     73  C   UNL A   1      45.897  28.575  35.138  1.00  0.00     0.173 A 
ATOM     74  F   UNL A   1      43.368  26.185  36.177  1.00  0.00    -0.203 F 
ATOM     75  C   UNL A   1      45.580  26.485  36.932  1.00  0.00     0.198 A 
ATOM     76  C   UNL A   1      46.951  28.200  35.967  1.00  0.00     0.198 A 
ATOM     77  F   UNL A   1      46.075  29.602  34.293  1.00  0.00    -0.203 F 
ATOM     78  F   UNL A   1      45.406  25.502  37.827  1.00  0.00    -0.200 F 
ATOM     79  C   UNL A   1      46.789  27.161  36.870  1.00  0.00     0.200 A 
ATOM     80  F   UNL A   1      48.120  28.851  35.898  1.00  0.00    -0.200 F 
ATOM     81  F   UNL A   1      47.792  26.821  37.692  1.00  0.00    -0.200 F 
ENDBRANCH  47  71
BRANCH  59  82
ATOM     82  C   UNL A   1      39.270  32.185  36.204  1.00  0.00     0.064 A 
ATOM     83  C   UNL A   1      39.767  33.473  36.450  1.00  0.00     0.173 A 
ATOM     84  C   UNL A   1      38.289  31.679  37.070  1.00  0.00     0.173 A 
ATOM     85  F   UNL A   1      40.715  33.994  35.657  1.00  0.00    -0.203 F 
ATOM     86  C   UNL A   1      39.308  34.220  37.532  1.00  0.00     0.198 A 
ATOM     87  C   UNL A   1      37.815  32.439  38.136  1.00  0.00     0.198 A 
ATOM     88  F   UNL A   1      37.779  30.455  36.873  1.00  0.00    -0.203 F 
ATOM     89  F   UNL A   1      39.822  35.435  37.770  1.00  0.00    -0.200 F 
ATOM     90  C   UNL A   1      38.328  33.707  38.368  1.00  0.00     0.200 A 
ATOM     91  F   UNL A   1      36.859  31.946  38.935  1.00  0.00    -0.200 F 
ATOM     92  F   UNL A   1      37.881  34.432  39.402  1.00  0.00    -0.200 F 
ENDBRANCH  59  82
ENDBRANCH  33  34
ENDBRANCH  26  28
ENDBRANCH  25  26
ENDBRANCH  24  25
ENDBRANCH  23  24
ENDBRANCH  22  23
ENDBRANCH   1  22
TORSDOF 18
ENDMDL
