MODEL 1
REMARK VINA RESULT:     -11.7      0.000      0.000
REMARK SMILES O=C(OCCOCCOC(=O)c1cccc(Nc2ccnc3ccc(Cl)cc23)c1)c1ccc(-c2c3nc(c(-c4c(F)c(F)c(F)c(F)c4F)c4ccc([nH]4)c(-c4c(F)c(F)c(F)c(F)c4F)c4nc(c(-c5c(F)c(F)c(F)c(F)c5F)c5ccc2[nH]5)C=C4)C=C3)cc1
REMARK SMILES IDX 6 1 5 2 4 3 3 4 2 5 1 6 30 7 31 8 92 9 32 10 91 11 33 12
REMARK SMILES IDX 34 13 35 14 85 15 36 16 90 17 84 18 86 19 37 20 89 21 83 22
REMARK SMILES IDX 82 23 38 25 70 26 50 27 69 28 51 29 54 30 68 31 87 32 52 33
REMARK SMILES IDX 53 34 67 36 88 37 55 38 39 39 40 40 48 41 41 42 42 43 46 44
REMARK SMILES IDX 49 45 43 46 44 47 47 48 45 49 71 50 72 51 80 52 73 53 74 54
REMARK SMILES IDX 78 55 81 56 75 57 76 58 79 59 77 60 56 61 57 62 65 63 58 64
REMARK SMILES IDX 59 65 63 66 66 67 60 68 61 69 64 70 62 71 7 72 8 73 9 74
REMARK SMILES IDX 10 75 11 76 12 77 13 78 29 79 14 80 16 81 15 82 17 83 18 85
REMARK SMILES IDX 19 86 28 87 20 88 22 89 27 90 21 91 23 92 25 93 24 94 26 95
REMARK H PARENT 86 24 54 35 17 84
REMARK Flexibility Score: inf
ROOT
ATOM      1  O   UNL A   1      42.202  20.524  26.865  1.00  0.00    -0.374 OA
ENDROOT
BRANCH   1   2
ATOM      2  C   UNL A   1      41.958  19.368  26.056  1.00  0.00     0.202 C 
BRANCH   2   3
ATOM      3  C   UNL A   1      43.165  18.480  25.767  1.00  0.00     0.261 C 
BRANCH   3   4
ATOM      4  O   UNL A   1      43.716  18.787  24.487  1.00  0.00    -0.460 OA
BRANCH   4   5
ATOM      5  C   UNL A   1      44.797  19.557  24.232  1.00  0.00     0.338 C 
ATOM      6  O   UNL A   1      45.748  19.056  23.637  1.00  0.00    -0.246 OA
BRANCH   5   7
ATOM      7  C   UNL A   1      44.895  20.999  24.611  1.00  0.00     0.060 A 
ATOM      8  C   UNL A   1      44.473  22.077  23.826  1.00  0.00     0.016 A 
ATOM      9  C   UNL A   1      45.361  21.271  25.906  1.00  0.00     0.016 A 
ATOM     10  C   UNL A   1      44.530  23.381  24.284  1.00  0.00     0.010 A 
ATOM     11  C   UNL A   1      45.399  22.578  26.390  1.00  0.00     0.010 A 
ATOM     12  C   UNL A   1      44.989  23.633  25.570  1.00  0.00    -0.014 A 
BRANCH  12  13
ATOM     13  C   UNL A   1      45.151  25.031  25.984  1.00  0.00     0.031 A 
ATOM     14  C   UNL A   1      46.491  25.659  25.795  1.00  0.00     0.074 A 
ATOM     15  C   UNL A   1      44.089  25.722  26.425  1.00  0.00     0.049 A 
ATOM     16  N   UNL A   1      46.925  26.823  26.187  1.00  0.00    -0.248 NA
ATOM     17  C   UNL A   1      47.479  24.860  25.048  1.00  0.00     0.031 C 
ATOM     18  C   UNL A   1      42.719  25.208  26.493  1.00  0.00     0.029 A 
ATOM     19  N   UNL A   1      43.991  27.005  26.886  1.00  0.00    -0.354 N 
ATOM     20  C   UNL A   1      48.247  26.881  25.773  1.00  0.00     0.074 A 
ATOM     21  C   UNL A   1      48.546  25.640  25.095  1.00  0.00     0.031 C 
ATOM     22  C   UNL A   1      41.917  26.169  26.980  1.00  0.00     0.029 A 
ATOM     23  C   UNL A   1      42.731  27.330  27.323  1.00  0.00     0.049 A 
ATOM     24  H   UNL A   1      44.748  27.633  26.905  1.00  0.00     0.167 HD
ATOM     25  C   UNL A   1      49.128  27.888  25.969  1.00  0.00     0.037 A 
ATOM     26  C   UNL A   1      42.311  28.428  27.977  1.00  0.00     0.037 A 
ATOM     27  C   UNL A   1      48.783  29.098  26.662  1.00  0.00     0.049 A 
ATOM     28  C   UNL A   1      43.332  29.494  28.275  1.00  0.00     0.074 A 
ATOM     29  C   UNL A   1      49.584  30.172  26.991  1.00  0.00     0.029 A 
ATOM     30  N   UNL A   1      47.507  29.382  27.142  1.00  0.00    -0.354 N 
ATOM     31  N   UNL A   1      44.607  29.527  27.958  1.00  0.00    -0.248 NA
ATOM     32  C   UNL A   1      42.868  30.665  29.026  1.00  0.00     0.031 C 
ATOM     33  C   UNL A   1      48.806  31.082  27.717  1.00  0.00     0.029 A 
ATOM     34  C   UNL A   1      47.502  30.608  27.781  1.00  0.00     0.049 A 
ATOM     35  H   UNL A   1      46.722  28.797  27.041  1.00  0.00     0.167 HD
ATOM     36  C   UNL A   1      45.094  30.730  28.446  1.00  0.00     0.074 A 
ATOM     37  C   UNL A   1      43.972  31.400  29.077  1.00  0.00     0.031 C 
ATOM     38  C   UNL A   1      46.350  31.238  28.379  1.00  0.00     0.037 A 
BRANCH  25  39
ATOM     39  C   UNL A   1      50.540  27.651  25.516  1.00  0.00     0.064 A 
ATOM     40  C   UNL A   1      50.938  27.822  24.181  1.00  0.00     0.173 A 
ATOM     41  C   UNL A   1      51.494  27.168  26.425  1.00  0.00     0.173 A 
ATOM     42  F   UNL A   1      50.057  28.249  23.263  1.00  0.00    -0.203 F 
ATOM     43  C   UNL A   1      52.221  27.473  23.764  1.00  0.00     0.198 A 
ATOM     44  C   UNL A   1      52.786  26.852  26.012  1.00  0.00     0.198 A 
ATOM     45  F   UNL A   1      51.167  26.977  27.712  1.00  0.00    -0.203 F 
ATOM     46  F   UNL A   1      52.551  27.564  22.469  1.00  0.00    -0.200 F 
ATOM     47  C   UNL A   1      53.144  26.990  24.680  1.00  0.00     0.200 A 
ATOM     48  F   UNL A   1      53.676  26.388  26.900  1.00  0.00    -0.200 F 
ATOM     49  F   UNL A   1      54.371  26.636  24.275  1.00  0.00    -0.200 F 
ENDBRANCH  25  39
BRANCH  26  50
ATOM     50  C   UNL A   1      40.898  28.533  28.423  1.00  0.00     0.064 A 
ATOM     51  C   UNL A   1      40.513  28.166  29.719  1.00  0.00     0.173 A 
ATOM     52  C   UNL A   1      39.901  29.031  27.568  1.00  0.00     0.173 A 
ATOM     53  F   UNL A   1      41.421  27.666  30.570  1.00  0.00    -0.203 F 
ATOM     54  C   UNL A   1      39.188  28.288  30.139  1.00  0.00     0.198 A 
ATOM     55  C   UNL A   1      38.584  29.180  27.998  1.00  0.00     0.198 A 
ATOM     56  F   UNL A   1      40.211  29.398  26.315  1.00  0.00    -0.203 F 
ATOM     57  F   UNL A   1      38.841  27.898  31.374  1.00  0.00    -0.200 F 
ATOM     58  C   UNL A   1      38.228  28.802  29.282  1.00  0.00     0.200 A 
ATOM     59  F   UNL A   1      37.664  29.693  27.170  1.00  0.00    -0.200 F 
ATOM     60  F   UNL A   1      36.957  28.929  29.692  1.00  0.00    -0.200 F 
ENDBRANCH  26  50
BRANCH  38  61
ATOM     61  C   UNL A   1      46.559  32.609  28.951  1.00  0.00     0.064 A 
ATOM     62  C   UNL A   1      46.391  33.765  28.177  1.00  0.00     0.173 A 
ATOM     63  C   UNL A   1      46.850  32.758  30.315  1.00  0.00     0.173 A 
ATOM     64  F   UNL A   1      46.127  33.669  26.865  1.00  0.00    -0.203 F 
ATOM     65  C   UNL A   1      46.520  35.026  28.749  1.00  0.00     0.198 A 
ATOM     66  C   UNL A   1      46.945  34.020  30.889  1.00  0.00     0.198 A 
ATOM     67  F   UNL A   1      47.011  31.679  31.095  1.00  0.00    -0.203 F 
ATOM     68  F   UNL A   1      46.390  36.121  27.987  1.00  0.00    -0.200 F 
ATOM     69  C   UNL A   1      46.784  35.153  30.105  1.00  0.00     0.200 A 
ATOM     70  F   UNL A   1      47.182  34.140  32.203  1.00  0.00    -0.200 F 
ATOM     71  F   UNL A   1      46.886  36.369  30.658  1.00  0.00    -0.200 F 
ENDBRANCH  38  61
ENDBRANCH  12  13
ENDBRANCH   5   7
ENDBRANCH   4   5
ENDBRANCH   3   4
ENDBRANCH   2   3
ENDBRANCH   1   2
BRANCH   1  72
ATOM     72  C   UNL A   1      41.630  21.746  26.378  1.00  0.00     0.202 C 
BRANCH  72  73
ATOM     73  C   UNL A   1      40.414  22.137  27.230  1.00  0.00     0.261 C 
BRANCH  73  74
ATOM     74  O   UNL A   1      39.227  22.084  26.412  1.00  0.00    -0.460 OA
BRANCH  74  75
ATOM     75  C   UNL A   1      38.551  23.261  26.288  1.00  0.00     0.338 C 
ATOM     76  O   UNL A   1      38.986  24.387  26.402  1.00  0.00    -0.246 OA
BRANCH  75  77
ATOM     77  C   UNL A   1      37.263  22.933  25.644  1.00  0.00     0.062 A 
ATOM     78  C   UNL A   1      37.176  21.648  25.110  1.00  0.00     0.016 A 
ATOM     79  C   UNL A   1      36.148  23.771  25.657  1.00  0.00     0.041 A 
ATOM     80  C   UNL A   1      35.932  21.094  24.845  1.00  0.00     0.003 A 
ATOM     81  C   UNL A   1      34.919  23.271  25.203  1.00  0.00     0.039 A 
ATOM     82  C   UNL A   1      34.804  21.897  24.935  1.00  0.00     0.026 A 
BRANCH  81  83
ATOM     83  N   UNL A   1      33.789  24.097  25.074  1.00  0.00    -0.355 N 
ATOM     84  H   UNL A   1      33.038  23.922  25.687  1.00  0.00     0.167 HD
BRANCH  83  85
ATOM     85  C   UNL A   1      33.627  25.151  24.151  1.00  0.00     0.050 A 
ATOM     86  C   UNL A   1      33.448  24.802  22.810  1.00  0.00     0.047 A 
ATOM     87  C   UNL A   1      33.634  26.523  24.517  1.00  0.00     0.025 A 
ATOM     88  C   UNL A   1      33.304  25.802  21.882  1.00  0.00     0.114 A 
ATOM     89  C   UNL A   1      33.309  27.446  23.496  1.00  0.00     0.072 A 
ATOM     90  C   UNL A   1      33.981  27.037  25.795  1.00  0.00     0.033 A 
ATOM     91  N   UNL A   1      33.181  27.101  22.208  1.00  0.00    -0.256 NA
ATOM     92  C   UNL A   1      33.123  28.781  23.818  1.00  0.00     0.030 A 
ATOM     93  C   UNL A   1      33.888  28.406  26.059  1.00  0.00     0.041 A 
ATOM     94  C   UNL A   1      33.392  29.272  25.095  1.00  0.00     0.023 A 
ATOM     95  Cl  UNL A   1      34.412  29.043  27.569  1.00  0.00    -0.084 Cl
ENDBRANCH  83  85
ENDBRANCH  81  83
ENDBRANCH  75  77
ENDBRANCH  74  75
ENDBRANCH  73  74
ENDBRANCH  72  73
ENDBRANCH   1  72
TORSDOF 16
ENDMDL
MODEL 2
REMARK VINA RESULT:     -11.4      5.264      7.581
REMARK SMILES O=C(OCCOCCOC(=O)c1cccc(Nc2ccnc3ccc(Cl)cc23)c1)c1ccc(-c2c3nc(c(-c4c(F)c(F)c(F)c(F)c4F)c4ccc([nH]4)c(-c4c(F)c(F)c(F)c(F)c4F)c4nc(c(-c5c(F)c(F)c(F)c(F)c5F)c5ccc2[nH]5)C=C4)C=C3)cc1
REMARK SMILES IDX 6 1 5 2 4 3 3 4 2 5 1 6 30 7 31 8 92 9 32 10 91 11 33 12
REMARK SMILES IDX 34 13 35 14 85 15 36 16 90 17 84 18 86 19 37 20 89 21 83 22
REMARK SMILES IDX 82 23 38 25 70 26 50 27 69 28 51 29 54 30 68 31 87 32 52 33
REMARK SMILES IDX 53 34 67 36 88 37 55 38 39 39 40 40 48 41 41 42 42 43 46 44
REMARK SMILES IDX 49 45 43 46 44 47 47 48 45 49 71 50 72 51 80 52 73 53 74 54
REMARK SMILES IDX 78 55 81 56 75 57 76 58 79 59 77 60 56 61 57 62 65 63 58 64
REMARK SMILES IDX 59 65 63 66 66 67 60 68 61 69 64 70 62 71 7 72 8 73 9 74
REMARK SMILES IDX 10 75 11 76 12 77 13 78 29 79 14 80 16 81 15 82 17 83 18 85
REMARK SMILES IDX 19 86 28 87 20 88 22 89 27 90 21 91 23 92 25 93 24 94 26 95
REMARK H PARENT 86 24 54 35 17 84
REMARK Flexibility Score: inf
ROOT
ATOM      1  O   UNL A   1      40.673  21.159  26.950  1.00  0.00    -0.374 OA
ENDROOT
BRANCH   1   2
ATOM      2  C   UNL A   1      41.798  20.420  26.464  1.00  0.00     0.202 C 
BRANCH   2   3
ATOM      3  C   UNL A   1      42.888  21.230  25.767  1.00  0.00     0.261 C 
BRANCH   3   4
ATOM      4  O   UNL A   1      42.365  22.474  25.301  1.00  0.00    -0.460 OA
BRANCH   4   5
ATOM      5  C   UNL A   1      42.963  23.683  25.375  1.00  0.00     0.338 C 
ATOM      6  O   UNL A   1      43.827  23.963  24.547  1.00  0.00    -0.246 OA
BRANCH   5   7
ATOM      7  C   UNL A   1      42.615  24.719  26.394  1.00  0.00     0.060 A 
ATOM      8  C   UNL A   1      43.146  26.012  26.454  1.00  0.00     0.016 A 
ATOM      9  C   UNL A   1      41.598  24.382  27.300  1.00  0.00     0.016 A 
ATOM     10  C   UNL A   1      42.712  26.937  27.387  1.00  0.00     0.010 A 
ATOM     11  C   UNL A   1      41.134  25.313  28.229  1.00  0.00     0.010 A 
ATOM     12  C   UNL A   1      41.701  26.590  28.274  1.00  0.00    -0.014 A 
BRANCH  12  13
ATOM     13  C   UNL A   1      41.347  27.548  29.327  1.00  0.00     0.031 A 
ATOM     14  C   UNL A   1      42.200  27.578  30.550  1.00  0.00     0.074 A 
ATOM     15  C   UNL A   1      40.345  28.417  29.127  1.00  0.00     0.049 A 
ATOM     16  N   UNL A   1      42.031  28.234  31.663  1.00  0.00    -0.248 NA
ATOM     17  C   UNL A   1      43.422  26.757  30.506  1.00  0.00     0.031 C 
ATOM     18  C   UNL A   1      39.568  28.536  27.891  1.00  0.00     0.029 A 
ATOM     19  N   UNL A   1      39.816  29.370  29.951  1.00  0.00    -0.354 N 
ATOM     20  C   UNL A   1      43.101  27.874  32.469  1.00  0.00     0.074 A 
ATOM     21  C   UNL A   1      43.917  26.947  31.718  1.00  0.00     0.031 C 
ATOM     22  C   UNL A   1      38.652  29.506  28.044  1.00  0.00     0.029 A 
ATOM     23  C   UNL A   1      38.733  30.017  29.408  1.00  0.00     0.049 A 
ATOM     24  H   UNL A   1      40.174  29.573  30.845  1.00  0.00     0.167 HD
ATOM     25  C   UNL A   1      43.354  28.279  33.734  1.00  0.00     0.037 A 
ATOM     26  C   UNL A   1      37.880  30.883  29.984  1.00  0.00     0.037 A 
ATOM     27  C   UNL A   1      42.500  29.194  34.440  1.00  0.00     0.049 A 
ATOM     28  C   UNL A   1      38.121  31.244  31.425  1.00  0.00     0.074 A 
ATOM     29  C   UNL A   1      42.594  29.642  35.742  1.00  0.00     0.029 A 
ATOM     30  N   UNL A   1      41.376  29.799  33.883  1.00  0.00    -0.354 N 
ATOM     31  N   UNL A   1      39.086  30.849  32.225  1.00  0.00    -0.248 NA
ATOM     32  C   UNL A   1      37.158  32.155  32.051  1.00  0.00     0.031 C 
ATOM     33  C   UNL A   1      41.496  30.476  35.989  1.00  0.00     0.029 A 
ATOM     34  C   UNL A   1      40.756  30.603  34.820  1.00  0.00     0.049 A 
ATOM     35  H   UNL A   1      41.069  29.672  32.956  1.00  0.00     0.167 HD
ATOM     36  C   UNL A   1      38.865  31.481  33.439  1.00  0.00     0.074 A 
ATOM     37  C   UNL A   1      37.673  32.290  33.266  1.00  0.00     0.031 C 
ATOM     38  C   UNL A   1      39.578  31.404  34.590  1.00  0.00     0.037 A 
BRANCH  25  39
ATOM     39  C   UNL A   1      44.526  27.648  34.426  1.00  0.00     0.064 A 
ATOM     40  C   UNL A   1      44.420  26.439  35.131  1.00  0.00     0.173 A 
ATOM     41  C   UNL A   1      45.765  28.309  34.448  1.00  0.00     0.173 A 
ATOM     42  F   UNL A   1      43.250  25.782  35.171  1.00  0.00    -0.203 F 
ATOM     43  C   UNL A   1      45.491  25.942  35.870  1.00  0.00     0.198 A 
ATOM     44  C   UNL A   1      46.844  27.792  35.160  1.00  0.00     0.198 A 
ATOM     45  F   UNL A   1      45.922  29.473  33.799  1.00  0.00    -0.203 F 
ATOM     46  F   UNL A   1      45.339  24.830  36.604  1.00  0.00    -0.200 F 
ATOM     47  C   UNL A   1      46.702  26.618  35.883  1.00  0.00     0.200 A 
ATOM     48  F   UNL A   1      48.013  28.447  35.168  1.00  0.00    -0.200 F 
ATOM     49  F   UNL A   1      47.726  26.149  36.609  1.00  0.00    -0.200 F 
ENDBRANCH  25  39
BRANCH  26  50
ATOM     50  C   UNL A   1      36.721  31.407  29.215  1.00  0.00     0.064 A 
ATOM     51  C   UNL A   1      35.626  30.593  28.904  1.00  0.00     0.173 A 
ATOM     52  C   UNL A   1      36.672  32.748  28.798  1.00  0.00     0.173 A 
ATOM     53  F   UNL A   1      35.629  29.300  29.260  1.00  0.00    -0.203 F 
ATOM     54  C   UNL A   1      34.530  31.095  28.201  1.00  0.00     0.198 A 
ATOM     55  C   UNL A   1      35.565  33.257  28.123  1.00  0.00     0.198 A 
ATOM     56  F   UNL A   1      37.693  33.574  29.069  1.00  0.00    -0.203 F 
ATOM     57  F   UNL A   1      33.510  30.285  27.886  1.00  0.00    -0.200 F 
ATOM     58  C   UNL A   1      34.497  32.428  27.819  1.00  0.00     0.200 A 
ATOM     59  F   UNL A   1      35.532  34.549  27.771  1.00  0.00    -0.200 F 
ATOM     60  F   UNL A   1      33.438  32.913  27.155  1.00  0.00    -0.200 F 
ENDBRANCH  26  50
BRANCH  38  61
ATOM     61  C   UNL A   1      39.121  32.263  35.731  1.00  0.00     0.064 A 
ATOM     62  C   UNL A   1      38.279  31.769  36.736  1.00  0.00     0.173 A 
ATOM     63  C   UNL A   1      39.607  33.573  35.855  1.00  0.00     0.173 A 
ATOM     64  F   UNL A   1      37.779  30.527  36.650  1.00  0.00    -0.203 F 
ATOM     65  C   UNL A   1      37.928  32.564  37.822  1.00  0.00     0.198 A 
ATOM     66  C   UNL A   1      39.280  34.353  36.958  1.00  0.00     0.198 A 
ATOM     67  F   UNL A   1      40.422  34.084  34.921  1.00  0.00    -0.203 F 
ATOM     68  F   UNL A   1      37.094  32.088  38.756  1.00  0.00    -0.200 F 
ATOM     69  C   UNL A   1      38.439  33.849  37.939  1.00  0.00     0.200 A 
ATOM     70  F   UNL A   1      39.790  35.587  37.078  1.00  0.00    -0.200 F 
ATOM     71  F   UNL A   1      38.116  34.605  38.997  1.00  0.00    -0.200 F 
ENDBRANCH  38  61
ENDBRANCH  12  13
ENDBRANCH   5   7
ENDBRANCH   4   5
ENDBRANCH   3   4
ENDBRANCH   2   3
ENDBRANCH   1   2
BRANCH   1  72
ATOM     72  C   UNL A   1      39.490  21.080  26.143  1.00  0.00     0.202 C 
BRANCH  72  73
ATOM     73  C   UNL A   1      38.798  22.450  26.082  1.00  0.00     0.261 C 
BRANCH  73  74
ATOM     74  O   UNL A   1      37.369  22.259  26.105  1.00  0.00    -0.460 OA
BRANCH  74  75
ATOM     75  C   UNL A   1      36.748  22.357  24.896  1.00  0.00     0.338 C 
ATOM     76  O   UNL A   1      37.018  21.771  23.869  1.00  0.00    -0.246 OA
BRANCH  75  77
ATOM     77  C   UNL A   1      35.463  23.041  25.145  1.00  0.00     0.062 A 
ATOM     78  C   UNL A   1      34.538  22.314  25.894  1.00  0.00     0.016 A 
ATOM     79  C   UNL A   1      35.199  24.363  24.786  1.00  0.00     0.041 A 
ATOM     80  C   UNL A   1      33.487  22.971  26.518  1.00  0.00     0.003 A 
ATOM     81  C   UNL A   1      34.030  24.975  25.260  1.00  0.00     0.039 A 
ATOM     82  C   UNL A   1      33.264  24.311  26.232  1.00  0.00     0.026 A 
BRANCH  81  83
ATOM     83  N   UNL A   1      33.645  26.258  24.834  1.00  0.00    -0.355 N 
ATOM     84  H   UNL A   1      34.022  27.022  25.329  1.00  0.00     0.167 HD
BRANCH  83  85
ATOM     85  C   UNL A   1      32.771  26.557  23.770  1.00  0.00     0.050 A 
ATOM     86  C   UNL A   1      32.776  25.687  22.677  1.00  0.00     0.047 A 
ATOM     87  C   UNL A   1      31.901  27.679  23.759  1.00  0.00     0.025 A 
ATOM     88  C   UNL A   1      31.950  25.956  21.614  1.00  0.00     0.114 A 
ATOM     89  C   UNL A   1      30.984  27.752  22.685  1.00  0.00     0.072 A 
ATOM     90  C   UNL A   1      31.910  28.742  24.702  1.00  0.00     0.033 A 
ATOM     91  N   UNL A   1      31.028  26.935  21.626  1.00  0.00    -0.256 NA
ATOM     92  C   UNL A   1      29.990  28.719  22.702  1.00  0.00     0.030 A 
ATOM     93  C   UNL A   1      30.960  29.765  24.629  1.00  0.00     0.041 A 
ATOM     94  C   UNL A   1      29.956  29.719  23.673  1.00  0.00     0.023 A 
ATOM     95  Cl  UNL A   1      31.038  31.108  25.701  1.00  0.00    -0.084 Cl
ENDBRANCH  83  85
ENDBRANCH  81  83
ENDBRANCH  75  77
ENDBRANCH  74  75
ENDBRANCH  73  74
ENDBRANCH  72  73
ENDBRANCH   1  72
TORSDOF 16
ENDMDL
MODEL 3
REMARK VINA RESULT:     -11.4      0.683      7.356
REMARK SMILES O=C(OCCOCCOC(=O)c1cccc(Nc2ccnc3ccc(Cl)cc23)c1)c1ccc(-c2c3nc(c(-c4c(F)c(F)c(F)c(F)c4F)c4ccc([nH]4)c(-c4c(F)c(F)c(F)c(F)c4F)c4nc(c(-c5c(F)c(F)c(F)c(F)c5F)c5ccc2[nH]5)C=C4)C=C3)cc1
REMARK SMILES IDX 6 1 5 2 4 3 3 4 2 5 1 6 30 7 31 8 92 9 32 10 91 11 33 12
REMARK SMILES IDX 34 13 35 14 85 15 36 16 90 17 84 18 86 19 37 20 89 21 83 22
REMARK SMILES IDX 82 23 38 25 70 26 50 27 69 28 51 29 54 30 68 31 87 32 52 33
REMARK SMILES IDX 53 34 67 36 88 37 55 38 39 39 40 40 48 41 41 42 42 43 46 44
REMARK SMILES IDX 49 45 43 46 44 47 47 48 45 49 71 50 72 51 80 52 73 53 74 54
REMARK SMILES IDX 78 55 81 56 75 57 76 58 79 59 77 60 56 61 57 62 65 63 58 64
REMARK SMILES IDX 59 65 63 66 66 67 60 68 61 69 64 70 62 71 7 72 8 73 9 74
REMARK SMILES IDX 10 75 11 76 12 77 13 78 29 79 14 80 16 81 15 82 17 83 18 85
REMARK SMILES IDX 19 86 28 87 20 88 22 89 27 90 21 91 23 92 25 93 24 94 26 95
REMARK H PARENT 86 24 54 35 17 84
REMARK Flexibility Score: inf
ROOT
ATOM      1  O   UNL A   1      42.203  20.818  26.788  1.00  0.00    -0.374 OA
ENDROOT
BRANCH   1   2
ATOM      2  C   UNL A   1      41.902  19.600  26.100  1.00  0.00     0.202 C 
BRANCH   2   3
ATOM      3  C   UNL A   1      43.098  18.756  25.667  1.00  0.00     0.261 C 
BRANCH   3   4
ATOM      4  O   UNL A   1      43.632  19.242  24.436  1.00  0.00    -0.460 OA
BRANCH   4   5
ATOM      5  C   UNL A   1      44.789  19.919  24.265  1.00  0.00     0.338 C 
ATOM      6  O   UNL A   1      45.714  19.362  23.677  1.00  0.00    -0.246 OA
BRANCH   5   7
ATOM      7  C   UNL A   1      45.005  21.322  24.727  1.00  0.00     0.060 A 
ATOM      8  C   UNL A   1      44.667  22.476  24.012  1.00  0.00     0.016 A 
ATOM      9  C   UNL A   1      45.498  21.478  26.032  1.00  0.00     0.016 A 
ATOM     10  C   UNL A   1      44.830  23.741  24.547  1.00  0.00     0.010 A 
ATOM     11  C   UNL A   1      45.644  22.746  26.592  1.00  0.00     0.010 A 
ATOM     12  C   UNL A   1      45.315  23.878  25.841  1.00  0.00    -0.014 A 
BRANCH  12  13
ATOM     13  C   UNL A   1      45.591  25.232  26.335  1.00  0.00     0.031 A 
ATOM     14  C   UNL A   1      44.459  25.992  26.941  1.00  0.00     0.074 A 
ATOM     15  C   UNL A   1      46.846  25.705  26.317  1.00  0.00     0.049 A 
ATOM     16  N   UNL A   1      44.408  27.233  27.334  1.00  0.00    -0.248 NA
ATOM     17  C   UNL A   1      43.208  25.239  27.139  1.00  0.00     0.031 C 
ATOM     18  C   UNL A   1      48.022  24.953  25.873  1.00  0.00     0.029 A 
ATOM     19  N   UNL A   1      47.344  26.922  26.688  1.00  0.00    -0.354 N 
ATOM     20  C   UNL A   1      43.112  27.424  27.787  1.00  0.00     0.074 A 
ATOM     21  C   UNL A   1      42.407  26.172  27.626  1.00  0.00     0.031 C 
ATOM     22  C   UNL A   1      49.108  25.734  25.991  1.00  0.00     0.029 A 
ATOM     23  C   UNL A   1      48.689  27.055  26.445  1.00  0.00     0.049 A 
ATOM     24  H   UNL A   1      46.794  27.633  27.089  1.00  0.00     0.167 HD
ATOM     25  C   UNL A   1      42.568  28.562  28.274  1.00  0.00     0.037 A 
ATOM     26  C   UNL A   1      49.467  28.149  26.533  1.00  0.00     0.037 A 
ATOM     27  C   UNL A   1      43.311  29.785  28.400  1.00  0.00     0.049 A 
ATOM     28  C   UNL A   1      48.819  29.431  26.982  1.00  0.00     0.074 A 
ATOM     29  C   UNL A   1      42.878  31.028  28.814  1.00  0.00     0.029 A 
ATOM     30  N   UNL A   1      44.665  29.908  28.097  1.00  0.00    -0.354 N 
ATOM     31  N   UNL A   1      47.572  29.645  27.338  1.00  0.00    -0.248 NA
ATOM     32  C   UNL A   1      49.671  30.623  27.031  1.00  0.00     0.031 C 
ATOM     33  C   UNL A   1      43.956  31.915  28.711  1.00  0.00     0.029 A 
ATOM     34  C   UNL A   1      45.080  31.210  28.299  1.00  0.00     0.049 A 
ATOM     35  H   UNL A   1      45.242  29.174  27.786  1.00  0.00     0.167 HD
ATOM     36  C   UNL A   1      47.493  30.986  27.679  1.00  0.00     0.074 A 
ATOM     37  C   UNL A   1      48.823  31.535  27.490  1.00  0.00     0.031 C 
ATOM     38  C   UNL A   1      46.424  31.701  28.111  1.00  0.00     0.037 A 
BRANCH  25  39
ATOM     39  C   UNL A   1      41.101  28.530  28.591  1.00  0.00     0.064 A 
ATOM     40  C   UNL A   1      40.127  28.960  27.676  1.00  0.00     0.173 A 
ATOM     41  C   UNL A   1      40.669  28.133  29.866  1.00  0.00     0.173 A 
ATOM     42  F   UNL A   1      40.487  29.382  26.454  1.00  0.00    -0.203 F 
ATOM     43  C   UNL A   1      38.785  29.040  28.042  1.00  0.00     0.198 A 
ATOM     44  C   UNL A   1      39.323  28.182  30.217  1.00  0.00     0.198 A 
ATOM     45  F   UNL A   1      41.558  27.721  30.783  1.00  0.00    -0.203 F 
ATOM     46  F   UNL A   1      37.885  29.534  27.181  1.00  0.00    -0.200 F 
ATOM     47  C   UNL A   1      38.384  28.650  29.311  1.00  0.00     0.200 A 
ATOM     48  F   UNL A   1      38.938  27.802  31.444  1.00  0.00    -0.200 F 
ATOM     49  F   UNL A   1      37.096  28.745  29.669  1.00  0.00    -0.200 F 
ENDBRANCH  25  39
BRANCH  26  50
ATOM     50  C   UNL A   1      50.899  28.075  26.144  1.00  0.00     0.064 A 
ATOM     51  C   UNL A   1      51.297  28.178  24.805  1.00  0.00     0.173 A 
ATOM     52  C   UNL A   1      51.908  27.927  27.111  1.00  0.00     0.173 A 
ATOM     53  F   UNL A   1      50.374  28.301  23.840  1.00  0.00    -0.203 F 
ATOM     54  C   UNL A   1      52.645  28.130  24.448  1.00  0.00     0.198 A 
ATOM     55  C   UNL A   1      53.255  27.909  26.756  1.00  0.00     0.198 A 
ATOM     56  F   UNL A   1      51.586  27.823  28.409  1.00  0.00    -0.203 F 
ATOM     57  F   UNL A   1      52.996  28.197  23.156  1.00  0.00    -0.200 F 
ATOM     58  C   UNL A   1      53.622  28.004  25.423  1.00  0.00     0.200 A 
ATOM     59  F   UNL A   1      54.195  27.804  27.705  1.00  0.00    -0.200 F 
ATOM     60  F   UNL A   1      54.918  27.971  25.080  1.00  0.00    -0.200 F 
ENDBRANCH  26  50
BRANCH  38  61
ATOM     61  C   UNL A   1      46.666  33.138  28.465  1.00  0.00     0.064 A 
ATOM     62  C   UNL A   1      47.102  33.521  29.740  1.00  0.00     0.173 A 
ATOM     63  C   UNL A   1      46.538  34.130  27.480  1.00  0.00     0.173 A 
ATOM     64  F   UNL A   1      47.224  32.608  30.716  1.00  0.00    -0.203 F 
ATOM     65  C   UNL A   1      47.389  34.852  30.022  1.00  0.00     0.198 A 
ATOM     66  C   UNL A   1      46.857  35.454  27.757  1.00  0.00     0.198 A 
ATOM     67  F   UNL A   1      46.132  33.807  26.244  1.00  0.00    -0.203 F 
ATOM     68  F   UNL A   1      47.771  35.206  31.257  1.00  0.00    -0.200 F 
ATOM     69  C   UNL A   1      47.279  35.815  29.028  1.00  0.00     0.200 A 
ATOM     70  F   UNL A   1      46.769  36.378  26.791  1.00  0.00    -0.200 F 
ATOM     71  F   UNL A   1      47.577  37.093  29.297  1.00  0.00    -0.200 F 
ENDBRANCH  38  61
ENDBRANCH  12  13
ENDBRANCH   5   7
ENDBRANCH   4   5
ENDBRANCH   3   4
ENDBRANCH   2   3
ENDBRANCH   1   2
BRANCH   1  72
ATOM     72  C   UNL A   1      41.616  22.001  26.229  1.00  0.00     0.202 C 
BRANCH  72  73
ATOM     73  C   UNL A   1      40.514  22.534  27.157  1.00  0.00     0.261 C 
BRANCH  73  74
ATOM     74  O   UNL A   1      39.237  22.402  26.498  1.00  0.00    -0.460 OA
BRANCH  74  75
ATOM     75  C   UNL A   1      38.516  23.553  26.390  1.00  0.00     0.338 C 
ATOM     76  O   UNL A   1      38.888  24.689  26.589  1.00  0.00    -0.246 OA
BRANCH  75  77
ATOM     77  C   UNL A   1      37.290  23.204  25.643  1.00  0.00     0.062 A 
ATOM     78  C   UNL A   1      37.312  21.962  25.010  1.00  0.00     0.016 A 
ATOM     79  C   UNL A   1      36.126  23.973  25.649  1.00  0.00     0.041 A 
ATOM     80  C   UNL A   1      36.122  21.361  24.627  1.00  0.00     0.003 A 
ATOM     81  C   UNL A   1      34.958  23.442  25.084  1.00  0.00     0.039 A 
ATOM     82  C   UNL A   1      34.943  22.089  24.706  1.00  0.00     0.026 A 
BRANCH  81  83
ATOM     83  N   UNL A   1      33.790  24.210  24.946  1.00  0.00    -0.355 N 
ATOM     84  H   UNL A   1      33.025  23.962  25.516  1.00  0.00     0.167 HD
BRANCH  83  85
ATOM     85  C   UNL A   1      33.605  25.300  24.071  1.00  0.00     0.050 A 
ATOM     86  C   UNL A   1      33.400  25.006  22.721  1.00  0.00     0.047 A 
ATOM     87  C   UNL A   1      33.616  26.656  24.493  1.00  0.00     0.025 A 
ATOM     88  C   UNL A   1      33.234  26.044  21.838  1.00  0.00     0.114 A 
ATOM     89  C   UNL A   1      33.267  27.619  23.517  1.00  0.00     0.072 A 
ATOM     90  C   UNL A   1      33.987  27.119  25.784  1.00  0.00     0.033 A 
ATOM     91  N   UNL A   1      33.114  27.327  22.220  1.00  0.00    -0.256 NA
ATOM     92  C   UNL A   1      33.084  28.939  23.898  1.00  0.00     0.030 A 
ATOM     93  C   UNL A   1      33.896  28.476  26.106  1.00  0.00     0.041 A 
ATOM     94  C   UNL A   1      33.378  29.378  25.188  1.00  0.00     0.023 A 
ATOM     95  Cl  UNL A   1      34.449  29.052  27.630  1.00  0.00    -0.084 Cl
ENDBRANCH  83  85
ENDBRANCH  81  83
ENDBRANCH  75  77
ENDBRANCH  74  75
ENDBRANCH  73  74
ENDBRANCH  72  73
ENDBRANCH   1  72
TORSDOF 16
ENDMDL
