MODEL 1
REMARK VINA RESULT:     -11.0      0.000      0.000
REMARK SMILES Cc1cc(N(C)C(C)C)cc(C(=O)OCCOCCOC(=O)c2ccc(-c3c4nc(c(-c5c(F)c(F)c(F)c(F)c5F)c5ccc([nH]5)c(-c5c(F)c(F)c(F)c(F)c5F)c5nc(c(-c6c(F)c(F)c(F)c(F)c6F)c6ccc3[nH]6)C=C5)C=C4)cc2)c1N
REMARK SMILES IDX 17 1 16 2 15 3 14 4 12 5 13 6 11 7 1 8 2 9 3 10 86 11 4 12
REMARK SMILES IDX 10 13 87 14 5 17 6 18 7 19 8 20 9 21 18 22 19 23 20 24 21 25
REMARK SMILES IDX 22 26 23 27 24 28 85 29 25 30 84 31 26 32 27 33 28 34 78 35
REMARK SMILES IDX 29 36 83 37 77 38 79 39 30 40 82 41 76 42 75 43 31 45 63 46
REMARK SMILES IDX 43 47 62 48 44 49 47 50 61 51 80 52 45 53 46 54 60 56 81 57
REMARK SMILES IDX 48 58 32 59 33 60 41 61 34 62 35 63 39 64 42 65 36 66 37 67
REMARK SMILES IDX 40 68 38 69 64 70 65 71 73 72 66 73 67 74 71 75 74 76 68 77
REMARK SMILES IDX 69 78 72 79 70 80 49 81 50 82 58 83 51 84 52 85 56 86 59 87
REMARK SMILES IDX 53 88 54 89 57 90 55 91
REMARK H PARENT 87 15 87 16 79 44 47 55
REMARK Flexibility Score: inf
ROOT
ATOM      1  O   UNL A   1      33.062  27.566  25.994  1.00  0.00    -0.374 OA
ENDROOT
BRANCH   1   2
ATOM      2  C   UNL A   1      33.037  26.221  25.517  1.00  0.00     0.202 C 
BRANCH   2   3
ATOM      3  C   UNL A   1      32.051  25.281  26.215  1.00  0.00     0.261 C 
BRANCH   3   4
ATOM      4  O   UNL A   1      32.189  23.934  25.729  1.00  0.00    -0.460 OA
BRANCH   4   5
ATOM      5  C   UNL A   1      32.603  23.040  26.662  1.00  0.00     0.340 C 
ATOM      6  O   UNL A   1      32.217  22.975  27.820  1.00  0.00    -0.246 OA
BRANCH   5   7
ATOM      7  C   UNL A   1      33.481  22.011  26.048  1.00  0.00     0.085 A 
ATOM      8  C   UNL A   1      37.178  21.438  25.364  1.00  0.00     0.047 C 
ATOM      9  C   UNL A   1      35.682  21.281  25.427  1.00  0.00    -0.025 A 
ATOM     10  C   UNL A   1      35.098  20.131  24.856  1.00  0.00     0.031 A 
ATOM     11  C   UNL A   1      34.871  22.240  26.041  1.00  0.00     0.049 A 
ATOM     12  C   UNL A   1      33.720  19.861  24.866  1.00  0.00     0.038 A 
ATOM     13  C   UNL A   1      32.925  20.847  25.474  1.00  0.00     0.043 A 
BRANCH  11  14
ATOM     14  N   UNL A   1      35.443  23.279  26.780  1.00  0.00    -0.398 N 
ATOM     15  H   UNL A   1      36.307  23.662  26.504  1.00  0.00     0.156 HD
ATOM     16  H   UNL A   1      34.983  23.628  27.577  1.00  0.00     0.156 HD
ENDBRANCH  11  14
BRANCH  12  17
ATOM     17  N   UNL A   1      33.186  18.692  24.329  1.00  0.00    -0.372 N 
ATOM     18  C   UNL A   1      32.189  18.777  23.258  1.00  0.00     0.144 C 
BRANCH  17  19
ATOM     19  C   UNL A   1      33.640  17.313  24.642  1.00  0.00     0.075 C 
ATOM     20  C   UNL A   1      32.603  16.496  25.411  1.00  0.00     0.030 C 
ATOM     21  C   UNL A   1      34.227  16.595  23.427  1.00  0.00     0.030 C 
ENDBRANCH  17  19
ENDBRANCH  12  17
ENDBRANCH   5   7
ENDBRANCH   4   5
ENDBRANCH   3   4
ENDBRANCH   2   3
ENDBRANCH   1   2
BRANCH   1  22
ATOM     22  C   UNL A   1      31.846  28.074  26.550  1.00  0.00     0.202 C 
BRANCH  22  23
ATOM     23  C   UNL A   1      31.798  29.592  26.772  1.00  0.00     0.261 C 
BRANCH  23  24
ATOM     24  O   UNL A   1      33.013  30.231  26.334  1.00  0.00    -0.460 OA
BRANCH  24  25
ATOM     25  C   UNL A   1      33.416  31.278  27.087  1.00  0.00     0.338 C 
ATOM     26  O   UNL A   1      32.759  32.257  27.415  1.00  0.00    -0.246 OA
BRANCH  25  27
ATOM     27  C   UNL A   1      34.757  31.010  27.641  1.00  0.00     0.060 A 
ATOM     28  C   UNL A   1      35.076  29.679  27.943  1.00  0.00     0.016 A 
ATOM     29  C   UNL A   1      35.663  32.036  27.918  1.00  0.00     0.016 A 
ATOM     30  C   UNL A   1      36.282  29.375  28.570  1.00  0.00     0.010 A 
ATOM     31  C   UNL A   1      36.869  31.730  28.557  1.00  0.00     0.010 A 
ATOM     32  C   UNL A   1      37.168  30.403  28.917  1.00  0.00    -0.014 A 
BRANCH  32  33
ATOM     33  C   UNL A   1      38.332  30.103  29.787  1.00  0.00     0.031 A 
ATOM     34  C   UNL A   1      39.412  29.194  29.269  1.00  0.00     0.074 A 
ATOM     35  C   UNL A   1      38.440  30.655  31.008  1.00  0.00     0.049 A 
ATOM     36  N   UNL A   1      40.498  28.769  29.864  1.00  0.00    -0.248 NA
ATOM     37  C   UNL A   1      39.245  28.699  27.894  1.00  0.00     0.031 C 
ATOM     38  C   UNL A   1      37.479  31.580  31.604  1.00  0.00     0.029 A 
ATOM     39  N   UNL A   1      39.410  30.509  31.968  1.00  0.00    -0.354 N 
ATOM     40  C   UNL A   1      41.140  27.957  28.939  1.00  0.00     0.074 A 
ATOM     41  C   UNL A   1      40.309  27.921  27.755  1.00  0.00     0.031 C 
ATOM     42  C   UNL A   1      37.900  31.909  32.838  1.00  0.00     0.029 A 
ATOM     43  C   UNL A   1      39.144  31.197  33.126  1.00  0.00     0.049 A 
ATOM     44  H   UNL A   1      40.219  29.964  31.839  1.00  0.00     0.167 HD
ATOM     45  C   UNL A   1      42.323  27.308  29.062  1.00  0.00     0.037 A 
ATOM     46  C   UNL A   1      39.818  31.228  34.292  1.00  0.00     0.037 A 
ATOM     47  C   UNL A   1      43.148  27.343  30.240  1.00  0.00     0.049 A 
ATOM     48  C   UNL A   1      41.097  30.442  34.428  1.00  0.00     0.074 A 
ATOM     49  C   UNL A   1      44.369  26.729  30.459  1.00  0.00     0.029 A 
ATOM     50  N   UNL A   1      42.832  28.031  31.403  1.00  0.00    -0.354 N 
ATOM     51  N   UNL A   1      41.709  29.693  33.542  1.00  0.00    -0.248 NA
ATOM     52  C   UNL A   1      41.782  30.510  35.727  1.00  0.00     0.031 C 
ATOM     53  C   UNL A   1      44.770  27.006  31.770  1.00  0.00     0.029 A 
ATOM     54  C   UNL A   1      43.825  27.836  32.351  1.00  0.00     0.049 A 
ATOM     55  H   UNL A   1      42.024  28.577  31.536  1.00  0.00     0.167 HD
ATOM     56  C   UNL A   1      42.860  29.226  34.164  1.00  0.00     0.074 A 
ATOM     57  C   UNL A   1      42.868  29.785  35.499  1.00  0.00     0.031 C 
ATOM     58  C   UNL A   1      43.822  28.407  33.674  1.00  0.00     0.037 A 
BRANCH  45  59
ATOM     59  C   UNL A   1      42.785  26.485  27.896  1.00  0.00     0.064 A 
ATOM     60  C   UNL A   1      42.358  25.161  27.715  1.00  0.00     0.173 A 
ATOM     61  C   UNL A   1      43.635  27.040  26.927  1.00  0.00     0.173 A 
ATOM     62  F   UNL A   1      41.557  24.581  28.620  1.00  0.00    -0.203 F 
ATOM     63  C   UNL A   1      42.784  24.416  26.618  1.00  0.00     0.198 A 
ATOM     64  C   UNL A   1      44.036  26.301  25.818  1.00  0.00     0.198 A 
ATOM     65  F   UNL A   1      44.069  28.303  27.052  1.00  0.00    -0.203 F 
ATOM     66  F   UNL A   1      42.398  23.138  26.487  1.00  0.00    -0.200 F 
ATOM     67  C   UNL A   1      43.616  24.988  25.668  1.00  0.00     0.200 A 
ATOM     68  F   UNL A   1      44.831  26.859  24.895  1.00  0.00    -0.200 F 
ATOM     69  F   UNL A   1      44.019  24.271  24.609  1.00  0.00    -0.200 F 
ENDBRANCH  45  59
BRANCH  46  70
ATOM     70  C   UNL A   1      39.290  32.019  35.433  1.00  0.00     0.064 A 
ATOM     71  C   UNL A   1      39.625  33.370  35.597  1.00  0.00     0.173 A 
ATOM     72  C   UNL A   1      38.456  31.433  36.397  1.00  0.00     0.173 A 
ATOM     73  F   UNL A   1      40.441  33.968  34.716  1.00  0.00    -0.203 F 
ATOM     74  C   UNL A   1      39.161  34.099  36.690  1.00  0.00     0.198 A 
ATOM     75  C   UNL A   1      37.970  32.171  37.474  1.00  0.00     0.198 A 
ATOM     76  F   UNL A   1      38.107  30.142  36.288  1.00  0.00    -0.203 F 
ATOM     77  F   UNL A   1      39.536  35.376  36.848  1.00  0.00    -0.200 F 
ATOM     78  C   UNL A   1      38.330  33.501  37.624  1.00  0.00     0.200 A 
ATOM     79  F   UNL A   1      37.158  31.590  38.368  1.00  0.00    -0.200 F 
ATOM     80  F   UNL A   1      37.884  34.203  38.674  1.00  0.00    -0.200 F 
ENDBRANCH  46  70
BRANCH  58  81
ATOM     81  C   UNL A   1      44.984  28.093  34.570  1.00  0.00     0.064 A 
ATOM     82  C   UNL A   1      46.128  28.905  34.605  1.00  0.00     0.173 A 
ATOM     83  C   UNL A   1      44.936  26.991  35.437  1.00  0.00     0.173 A 
ATOM     84  F   UNL A   1      46.229  29.963  33.786  1.00  0.00    -0.203 F 
ATOM     85  C   UNL A   1      47.189  28.611  35.457  1.00  0.00     0.198 A 
ATOM     86  C   UNL A   1      45.985  26.717  36.310  1.00  0.00     0.198 A 
ATOM     87  F   UNL A   1      43.862  26.187  35.449  1.00  0.00    -0.203 F 
ATOM     88  F   UNL A   1      48.290  29.375  35.442  1.00  0.00    -0.200 F 
ATOM     89  C   UNL A   1      47.114  27.523  36.314  1.00  0.00     0.200 A 
ATOM     90  F   UNL A   1      45.905  25.672  37.145  1.00  0.00    -0.200 F 
ATOM     91  F   UNL A   1      48.133  27.246  37.139  1.00  0.00    -0.200 F 
ENDBRANCH  58  81
ENDBRANCH  32  33
ENDBRANCH  25  27
ENDBRANCH  24  25
ENDBRANCH  23  24
ENDBRANCH  22  23
ENDBRANCH   1  22
TORSDOF 17
ENDMDL
MODEL 2
REMARK VINA RESULT:     -10.9      1.760      7.895
REMARK SMILES Cc1cc(N(C)C(C)C)cc(C(=O)OCCOCCOC(=O)c2ccc(-c3c4nc(c(-c5c(F)c(F)c(F)c(F)c5F)c5ccc([nH]5)c(-c5c(F)c(F)c(F)c(F)c5F)c5nc(c(-c6c(F)c(F)c(F)c(F)c6F)c6ccc3[nH]6)C=C5)C=C4)cc2)c1N
REMARK SMILES IDX 17 1 16 2 15 3 14 4 12 5 13 6 11 7 1 8 2 9 3 10 86 11 4 12
REMARK SMILES IDX 10 13 87 14 5 17 6 18 7 19 8 20 9 21 18 22 19 23 20 24 21 25
REMARK SMILES IDX 22 26 23 27 24 28 85 29 25 30 84 31 26 32 27 33 28 34 78 35
REMARK SMILES IDX 29 36 83 37 77 38 79 39 30 40 82 41 76 42 75 43 31 45 63 46
REMARK SMILES IDX 43 47 62 48 44 49 47 50 61 51 80 52 45 53 46 54 60 56 81 57
REMARK SMILES IDX 48 58 32 59 33 60 41 61 34 62 35 63 39 64 42 65 36 66 37 67
REMARK SMILES IDX 40 68 38 69 64 70 65 71 73 72 66 73 67 74 71 75 74 76 68 77
REMARK SMILES IDX 69 78 72 79 70 80 49 81 50 82 58 83 51 84 52 85 56 86 59 87
REMARK SMILES IDX 53 88 54 89 57 90 55 91
REMARK H PARENT 87 15 87 16 79 44 47 55
REMARK Flexibility Score: inf
ROOT
ATOM      1  O   UNL A   1      32.034  30.914  27.245  1.00  0.00    -0.374 OA
ENDROOT
BRANCH   1   2
ATOM      2  C   UNL A   1      32.347  29.732  26.509  1.00  0.00     0.202 C 
BRANCH   2   3
ATOM      3  C   UNL A   1      33.588  28.964  26.970  1.00  0.00     0.261 C 
BRANCH   3   4
ATOM      4  O   UNL A   1      33.388  27.544  26.862  1.00  0.00    -0.460 OA
BRANCH   4   5
ATOM      5  C   UNL A   1      33.653  27.031  25.633  1.00  0.00     0.340 C 
ATOM      6  O   UNL A   1      33.981  27.667  24.642  1.00  0.00    -0.246 OA
BRANCH   5   7
ATOM      7  C   UNL A   1      33.664  25.547  25.677  1.00  0.00     0.085 A 
ATOM      8  C   UNL A   1      31.438  22.700  26.862  1.00  0.00     0.047 C 
ATOM      9  C   UNL A   1      32.583  23.493  26.291  1.00  0.00    -0.025 A 
ATOM     10  C   UNL A   1      33.713  22.800  25.810  1.00  0.00     0.031 A 
ATOM     11  C   UNL A   1      32.544  24.889  26.223  1.00  0.00     0.049 A 
ATOM     12  C   UNL A   1      34.835  23.422  25.239  1.00  0.00     0.038 A 
ATOM     13  C   UNL A   1      34.779  24.826  25.197  1.00  0.00     0.043 A 
BRANCH  11  14
ATOM     14  N   UNL A   1      31.362  25.577  26.509  1.00  0.00    -0.398 N 
ATOM     15  H   UNL A   1      30.981  26.198  25.846  1.00  0.00     0.156 HD
ATOM     16  H   UNL A   1      30.910  25.441  27.372  1.00  0.00     0.156 HD
ENDBRANCH  11  14
BRANCH  12  17
ATOM     17  N   UNL A   1      35.913  22.699  24.737  1.00  0.00    -0.372 N 
ATOM     18  C   UNL A   1      36.378  22.948  23.369  1.00  0.00     0.144 C 
BRANCH  17  19
ATOM     19  C   UNL A   1      36.764  21.765  25.518  1.00  0.00     0.075 C 
ATOM     20  C   UNL A   1      36.721  20.329  24.997  1.00  0.00     0.030 C 
ATOM     21  C   UNL A   1      38.176  22.305  25.746  1.00  0.00     0.030 C 
ENDBRANCH  17  19
ENDBRANCH  12  17
ENDBRANCH   5   7
ENDBRANCH   4   5
ENDBRANCH   3   4
ENDBRANCH   2   3
ENDBRANCH   1   2
BRANCH   1  22
ATOM     22  C   UNL A   1      31.480  32.005  26.504  1.00  0.00     0.202 C 
BRANCH  22  23
ATOM     23  C   UNL A   1      31.978  33.401  26.903  1.00  0.00     0.261 C 
BRANCH  23  24
ATOM     24  O   UNL A   1      32.797  33.354  28.088  1.00  0.00    -0.460 OA
BRANCH  24  25
ATOM     25  C   UNL A   1      33.922  34.102  28.039  1.00  0.00     0.338 C 
ATOM     26  O   UNL A   1      34.007  35.308  27.855  1.00  0.00    -0.246 OA
BRANCH  25  27
ATOM     27  C   UNL A   1      35.087  33.281  28.422  1.00  0.00     0.060 A 
ATOM     28  C   UNL A   1      34.834  31.990  28.907  1.00  0.00     0.016 A 
ATOM     29  C   UNL A   1      36.391  33.775  28.367  1.00  0.00     0.016 A 
ATOM     30  C   UNL A   1      35.883  31.208  29.388  1.00  0.00     0.010 A 
ATOM     31  C   UNL A   1      37.441  32.992  28.860  1.00  0.00     0.010 A 
ATOM     32  C   UNL A   1      37.187  31.720  29.405  1.00  0.00    -0.014 A 
BRANCH  32  33
ATOM     33  C   UNL A   1      38.252  30.983  30.127  1.00  0.00     0.031 A 
ATOM     34  C   UNL A   1      38.498  31.296  31.577  1.00  0.00     0.074 A 
ATOM     35  C   UNL A   1      38.969  30.028  29.510  1.00  0.00     0.049 A 
ATOM     36  N   UNL A   1      39.394  30.802  32.394  1.00  0.00    -0.248 NA
ATOM     37  C   UNL A   1      37.615  32.301  32.188  1.00  0.00     0.031 C 
ATOM     38  C   UNL A   1      38.797  29.609  28.121  1.00  0.00     0.029 A 
ATOM     39  N   UNL A   1      39.993  29.242  29.976  1.00  0.00    -0.354 N 
ATOM     40  C   UNL A   1      39.183  31.437  33.611  1.00  0.00     0.074 A 
ATOM     41  C   UNL A   1      38.097  32.374  33.419  1.00  0.00     0.031 C 
ATOM     42  C   UNL A   1      39.697  28.650  27.842  1.00  0.00     0.029 A 
ATOM     43  C   UNL A   1      40.523  28.409  29.023  1.00  0.00     0.049 A 
ATOM     44  H   UNL A   1      40.316  29.272  30.906  1.00  0.00     0.167 HD
ATOM     45  C   UNL A   1      39.830  31.247  34.786  1.00  0.00     0.037 A 
ATOM     46  C   UNL A   1      41.572  27.566  29.094  1.00  0.00     0.037 A 
ATOM     47  C   UNL A   1      40.910  30.315  34.975  1.00  0.00     0.049 A 
ATOM     48  C   UNL A   1      42.320  27.422  30.394  1.00  0.00     0.074 A 
ATOM     49  C   UNL A   1      41.622  30.041  36.129  1.00  0.00     0.029 A 
ATOM     50  N   UNL A   1      41.437  29.507  33.979  1.00  0.00    -0.354 N 
ATOM     51  N   UNL A   1      42.101  28.009  31.546  1.00  0.00    -0.248 NA
ATOM     52  C   UNL A   1      43.459  26.493  30.405  1.00  0.00     0.031 C 
ATOM     53  C   UNL A   1      42.611  29.101  35.821  1.00  0.00     0.029 A 
ATOM     54  C   UNL A   1      42.481  28.751  34.487  1.00  0.00     0.049 A 
ATOM     55  H   UNL A   1      41.117  29.474  33.048  1.00  0.00     0.167 HD
ATOM     56  C   UNL A   1      43.053  27.502  32.422  1.00  0.00     0.074 A 
ATOM     57  C   UNL A   1      43.844  26.549  31.672  1.00  0.00     0.031 C 
ATOM     58  C   UNL A   1      43.254  27.800  33.729  1.00  0.00     0.037 A 
BRANCH  45  59
ATOM     59  C   UNL A   1      39.398  32.080  35.956  1.00  0.00     0.064 A 
ATOM     60  C   UNL A   1      39.976  33.331  36.222  1.00  0.00     0.173 A 
ATOM     61  C   UNL A   1      38.366  31.641  36.799  1.00  0.00     0.173 A 
ATOM     62  F   UNL A   1      40.975  33.789  35.453  1.00  0.00    -0.203 F 
ATOM     63  C   UNL A   1      39.553  34.099  37.303  1.00  0.00     0.198 A 
ATOM     64  C   UNL A   1      37.927  32.424  37.863  1.00  0.00     0.198 A 
ATOM     65  F   UNL A   1      37.778  30.455  36.586  1.00  0.00    -0.203 F 
ATOM     66  F   UNL A   1      40.149  35.272  37.564  1.00  0.00    -0.200 F 
ATOM     67  C   UNL A   1      38.525  33.649  38.117  1.00  0.00     0.200 A 
ATOM     68  F   UNL A   1      36.925  31.993  38.642  1.00  0.00    -0.200 F 
ATOM     69  F   UNL A   1      38.113  34.394  39.153  1.00  0.00    -0.200 F 
ENDBRANCH  45  59
BRANCH  46  70
ATOM     70  C   UNL A   1      41.991  26.801  27.891  1.00  0.00     0.064 A 
ATOM     71  C   UNL A   1      42.948  27.312  27.003  1.00  0.00     0.173 A 
ATOM     72  C   UNL A   1      41.427  25.552  27.593  1.00  0.00     0.173 A 
ATOM     73  F   UNL A   1      43.497  28.515  27.231  1.00  0.00    -0.203 F 
ATOM     74  C   UNL A   1      43.310  26.612  25.854  1.00  0.00     0.198 A 
ATOM     75  C   UNL A   1      41.810  24.840  26.459  1.00  0.00     0.198 A 
ATOM     76  F   UNL A   1      40.505  25.018  28.409  1.00  0.00    -0.203 F 
ATOM     77  F   UNL A   1      44.191  27.145  24.997  1.00  0.00    -0.200 F 
ATOM     78  C   UNL A   1      42.746  25.374  25.585  1.00  0.00     0.200 A 
ATOM     79  F   UNL A   1      41.269  23.639  26.210  1.00  0.00    -0.200 F 
ATOM     80  F   UNL A   1      43.095  24.700  24.481  1.00  0.00    -0.200 F 
ENDBRANCH  46  70
BRANCH  58  81
ATOM     81  C   UNL A   1      44.348  27.063  34.444  1.00  0.00     0.064 A 
ATOM     82  C   UNL A   1      44.124  25.817  35.050  1.00  0.00     0.173 A 
ATOM     83  C   UNL A   1      45.649  27.588  34.488  1.00  0.00     0.173 A 
ATOM     84  F   UNL A   1      42.895  25.277  35.047  1.00  0.00    -0.203 F 
ATOM     85  C   UNL A   1      45.156  25.137  35.691  1.00  0.00     0.198 A 
ATOM     86  C   UNL A   1      46.685  26.892  35.105  1.00  0.00     0.198 A 
ATOM     87  F   UNL A   1      45.918  28.772  33.918  1.00  0.00    -0.203 F 
ATOM     88  F   UNL A   1      44.908  23.970  36.302  1.00  0.00    -0.200 F 
ATOM     89  C   UNL A   1      46.435  25.671  35.712  1.00  0.00     0.200 A 
ATOM     90  F   UNL A   1      47.923  27.405  35.112  1.00  0.00    -0.200 F 
ATOM     91  F   UNL A   1      47.429  25.012  36.324  1.00  0.00    -0.200 F 
ENDBRANCH  58  81
ENDBRANCH  32  33
ENDBRANCH  25  27
ENDBRANCH  24  25
ENDBRANCH  23  24
ENDBRANCH  22  23
ENDBRANCH   1  22
TORSDOF 17
ENDMDL
MODEL 3
REMARK VINA RESULT:     -10.9      4.711      8.287
REMARK SMILES Cc1cc(N(C)C(C)C)cc(C(=O)OCCOCCOC(=O)c2ccc(-c3c4nc(c(-c5c(F)c(F)c(F)c(F)c5F)c5ccc([nH]5)c(-c5c(F)c(F)c(F)c(F)c5F)c5nc(c(-c6c(F)c(F)c(F)c(F)c6F)c6ccc3[nH]6)C=C5)C=C4)cc2)c1N
REMARK SMILES IDX 17 1 16 2 15 3 14 4 12 5 13 6 11 7 1 8 2 9 3 10 86 11 4 12
REMARK SMILES IDX 10 13 87 14 5 17 6 18 7 19 8 20 9 21 18 22 19 23 20 24 21 25
REMARK SMILES IDX 22 26 23 27 24 28 85 29 25 30 84 31 26 32 27 33 28 34 78 35
REMARK SMILES IDX 29 36 83 37 77 38 79 39 30 40 82 41 76 42 75 43 31 45 63 46
REMARK SMILES IDX 43 47 62 48 44 49 47 50 61 51 80 52 45 53 46 54 60 56 81 57
REMARK SMILES IDX 48 58 32 59 33 60 41 61 34 62 35 63 39 64 42 65 36 66 37 67
REMARK SMILES IDX 40 68 38 69 64 70 65 71 73 72 66 73 67 74 71 75 74 76 68 77
REMARK SMILES IDX 69 78 72 79 70 80 49 81 50 82 58 83 51 84 52 85 56 86 59 87
REMARK SMILES IDX 53 88 54 89 57 90 55 91
REMARK H PARENT 87 15 87 16 79 44 47 55
REMARK Flexibility Score: inf
ROOT
ATOM      1  O   UNL A   1      38.867  21.999  26.333  1.00  0.00    -0.374 OA
ENDROOT
BRANCH   1   2
ATOM      2  C   UNL A   1      38.464  23.352  26.120  1.00  0.00     0.202 C 
BRANCH   2   3
ATOM      3  C   UNL A   1      37.184  23.550  25.303  1.00  0.00     0.261 C 
BRANCH   3   4
ATOM      4  O   UNL A   1      36.079  23.904  26.152  1.00  0.00    -0.460 OA
BRANCH   4   5
ATOM      5  C   UNL A   1      35.041  23.030  26.120  1.00  0.00     0.340 C 
ATOM      6  O   UNL A   1      35.122  21.813  26.207  1.00  0.00    -0.246 OA
BRANCH   5   7
ATOM      7  C   UNL A   1      33.744  23.754  26.137  1.00  0.00     0.085 A 
ATOM      8  C   UNL A   1      30.081  23.049  26.877  1.00  0.00     0.047 C 
ATOM      9  C   UNL A   1      31.370  23.725  26.492  1.00  0.00    -0.025 A 
ATOM     10  C   UNL A   1      31.336  25.082  26.109  1.00  0.00     0.031 A 
ATOM     11  C   UNL A   1      32.590  23.041  26.516  1.00  0.00     0.049 A 
ATOM     12  C   UNL A   1      32.469  25.827  25.747  1.00  0.00     0.038 A 
ATOM     13  C   UNL A   1      33.680  25.113  25.763  1.00  0.00     0.043 A 
BRANCH  11  14
ATOM     14  N   UNL A   1      32.673  21.765  27.080  1.00  0.00    -0.398 N 
ATOM     15  H   UNL A   1      32.756  20.975  26.498  1.00  0.00     0.156 HD
ATOM     16  H   UNL A   1      32.647  21.656  28.057  1.00  0.00     0.156 HD
ENDBRANCH  11  14
BRANCH  12  17
ATOM     17  N   UNL A   1      32.398  27.177  25.415  1.00  0.00    -0.372 N 
ATOM     18  C   UNL A   1      31.942  27.571  24.079  1.00  0.00     0.144 C 
BRANCH  17  19
ATOM     19  C   UNL A   1      32.611  28.308  26.354  1.00  0.00     0.075 C 
ATOM     20  C   UNL A   1      31.771  28.203  27.626  1.00  0.00     0.030 C 
ATOM     21  C   UNL A   1      34.091  28.597  26.604  1.00  0.00     0.030 C 
ENDBRANCH  17  19
ENDBRANCH  12  17
ENDBRANCH   5   7
ENDBRANCH   4   5
ENDBRANCH   3   4
ENDBRANCH   2   3
ENDBRANCH   1   2
BRANCH   1  22
ATOM     22  C   UNL A   1      38.417  21.036  25.376  1.00  0.00     0.202 C 
BRANCH  22  23
ATOM     23  C   UNL A   1      39.166  19.698  25.376  1.00  0.00     0.261 C 
BRANCH  23  24
ATOM     24  O   UNL A   1      40.033  19.574  26.521  1.00  0.00    -0.460 OA
BRANCH  24  25
ATOM     25  C   UNL A   1      41.350  19.471  26.237  1.00  0.00     0.338 C 
ATOM     26  O   UNL A   1      41.935  18.513  25.751  1.00  0.00    -0.246 OA
BRANCH  25  27
ATOM     27  C   UNL A   1      42.008  20.777  26.433  1.00  0.00     0.060 A 
ATOM     28  C   UNL A   1      42.259  21.182  27.751  1.00  0.00     0.016 A 
ATOM     29  C   UNL A   1      42.319  21.617  25.362  1.00  0.00     0.016 A 
ATOM     30  C   UNL A   1      42.776  22.451  28.005  1.00  0.00     0.010 A 
ATOM     31  C   UNL A   1      42.829  22.894  25.619  1.00  0.00     0.010 A 
ATOM     32  C   UNL A   1      43.027  23.329  26.943  1.00  0.00    -0.014 A 
BRANCH  32  33
ATOM     33  C   UNL A   1      43.352  24.748  27.229  1.00  0.00     0.031 A 
ATOM     34  C   UNL A   1      44.743  25.246  26.954  1.00  0.00     0.074 A 
ATOM     35  C   UNL A   1      42.413  25.589  27.698  1.00  0.00     0.049 A 
ATOM     36  N   UNL A   1      45.258  26.432  27.157  1.00  0.00    -0.248 NA
ATOM     37  C   UNL A   1      45.681  24.274  26.370  1.00  0.00     0.031 C 
ATOM     38  C   UNL A   1      41.021  25.234  27.967  1.00  0.00     0.029 A 
ATOM     39  N   UNL A   1      42.495  26.916  28.037  1.00  0.00    -0.354 N 
ATOM     40  C   UNL A   1      46.577  26.348  26.730  1.00  0.00     0.074 A 
ATOM     41  C   UNL A   1      46.794  24.988  26.286  1.00  0.00     0.031 C 
ATOM     42  C   UNL A   1      40.382  26.316  28.445  1.00  0.00     0.029 A 
ATOM     43  C   UNL A   1      41.326  27.428  28.540  1.00  0.00     0.049 A 
ATOM     44  H   UNL A   1      43.316  27.450  27.929  1.00  0.00     0.167 HD
ATOM     45  C   UNL A   1      47.518  27.322  26.700  1.00  0.00     0.037 A 
ATOM     46  C   UNL A   1      41.057  28.650  29.040  1.00  0.00     0.037 A 
ATOM     47  C   UNL A   1      47.301  28.674  27.143  1.00  0.00     0.049 A 
ATOM     48  C   UNL A   1      42.141  29.696  29.059  1.00  0.00     0.074 A 
ATOM     49  C   UNL A   1      48.188  29.735  27.142  1.00  0.00     0.029 A 
ATOM     50  N   UNL A   1      46.109  29.148  27.670  1.00  0.00    -0.354 N 
ATOM     51  N   UNL A   1      43.379  29.616  28.634  1.00  0.00    -0.248 NA
ATOM     52  C   UNL A   1      41.789  31.006  29.626  1.00  0.00     0.031 C 
ATOM     53  C   UNL A   1      47.548  30.841  27.712  1.00  0.00     0.029 A 
ATOM     54  C   UNL A   1      46.246  30.482  28.020  1.00  0.00     0.049 A 
ATOM     55  H   UNL A   1      45.288  28.617  27.780  1.00  0.00     0.167 HD
ATOM     56  C   UNL A   1      43.942  30.867  28.854  1.00  0.00     0.074 A 
ATOM     57  C   UNL A   1      42.907  31.693  29.439  1.00  0.00     0.031 C 
ATOM     58  C   UNL A   1      45.203  31.293  28.595  1.00  0.00     0.037 A 
BRANCH  45  59
ATOM     59  C   UNL A   1      48.879  26.952  26.189  1.00  0.00     0.064 A 
ATOM     60  C   UNL A   1      49.221  27.096  24.836  1.00  0.00     0.173 A 
ATOM     61  C   UNL A   1      49.866  26.484  27.069  1.00  0.00     0.173 A 
ATOM     62  F   UNL A   1      48.308  27.526  23.952  1.00  0.00    -0.203 F 
ATOM     63  C   UNL A   1      50.493  26.764  24.380  1.00  0.00     0.198 A 
ATOM     64  C   UNL A   1      51.146  26.179  26.615  1.00  0.00     0.198 A 
ATOM     65  F   UNL A   1      49.592  26.332  28.373  1.00  0.00    -0.203 F 
ATOM     66  F   UNL A   1      50.785  26.869  23.075  1.00  0.00    -0.200 F 
ATOM     67  C   UNL A   1      51.456  26.313  25.270  1.00  0.00     0.200 A 
ATOM     68  F   UNL A   1      52.079  25.753  27.478  1.00  0.00    -0.200 F 
ATOM     69  F   UNL A   1      52.684  26.000  24.830  1.00  0.00    -0.200 F 
ENDBRANCH  45  59
BRANCH  46  70
ATOM     70  C   UNL A   1      39.706  28.949  29.582  1.00  0.00     0.064 A 
ATOM     71  C   UNL A   1      39.395  28.711  30.928  1.00  0.00     0.173 A 
ATOM     72  C   UNL A   1      38.692  29.459  28.759  1.00  0.00     0.173 A 
ATOM     73  F   UNL A   1      40.324  28.199  31.749  1.00  0.00    -0.203 F 
ATOM     74  C   UNL A   1      38.116  28.955  31.424  1.00  0.00     0.198 A 
ATOM     75  C   UNL A   1      37.422  29.729  29.263  1.00  0.00     0.198 A 
ATOM     76  F   UNL A   1      38.937  29.703  27.462  1.00  0.00    -0.203 F 
ATOM     77  F   UNL A   1      37.832  28.673  32.703  1.00  0.00    -0.200 F 
ATOM     78  C   UNL A   1      37.132  29.468  30.594  1.00  0.00     0.200 A 
ATOM     79  F   UNL A   1      36.477  30.235  28.458  1.00  0.00    -0.200 F 
ATOM     80  F   UNL A   1      35.903  29.703  31.072  1.00  0.00    -0.200 F 
ENDBRANCH  46  70
BRANCH  58  81
ATOM     81  C   UNL A   1      45.526  32.725  28.908  1.00  0.00     0.064 A 
ATOM     82  C   UNL A   1      46.094  33.101  30.134  1.00  0.00     0.173 A 
ATOM     83  C   UNL A   1      45.305  33.728  27.952  1.00  0.00     0.173 A 
ATOM     84  F   UNL A   1      46.313  32.182  31.087  1.00  0.00    -0.203 F 
ATOM     85  C   UNL A   1      46.407  34.432  30.399  1.00  0.00     0.198 A 
ATOM     86  C   UNL A   1      45.646  35.053  28.209  1.00  0.00     0.198 A 
ATOM     87  F   UNL A   1      44.771  33.420  26.760  1.00  0.00    -0.203 F 
ATOM     88  F   UNL A   1      46.907  34.775  31.595  1.00  0.00    -0.200 F 
ATOM     89  C   UNL A   1      46.189  35.404  29.435  1.00  0.00     0.200 A 
ATOM     90  F   UNL A   1      45.447  35.989  27.271  1.00  0.00    -0.200 F 
ATOM     91  F   UNL A   1      46.498  36.684  29.690  1.00  0.00    -0.200 F 
ENDBRANCH  58  81
ENDBRANCH  32  33
ENDBRANCH  25  27
ENDBRANCH  24  25
ENDBRANCH  23  24
ENDBRANCH  22  23
ENDBRANCH   1  22
TORSDOF 17
ENDMDL
