MODEL 1
REMARK VINA RESULT:     -12.5      0.000      0.000
REMARK SMILES NS(=O)(=O)c1ccc(-n2nc(C(F)(F)F)cc2-c2ccc(CC(=O)OCCOCCOC(=O)c3ccc(-c4c5nc(c(-c6c(F)c(F)c(F)c(F)c6F)c6ccc([nH]6)c(-c6c(F)c(F)c(F)c(F)c6F)c6nc(c(-c7c(F)c(F)c(F)c(F)c7F)c7ccc4[nH]7)C=C6)C=C5)cc3)cc2)cc1
REMARK SMILES IDX 26 1 25 2 23 3 24 4 22 5 21 6 18 7 19 8 98 9 20 10 97 11
REMARK SMILES IDX 17 12 9 13 10 14 11 15 16 16 8 17 5 18 6 19 100 20 7 21
REMARK SMILES IDX 99 22 2 23 3 24 4 25 1 26 12 29 13 30 14 31 15 32 27 33
REMARK SMILES IDX 28 34 29 35 30 36 31 37 32 38 33 39 34 40 35 41 96 42 36 43
REMARK SMILES IDX 95 44 37 45 38 46 39 47 89 48 40 49 94 50 88 51 90 52 41 53
REMARK SMILES IDX 93 54 87 55 86 56 42 58 74 59 54 60 73 61 55 62 58 63 72 64
REMARK SMILES IDX 91 65 56 66 57 67 71 69 92 70 59 71 43 72 44 73 52 74 45 75
REMARK SMILES IDX 46 76 50 77 53 78 47 79 48 80 51 81 49 82 75 83 76 84 84 85
REMARK SMILES IDX 77 86 78 87 82 88 85 89 79 90 80 91 83 92 81 93 60 94 61 95
REMARK SMILES IDX 69 96 62 97 63 98 67 99 70 100 64 101 65 102 68 103 66 104
REMARK H PARENT 1 27 1 28 90 57 58 68
REMARK Flexibility Score: inf
ROOT
ATOM      1  C   UNL A   1      40.172  19.808  26.152  1.00  0.00     0.261 C 
ENDROOT
BRANCH   1   2
ATOM      2  O   UNL A   1      39.462  20.969  25.682  1.00  0.00    -0.463 OA
BRANCH   2   3
ATOM      3  C   UNL A   1      39.545  22.047  26.510  1.00  0.00     0.310 C 
ATOM      4  O   UNL A   1      40.043  22.020  27.632  1.00  0.00    -0.252 OA
BRANCH   3   5
ATOM      5  C   UNL A   1      38.863  23.289  25.995  1.00  0.00     0.158 C 
BRANCH   5   6
ATOM      6  C   UNL A   1      37.388  23.262  25.669  1.00  0.00    -0.037 A 
ATOM      7  C   UNL A   1      34.648  23.591  25.053  1.00  0.00     0.000 A 
ATOM      8  C   UNL A   1      35.607  23.485  24.036  1.00  0.00     0.010 A 
ATOM      9  C   UNL A   1      35.071  23.518  26.384  1.00  0.00     0.010 A 
ATOM     10  C   UNL A   1      36.958  23.307  24.338  1.00  0.00     0.005 A 
ATOM     11  C   UNL A   1      36.428  23.349  26.688  1.00  0.00     0.005 A 
BRANCH   7  12
ATOM     12  C   UNL A   1      33.234  23.798  24.716  1.00  0.00     0.075 A 
ATOM     13  N   UNL A   1      32.346  22.824  24.255  1.00  0.00    -0.233 N 
ATOM     14  N   UNL A   1      31.220  23.379  23.734  1.00  0.00    -0.163 NA
ATOM     15  C   UNL A   1      31.295  24.688  24.048  1.00  0.00     0.167 A 
ATOM     16  C   UNL A   1      32.535  24.987  24.663  1.00  0.00     0.064 A 
BRANCH  13  17
ATOM     17  C   UNL A   1      32.491  21.405  24.314  1.00  0.00     0.065 A 
ATOM     18  C   UNL A   1      32.866  18.620  24.351  1.00  0.00     0.082 A 
ATOM     19  C   UNL A   1      32.460  19.264  23.190  1.00  0.00     0.024 A 
ATOM     20  C   UNL A   1      33.065  19.362  25.518  1.00  0.00     0.024 A 
ATOM     21  C   UNL A   1      32.281  20.644  23.163  1.00  0.00     0.030 A 
ATOM     22  C   UNL A   1      32.891  20.760  25.495  1.00  0.00     0.030 A 
BRANCH  18  23
ATOM     23  S   UNL A   1      33.331  16.910  24.289  1.00  0.00     0.238 S 
ATOM     24  O   UNL A   1      33.617  16.559  22.934  1.00  0.00    -0.207 OA
ATOM     25  O   UNL A   1      32.410  16.171  25.138  1.00  0.00    -0.207 OA
BRANCH  23  26
ATOM     26  N   UNL A   1      34.803  16.841  25.102  1.00  0.00    -0.225 NA
ATOM     27  H   UNL A   1      35.459  17.495  24.675  1.00  0.00     0.137 HD
ATOM     28  H   UNL A   1      35.179  15.895  25.045  1.00  0.00     0.137 HD
ENDBRANCH  23  26
ENDBRANCH  18  23
ENDBRANCH  13  17
BRANCH  15  29
ATOM     29  C   UNL A   1      30.217  25.694  23.737  1.00  0.00     0.435 C 
ATOM     30  F   UNL A   1      30.624  26.673  22.889  1.00  0.00    -0.164 F 
ATOM     31  F   UNL A   1      29.114  25.108  23.199  1.00  0.00    -0.164 F 
ATOM     32  F   UNL A   1      29.790  26.325  24.869  1.00  0.00    -0.164 F 
ENDBRANCH  15  29
ENDBRANCH   7  12
ENDBRANCH   5   6
ENDBRANCH   3   5
ENDBRANCH   2   3
ENDBRANCH   1   2
BRANCH   1  33
ATOM     33  C   UNL A   1      41.690  19.790  25.919  1.00  0.00     0.202 C 
BRANCH  33  34
ATOM     34  O   UNL A   1      42.331  18.539  25.733  1.00  0.00    -0.374 OA
BRANCH  34  35
ATOM     35  C   UNL A   1      43.541  18.307  26.439  1.00  0.00     0.202 C 
BRANCH  35  36
ATOM     36  C   UNL A   1      44.828  18.250  25.630  1.00  0.00     0.261 C 
BRANCH  36  37
ATOM     37  O   UNL A   1      45.399  19.541  25.349  1.00  0.00    -0.460 OA
BRANCH  37  38
ATOM     38  C   UNL A   1      44.875  20.185  24.270  1.00  0.00     0.338 C 
ATOM     39  O   UNL A   1      44.624  19.698  23.180  1.00  0.00    -0.246 OA
BRANCH  38  40
ATOM     40  C   UNL A   1      45.011  21.641  24.491  1.00  0.00     0.060 A 
ATOM     41  C   UNL A   1      45.883  22.012  25.521  1.00  0.00     0.016 A 
ATOM     42  C   UNL A   1      44.063  22.545  23.992  1.00  0.00     0.016 A 
ATOM     43  C   UNL A   1      45.646  23.188  26.212  1.00  0.00     0.010 A 
ATOM     44  C   UNL A   1      43.837  23.730  24.683  1.00  0.00     0.010 A 
ATOM     45  C   UNL A   1      44.572  24.006  25.841  1.00  0.00    -0.014 A 
BRANCH  45  46
ATOM     46  C   UNL A   1      44.377  25.252  26.581  1.00  0.00     0.031 A 
ATOM     47  C   UNL A   1      45.512  26.163  26.442  1.00  0.00     0.074 A 
ATOM     48  C   UNL A   1      43.317  25.607  27.336  1.00  0.00     0.049 A 
ATOM     49  N   UNL A   1      46.353  26.446  27.378  1.00  0.00    -0.248 NA
ATOM     50  C   UNL A   1      45.838  26.712  25.121  1.00  0.00     0.031 C 
ATOM     51  C   UNL A   1      42.096  24.848  27.475  1.00  0.00     0.029 A 
ATOM     52  N   UNL A   1      43.059  26.725  28.093  1.00  0.00    -0.354 N 
ATOM     53  C   UNL A   1      47.164  27.416  26.831  1.00  0.00     0.074 A 
ATOM     54  C   UNL A   1      46.940  27.405  25.406  1.00  0.00     0.031 C 
ATOM     55  C   UNL A   1      41.137  25.580  28.069  1.00  0.00     0.029 A 
ATOM     56  C   UNL A   1      41.731  26.826  28.506  1.00  0.00     0.049 A 
ATOM     57  H   UNL A   1      43.747  27.391  28.323  1.00  0.00     0.167 HD
ATOM     58  C   UNL A   1      47.672  28.380  27.635  1.00  0.00     0.037 A 
ATOM     59  C   UNL A   1      41.115  27.799  29.218  1.00  0.00     0.037 A 
ATOM     60  C   UNL A   1      47.627  28.022  29.027  1.00  0.00     0.049 A 
ATOM     61  C   UNL A   1      42.131  28.450  30.065  1.00  0.00     0.074 A 
ATOM     62  C   UNL A   1      48.296  27.132  29.839  1.00  0.00     0.029 A 
ATOM     63  N   UNL A   1      46.492  28.404  29.694  1.00  0.00    -0.354 N 
ATOM     64  N   UNL A   1      42.670  27.880  31.107  1.00  0.00    -0.248 NA
ATOM     65  C   UNL A   1      42.795  29.663  29.600  1.00  0.00     0.031 C 
ATOM     66  C   UNL A   1      47.461  26.901  30.971  1.00  0.00     0.029 A 
ATOM     67  C   UNL A   1      46.299  27.652  30.827  1.00  0.00     0.049 A 
ATOM     68  H   UNL A   1      45.891  29.126  29.398  1.00  0.00     0.167 HD
ATOM     69  C   UNL A   1      43.955  28.377  31.121  1.00  0.00     0.074 A 
ATOM     70  C   UNL A   1      43.914  29.592  30.325  1.00  0.00     0.031 C 
ATOM     71  C   UNL A   1      45.001  27.574  31.458  1.00  0.00     0.037 A 
BRANCH  58  72
ATOM     72  C   UNL A   1      47.763  29.804  27.184  1.00  0.00     0.064 A 
ATOM     73  C   UNL A   1      48.987  30.480  27.264  1.00  0.00     0.173 A 
ATOM     74  C   UNL A   1      46.622  30.598  26.929  1.00  0.00     0.173 A 
ATOM     75  F   UNL A   1      50.109  29.814  27.576  1.00  0.00    -0.203 F 
ATOM     76  C   UNL A   1      49.064  31.862  27.091  1.00  0.00     0.198 A 
ATOM     77  C   UNL A   1      46.710  31.965  26.695  1.00  0.00     0.198 A 
ATOM     78  F   UNL A   1      45.382  30.097  27.010  1.00  0.00    -0.203 F 
ATOM     79  F   UNL A   1      50.236  32.488  27.264  1.00  0.00    -0.200 F 
ATOM     80  C   UNL A   1      47.930  32.601  26.794  1.00  0.00     0.200 A 
ATOM     81  F   UNL A   1      45.595  32.666  26.445  1.00  0.00    -0.200 F 
ATOM     82  F   UNL A   1      48.001  33.930  26.655  1.00  0.00    -0.200 F 
ENDBRANCH  58  72
BRANCH  59  83
ATOM     83  C   UNL A   1      39.684  28.179  29.241  1.00  0.00     0.064 A 
ATOM     84  C   UNL A   1      38.938  28.199  30.432  1.00  0.00     0.173 A 
ATOM     85  C   UNL A   1      39.082  28.782  28.119  1.00  0.00     0.173 A 
ATOM     86  F   UNL A   1      39.449  27.686  31.560  1.00  0.00    -0.203 F 
ATOM     87  C   UNL A   1      37.681  28.806  30.502  1.00  0.00     0.198 A 
ATOM     88  C   UNL A   1      37.822  29.378  28.190  1.00  0.00     0.198 A 
ATOM     89  F   UNL A   1      39.749  28.885  26.959  1.00  0.00    -0.203 F 
ATOM     90  F   UNL A   1      37.030  28.863  31.673  1.00  0.00    -0.200 F 
ATOM     91  C   UNL A   1      37.128  29.405  29.383  1.00  0.00     0.200 A 
ATOM     92  F   UNL A   1      37.310  29.992  27.116  1.00  0.00    -0.200 F 
ATOM     93  F   UNL A   1      35.954  30.044  29.465  1.00  0.00    -0.200 F 
ENDBRANCH  59  83
BRANCH  71  94
ATOM     94  C   UNL A   1      44.722  26.448  32.405  1.00  0.00     0.064 A 
ATOM     95  C   UNL A   1      44.669  26.570  33.803  1.00  0.00     0.173 A 
ATOM     96  C   UNL A   1      44.447  25.188  31.850  1.00  0.00     0.173 A 
ATOM     97  F   UNL A   1      44.860  27.755  34.399  1.00  0.00    -0.203 F 
ATOM     98  C   UNL A   1      44.386  25.464  34.606  1.00  0.00     0.198 A 
ATOM     99  C   UNL A   1      44.131  24.097  32.652  1.00  0.00     0.198 A 
ATOM    100  F   UNL A   1      44.458  25.023  30.518  1.00  0.00    -0.203 F 
ATOM    101  F   UNL A   1      44.364  25.588  35.941  1.00  0.00    -0.200 F 
ATOM    102  C   UNL A   1      44.110  24.232  34.030  1.00  0.00     0.200 A 
ATOM    103  F   UNL A   1      43.832  22.919  32.087  1.00  0.00    -0.200 F 
ATOM    104  F   UNL A   1      43.808  23.178  34.801  1.00  0.00    -0.200 F 
ENDBRANCH  71  94
ENDBRANCH  45  46
ENDBRANCH  38  40
ENDBRANCH  37  38
ENDBRANCH  36  37
ENDBRANCH  35  36
ENDBRANCH  34  35
ENDBRANCH  33  34
ENDBRANCH   1  33
TORSDOF 20
ENDMDL
MODEL 2
REMARK VINA RESULT:     -12.0      1.284      1.663
REMARK SMILES NS(=O)(=O)c1ccc(-n2nc(C(F)(F)F)cc2-c2ccc(CC(=O)OCCOCCOC(=O)c3ccc(-c4c5nc(c(-c6c(F)c(F)c(F)c(F)c6F)c6ccc([nH]6)c(-c6c(F)c(F)c(F)c(F)c6F)c6nc(c(-c7c(F)c(F)c(F)c(F)c7F)c7ccc4[nH]7)C=C6)C=C5)cc3)cc2)cc1
REMARK SMILES IDX 26 1 25 2 23 3 24 4 22 5 21 6 18 7 19 8 98 9 20 10 97 11
REMARK SMILES IDX 17 12 9 13 10 14 11 15 16 16 8 17 5 18 6 19 100 20 7 21
REMARK SMILES IDX 99 22 2 23 3 24 4 25 1 26 12 29 13 30 14 31 15 32 27 33
REMARK SMILES IDX 28 34 29 35 30 36 31 37 32 38 33 39 34 40 35 41 96 42 36 43
REMARK SMILES IDX 95 44 37 45 38 46 39 47 89 48 40 49 94 50 88 51 90 52 41 53
REMARK SMILES IDX 93 54 87 55 86 56 42 58 74 59 54 60 73 61 55 62 58 63 72 64
REMARK SMILES IDX 91 65 56 66 57 67 71 69 92 70 59 71 43 72 44 73 52 74 45 75
REMARK SMILES IDX 46 76 50 77 53 78 47 79 48 80 51 81 49 82 75 83 76 84 84 85
REMARK SMILES IDX 77 86 78 87 82 88 85 89 79 90 80 91 83 92 81 93 60 94 61 95
REMARK SMILES IDX 69 96 62 97 63 98 67 99 70 100 64 101 65 102 68 103 66 104
REMARK H PARENT 1 27 1 28 90 57 58 68
REMARK Flexibility Score: inf
ROOT
ATOM      1  C   UNL A   1      42.061  21.034  27.769  1.00  0.00     0.261 C 
ENDROOT
BRANCH   1   2
ATOM      2  O   UNL A   1      40.861  21.828  27.773  1.00  0.00    -0.463 OA
BRANCH   2   3
ATOM      3  C   UNL A   1      40.545  22.368  26.563  1.00  0.00     0.310 C 
ATOM      4  O   UNL A   1      41.083  23.363  26.088  1.00  0.00    -0.252 OA
BRANCH   3   5
ATOM      5  C   UNL A   1      39.375  21.714  25.870  1.00  0.00     0.158 C 
BRANCH   5   6
ATOM      6  C   UNL A   1      38.126  22.514  25.578  1.00  0.00    -0.037 A 
ATOM      7  C   UNL A   1      35.606  23.749  25.234  1.00  0.00     0.000 A 
ATOM      8  C   UNL A   1      36.422  24.070  26.328  1.00  0.00     0.010 A 
ATOM      9  C   UNL A   1      36.068  22.811  24.306  1.00  0.00     0.010 A 
ATOM     10  C   UNL A   1      37.673  23.473  26.491  1.00  0.00     0.005 A 
ATOM     11  C   UNL A   1      37.320  22.204  24.473  1.00  0.00     0.005 A 
BRANCH   7  12
ATOM     12  C   UNL A   1      34.284  24.371  25.092  1.00  0.00     0.075 A 
ATOM     13  N   UNL A   1      33.134  23.755  24.593  1.00  0.00    -0.233 N 
ATOM     14  N   UNL A   1      32.170  24.665  24.289  1.00  0.00    -0.163 NA
ATOM     15  C   UNL A   1      32.623  25.835  24.784  1.00  0.00     0.167 A 
ATOM     16  C   UNL A   1      33.935  25.690  25.295  1.00  0.00     0.064 A 
BRANCH  13  17
ATOM     17  C   UNL A   1      32.888  22.359  24.423  1.00  0.00     0.065 A 
ATOM     18  C   UNL A   1      32.505  19.604  24.025  1.00  0.00     0.082 A 
ATOM     19  C   UNL A   1      32.480  20.484  22.951  1.00  0.00     0.024 A 
ATOM     20  C   UNL A   1      32.697  20.097  25.317  1.00  0.00     0.024 A 
ATOM     21  C   UNL A   1      32.678  21.849  23.141  1.00  0.00     0.030 A 
ATOM     22  C   UNL A   1      32.903  21.477  25.515  1.00  0.00     0.030 A 
BRANCH  18  23
ATOM     23  S   UNL A   1      32.507  17.856  23.726  1.00  0.00     0.238 S 
ATOM     24  O   UNL A   1      31.620  17.228  24.654  1.00  0.00    -0.207 OA
ATOM     25  O   UNL A   1      33.888  17.445  23.523  1.00  0.00    -0.207 OA
BRANCH  23  26
ATOM     26  N   UNL A   1      31.788  17.683  22.214  1.00  0.00    -0.225 NA
ATOM     27  H   UNL A   1      30.964  17.088  22.296  1.00  0.00     0.137 HD
ATOM     28  H   UNL A   1      32.453  17.258  21.568  1.00  0.00     0.137 HD
ENDBRANCH  23  26
ENDBRANCH  18  23
ENDBRANCH  13  17
BRANCH  15  29
ATOM     29  C   UNL A   1      31.843  27.124  24.749  1.00  0.00     0.435 C 
ATOM     30  F   UNL A   1      31.678  27.685  25.974  1.00  0.00    -0.164 F 
ATOM     31  F   UNL A   1      32.426  28.050  23.942  1.00  0.00    -0.164 F 
ATOM     32  F   UNL A   1      30.589  26.929  24.248  1.00  0.00    -0.164 F 
ENDBRANCH  15  29
ENDBRANCH   7  12
ENDBRANCH   5   6
ENDBRANCH   3   5
ENDBRANCH   2   3
ENDBRANCH   1   2
BRANCH   1  33
ATOM     33  C   UNL A   1      41.900  19.548  27.417  1.00  0.00     0.202 C 
BRANCH  33  34
ATOM     34  O   UNL A   1      42.113  19.145  26.073  1.00  0.00    -0.374 OA
BRANCH  34  35
ATOM     35  C   UNL A   1      43.391  18.623  25.737  1.00  0.00     0.202 C 
BRANCH  35  36
ATOM     36  C   UNL A   1      44.112  19.240  24.548  1.00  0.00     0.261 C 
BRANCH  36  37
ATOM     37  O   UNL A   1      44.272  20.667  24.639  1.00  0.00    -0.460 OA
BRANCH  37  38
ATOM     38  C   UNL A   1      45.534  21.092  24.928  1.00  0.00     0.338 C 
ATOM     39  O   UNL A   1      46.457  20.410  25.340  1.00  0.00    -0.246 OA
BRANCH  38  40
ATOM     40  C   UNL A   1      45.510  22.567  25.033  1.00  0.00     0.060 A 
ATOM     41  C   UNL A   1      46.275  23.106  26.072  1.00  0.00     0.016 A 
ATOM     42  C   UNL A   1      44.509  23.325  24.410  1.00  0.00     0.016 A 
ATOM     43  C   UNL A   1      45.881  24.301  26.648  1.00  0.00     0.010 A 
ATOM     44  C   UNL A   1      44.124  24.530  24.986  1.00  0.00     0.010 A 
ATOM     45  C   UNL A   1      44.755  24.972  26.153  1.00  0.00    -0.014 A 
BRANCH  45  46
ATOM     46  C   UNL A   1      44.392  26.244  26.774  1.00  0.00     0.031 A 
ATOM     47  C   UNL A   1      45.394  27.282  26.541  1.00  0.00     0.074 A 
ATOM     48  C   UNL A   1      43.290  26.524  27.503  1.00  0.00     0.049 A 
ATOM     49  N   UNL A   1      46.186  27.762  27.438  1.00  0.00    -0.248 NA
ATOM     50  C   UNL A   1      45.648  27.742  25.171  1.00  0.00     0.031 C 
ATOM     51  C   UNL A   1      42.183  25.623  27.723  1.00  0.00     0.029 A 
ATOM     52  N   UNL A   1      42.882  27.663  28.154  1.00  0.00    -0.354 N 
ATOM     53  C   UNL A   1      46.861  28.777  26.796  1.00  0.00     0.074 A 
ATOM     54  C   UNL A   1      46.646  28.602  25.380  1.00  0.00     0.031 C 
ATOM     55  C   UNL A   1      41.131  26.273  28.254  1.00  0.00     0.029 A 
ATOM     56  C   UNL A   1      41.551  27.623  28.567  1.00  0.00     0.049 A 
ATOM     57  H   UNL A   1      43.473  28.434  28.314  1.00  0.00     0.167 HD
ATOM     58  C   UNL A   1      47.232  29.871  27.500  1.00  0.00     0.037 A 
ATOM     59  C   UNL A   1      40.806  28.568  29.189  1.00  0.00     0.037 A 
ATOM     60  C   UNL A   1      47.230  29.644  28.920  1.00  0.00     0.049 A 
ATOM     61  C   UNL A   1      41.722  29.426  29.963  1.00  0.00     0.074 A 
ATOM     62  C   UNL A   1      48.009  28.932  29.806  1.00  0.00     0.029 A 
ATOM     63  N   UNL A   1      46.052  29.931  29.558  1.00  0.00    -0.354 N 
ATOM     64  N   UNL A   1      42.329  29.035  31.048  1.00  0.00    -0.248 NA
ATOM     65  C   UNL A   1      42.219  30.668  29.380  1.00  0.00     0.031 C 
ATOM     66  C   UNL A   1      47.209  28.699  30.962  1.00  0.00     0.029 A 
ATOM     67  C   UNL A   1      45.957  29.271  30.758  1.00  0.00     0.049 A 
ATOM     68  H   UNL A   1      45.360  30.534  29.201  1.00  0.00     0.167 HD
ATOM     69  C   UNL A   1      43.536  29.699  31.004  1.00  0.00     0.074 A 
ATOM     70  C   UNL A   1      43.334  30.817  30.098  1.00  0.00     0.031 C 
ATOM     71  C   UNL A   1      44.678  29.079  31.406  1.00  0.00     0.037 A 
BRANCH  58  72
ATOM     72  C   UNL A   1      47.132  31.246  26.916  1.00  0.00     0.064 A 
ATOM     73  C   UNL A   1      48.260  32.076  26.901  1.00  0.00     0.173 A 
ATOM     74  C   UNL A   1      45.895  31.861  26.619  1.00  0.00     0.173 A 
ATOM     75  F   UNL A   1      49.463  31.592  27.245  1.00  0.00    -0.203 F 
ATOM     76  C   UNL A   1      48.155  33.435  26.599  1.00  0.00     0.198 A 
ATOM     77  C   UNL A   1      45.803  33.199  26.256  1.00  0.00     0.198 A 
ATOM     78  F   UNL A   1      44.731  31.216  26.777  1.00  0.00    -0.203 F 
ATOM     79  F   UNL A   1      49.239  34.218  26.683  1.00  0.00    -0.200 F 
ATOM     80  C   UNL A   1      46.931  33.991  26.264  1.00  0.00     0.200 A 
ATOM     81  F   UNL A   1      44.603  33.725  25.970  1.00  0.00    -0.200 F 
ATOM     82  F   UNL A   1      46.828  35.299  26.000  1.00  0.00    -0.200 F 
ENDBRANCH  58  72
BRANCH  59  83
ATOM     83  C   UNL A   1      39.337  28.753  29.190  1.00  0.00     0.064 A 
ATOM     84  C   UNL A   1      38.583  28.720  30.375  1.00  0.00     0.173 A 
ATOM     85  C   UNL A   1      38.672  29.223  28.040  1.00  0.00     0.173 A 
ATOM     86  F   UNL A   1      39.146  28.327  31.526  1.00  0.00    -0.203 F 
ATOM     87  C   UNL A   1      37.255  29.156  30.413  1.00  0.00     0.198 A 
ATOM     88  C   UNL A   1      37.343  29.647  28.080  1.00  0.00     0.198 A 
ATOM     89  F   UNL A   1      39.331  29.368  26.880  1.00  0.00    -0.203 F 
ATOM     90  F   UNL A   1      36.589  29.172  31.577  1.00  0.00    -0.200 F 
ATOM     91  C   UNL A   1      36.639  29.629  29.268  1.00  0.00     0.200 A 
ATOM     92  F   UNL A   1      36.765  30.142  26.979  1.00  0.00    -0.200 F 
ATOM     93  F   UNL A   1      35.388  30.107  29.317  1.00  0.00    -0.200 F 
ENDBRANCH  59  83
BRANCH  71  94
ATOM     94  C   UNL A   1      44.550  28.020  32.457  1.00  0.00     0.064 A 
ATOM     95  C   UNL A   1      44.507  28.263  33.839  1.00  0.00     0.173 A 
ATOM     96  C   UNL A   1      44.416  26.691  32.025  1.00  0.00     0.173 A 
ATOM     97  F   UNL A   1      44.567  29.512  34.322  1.00  0.00    -0.203 F 
ATOM     98  C   UNL A   1      44.370  27.211  34.745  1.00  0.00     0.198 A 
ATOM     99  C   UNL A   1      44.244  25.650  32.930  1.00  0.00     0.198 A 
ATOM    100  F   UNL A   1      44.424  26.407  30.713  1.00  0.00    -0.203 F 
ATOM    101  F   UNL A   1      44.356  27.454  36.064  1.00  0.00    -0.200 F 
ATOM    102  C   UNL A   1      44.230  25.907  34.290  1.00  0.00     0.200 A 
ATOM    103  F   UNL A   1      44.076  24.398  32.481  1.00  0.00    -0.200 F 
ATOM    104  F   UNL A   1      44.067  24.900  35.160  1.00  0.00    -0.200 F 
ENDBRANCH  71  94
ENDBRANCH  45  46
ENDBRANCH  38  40
ENDBRANCH  37  38
ENDBRANCH  36  37
ENDBRANCH  35  36
ENDBRANCH  34  35
ENDBRANCH  33  34
ENDBRANCH   1  33
TORSDOF 20
ENDMDL
MODEL 3
REMARK VINA RESULT:     -11.9      3.623      9.008
REMARK SMILES NS(=O)(=O)c1ccc(-n2nc(C(F)(F)F)cc2-c2ccc(CC(=O)OCCOCCOC(=O)c3ccc(-c4c5nc(c(-c6c(F)c(F)c(F)c(F)c6F)c6ccc([nH]6)c(-c6c(F)c(F)c(F)c(F)c6F)c6nc(c(-c7c(F)c(F)c(F)c(F)c7F)c7ccc4[nH]7)C=C6)C=C5)cc3)cc2)cc1
REMARK SMILES IDX 26 1 25 2 23 3 24 4 22 5 21 6 18 7 19 8 98 9 20 10 97 11
REMARK SMILES IDX 17 12 9 13 10 14 11 15 16 16 8 17 5 18 6 19 100 20 7 21
REMARK SMILES IDX 99 22 2 23 3 24 4 25 1 26 12 29 13 30 14 31 15 32 27 33
REMARK SMILES IDX 28 34 29 35 30 36 31 37 32 38 33 39 34 40 35 41 96 42 36 43
REMARK SMILES IDX 95 44 37 45 38 46 39 47 89 48 40 49 94 50 88 51 90 52 41 53
REMARK SMILES IDX 93 54 87 55 86 56 42 58 74 59 54 60 73 61 55 62 58 63 72 64
REMARK SMILES IDX 91 65 56 66 57 67 71 69 92 70 59 71 43 72 44 73 52 74 45 75
REMARK SMILES IDX 46 76 50 77 53 78 47 79 48 80 51 81 49 82 75 83 76 84 84 85
REMARK SMILES IDX 77 86 78 87 82 88 85 89 79 90 80 91 83 92 81 93 60 94 61 95
REMARK SMILES IDX 69 96 62 97 63 98 67 99 70 100 64 101 65 102 68 103 66 104
REMARK H PARENT 1 27 1 28 90 57 58 68
REMARK Flexibility Score: inf
ROOT
ATOM      1  C   UNL A   1      30.742  29.158  24.093  1.00  0.00     0.261 C 
ENDROOT
BRANCH   1   2
ATOM      2  O   UNL A   1      30.263  27.806  24.217  1.00  0.00    -0.463 OA
BRANCH   2   3
ATOM      3  C   UNL A   1      30.535  27.017  23.141  1.00  0.00     0.310 C 
ATOM      4  O   UNL A   1      30.657  27.433  21.993  1.00  0.00    -0.252 OA
BRANCH   3   5
ATOM      5  C   UNL A   1      30.561  25.539  23.437  1.00  0.00     0.158 C 
BRANCH   5   6
ATOM      6  C   UNL A   1      31.838  24.885  23.911  1.00  0.00    -0.037 A 
ATOM      7  C   UNL A   1      34.378  24.011  24.796  1.00  0.00     0.000 A 
ATOM      8  C   UNL A   1      33.391  24.404  25.712  1.00  0.00     0.010 A 
ATOM      9  C   UNL A   1      34.078  24.049  23.431  1.00  0.00     0.010 A 
ATOM     10  C   UNL A   1      32.132  24.821  25.278  1.00  0.00     0.005 A 
ATOM     11  C   UNL A   1      32.817  24.476  22.994  1.00  0.00     0.005 A 
BRANCH   7  12
ATOM     12  C   UNL A   1      35.703  23.596  25.271  1.00  0.00     0.075 A 
ATOM     13  N   UNL A   1      36.097  22.291  25.575  1.00  0.00    -0.233 N 
ATOM     14  N   UNL A   1      37.258  22.270  26.283  1.00  0.00    -0.163 NA
ATOM     15  C   UNL A   1      37.711  23.540  26.253  1.00  0.00     0.167 A 
ATOM     16  C   UNL A   1      36.771  24.394  25.628  1.00  0.00     0.064 A 
BRANCH  13  17
ATOM     17  C   UNL A   1      35.456  21.071  25.203  1.00  0.00     0.065 A 
ATOM     18  C   UNL A   1      34.240  18.618  24.570  1.00  0.00     0.082 A 
ATOM     19  C   UNL A   1      35.622  18.727  24.631  1.00  0.00     0.024 A 
ATOM     20  C   UNL A   1      33.448  19.745  24.801  1.00  0.00     0.024 A 
ATOM     21  C   UNL A   1      36.231  19.936  24.952  1.00  0.00     0.030 A 
ATOM     22  C   UNL A   1      34.058  20.971  25.132  1.00  0.00     0.030 A 
BRANCH  18  23
ATOM     23  S   UNL A   1      33.492  17.018  24.412  1.00  0.00     0.238 S 
ATOM     24  O   UNL A   1      33.923  16.198  25.502  1.00  0.00    -0.207 OA
ATOM     25  O   UNL A   1      33.588  16.622  23.016  1.00  0.00    -0.207 OA
BRANCH  23  26
ATOM     26  N   UNL A   1      31.851  17.290  24.663  1.00  0.00    -0.225 NA
ATOM     27  H   UNL A   1      31.639  18.273  24.495  1.00  0.00     0.137 HD
ATOM     28  H   UNL A   1      31.609  17.048  25.624  1.00  0.00     0.137 HD
ENDBRANCH  23  26
ENDBRANCH  18  23
ENDBRANCH  13  17
BRANCH  15  29
ATOM     29  C   UNL A   1      39.023  23.982  26.849  1.00  0.00     0.435 C 
ATOM     30  F   UNL A   1      39.953  24.309  25.916  1.00  0.00    -0.164 F 
ATOM     31  F   UNL A   1      38.871  25.048  27.679  1.00  0.00    -0.164 F 
ATOM     32  F   UNL A   1      39.578  22.994  27.609  1.00  0.00    -0.164 F 
ENDBRANCH  15  29
ENDBRANCH   7  12
ENDBRANCH   5   6
ENDBRANCH   3   5
ENDBRANCH   2   3
ENDBRANCH   1   2
BRANCH   1  33
ATOM     33  C   UNL A   1      31.675  29.661  25.203  1.00  0.00     0.202 C 
BRANCH  33  34
ATOM     34  O   UNL A   1      31.408  30.925  25.790  1.00  0.00    -0.374 OA
BRANCH  34  35
ATOM     35  C   UNL A   1      32.225  31.331  26.879  1.00  0.00     0.202 C 
BRANCH  35  36
ATOM     36  C   UNL A   1      33.307  30.368  27.344  1.00  0.00     0.261 C 
BRANCH  36  37
ATOM     37  O   UNL A   1      34.644  30.886  27.214  1.00  0.00    -0.460 OA
BRANCH  37  38
ATOM     38  C   UNL A   1      35.253  31.218  28.386  1.00  0.00     0.338 C 
ATOM     39  O   UNL A   1      34.826  31.974  29.242  1.00  0.00    -0.246 OA
BRANCH  38  40
ATOM     40  C   UNL A   1      36.677  30.826  28.291  1.00  0.00     0.060 A 
ATOM     41  C   UNL A   1      36.923  29.617  27.633  1.00  0.00     0.016 A 
ATOM     42  C   UNL A   1      37.646  31.401  29.125  1.00  0.00     0.016 A 
ATOM     43  C   UNL A   1      38.029  28.867  27.995  1.00  0.00     0.010 A 
ATOM     44  C   UNL A   1      38.760  30.648  29.477  1.00  0.00     0.010 A 
ATOM     45  C   UNL A   1      38.903  29.349  28.977  1.00  0.00    -0.014 A 
BRANCH  45  46
ATOM     46  C   UNL A   1      40.072  28.536  29.307  1.00  0.00     0.031 A 
ATOM     47  C   UNL A   1      40.312  28.469  30.748  1.00  0.00     0.074 A 
ATOM     48  C   UNL A   1      40.899  27.893  28.457  1.00  0.00     0.049 A 
ATOM     49  N   UNL A   1      41.289  29.042  31.363  1.00  0.00    -0.248 NA
ATOM     50  C   UNL A   1      39.316  27.829  31.614  1.00  0.00     0.031 C 
ATOM     51  C   UNL A   1      40.718  27.796  27.027  1.00  0.00     0.029 A 
ATOM     52  N   UNL A   1      42.033  27.144  28.664  1.00  0.00    -0.354 N 
ATOM     53  C   UNL A   1      41.175  28.613  32.667  1.00  0.00     0.074 A 
ATOM     54  C   UNL A   1      39.859  28.040  32.813  1.00  0.00     0.031 C 
ATOM     55  C   UNL A   1      41.545  26.877  26.496  1.00  0.00     0.029 A 
ATOM     56  C   UNL A   1      42.442  26.427  27.541  1.00  0.00     0.049 A 
ATOM     57  H   UNL A   1      42.511  27.117  29.524  1.00  0.00     0.167 HD
ATOM     58  C   UNL A   1      42.296  28.440  33.405  1.00  0.00     0.037 A 
ATOM     59  C   UNL A   1      43.475  25.564  27.390  1.00  0.00     0.037 A 
ATOM     60  C   UNL A   1      43.435  29.122  32.852  1.00  0.00     0.049 A 
ATOM     61  C   UNL A   1      44.517  25.935  28.364  1.00  0.00     0.074 A 
ATOM     62  C   UNL A   1      43.836  30.435  32.732  1.00  0.00     0.029 A 
ATOM     63  N   UNL A   1      44.190  28.388  31.975  1.00  0.00    -0.354 N 
ATOM     64  N   UNL A   1      45.255  27.005  28.255  1.00  0.00    -0.248 NA
ATOM     65  C   UNL A   1      44.572  25.265  29.659  1.00  0.00     0.031 C 
ATOM     66  C   UNL A   1      44.780  30.481  31.665  1.00  0.00     0.029 A 
ATOM     67  C   UNL A   1      44.934  29.197  31.153  1.00  0.00     0.049 A 
ATOM     68  H   UNL A   1      44.197  27.403  31.940  1.00  0.00     0.167 HD
ATOM     69  C   UNL A   1      45.473  27.384  29.562  1.00  0.00     0.074 A 
ATOM     70  C   UNL A   1      45.219  26.197  30.362  1.00  0.00     0.031 C 
ATOM     71  C   UNL A   1      45.474  28.701  29.907  1.00  0.00     0.037 A 
BRANCH  58  72
ATOM     72  C   UNL A   1      42.443  27.283  34.343  1.00  0.00     0.064 A 
ATOM     73  C   UNL A   1      42.263  27.477  35.718  1.00  0.00     0.173 A 
ATOM     74  C   UNL A   1      43.018  26.052  33.952  1.00  0.00     0.173 A 
ATOM     75  F   UNL A   1      41.795  28.645  36.181  1.00  0.00    -0.203 F 
ATOM     76  C   UNL A   1      42.629  26.497  36.642  1.00  0.00     0.198 A 
ATOM     77  C   UNL A   1      43.322  25.054  34.869  1.00  0.00     0.198 A 
ATOM     78  F   UNL A   1      43.404  25.823  32.689  1.00  0.00    -0.203 F 
ATOM     79  F   UNL A   1      42.528  26.752  37.953  1.00  0.00    -0.200 F 
ATOM     80  C   UNL A   1      43.144  25.283  36.217  1.00  0.00     0.200 A 
ATOM     81  F   UNL A   1      43.852  23.900  34.439  1.00  0.00    -0.200 F 
ATOM     82  F   UNL A   1      43.518  24.355  37.105  1.00  0.00    -0.200 F 
ENDBRANCH  58  72
BRANCH  59  83
ATOM     83  C   UNL A   1      43.635  24.455  26.422  1.00  0.00     0.064 A 
ATOM     84  C   UNL A   1      44.547  24.524  25.355  1.00  0.00     0.173 A 
ATOM     85  C   UNL A   1      43.072  23.190  26.680  1.00  0.00     0.173 A 
ATOM     86  F   UNL A   1      45.164  25.678  25.064  1.00  0.00    -0.203 F 
ATOM     87  C   UNL A   1      44.892  23.393  24.610  1.00  0.00     0.198 A 
ATOM     88  C   UNL A   1      43.411  22.065  25.927  1.00  0.00     0.198 A 
ATOM     89  F   UNL A   1      42.255  23.006  27.729  1.00  0.00    -0.203 F 
ATOM     90  F   UNL A   1      45.816  23.486  23.642  1.00  0.00    -0.200 F 
ATOM     91  C   UNL A   1      44.332  22.162  24.903  1.00  0.00     0.200 A 
ATOM     92  F   UNL A   1      42.899  20.869  26.241  1.00  0.00    -0.200 F 
ATOM     93  F   UNL A   1      44.712  21.065  24.232  1.00  0.00    -0.200 F 
ENDBRANCH  59  83
BRANCH  71  94
ATOM     94  C   UNL A   1      45.899  29.683  28.859  1.00  0.00     0.064 A 
ATOM     95  C   UNL A   1      45.032  30.317  27.956  1.00  0.00     0.173 A 
ATOM     96  C   UNL A   1      47.259  30.029  28.810  1.00  0.00     0.173 A 
ATOM     97  F   UNL A   1      43.713  30.081  27.985  1.00  0.00    -0.203 F 
ATOM     98  C   UNL A   1      45.518  31.232  27.021  1.00  0.00     0.198 A 
ATOM     99  C   UNL A   1      47.733  30.969  27.901  1.00  0.00     0.198 A 
ATOM    100  F   UNL A   1      48.126  29.473  29.670  1.00  0.00    -0.203 F 
ATOM    101  F   UNL A   1      44.683  31.811  26.146  1.00  0.00    -0.200 F 
ATOM    102  C   UNL A   1      46.865  31.564  27.000  1.00  0.00     0.200 A 
ATOM    103  F   UNL A   1      49.030  31.308  27.909  1.00  0.00    -0.200 F 
ATOM    104  F   UNL A   1      47.327  32.466  26.123  1.00  0.00    -0.200 F 
ENDBRANCH  71  94
ENDBRANCH  45  46
ENDBRANCH  38  40
ENDBRANCH  37  38
ENDBRANCH  36  37
ENDBRANCH  35  36
ENDBRANCH  34  35
ENDBRANCH  33  34
ENDBRANCH   1  33
TORSDOF 20
ENDMDL
