MODEL 1
REMARK VINA RESULT:     -10.9      0.000      0.000
REMARK SMILES CC(C)[C@H](NS(=O)(=O)c1cccc(F)c1)C(=O)OCCOCCOC(=O)c1ccc(-c2c3nc(c(-c4c(F)c(F)c(F)c(F)c4F)c4ccc([nH]4)c(-c4c(F)c(F)c(F)c(F)c4F)c4nc(c(-c5c(F)c(F)c(F)c(F)c5F)c5ccc2[nH]5)C=C4)C=C3)cc1
REMARK SMILES IDX 20 1 19 2 18 3 16 4 17 5 4 6 2 7 1 8 3 9 5 10 6 12 7 13 8 14
REMARK SMILES IDX 9 15 10 16 15 17 11 18 13 19 12 20 14 21 21 22 22 23 23 24
REMARK SMILES IDX 24 25 25 26 26 27 27 28 28 29 89 30 29 31 88 32 30 33 31 34
REMARK SMILES IDX 32 35 82 36 33 37 87 38 81 39 83 40 34 41 86 42 80 43 79 44
REMARK SMILES IDX 35 46 67 47 47 48 66 49 48 50 51 51 65 52 84 53 49 54 50 55
REMARK SMILES IDX 64 57 85 58 52 59 36 60 37 61 45 62 38 63 39 64 43 65 46 66
REMARK SMILES IDX 40 67 41 68 44 69 42 70 68 71 69 72 77 73 70 74 71 75 75 76
REMARK SMILES IDX 78 77 72 78 73 79 76 80 74 81 53 82 54 83 62 84 55 85 56 86
REMARK SMILES IDX 60 87 63 88 57 89 58 90 61 91 59 92
REMARK H PARENT 5 11 83 45 51 56
REMARK Flexibility Score: inf
ROOT
ATOM      1  C   UNL A   1      32.033  28.730  23.016  1.00  0.00     0.202 C 
ENDROOT
BRANCH   1   2
ATOM      2  C   UNL A   1      30.627  28.154  22.823  1.00  0.00     0.261 C 
BRANCH   2   3
ATOM      3  O   UNL A   1      30.592  26.720  22.769  1.00  0.00    -0.462 OA
BRANCH   3   4
ATOM      4  C   UNL A   1      30.183  26.134  23.925  1.00  0.00     0.324 C 
ATOM      5  O   UNL A   1      29.105  26.350  24.474  1.00  0.00    -0.250 OA
BRANCH   4   6
ATOM      6  C   UNL A   1      31.194  25.157  24.504  1.00  0.00     0.182 C 
BRANCH   6   7
ATOM      7  C   UNL A   1      32.555  25.187  23.764  1.00  0.00     0.012 C 
ATOM      8  C   UNL A   1      33.781  25.476  24.637  1.00  0.00     0.009 C 
ATOM      9  C   UNL A   1      32.770  23.866  23.016  1.00  0.00     0.009 C 
ENDBRANCH   6   7
BRANCH   6  10
ATOM     10  N   UNL A   1      30.672  23.811  24.852  1.00  0.00    -0.197 NA
ATOM     11  H   UNL A   1      31.043  23.191  24.131  1.00  0.00     0.142 HD
BRANCH  10  12
ATOM     12  S   UNL A   1      30.898  22.989  26.283  1.00  0.00     0.241 S 
ATOM     13  O   UNL A   1      31.321  23.977  27.250  1.00  0.00    -0.207 OA
ATOM     14  O   UNL A   1      29.746  22.145  26.501  1.00  0.00    -0.207 OA
BRANCH  12  15
ATOM     15  C   UNL A   1      32.316  21.971  25.937  1.00  0.00     0.085 A 
ATOM     16  C   UNL A   1      32.190  20.881  25.065  1.00  0.00     0.022 A 
ATOM     17  C   UNL A   1      33.569  22.367  26.410  1.00  0.00     0.061 A 
ATOM     18  C   UNL A   1      33.335  20.229  24.607  1.00  0.00     0.004 A 
ATOM     19  C   UNL A   1      34.697  21.701  25.948  1.00  0.00     0.124 A 
ATOM     20  C   UNL A   1      34.594  20.651  25.039  1.00  0.00     0.039 A 
ATOM     21  F   UNL A   1      35.909  22.109  26.344  1.00  0.00    -0.207 F 
ENDBRANCH  12  15
ENDBRANCH  10  12
ENDBRANCH   6  10
ENDBRANCH   4   6
ENDBRANCH   3   4
ENDBRANCH   2   3
ENDBRANCH   1   2
BRANCH   1  22
ATOM     22  O   UNL A   1      32.421  29.067  24.343  1.00  0.00    -0.374 OA
BRANCH  22  23
ATOM     23  C   UNL A   1      31.396  29.437  25.266  1.00  0.00     0.202 C 
BRANCH  23  24
ATOM     24  C   UNL A   1      31.795  30.392  26.396  1.00  0.00     0.261 C 
BRANCH  24  25
ATOM     25  O   UNL A   1      33.174  30.794  26.277  1.00  0.00    -0.460 OA
BRANCH  25  26
ATOM     26  C   UNL A   1      33.602  31.634  27.248  1.00  0.00     0.338 C 
ATOM     27  O   UNL A   1      32.963  32.515  27.800  1.00  0.00    -0.246 OA
BRANCH  26  28
ATOM     28  C   UNL A   1      34.940  31.234  27.720  1.00  0.00     0.060 A 
ATOM     29  C   UNL A   1      35.144  29.876  28.002  1.00  0.00     0.016 A 
ATOM     30  C   UNL A   1      35.932  32.175  28.000  1.00  0.00     0.016 A 
ATOM     31  C   UNL A   1      36.319  29.462  28.624  1.00  0.00     0.010 A 
ATOM     32  C   UNL A   1      37.106  31.758  28.638  1.00  0.00     0.010 A 
ATOM     33  C   UNL A   1      37.285  30.408  28.990  1.00  0.00    -0.014 A 
BRANCH  33  34
ATOM     34  C   UNL A   1      38.400  29.998  29.876  1.00  0.00     0.031 A 
ATOM     35  C   UNL A   1      39.424  29.026  29.358  1.00  0.00     0.074 A 
ATOM     36  C   UNL A   1      38.529  30.522  31.106  1.00  0.00     0.049 A 
ATOM     37  N   UNL A   1      40.474  28.528  29.959  1.00  0.00    -0.248 NA
ATOM     38  C   UNL A   1      39.244  28.557  27.974  1.00  0.00     0.031 C 
ATOM     39  C   UNL A   1      37.628  31.505  31.701  1.00  0.00     0.029 A 
ATOM     40  N   UNL A   1      39.473  30.295  32.077  1.00  0.00    -0.354 N 
ATOM     41  C   UNL A   1      41.076  27.687  29.032  1.00  0.00     0.074 A 
ATOM     42  C   UNL A   1      40.266  27.724  27.833  1.00  0.00     0.031 C 
ATOM     43  C   UNL A   1      38.058  31.794  32.941  1.00  0.00     0.029 A 
ATOM     44  C   UNL A   1      39.248  30.996  33.234  1.00  0.00     0.049 A 
ATOM     45  H   UNL A   1      40.238  29.688  31.954  1.00  0.00     0.167 HD
ATOM     46  C   UNL A   1      42.209  26.959  29.166  1.00  0.00     0.037 A 
ATOM     47  C   UNL A   1      39.917  30.981  34.404  1.00  0.00     0.037 A 
ATOM     48  C   UNL A   1      43.019  26.926  30.355  1.00  0.00     0.049 A 
ATOM     49  C   UNL A   1      41.136  30.109  34.552  1.00  0.00     0.074 A 
ATOM     50  C   UNL A   1      44.194  26.232  30.576  1.00  0.00     0.029 A 
ATOM     51  N   UNL A   1      42.733  27.616  31.522  1.00  0.00    -0.354 N 
ATOM     52  N   UNL A   1      41.707  29.329  33.666  1.00  0.00    -0.248 NA
ATOM     53  C   UNL A   1      41.805  30.115  35.862  1.00  0.00     0.031 C 
ATOM     54  C   UNL A   1      44.597  26.466  31.894  1.00  0.00     0.029 A 
ATOM     55  C   UNL A   1      43.697  27.343  32.478  1.00  0.00     0.049 A 
ATOM     56  H   UNL A   1      41.959  28.211  31.653  1.00  0.00     0.167 HD
ATOM     57  C   UNL A   1      42.806  28.767  34.300  1.00  0.00     0.074 A 
ATOM     58  C   UNL A   1      42.832  29.303  35.645  1.00  0.00     0.031 C 
ATOM     59  C   UNL A   1      43.712  27.886  33.812  1.00  0.00     0.037 A 
BRANCH  46  60
ATOM     60  C   UNL A   1      42.641  26.119  28.002  1.00  0.00     0.064 A 
ATOM     61  C   UNL A   1      43.523  26.637  27.042  1.00  0.00     0.173 A 
ATOM     62  C   UNL A   1      42.125  24.831  27.799  1.00  0.00     0.173 A 
ATOM     63  F   UNL A   1      44.038  27.867  27.191  1.00  0.00    -0.203 F 
ATOM     64  C   UNL A   1      43.863  25.898  25.913  1.00  0.00     0.198 A 
ATOM     65  C   UNL A   1      42.487  24.086  26.679  1.00  0.00     0.198 A 
ATOM     66  F   UNL A   1      41.288  24.289  28.696  1.00  0.00    -0.203 F 
ATOM     67  F   UNL A   1      44.686  26.424  24.994  1.00  0.00    -0.200 F 
ATOM     68  C   UNL A   1      43.347  24.624  25.733  1.00  0.00     0.200 A 
ATOM     69  F   UNL A   1      42.001  22.848  26.514  1.00  0.00    -0.200 F 
ATOM     70  F   UNL A   1      43.679  23.913  24.646  1.00  0.00    -0.200 F 
ENDBRANCH  46  60
BRANCH  47  71
ATOM     71  C   UNL A   1      39.437  31.817  35.533  1.00  0.00     0.064 A 
ATOM     72  C   UNL A   1      39.909  33.126  35.717  1.00  0.00     0.173 A 
ATOM     73  C   UNL A   1      38.509  31.320  36.457  1.00  0.00     0.173 A 
ATOM     74  F   UNL A   1      40.794  33.647  34.856  1.00  0.00    -0.203 F 
ATOM     75  C   UNL A   1      39.485  33.898  36.795  1.00  0.00     0.198 A 
ATOM     76  C   UNL A   1      38.068  32.102  37.522  1.00  0.00     0.198 A 
ATOM     77  F   UNL A   1      38.010  30.084  36.306  1.00  0.00    -0.203 F 
ATOM     78  F   UNL A   1      39.970  35.135  36.964  1.00  0.00    -0.200 F 
ATOM     79  C   UNL A   1      38.562  33.387  37.695  1.00  0.00     0.200 A 
ATOM     80  F   UNL A   1      37.157  31.614  38.376  1.00  0.00    -0.200 F 
ATOM     81  F   UNL A   1      38.143  34.134  38.726  1.00  0.00    -0.200 F 
ENDBRANCH  47  71
BRANCH  59  82
ATOM     82  C   UNL A   1      44.823  27.450  34.720  1.00  0.00     0.064 A 
ATOM     83  C   UNL A   1      46.038  28.153  34.744  1.00  0.00     0.173 A 
ATOM     84  C   UNL A   1      44.716  26.290  35.498  1.00  0.00     0.173 A 
ATOM     85  F   UNL A   1      46.191  29.265  34.009  1.00  0.00    -0.203 F 
ATOM     86  C   UNL A   1      47.111  27.699  35.506  1.00  0.00     0.198 A 
ATOM     87  C   UNL A   1      45.785  25.851  36.277  1.00  0.00     0.198 A 
ATOM     88  F   UNL A   1      43.572  25.591  35.515  1.00  0.00    -0.203 F 
ATOM     89  F   UNL A   1      48.273  28.367  35.489  1.00  0.00    -0.200 F 
ATOM     90  C   UNL A   1      46.984  26.551  36.272  1.00  0.00     0.200 A 
ATOM     91  F   UNL A   1      45.654  24.753  37.033  1.00  0.00    -0.200 F 
ATOM     92  F   UNL A   1      48.016  26.117  37.008  1.00  0.00    -0.200 F 
ENDBRANCH  59  82
ENDBRANCH  33  34
ENDBRANCH  26  28
ENDBRANCH  25  26
ENDBRANCH  24  25
ENDBRANCH  23  24
ENDBRANCH  22  23
ENDBRANCH   1  22
TORSDOF 18
ENDMDL
MODEL 2
REMARK VINA RESULT:     -10.8      4.575      7.417
REMARK SMILES CC(C)[C@H](NS(=O)(=O)c1cccc(F)c1)C(=O)OCCOCCOC(=O)c1ccc(-c2c3nc(c(-c4c(F)c(F)c(F)c(F)c4F)c4ccc([nH]4)c(-c4c(F)c(F)c(F)c(F)c4F)c4nc(c(-c5c(F)c(F)c(F)c(F)c5F)c5ccc2[nH]5)C=C4)C=C3)cc1
REMARK SMILES IDX 20 1 19 2 18 3 16 4 17 5 4 6 2 7 1 8 3 9 5 10 6 12 7 13 8 14
REMARK SMILES IDX 9 15 10 16 15 17 11 18 13 19 12 20 14 21 21 22 22 23 23 24
REMARK SMILES IDX 24 25 25 26 26 27 27 28 28 29 89 30 29 31 88 32 30 33 31 34
REMARK SMILES IDX 32 35 82 36 33 37 87 38 81 39 83 40 34 41 86 42 80 43 79 44
REMARK SMILES IDX 35 46 67 47 47 48 66 49 48 50 51 51 65 52 84 53 49 54 50 55
REMARK SMILES IDX 64 57 85 58 52 59 36 60 37 61 45 62 38 63 39 64 43 65 46 66
REMARK SMILES IDX 40 67 41 68 44 69 42 70 68 71 69 72 77 73 70 74 71 75 75 76
REMARK SMILES IDX 78 77 72 78 73 79 76 80 74 81 53 82 54 83 62 84 55 85 56 86
REMARK SMILES IDX 60 87 63 88 57 89 58 90 61 91 59 92
REMARK H PARENT 5 11 83 45 51 56
REMARK Flexibility Score: inf
ROOT
ATOM      1  C   UNL A   1      36.987  22.241  24.836  1.00  0.00     0.202 C 
ENDROOT
BRANCH   1   2
ATOM      2  C   UNL A   1      36.906  23.525  25.666  1.00  0.00     0.261 C 
BRANCH   2   3
ATOM      3  O   UNL A   1      35.830  24.394  25.283  1.00  0.00    -0.462 OA
BRANCH   3   4
ATOM      4  C   UNL A   1      34.665  24.153  25.941  1.00  0.00     0.324 C 
ATOM      5  O   UNL A   1      34.520  23.304  26.817  1.00  0.00    -0.250 OA
BRANCH   4   6
ATOM      6  C   UNL A   1      33.517  25.044  25.495  1.00  0.00     0.182 C 
BRANCH   6   7
ATOM      7  C   UNL A   1      33.985  26.450  25.040  1.00  0.00     0.012 C 
ATOM      8  C   UNL A   1      33.410  26.944  23.708  1.00  0.00     0.009 C 
ATOM      9  C   UNL A   1      33.678  27.480  26.133  1.00  0.00     0.009 C 
ENDBRANCH   6   7
BRANCH   6  10
ATOM     10  N   UNL A   1      32.297  25.008  26.342  1.00  0.00    -0.197 NA
ATOM     11  H   UNL A   1      32.097  25.985  26.555  1.00  0.00     0.142 HD
BRANCH  10  12
ATOM     12  S   UNL A   1      30.822  24.344  25.945  1.00  0.00     0.241 S 
ATOM     13  O   UNL A   1      30.278  23.812  27.175  1.00  0.00    -0.207 OA
ATOM     14  O   UNL A   1      30.102  25.302  25.139  1.00  0.00    -0.207 OA
BRANCH  12  15
ATOM     15  C   UNL A   1      31.273  22.948  24.939  1.00  0.00     0.085 A 
ATOM     16  C   UNL A   1      31.437  23.114  23.557  1.00  0.00     0.022 A 
ATOM     17  C   UNL A   1      31.614  21.744  25.560  1.00  0.00     0.061 A 
ATOM     18  C   UNL A   1      32.017  22.092  22.804  1.00  0.00     0.004 A 
ATOM     19  C   UNL A   1      32.183  20.736  24.791  1.00  0.00     0.124 A 
ATOM     20  C   UNL A   1      32.404  20.905  23.427  1.00  0.00     0.039 A 
ATOM     21  F   UNL A   1      32.573  19.600  25.383  1.00  0.00    -0.207 F 
ENDBRANCH  12  15
ENDBRANCH  10  12
ENDBRANCH   6  10
ENDBRANCH   4   6
ENDBRANCH   3   4
ENDBRANCH   2   3
ENDBRANCH   1   2
BRANCH   1  22
ATOM     22  O   UNL A   1      37.206  21.024  25.542  1.00  0.00    -0.374 OA
BRANCH  22  23
ATOM     23  C   UNL A   1      37.934  19.988  24.880  1.00  0.00     0.202 C 
BRANCH  23  24
ATOM     24  C   UNL A   1      39.158  19.428  25.613  1.00  0.00     0.261 C 
BRANCH  24  25
ATOM     25  O   UNL A   1      40.193  20.423  25.738  1.00  0.00    -0.460 OA
BRANCH  25  26
ATOM     26  C   UNL A   1      40.824  20.432  26.935  1.00  0.00     0.338 C 
ATOM     27  O   UNL A   1      41.341  19.486  27.506  1.00  0.00    -0.246 OA
BRANCH  26  28
ATOM     28  C   UNL A   1      40.984  21.814  27.422  1.00  0.00     0.060 A 
ATOM     29  C   UNL A   1      40.352  22.831  26.691  1.00  0.00     0.016 A 
ATOM     30  C   UNL A   1      41.829  22.125  28.488  1.00  0.00     0.016 A 
ATOM     31  C   UNL A   1      40.613  24.166  26.986  1.00  0.00     0.010 A 
ATOM     32  C   UNL A   1      42.101  23.468  28.773  1.00  0.00     0.010 A 
ATOM     33  C   UNL A   1      41.527  24.491  27.997  1.00  0.00    -0.014 A 
BRANCH  33  34
ATOM     34  C   UNL A   1      41.994  25.892  28.127  1.00  0.00     0.031 A 
ATOM     35  C   UNL A   1      43.318  26.278  27.530  1.00  0.00     0.074 A 
ATOM     36  C   UNL A   1      41.225  26.820  28.723  1.00  0.00     0.049 A 
ATOM     37  N   UNL A   1      43.922  27.440  27.530  1.00  0.00    -0.248 NA
ATOM     38  C   UNL A   1      44.061  25.215  26.834  1.00  0.00     0.031 C 
ATOM     39  C   UNL A   1      39.906  26.577  29.298  1.00  0.00     0.029 A 
ATOM     40  N   UNL A   1      41.451  28.156  28.944  1.00  0.00    -0.354 N 
ATOM     41  C   UNL A   1      45.111  27.247  26.841  1.00  0.00     0.074 A 
ATOM     42  C   UNL A   1      45.158  25.854  26.453  1.00  0.00     0.031 C 
ATOM     43  C   UNL A   1      39.438  27.727  29.813  1.00  0.00     0.029 A 
ATOM     44  C   UNL A   1      40.438  28.777  29.628  1.00  0.00     0.049 A 
ATOM     45  H   UNL A   1      42.262  28.623  28.639  1.00  0.00     0.167 HD
ATOM     46  C   UNL A   1      46.072  28.154  26.549  1.00  0.00     0.037 A 
ATOM     47  C   UNL A   1      40.338  30.047  30.071  1.00  0.00     0.037 A 
ATOM     48  C   UNL A   1      46.024  29.541  26.929  1.00  0.00     0.049 A 
ATOM     49  C   UNL A   1      41.453  31.020  29.793  1.00  0.00     0.074 A 
ATOM     50  C   UNL A   1      46.944  30.539  26.661  1.00  0.00     0.029 A 
ATOM     51  N   UNL A   1      45.001  30.122  27.661  1.00  0.00    -0.354 N 
ATOM     52  N   UNL A   1      42.567  30.833  29.128  1.00  0.00    -0.248 NA
ATOM     53  C   UNL A   1      41.297  32.382  30.327  1.00  0.00     0.031 C 
ATOM     54  C   UNL A   1      46.498  31.716  27.269  1.00  0.00     0.029 A 
ATOM     55  C   UNL A   1      45.279  31.462  27.876  1.00  0.00     0.049 A 
ATOM     56  H   UNL A   1      44.196  29.653  27.981  1.00  0.00     0.167 HD
ATOM     57  C   UNL A   1      43.234  32.050  29.147  1.00  0.00     0.074 A 
ATOM     58  C   UNL A   1      42.396  32.976  29.881  1.00  0.00     0.031 C 
ATOM     59  C   UNL A   1      44.434  32.372  28.606  1.00  0.00     0.037 A 
BRANCH  46  60
ATOM     60  C   UNL A   1      47.275  27.678  25.792  1.00  0.00     0.064 A 
ATOM     61  C   UNL A   1      48.440  27.299  26.477  1.00  0.00     0.173 A 
ATOM     62  C   UNL A   1      47.300  27.666  24.390  1.00  0.00     0.173 A 
ATOM     63  F   UNL A   1      48.465  27.299  27.818  1.00  0.00    -0.203 F 
ATOM     64  C   UNL A   1      49.591  26.938  25.783  1.00  0.00     0.198 A 
ATOM     65  C   UNL A   1      48.448  27.283  23.701  1.00  0.00     0.198 A 
ATOM     66  F   UNL A   1      46.207  28.009  23.693  1.00  0.00    -0.203 F 
ATOM     67  F   UNL A   1      50.701  26.607  26.458  1.00  0.00    -0.200 F 
ATOM     68  C   UNL A   1      49.594  26.928  24.397  1.00  0.00     0.200 A 
ATOM     69  F   UNL A   1      48.445  27.257  22.360  1.00  0.00    -0.200 F 
ATOM     70  F   UNL A   1      50.703  26.577  23.731  1.00  0.00    -0.200 F 
ENDBRANCH  46  60
BRANCH  47  71
ATOM     71  C   UNL A   1      39.135  30.463  30.833  1.00  0.00     0.064 A 
ATOM     72  C   UNL A   1      39.083  30.338  32.230  1.00  0.00     0.173 A 
ATOM     73  C   UNL A   1      38.008  30.980  30.180  1.00  0.00     0.173 A 
ATOM     74  F   UNL A   1      40.137  29.854  32.900  1.00  0.00    -0.203 F 
ATOM     75  C   UNL A   1      37.940  30.697  32.941  1.00  0.00     0.198 A 
ATOM     76  C   UNL A   1      36.875  31.360  30.895  1.00  0.00     0.198 A 
ATOM     77  F   UNL A   1      38.022  31.142  28.848  1.00  0.00    -0.203 F 
ATOM     78  F   UNL A   1      37.906  30.543  34.272  1.00  0.00    -0.200 F 
ATOM     79  C   UNL A   1      36.839  31.211  32.274  1.00  0.00     0.200 A 
ATOM     80  F   UNL A   1      35.821  31.880  30.250  1.00  0.00    -0.200 F 
ATOM     81  F   UNL A   1      35.744  31.567  32.960  1.00  0.00    -0.200 F 
ENDBRANCH  47  71
BRANCH  59  82
ATOM     82  C   UNL A   1      44.917  33.783  28.763  1.00  0.00     0.064 A 
ATOM     83  C   UNL A   1      44.586  34.758  27.810  1.00  0.00     0.173 A 
ATOM     84  C   UNL A   1      45.776  34.146  29.809  1.00  0.00     0.173 A 
ATOM     85  F   UNL A   1      43.774  34.455  26.786  1.00  0.00    -0.203 F 
ATOM     86  C   UNL A   1      45.112  36.044  27.891  1.00  0.00     0.198 A 
ATOM     87  C   UNL A   1      46.282  35.442  29.900  1.00  0.00     0.198 A 
ATOM     88  F   UNL A   1      46.112  33.252  30.750  1.00  0.00    -0.203 F 
ATOM     89  F   UNL A   1      44.809  36.950  26.951  1.00  0.00    -0.200 F 
ATOM     90  C   UNL A   1      45.957  36.386  28.936  1.00  0.00     0.200 A 
ATOM     91  F   UNL A   1      47.083  35.776  30.921  1.00  0.00    -0.200 F 
ATOM     92  F   UNL A   1      46.459  37.625  29.015  1.00  0.00    -0.200 F 
ENDBRANCH  59  82
ENDBRANCH  33  34
ENDBRANCH  26  28
ENDBRANCH  25  26
ENDBRANCH  24  25
ENDBRANCH  23  24
ENDBRANCH  22  23
ENDBRANCH   1  22
TORSDOF 18
ENDMDL
MODEL 3
REMARK VINA RESULT:     -10.8      1.663      7.609
REMARK SMILES CC(C)[C@H](NS(=O)(=O)c1cccc(F)c1)C(=O)OCCOCCOC(=O)c1ccc(-c2c3nc(c(-c4c(F)c(F)c(F)c(F)c4F)c4ccc([nH]4)c(-c4c(F)c(F)c(F)c(F)c4F)c4nc(c(-c5c(F)c(F)c(F)c(F)c5F)c5ccc2[nH]5)C=C4)C=C3)cc1
REMARK SMILES IDX 20 1 19 2 18 3 16 4 17 5 4 6 2 7 1 8 3 9 5 10 6 12 7 13 8 14
REMARK SMILES IDX 9 15 10 16 15 17 11 18 13 19 12 20 14 21 21 22 22 23 23 24
REMARK SMILES IDX 24 25 25 26 26 27 27 28 28 29 89 30 29 31 88 32 30 33 31 34
REMARK SMILES IDX 32 35 82 36 33 37 87 38 81 39 83 40 34 41 86 42 80 43 79 44
REMARK SMILES IDX 35 46 67 47 47 48 66 49 48 50 51 51 65 52 84 53 49 54 50 55
REMARK SMILES IDX 64 57 85 58 52 59 36 60 37 61 45 62 38 63 39 64 43 65 46 66
REMARK SMILES IDX 40 67 41 68 44 69 42 70 68 71 69 72 77 73 70 74 71 75 75 76
REMARK SMILES IDX 78 77 72 78 73 79 76 80 74 81 53 82 54 83 62 84 55 85 56 86
REMARK SMILES IDX 60 87 63 88 57 89 58 90 61 91 59 92
REMARK H PARENT 5 11 83 45 51 56
REMARK Flexibility Score: inf
ROOT
ATOM      1  C   UNL A   1      32.369  28.450  23.546  1.00  0.00     0.202 C 
ENDROOT
BRANCH   1   2
ATOM      2  C   UNL A   1      31.863  27.079  24.005  1.00  0.00     0.261 C 
BRANCH   2   3
ATOM      3  O   UNL A   1      32.908  26.119  24.222  1.00  0.00    -0.462 OA
BRANCH   3   4
ATOM      4  C   UNL A   1      32.486  24.827  24.189  1.00  0.00     0.324 C 
ATOM      5  O   UNL A   1      31.508  24.428  23.563  1.00  0.00    -0.250 OA
BRANCH   4   6
ATOM      6  C   UNL A   1      33.348  23.883  25.013  1.00  0.00     0.182 C 
BRANCH   6   7
ATOM      7  C   UNL A   1      32.930  23.829  26.504  1.00  0.00     0.012 C 
ATOM      8  C   UNL A   1      31.486  23.391  26.774  1.00  0.00     0.009 C 
ATOM      9  C   UNL A   1      33.886  22.916  27.281  1.00  0.00     0.009 C 
ENDBRANCH   6   7
BRANCH   6  10
ATOM     10  N   UNL A   1      34.809  23.939  24.749  1.00  0.00    -0.197 NA
ATOM     11  H   UNL A   1      35.230  24.160  25.651  1.00  0.00     0.142 HD
BRANCH  10  12
ATOM     12  S   UNL A   1      35.759  22.726  24.117  1.00  0.00     0.241 S 
ATOM     13  O   UNL A   1      35.022  21.497  24.312  1.00  0.00    -0.207 OA
ATOM     14  O   UNL A   1      36.215  23.148  22.813  1.00  0.00    -0.207 OA
BRANCH  12  15
ATOM     15  C   UNL A   1      37.141  22.678  25.237  1.00  0.00     0.085 A 
ATOM     16  C   UNL A   1      37.961  21.543  25.276  1.00  0.00     0.022 A 
ATOM     17  C   UNL A   1      37.483  23.833  25.943  1.00  0.00     0.061 A 
ATOM     18  C   UNL A   1      39.172  21.591  25.969  1.00  0.00     0.004 A 
ATOM     19  C   UNL A   1      38.689  23.859  26.633  1.00  0.00     0.124 A 
ATOM     20  C   UNL A   1      39.542  22.760  26.638  1.00  0.00     0.039 A 
ATOM     21  F   UNL A   1      39.060  24.981  27.263  1.00  0.00    -0.207 F 
ENDBRANCH  12  15
ENDBRANCH  10  12
ENDBRANCH   6  10
ENDBRANCH   4   6
ENDBRANCH   3   4
ENDBRANCH   2   3
ENDBRANCH   1   2
BRANCH   1  22
ATOM     22  O   UNL A   1      32.543  29.446  24.547  1.00  0.00    -0.374 OA
BRANCH  22  23
ATOM     23  C   UNL A   1      31.381  29.915  25.233  1.00  0.00     0.202 C 
BRANCH  23  24
ATOM     24  C   UNL A   1      31.594  31.006  26.288  1.00  0.00     0.261 C 
BRANCH  24  25
ATOM     25  O   UNL A   1      32.731  30.709  27.123  1.00  0.00    -0.460 OA
BRANCH  25  26
ATOM     26  C   UNL A   1      33.470  31.788  27.472  1.00  0.00     0.338 C 
ATOM     27  O   UNL A   1      33.078  32.931  27.642  1.00  0.00    -0.246 OA
BRANCH  26  28
ATOM     28  C   UNL A   1      34.844  31.380  27.814  1.00  0.00     0.060 A 
ATOM     29  C   UNL A   1      35.079  30.012  28.013  1.00  0.00     0.016 A 
ATOM     30  C   UNL A   1      35.850  32.317  28.058  1.00  0.00     0.016 A 
ATOM     31  C   UNL A   1      36.303  29.581  28.518  1.00  0.00     0.010 A 
ATOM     32  C   UNL A   1      37.075  31.882  28.579  1.00  0.00     0.010 A 
ATOM     33  C   UNL A   1      37.290  30.518  28.850  1.00  0.00    -0.014 A 
BRANCH  33  34
ATOM     34  C   UNL A   1      38.475  30.078  29.623  1.00  0.00     0.031 A 
ATOM     35  C   UNL A   1      38.654  30.574  31.030  1.00  0.00     0.074 A 
ATOM     36  C   UNL A   1      39.354  29.208  29.096  1.00  0.00     0.049 A 
ATOM     37  N   UNL A   1      39.615  30.323  31.883  1.00  0.00    -0.248 NA
ATOM     38  C   UNL A   1      37.607  31.468  31.550  1.00  0.00     0.031 C 
ATOM     39  C   UNL A   1      39.263  28.622  27.762  1.00  0.00     0.029 A 
ATOM     40  N   UNL A   1      40.499  28.667  29.627  1.00  0.00    -0.354 N 
ATOM     41  C   UNL A   1      39.290  31.028  33.034  1.00  0.00     0.074 A 
ATOM     42  C   UNL A   1      38.056  31.734  32.769  1.00  0.00     0.031 C 
ATOM     43  C   UNL A   1      40.314  27.806  27.573  1.00  0.00     0.029 A 
ATOM     44  C   UNL A   1      41.163  27.834  28.763  1.00  0.00     0.049 A 
ATOM     45  H   UNL A   1      40.812  28.858  30.541  1.00  0.00     0.167 HD
ATOM     46  C   UNL A   1      39.958  31.072  34.211  1.00  0.00     0.037 A 
ATOM     47  C   UNL A   1      42.335  27.184  28.911  1.00  0.00     0.037 A 
ATOM     48  C   UNL A   1      41.182  30.366  34.478  1.00  0.00     0.049 A 
ATOM     49  C   UNL A   1      43.094  27.304  30.205  1.00  0.00     0.074 A 
ATOM     50  C   UNL A   1      41.921  30.337  35.648  1.00  0.00     0.029 A 
ATOM     51  N   UNL A   1      41.848  29.568  33.562  1.00  0.00    -0.354 N 
ATOM     52  N   UNL A   1      42.774  27.961  31.294  1.00  0.00    -0.248 NA
ATOM     53  C   UNL A   1      44.379  26.594  30.293  1.00  0.00     0.031 C 
ATOM     54  C   UNL A   1      43.059  29.555  35.425  1.00  0.00     0.029 A 
ATOM     55  C   UNL A   1      43.005  29.061  34.132  1.00  0.00     0.049 A 
ATOM     56  H   UNL A   1      41.545  29.389  32.642  1.00  0.00     0.167 HD
ATOM     57  C   UNL A   1      43.801  27.730  32.198  1.00  0.00     0.074 A 
ATOM     58  C   UNL A   1      44.753  26.863  31.537  1.00  0.00     0.031 C 
ATOM     59  C   UNL A   1      43.942  28.196  33.462  1.00  0.00     0.037 A 
BRANCH  46  60
ATOM     60  C   UNL A   1      39.391  31.928  35.303  1.00  0.00     0.064 A 
ATOM     61  C   UNL A   1      39.754  33.279  35.406  1.00  0.00     0.173 A 
ATOM     62  C   UNL A   1      38.550  31.393  36.289  1.00  0.00     0.173 A 
ATOM     63  F   UNL A   1      40.561  33.834  34.489  1.00  0.00    -0.203 F 
ATOM     64  C   UNL A   1      39.303  34.061  36.465  1.00  0.00     0.198 A 
ATOM     65  C   UNL A   1      38.083  32.186  37.335  1.00  0.00     0.198 A 
ATOM     66  F   UNL A   1      38.167  30.109  36.226  1.00  0.00    -0.203 F 
ATOM     67  F   UNL A   1      39.685  35.343  36.559  1.00  0.00    -0.200 F 
ATOM     68  C   UNL A   1      38.468  33.515  37.427  1.00  0.00     0.200 A 
ATOM     69  F   UNL A   1      37.260  31.662  38.255  1.00  0.00    -0.200 F 
ATOM     70  F   UNL A   1      38.031  34.271  38.445  1.00  0.00    -0.200 F 
ENDBRANCH  46  60
BRANCH  47  71
ATOM     71  C   UNL A   1      42.863  26.365  27.791  1.00  0.00     0.064 A 
ATOM     72  C   UNL A   1      42.568  24.996  27.692  1.00  0.00     0.173 A 
ATOM     73  C   UNL A   1      43.684  26.930  26.806  1.00  0.00     0.173 A 
ATOM     74  F   UNL A   1      41.783  24.411  28.607  1.00  0.00    -0.203 F 
ATOM     75  C   UNL A   1      43.091  24.221  26.660  1.00  0.00     0.198 A 
ATOM     76  C   UNL A   1      44.187  26.158  25.761  1.00  0.00     0.198 A 
ATOM     77  F   UNL A   1      43.971  28.240  26.845  1.00  0.00    -0.203 F 
ATOM     78  F   UNL A   1      42.817  22.911  26.603  1.00  0.00    -0.200 F 
ATOM     79  C   UNL A   1      43.897  24.803  25.694  1.00  0.00     0.200 A 
ATOM     80  F   UNL A   1      44.946  26.728  24.815  1.00  0.00    -0.200 F 
ATOM     81  F   UNL A   1      44.392  24.059  24.694  1.00  0.00    -0.200 F 
ENDBRANCH  47  71
BRANCH  59  82
ATOM     82  C   UNL A   1      45.157  27.772  34.232  1.00  0.00     0.064 A 
ATOM     83  C   UNL A   1      46.344  28.516  34.153  1.00  0.00     0.173 A 
ATOM     84  C   UNL A   1      45.170  26.585  34.977  1.00  0.00     0.173 A 
ATOM     85  F   UNL A   1      46.383  29.655  33.445  1.00  0.00    -0.203 F 
ATOM     86  C   UNL A   1      47.506  28.077  34.782  1.00  0.00     0.198 A 
ATOM     87  C   UNL A   1      46.329  26.161  35.624  1.00  0.00     0.198 A 
ATOM     88  F   UNL A   1      44.057  25.846  35.091  1.00  0.00    -0.203 F 
ATOM     89  F   UNL A   1      48.637  28.786  34.665  1.00  0.00    -0.200 F 
ATOM     90  C   UNL A   1      47.498  26.902  35.518  1.00  0.00     0.200 A 
ATOM     91  F   UNL A   1      46.315  25.036  36.352  1.00  0.00    -0.200 F 
ATOM     92  F   UNL A   1      48.615  26.483  36.125  1.00  0.00    -0.200 F 
ENDBRANCH  59  82
ENDBRANCH  33  34
ENDBRANCH  26  28
ENDBRANCH  25  26
ENDBRANCH  24  25
ENDBRANCH  23  24
ENDBRANCH  22  23
ENDBRANCH   1  22
TORSDOF 18
ENDMDL
