MODEL 1
REMARK VINA RESULT:     -10.8      0.000      0.000
REMARK SMILES CCN(Cc1ccccn1)C(=O)NC(CC)(CC)C(=O)OCCOCCOC(=O)c1ccc(-c2c3nc(c(-c4c(F)c(F)c(F)c(F)c4F)c4ccc([nH]4)c(-c4c(F)c(F)c(F)c(F)c4F)c4nc(c(-c5c(F)c(F)c(F)c(F)c5F)c5ccc2[nH]5)C=C4)C=C3)cc1
REMARK SMILES IDX 23 1 22 2 21 3 19 4 20 5 14 6 13 7 11 8 12 9 3 11 2 12 1 13
REMARK SMILES IDX 4 14 5 15 6 16 10 17 7 18 9 19 8 20 15 21 16 22 17 23 18 24
REMARK SMILES IDX 24 25 25 26 26 27 27 28 28 29 29 30 30 31 31 32 92 33 32 34
REMARK SMILES IDX 91 35 33 36 34 37 35 38 85 39 36 40 90 41 84 42 86 43 37 44
REMARK SMILES IDX 89 45 83 46 82 47 38 49 70 50 50 51 69 52 51 53 54 54 68 55
REMARK SMILES IDX 87 56 52 57 53 58 67 60 88 61 55 62 39 63 40 64 48 65 41 66
REMARK SMILES IDX 42 67 46 68 49 69 43 70 44 71 47 72 45 73 71 74 72 75 80 76
REMARK SMILES IDX 73 77 74 78 78 79 81 80 75 81 76 82 79 83 77 84 56 85 57 86
REMARK SMILES IDX 65 87 58 88 59 89 63 90 66 91 60 92 61 93 64 94 62 95
REMARK H PARENT 13 10 86 48 54 59
REMARK Flexibility Score: inf
ROOT
ATOM      1  C   UNL A   1      36.684  22.269  23.934  1.00  0.00     0.202 C 
ENDROOT
BRANCH   1   2
ATOM      2  C   UNL A   1      35.850  23.236  23.072  1.00  0.00     0.261 C 
BRANCH   2   3
ATOM      3  O   UNL A   1      35.072  24.095  23.898  1.00  0.00    -0.461 OA
BRANCH   3   4
ATOM      4  C   UNL A   1      33.909  24.553  23.390  1.00  0.00     0.331 C 
ATOM      5  O   UNL A   1      33.833  25.316  22.432  1.00  0.00    -0.249 OA
BRANCH   4   6
ATOM      6  C   UNL A   1      32.726  24.150  24.306  1.00  0.00     0.139 C 
BRANCH   6   7
ATOM      7  N   UNL A   1      31.671  25.146  24.699  1.00  0.00    -0.322 N 
ATOM      8  C   UNL A   1      31.317  26.431  24.703  1.00  0.00     0.318 C 
ATOM      9  O   UNL A   1      30.567  26.697  25.655  1.00  0.00    -0.249 OA
ATOM     10  H   UNL A   1      30.942  24.644  25.130  1.00  0.00     0.166 HD
BRANCH   8  11
ATOM     11  N   UNL A   1      31.580  27.375  23.765  1.00  0.00    -0.319 N 
BRANCH  11  12
ATOM     12  C   UNL A   1      32.574  28.398  24.146  1.00  0.00     0.118 C 
ATOM     13  C   UNL A   1      33.697  27.870  25.040  1.00  0.00     0.027 C 
ENDBRANCH  11  12
BRANCH  11  14
ATOM     14  C   UNL A   1      30.945  27.615  22.473  1.00  0.00     0.177 C 
BRANCH  14  15
ATOM     15  C   UNL A   1      29.818  28.612  22.440  1.00  0.00     0.060 A 
ATOM     16  C   UNL A   1      28.627  28.363  23.113  1.00  0.00     0.026 A 
ATOM     17  N   UNL A   1      29.982  29.693  21.636  1.00  0.00    -0.259 NA
ATOM     18  C   UNL A   1      27.579  29.269  22.977  1.00  0.00     0.004 A 
ATOM     19  C   UNL A   1      28.953  30.562  21.530  1.00  0.00     0.111 A 
ATOM     20  C   UNL A   1      27.742  30.392  22.174  1.00  0.00     0.020 A 
ENDBRANCH  14  15
ENDBRANCH  11  14
ENDBRANCH   8  11
ENDBRANCH   6   7
BRANCH   6  21
ATOM     21  C   UNL A   1      33.288  23.476  25.590  1.00  0.00     0.037 C 
ATOM     22  C   UNL A   1      32.318  23.383  26.769  1.00  0.00     0.007 C 
ENDBRANCH   6  21
BRANCH   6  23
ATOM     23  C   UNL A   1      31.972  23.075  23.421  1.00  0.00     0.037 C 
ATOM     24  C   UNL A   1      32.494  21.641  23.540  1.00  0.00     0.007 C 
ENDBRANCH   6  23
ENDBRANCH   4   6
ENDBRANCH   3   4
ENDBRANCH   2   3
ENDBRANCH   1   2
BRANCH   1  25
ATOM     25  O   UNL A   1      36.047  21.293  24.759  1.00  0.00    -0.374 OA
BRANCH  25  26
ATOM     26  C   UNL A   1      36.660  20.030  24.998  1.00  0.00     0.202 C 
BRANCH  26  27
ATOM     27  C   UNL A   1      38.183  19.957  24.917  1.00  0.00     0.261 C 
BRANCH  27  28
ATOM     28  O   UNL A   1      38.810  21.143  25.427  1.00  0.00    -0.460 OA
BRANCH  28  29
ATOM     29  C   UNL A   1      39.801  20.915  26.323  1.00  0.00     0.338 C 
ATOM     30  O   UNL A   1      40.429  19.891  26.494  1.00  0.00    -0.246 OA
BRANCH  29  31
ATOM     31  C   UNL A   1      40.173  22.186  26.972  1.00  0.00     0.060 A 
ATOM     32  C   UNL A   1      39.553  23.351  26.496  1.00  0.00     0.016 A 
ATOM     33  C   UNL A   1      41.136  22.246  27.980  1.00  0.00     0.016 A 
ATOM     34  C   UNL A   1      39.947  24.592  26.978  1.00  0.00     0.010 A 
ATOM     35  C   UNL A   1      41.551  23.495  28.445  1.00  0.00     0.010 A 
ATOM     36  C   UNL A   1      40.995  24.669  27.902  1.00  0.00    -0.014 A 
BRANCH  36  37
ATOM     37  C   UNL A   1      41.697  25.960  28.069  1.00  0.00     0.031 A 
ATOM     38  C   UNL A   1      40.959  27.068  28.767  1.00  0.00     0.074 A 
ATOM     39  C   UNL A   1      42.958  26.135  27.645  1.00  0.00     0.049 A 
ATOM     40  N   UNL A   1      41.320  28.305  28.984  1.00  0.00    -0.248 NA
ATOM     41  C   UNL A   1      39.624  26.729  29.289  1.00  0.00     0.031 C 
ATOM     42  C   UNL A   1      43.784  25.115  27.010  1.00  0.00     0.029 A 
ATOM     43  N   UNL A   1      43.754  27.251  27.679  1.00  0.00    -0.354 N 
ATOM     44  C   UNL A   1      40.256  28.891  29.656  1.00  0.00     0.074 A 
ATOM     45  C   UNL A   1      39.226  27.886  29.790  1.00  0.00     0.031 C 
ATOM     46  C   UNL A   1      44.968  25.662  26.681  1.00  0.00     0.029 A 
ATOM     47  C   UNL A   1      44.963  27.075  27.057  1.00  0.00     0.049 A 
ATOM     48  H   UNL A   1      43.484  28.095  28.107  1.00  0.00     0.167 HD
ATOM     49  C   UNL A   1      40.149  30.157  30.121  1.00  0.00     0.037 A 
ATOM     50  C   UNL A   1      45.935  27.970  26.793  1.00  0.00     0.037 A 
ATOM     51  C   UNL A   1      41.174  31.152  29.974  1.00  0.00     0.049 A 
ATOM     52  C   UNL A   1      45.770  29.395  27.254  1.00  0.00     0.074 A 
ATOM     53  C   UNL A   1      41.178  32.462  30.416  1.00  0.00     0.029 A 
ATOM     54  N   UNL A   1      42.381  30.943  29.321  1.00  0.00    -0.354 N 
ATOM     55  N   UNL A   1      44.772  29.943  27.903  1.00  0.00    -0.248 NA
ATOM     56  C   UNL A   1      46.868  30.324  26.949  1.00  0.00     0.031 C 
ATOM     57  C   UNL A   1      42.365  33.062  29.982  1.00  0.00     0.029 A 
ATOM     58  C   UNL A   1      43.126  32.109  29.321  1.00  0.00     0.049 A 
ATOM     59  H   UNL A   1      42.664  30.092  28.917  1.00  0.00     0.167 HD
ATOM     60  C   UNL A   1      45.126  31.271  28.105  1.00  0.00     0.074 A 
ATOM     61  C   UNL A   1      46.437  31.444  27.513  1.00  0.00     0.031 C 
ATOM     62  C   UNL A   1      44.433  32.256  28.729  1.00  0.00     0.037 A 
BRANCH  49  63
ATOM     63  C   UNL A   1      38.857  30.534  30.784  1.00  0.00     0.064 A 
ATOM     64  C   UNL A   1      37.745  30.971  30.047  1.00  0.00     0.173 A 
ATOM     65  C   UNL A   1      38.739  30.483  32.181  1.00  0.00     0.173 A 
ATOM     66  F   UNL A   1      37.813  31.059  28.710  1.00  0.00    -0.203 F 
ATOM     67  C   UNL A   1      36.577  31.377  30.688  1.00  0.00     0.198 A 
ATOM     68  C   UNL A   1      37.559  30.860  32.816  1.00  0.00     0.198 A 
ATOM     69  F   UNL A   1      39.773  30.075  32.933  1.00  0.00    -0.203 F 
ATOM     70  F   UNL A   1      35.551  31.851  29.968  1.00  0.00    -0.200 F 
ATOM     71  C   UNL A   1      36.483  31.317  32.070  1.00  0.00     0.200 A 
ATOM     72  F   UNL A   1      37.468  30.795  34.151  1.00  0.00    -0.200 F 
ATOM     73  F   UNL A   1      35.361  31.716  32.685  1.00  0.00    -0.200 F 
ENDBRANCH  49  63
BRANCH  50  74
ATOM     74  C   UNL A   1      47.133  27.537  26.030  1.00  0.00     0.064 A 
ATOM     75  C   UNL A   1      48.255  27.005  26.677  1.00  0.00     0.173 A 
ATOM     76  C   UNL A   1      47.164  27.621  24.630  1.00  0.00     0.173 A 
ATOM     77  F   UNL A   1      48.282  26.927  28.015  1.00  0.00    -0.203 F 
ATOM     78  C   UNL A   1      49.365  26.574  25.952  1.00  0.00     0.198 A 
ATOM     79  C   UNL A   1      48.264  27.167  23.905  1.00  0.00     0.198 A 
ATOM     80  F   UNL A   1      46.116  28.126  23.963  1.00  0.00    -0.203 F 
ATOM     81  F   UNL A   1      50.437  26.092  26.596  1.00  0.00    -0.200 F 
ATOM     82  C   UNL A   1      49.364  26.646  24.567  1.00  0.00     0.200 A 
ATOM     83  F   UNL A   1      48.253  27.228  22.566  1.00  0.00    -0.200 F 
ATOM     84  F   UNL A   1      50.426  26.216  23.870  1.00  0.00    -0.200 F 
ENDBRANCH  50  74
BRANCH  62  85
ATOM     85  C   UNL A   1      45.085  33.602  28.839  1.00  0.00     0.064 A 
ATOM     86  C   UNL A   1      45.978  33.904  29.877  1.00  0.00     0.173 A 
ATOM     87  C   UNL A   1      44.875  34.571  27.845  1.00  0.00     0.173 A 
ATOM     88  F   UNL A   1      46.202  33.015  30.856  1.00  0.00    -0.203 F 
ATOM     89  C   UNL A   1      46.631  35.134  29.921  1.00  0.00     0.198 A 
ATOM     90  C   UNL A   1      45.550  35.788  27.879  1.00  0.00     0.198 A 
ATOM     91  F   UNL A   1      44.038  34.325  26.828  1.00  0.00    -0.203 F 
ATOM     92  F   UNL A   1      47.459  35.414  30.936  1.00  0.00    -0.200 F 
ATOM     93  C   UNL A   1      46.425  36.069  28.917  1.00  0.00     0.200 A 
ATOM     94  F   UNL A   1      45.362  36.684  26.900  1.00  0.00    -0.200 F 
ATOM     95  F   UNL A   1      47.067  37.245  28.952  1.00  0.00    -0.200 F 
ENDBRANCH  62  85
ENDBRANCH  36  37
ENDBRANCH  29  31
ENDBRANCH  28  29
ENDBRANCH  27  28
ENDBRANCH  26  27
ENDBRANCH  25  26
ENDBRANCH   1  25
TORSDOF 21
ENDMDL
MODEL 2
REMARK VINA RESULT:     -10.8      4.708      8.007
REMARK SMILES CCN(Cc1ccccn1)C(=O)NC(CC)(CC)C(=O)OCCOCCOC(=O)c1ccc(-c2c3nc(c(-c4c(F)c(F)c(F)c(F)c4F)c4ccc([nH]4)c(-c4c(F)c(F)c(F)c(F)c4F)c4nc(c(-c5c(F)c(F)c(F)c(F)c5F)c5ccc2[nH]5)C=C4)C=C3)cc1
REMARK SMILES IDX 23 1 22 2 21 3 19 4 20 5 14 6 13 7 11 8 12 9 3 11 2 12 1 13
REMARK SMILES IDX 4 14 5 15 6 16 10 17 7 18 9 19 8 20 15 21 16 22 17 23 18 24
REMARK SMILES IDX 24 25 25 26 26 27 27 28 28 29 29 30 30 31 31 32 92 33 32 34
REMARK SMILES IDX 91 35 33 36 34 37 35 38 85 39 36 40 90 41 84 42 86 43 37 44
REMARK SMILES IDX 89 45 83 46 82 47 38 49 70 50 50 51 69 52 51 53 54 54 68 55
REMARK SMILES IDX 87 56 52 57 53 58 67 60 88 61 55 62 39 63 40 64 48 65 41 66
REMARK SMILES IDX 42 67 46 68 49 69 43 70 44 71 47 72 45 73 71 74 72 75 80 76
REMARK SMILES IDX 73 77 74 78 78 79 81 80 75 81 76 82 79 83 77 84 56 85 57 86
REMARK SMILES IDX 65 87 58 88 59 89 63 90 66 91 60 92 61 93 64 94 62 95
REMARK H PARENT 13 10 86 48 54 59
REMARK Flexibility Score: inf
ROOT
ATOM      1  C   UNL A   1      33.694  29.085  27.521  1.00  0.00     0.202 C 
ENDROOT
BRANCH   1   2
ATOM      2  C   UNL A   1      32.458  28.167  27.447  1.00  0.00     0.261 C 
BRANCH   2   3
ATOM      3  O   UNL A   1      32.702  27.071  26.573  1.00  0.00    -0.461 OA
BRANCH   3   4
ATOM      4  C   UNL A   1      31.634  26.356  26.165  1.00  0.00     0.331 C 
ATOM      5  O   UNL A   1      30.588  26.263  26.801  1.00  0.00    -0.249 OA
BRANCH   4   6
ATOM      6  C   UNL A   1      31.992  25.523  24.909  1.00  0.00     0.139 C 
BRANCH   6   7
ATOM      7  N   UNL A   1      31.786  26.072  23.525  1.00  0.00    -0.322 N 
ATOM      8  C   UNL A   1      31.383  27.119  22.805  1.00  0.00     0.318 C 
ATOM      9  O   UNL A   1      30.940  26.770  21.699  1.00  0.00    -0.249 OA
ATOM     10  H   UNL A   1      32.063  25.373  22.890  1.00  0.00     0.166 HD
BRANCH   8  11
ATOM     11  N   UNL A   1      31.514  28.437  23.096  1.00  0.00    -0.319 N 
BRANCH  11  12
ATOM     12  C   UNL A   1      32.779  29.066  22.663  1.00  0.00     0.118 C 
ATOM     13  C   UNL A   1      33.886  29.022  23.717  1.00  0.00     0.027 C 
ENDBRANCH  11  12
BRANCH  11  14
ATOM     14  C   UNL A   1      30.652  29.314  23.880  1.00  0.00     0.177 C 
BRANCH  14  15
ATOM     15  C   UNL A   1      29.657  30.151  23.121  1.00  0.00     0.060 A 
ATOM     16  C   UNL A   1      28.950  31.166  23.755  1.00  0.00     0.026 A 
ATOM     17  N   UNL A   1      29.408  29.788  21.837  1.00  0.00    -0.259 NA
ATOM     18  C   UNL A   1      27.973  31.851  23.038  1.00  0.00     0.004 A 
ATOM     19  C   UNL A   1      28.463  30.476  21.160  1.00  0.00     0.111 A 
ATOM     20  C   UNL A   1      27.725  31.505  21.714  1.00  0.00     0.020 A 
ENDBRANCH  14  15
ENDBRANCH  11  14
ENDBRANCH   8  11
ENDBRANCH   6   7
BRANCH   6  21
ATOM     21  C   UNL A   1      31.300  24.133  25.009  1.00  0.00     0.037 C 
ATOM     22  C   UNL A   1      30.814  23.537  23.688  1.00  0.00     0.007 C 
ENDBRANCH   6  21
BRANCH   6  23
ATOM     23  C   UNL A   1      33.560  25.354  25.059  1.00  0.00     0.037 C 
ATOM     24  C   UNL A   1      34.274  24.739  23.852  1.00  0.00     0.007 C 
ENDBRANCH   6  23
ENDBRANCH   4   6
ENDBRANCH   3   4
ENDBRANCH   2   3
ENDBRANCH   1   2
BRANCH   1  25
ATOM     25  O   UNL A   1      33.572  30.490  27.296  1.00  0.00    -0.374 OA
BRANCH  25  26
ATOM     26  C   UNL A   1      32.348  31.048  26.829  1.00  0.00     0.202 C 
BRANCH  26  27
ATOM     27  C   UNL A   1      32.070  32.514  27.154  1.00  0.00     0.261 C 
BRANCH  27  28
ATOM     28  O   UNL A   1      33.275  33.289  27.228  1.00  0.00    -0.460 OA
BRANCH  28  29
ATOM     29  C   UNL A   1      33.314  34.172  28.256  1.00  0.00     0.338 C 
ATOM     30  O   UNL A   1      32.531  35.068  28.497  1.00  0.00    -0.246 OA
BRANCH  29  31
ATOM     31  C   UNL A   1      34.372  33.773  29.202  1.00  0.00     0.060 A 
ATOM     32  C   UNL A   1      35.677  34.204  28.919  1.00  0.00     0.016 A 
ATOM     33  C   UNL A   1      34.108  32.960  30.304  1.00  0.00     0.016 A 
ATOM     34  C   UNL A   1      36.738  33.763  29.699  1.00  0.00     0.010 A 
ATOM     35  C   UNL A   1      35.178  32.495  31.073  1.00  0.00     0.010 A 
ATOM     36  C   UNL A   1      36.496  32.853  30.734  1.00  0.00    -0.014 A 
BRANCH  36  37
ATOM     37  C   UNL A   1      37.630  32.058  31.256  1.00  0.00     0.031 A 
ATOM     38  C   UNL A   1      38.122  32.376  32.639  1.00  0.00     0.074 A 
ATOM     39  C   UNL A   1      38.184  31.068  30.540  1.00  0.00     0.049 A 
ATOM     40  N   UNL A   1      39.132  31.876  33.302  1.00  0.00    -0.248 NA
ATOM     41  C   UNL A   1      37.368  33.405  33.376  1.00  0.00     0.031 C 
ATOM     42  C   UNL A   1      37.749  30.639  29.215  1.00  0.00     0.029 A 
ATOM     43  N   UNL A   1      39.247  30.254  30.834  1.00  0.00    -0.354 N 
ATOM     44  C   UNL A   1      39.140  32.536  34.524  1.00  0.00     0.074 A 
ATOM     45  C   UNL A   1      38.053  33.489  34.504  1.00  0.00     0.031 C 
ATOM     46  C   UNL A   1      38.562  29.655  28.792  1.00  0.00     0.029 A 
ATOM     47  C   UNL A   1      39.588  29.414  29.805  1.00  0.00     0.049 A 
ATOM     48  H   UNL A   1      39.718  30.271  31.697  1.00  0.00     0.167 HD
ATOM     49  C   UNL A   1      39.979  32.362  35.569  1.00  0.00     0.037 A 
ATOM     50  C   UNL A   1      40.636  28.573  29.690  1.00  0.00     0.037 A 
ATOM     51  C   UNL A   1      41.063  31.419  35.575  1.00  0.00     0.049 A 
ATOM     52  C   UNL A   1      41.605  28.443  30.836  1.00  0.00     0.074 A 
ATOM     53  C   UNL A   1      41.970  31.150  36.584  1.00  0.00     0.029 A 
ATOM     54  N   UNL A   1      41.392  30.596  34.507  1.00  0.00    -0.354 N 
ATOM     55  N   UNL A   1      41.602  29.055  31.995  1.00  0.00    -0.248 NA
ATOM     56  C   UNL A   1      42.721  27.503  30.659  1.00  0.00     0.031 C 
ATOM     57  C   UNL A   1      42.881  30.202  36.105  1.00  0.00     0.029 A 
ATOM     58  C   UNL A   1      42.507  29.839  34.820  1.00  0.00     0.049 A 
ATOM     59  H   UNL A   1      40.905  30.558  33.653  1.00  0.00     0.167 HD
ATOM     60  C   UNL A   1      42.695  28.562  32.695  1.00  0.00     0.074 A 
ATOM     61  C   UNL A   1      43.338  27.593  31.830  1.00  0.00     0.031 C 
ATOM     62  C   UNL A   1      43.126  28.876  33.943  1.00  0.00     0.037 A 
BRANCH  49  63
ATOM     63  C   UNL A   1      39.777  33.247  36.763  1.00  0.00     0.064 A 
ATOM     64  C   UNL A   1      40.502  34.436  36.936  1.00  0.00     0.173 A 
ATOM     65  C   UNL A   1      38.862  32.886  37.763  1.00  0.00     0.173 A 
ATOM     66  F   UNL A   1      41.406  34.816  36.019  1.00  0.00    -0.203 F 
ATOM     67  C   UNL A   1      40.345  35.210  38.083  1.00  0.00     0.198 A 
ATOM     68  C   UNL A   1      38.685  33.678  38.894  1.00  0.00     0.198 A 
ATOM     69  F   UNL A   1      38.145  31.757  37.648  1.00  0.00    -0.203 F 
ATOM     70  F   UNL A   1      41.094  36.307  38.257  1.00  0.00    -0.200 F 
ATOM     71  C   UNL A   1      39.434  34.833  39.059  1.00  0.00     0.200 A 
ATOM     72  F   UNL A   1      37.798  33.316  39.831  1.00  0.00    -0.200 F 
ATOM     73  F   UNL A   1      39.289  35.575  40.165  1.00  0.00    -0.200 F 
ENDBRANCH  49  63
BRANCH  50  74
ATOM     74  C   UNL A   1      40.825  27.818  28.426  1.00  0.00     0.064 A 
ATOM     75  C   UNL A   1      41.612  28.327  27.386  1.00  0.00     0.173 A 
ATOM     76  C   UNL A   1      40.244  26.553  28.249  1.00  0.00     0.173 A 
ATOM     77  F   UNL A   1      42.169  29.541  27.499  1.00  0.00    -0.203 F 
ATOM     78  C   UNL A   1      41.809  27.599  26.213  1.00  0.00     0.198 A 
ATOM     79  C   UNL A   1      40.462  25.817  27.087  1.00  0.00     0.198 A 
ATOM     80  F   UNL A   1      39.479  26.024  29.215  1.00  0.00    -0.203 F 
ATOM     81  F   UNL A   1      42.546  28.118  25.221  1.00  0.00    -0.200 F 
ATOM     82  C   UNL A   1      41.243  26.341  26.069  1.00  0.00     0.200 A 
ATOM     83  F   UNL A   1      39.922  24.597  26.958  1.00  0.00    -0.200 F 
ATOM     84  F   UNL A   1      41.446  25.636  24.947  1.00  0.00    -0.200 F 
ENDBRANCH  50  74
BRANCH  62  85
ATOM     85  C   UNL A   1      44.327  28.147  34.468  1.00  0.00     0.064 A 
ATOM     86  C   UNL A   1      45.619  28.679  34.353  1.00  0.00     0.173 A 
ATOM     87  C   UNL A   1      44.169  26.941  35.170  1.00  0.00     0.173 A 
ATOM     88  F   UNL A   1      45.821  29.823  33.682  1.00  0.00    -0.203 F 
ATOM     89  C   UNL A   1      46.712  28.023  34.913  1.00  0.00     0.198 A 
ATOM     90  C   UNL A   1      45.261  26.304  35.750  1.00  0.00     0.198 A 
ATOM     91  F   UNL A   1      42.952  26.398  35.315  1.00  0.00    -0.203 F 
ATOM     92  F   UNL A   1      47.943  28.534  34.768  1.00  0.00    -0.200 F 
ATOM     93  C   UNL A   1      46.532  26.843  35.621  1.00  0.00     0.200 A 
ATOM     94  F   UNL A   1      45.083  25.172  36.446  1.00  0.00    -0.200 F 
ATOM     95  F   UNL A   1      47.584  26.223  36.173  1.00  0.00    -0.200 F 
ENDBRANCH  62  85
ENDBRANCH  36  37
ENDBRANCH  29  31
ENDBRANCH  28  29
ENDBRANCH  27  28
ENDBRANCH  26  27
ENDBRANCH  25  26
ENDBRANCH   1  25
TORSDOF 21
ENDMDL
MODEL 3
REMARK VINA RESULT:     -10.5      0.867      7.279
REMARK SMILES CCN(Cc1ccccn1)C(=O)NC(CC)(CC)C(=O)OCCOCCOC(=O)c1ccc(-c2c3nc(c(-c4c(F)c(F)c(F)c(F)c4F)c4ccc([nH]4)c(-c4c(F)c(F)c(F)c(F)c4F)c4nc(c(-c5c(F)c(F)c(F)c(F)c5F)c5ccc2[nH]5)C=C4)C=C3)cc1
REMARK SMILES IDX 23 1 22 2 21 3 19 4 20 5 14 6 13 7 11 8 12 9 3 11 2 12 1 13
REMARK SMILES IDX 4 14 5 15 6 16 10 17 7 18 9 19 8 20 15 21 16 22 17 23 18 24
REMARK SMILES IDX 24 25 25 26 26 27 27 28 28 29 29 30 30 31 31 32 92 33 32 34
REMARK SMILES IDX 91 35 33 36 34 37 35 38 85 39 36 40 90 41 84 42 86 43 37 44
REMARK SMILES IDX 89 45 83 46 82 47 38 49 70 50 50 51 69 52 51 53 54 54 68 55
REMARK SMILES IDX 87 56 52 57 53 58 67 60 88 61 55 62 39 63 40 64 48 65 41 66
REMARK SMILES IDX 42 67 46 68 49 69 43 70 44 71 47 72 45 73 71 74 72 75 80 76
REMARK SMILES IDX 73 77 74 78 78 79 81 80 75 81 76 82 79 83 77 84 56 85 57 86
REMARK SMILES IDX 65 87 58 88 59 89 63 90 66 91 60 92 61 93 64 94 62 95
REMARK H PARENT 13 10 86 48 54 59
REMARK Flexibility Score: inf
ROOT
ATOM      1  C   UNL A   1      37.278  21.999  24.362  1.00  0.00     0.202 C 
ENDROOT
BRANCH   1   2
ATOM      2  C   UNL A   1      36.283  22.944  23.659  1.00  0.00     0.261 C 
BRANCH   2   3
ATOM      3  O   UNL A   1      34.956  22.697  24.110  1.00  0.00    -0.461 OA
BRANCH   3   4
ATOM      4  C   UNL A   1      33.949  23.236  23.393  1.00  0.00     0.331 C 
ATOM      5  O   UNL A   1      34.041  23.547  22.209  1.00  0.00    -0.249 OA
BRANCH   4   6
ATOM      6  C   UNL A   1      32.758  23.588  24.318  1.00  0.00     0.139 C 
BRANCH   6   7
ATOM      7  N   UNL A   1      31.458  24.093  23.756  1.00  0.00    -0.322 N 
ATOM      8  C   UNL A   1      30.748  25.169  23.420  1.00  0.00     0.318 C 
ATOM      9  O   UNL A   1      29.528  24.959  23.508  1.00  0.00    -0.249 OA
ATOM     10  H   UNL A   1      30.904  23.304  23.552  1.00  0.00     0.166 HD
BRANCH   8  11
ATOM     11  N   UNL A   1      31.196  26.344  22.911  1.00  0.00    -0.319 N 
BRANCH  11  12
ATOM     12  C   UNL A   1      32.054  26.237  21.713  1.00  0.00     0.118 C 
ATOM     13  C   UNL A   1      33.405  26.940  21.852  1.00  0.00     0.027 C 
ENDBRANCH  11  12
BRANCH  11  14
ATOM     14  C   UNL A   1      31.065  27.701  23.431  1.00  0.00     0.177 C 
BRANCH  14  15
ATOM     15  C   UNL A   1      29.963  28.549  22.857  1.00  0.00     0.060 A 
ATOM     16  C   UNL A   1      30.252  29.655  22.067  1.00  0.00     0.026 A 
ATOM     17  N   UNL A   1      28.696  28.247  23.242  1.00  0.00    -0.259 NA
ATOM     18  C   UNL A   1      29.205  30.464  21.637  1.00  0.00     0.004 A 
ATOM     19  C   UNL A   1      27.697  29.041  22.802  1.00  0.00     0.111 A 
ATOM     20  C   UNL A   1      27.901  30.153  22.006  1.00  0.00     0.020 A 
ENDBRANCH  14  15
ENDBRANCH  11  14
ENDBRANCH   8  11
ENDBRANCH   6   7
BRANCH   6  21
ATOM     21  C   UNL A   1      33.247  24.571  25.420  1.00  0.00     0.037 C 
ATOM     22  C   UNL A   1      34.092  25.748  24.932  1.00  0.00     0.007 C 
ENDBRANCH   6  21
BRANCH   6  23
ATOM     23  C   UNL A   1      32.412  22.184  24.965  1.00  0.00     0.037 C 
ATOM     24  C   UNL A   1      31.145  22.148  25.823  1.00  0.00     0.007 C 
ENDBRANCH   6  23
ENDBRANCH   4   6
ENDBRANCH   3   4
ENDBRANCH   2   3
ENDBRANCH   1   2
BRANCH   1  25
ATOM     25  O   UNL A   1      36.812  20.860  25.085  1.00  0.00    -0.374 OA
BRANCH  25  26
ATOM     26  C   UNL A   1      37.480  19.606  24.975  1.00  0.00     0.202 C 
BRANCH  26  27
ATOM     27  C   UNL A   1      38.970  19.567  25.303  1.00  0.00     0.261 C 
BRANCH  27  28
ATOM     28  O   UNL A   1      39.290  20.354  26.460  1.00  0.00    -0.460 OA
BRANCH  28  29
ATOM     29  C   UNL A   1      40.611  20.615  26.616  1.00  0.00     0.338 C 
ATOM     30  O   UNL A   1      41.551  19.973  26.194  1.00  0.00    -0.246 OA
BRANCH  29  31
ATOM     31  C   UNL A   1      40.775  21.945  27.231  1.00  0.00     0.060 A 
ATOM     32  C   UNL A   1      39.922  22.965  26.784  1.00  0.00     0.016 A 
ATOM     33  C   UNL A   1      41.766  22.202  28.178  1.00  0.00     0.016 A 
ATOM     34  C   UNL A   1      40.104  24.267  27.231  1.00  0.00     0.010 A 
ATOM     35  C   UNL A   1      41.967  23.516  28.607  1.00  0.00     0.010 A 
ATOM     36  C   UNL A   1      41.170  24.555  28.090  1.00  0.00    -0.014 A 
BRANCH  36  37
ATOM     37  C   UNL A   1      41.627  25.957  28.204  1.00  0.00     0.031 A 
ATOM     38  C   UNL A   1      42.975  26.298  27.632  1.00  0.00     0.074 A 
ATOM     39  C   UNL A   1      40.860  26.904  28.765  1.00  0.00     0.049 A 
ATOM     40  N   UNL A   1      43.631  27.428  27.657  1.00  0.00    -0.248 NA
ATOM     41  C   UNL A   1      43.680  25.206  26.940  1.00  0.00     0.031 C 
ATOM     42  C   UNL A   1      39.518  26.697  29.298  1.00  0.00     0.029 A 
ATOM     43  N   UNL A   1      41.119  28.232  28.990  1.00  0.00    -0.354 N 
ATOM     44  C   UNL A   1      44.826  27.179  26.994  1.00  0.00     0.074 A 
ATOM     45  C   UNL A   1      44.819  25.788  26.603  1.00  0.00     0.031 C 
ATOM     46  C   UNL A   1      39.078  27.855  29.820  1.00  0.00     0.029 A 
ATOM     47  C   UNL A   1      40.122  28.869  29.683  1.00  0.00     0.049 A 
ATOM     48  H   UNL A   1      41.938  28.682  28.683  1.00  0.00     0.167 HD
ATOM     49  C   UNL A   1      45.840  28.036  26.736  1.00  0.00     0.037 A 
ATOM     50  C   UNL A   1      40.083  30.122  30.180  1.00  0.00     0.037 A 
ATOM     51  C   UNL A   1      45.842  29.415  27.139  1.00  0.00     0.049 A 
ATOM     52  C   UNL A   1      41.251  31.044  29.947  1.00  0.00     0.074 A 
ATOM     53  C   UNL A   1      46.811  30.378  26.922  1.00  0.00     0.029 A 
ATOM     54  N   UNL A   1      44.823  30.024  27.859  1.00  0.00    -0.354 N 
ATOM     55  N   UNL A   1      42.373  30.813  29.308  1.00  0.00    -0.248 NA
ATOM     56  C   UNL A   1      41.148  32.401  30.500  1.00  0.00     0.031 C 
ATOM     57  C   UNL A   1      46.400  31.555  27.556  1.00  0.00     0.029 A 
ATOM     58  C   UNL A   1      45.151  31.342  28.119  1.00  0.00     0.049 A 
ATOM     59  H   UNL A   1      43.990  29.581  28.141  1.00  0.00     0.167 HD
ATOM     60  C   UNL A   1      43.098  31.995  29.360  1.00  0.00     0.074 A 
ATOM     61  C   UNL A   1      42.286  32.947  30.091  1.00  0.00     0.031 C 
ATOM     62  C   UNL A   1      44.322  32.272  28.845  1.00  0.00     0.037 A 
BRANCH  49  63
ATOM     63  C   UNL A   1      47.040  27.482  26.028  1.00  0.00     0.064 A 
ATOM     64  C   UNL A   1      48.093  26.868  26.723  1.00  0.00     0.173 A 
ATOM     65  C   UNL A   1      47.150  27.590  24.634  1.00  0.00     0.173 A 
ATOM     66  F   UNL A   1      48.047  26.758  28.060  1.00  0.00    -0.203 F 
ATOM     67  C   UNL A   1      49.228  26.417  26.052  1.00  0.00     0.198 A 
ATOM     68  C   UNL A   1      48.271  27.111  23.963  1.00  0.00     0.198 A 
ATOM     69  F   UNL A   1      46.172  28.171  23.922  1.00  0.00    -0.203 F 
ATOM     70  F   UNL A   1      50.249  25.893  26.744  1.00  0.00    -0.200 F 
ATOM     71  C   UNL A   1      49.314  26.535  24.673  1.00  0.00     0.200 A 
ATOM     72  F   UNL A   1      48.349  27.219  22.629  1.00  0.00    -0.200 F 
ATOM     73  F   UNL A   1      50.409  26.108  24.029  1.00  0.00    -0.200 F 
ENDBRANCH  49  63
BRANCH  50  74
ATOM     74  C   UNL A   1      38.901  30.554  30.969  1.00  0.00     0.064 A 
ATOM     75  C   UNL A   1      38.871  30.423  32.363  1.00  0.00     0.173 A 
ATOM     76  C   UNL A   1      37.790  31.135  30.341  1.00  0.00     0.173 A 
ATOM     77  F   UNL A   1      39.899  29.852  33.005  1.00  0.00    -0.203 F 
ATOM     78  C   UNL A   1      37.770  30.858  33.100  1.00  0.00     0.198 A 
ATOM     79  C   UNL A   1      36.701  31.591  31.081  1.00  0.00     0.198 A 
ATOM     80  F   UNL A   1      37.770  31.279  29.008  1.00  0.00    -0.203 F 
ATOM     81  F   UNL A   1      37.753  30.699  34.431  1.00  0.00    -0.200 F 
ATOM     82  C   UNL A   1      36.691  31.449  32.460  1.00  0.00     0.200 A 
ATOM     83  F   UNL A   1      35.667  32.173  30.459  1.00  0.00    -0.200 F 
ATOM     84  F   UNL A   1      35.641  31.881  33.172  1.00  0.00    -0.200 F 
ENDBRANCH  50  74
BRANCH  62  85
ATOM     85  C   UNL A   1      44.851  33.666  29.019  1.00  0.00     0.064 A 
ATOM     86  C   UNL A   1      45.614  34.028  30.138  1.00  0.00     0.173 A 
ATOM     87  C   UNL A   1      44.660  34.623  28.011  1.00  0.00     0.173 A 
ATOM     88  F   UNL A   1      45.814  33.151  31.132  1.00  0.00    -0.203 F 
ATOM     89  C   UNL A   1      46.159  35.306  30.245  1.00  0.00     0.198 A 
ATOM     90  C   UNL A   1      45.229  35.889  28.110  1.00  0.00     0.198 A 
ATOM     91  F   UNL A   1      43.946  34.321  26.917  1.00  0.00    -0.203 F 
ATOM     92  F   UNL A   1      46.861  35.641  31.335  1.00  0.00    -0.200 F 
ATOM     93  C   UNL A   1      45.976  36.231  29.227  1.00  0.00     0.200 A 
ATOM     94  F   UNL A   1      45.064  36.776  27.119  1.00  0.00    -0.200 F 
ATOM     95  F   UNL A   1      46.516  37.453  29.325  1.00  0.00    -0.200 F 
ENDBRANCH  62  85
ENDBRANCH  36  37
ENDBRANCH  29  31
ENDBRANCH  28  29
ENDBRANCH  27  28
ENDBRANCH  26  27
ENDBRANCH  25  26
ENDBRANCH   1  25
TORSDOF 21
ENDMDL
