MODEL 1
REMARK VINA RESULT:     -11.7      0.000      0.000
REMARK SMILES O=C(OCCOCCOC(=O)c1cnccc1C(=O)Nc1ccc(Cl)c(Cl)c1)c1ccc(-c2c3nc(c(-c4c(F)c(F)c(F)c(F)c4F)c4ccc([nH]4)c(-c4c(F)c(F)c(F)c(F)c4F)c4nc(c(-c5c(F)c(F)c(F)c(F)c5F)c5ccc2[nH]5)C=C4)C=C3)cc1
REMARK SMILES IDX 6 1 5 2 4 3 3 4 2 5 1 6 29 7 30 8 91 9 31 10 90 11 32 12
REMARK SMILES IDX 33 13 34 14 84 15 35 16 89 17 83 18 85 19 36 20 88 21 82 22
REMARK SMILES IDX 81 23 37 25 69 26 49 27 68 28 50 29 53 30 67 31 86 32 51 33
REMARK SMILES IDX 52 34 66 36 87 37 54 38 38 39 39 40 47 41 40 42 41 43 45 44
REMARK SMILES IDX 48 45 42 46 43 47 46 48 44 49 70 50 71 51 79 52 72 53 73 54
REMARK SMILES IDX 77 55 80 56 74 57 75 58 78 59 76 60 55 61 56 62 64 63 57 64
REMARK SMILES IDX 58 65 62 66 65 67 59 68 60 69 63 70 61 71 7 72 8 73 9 74
REMARK SMILES IDX 10 75 11 76 12 77 13 78 17 79 14 80 16 81 15 82 18 83 19 84
REMARK SMILES IDX 20 85 21 87 22 88 28 89 23 90 26 91 24 92 27 93 25 94
REMARK H PARENT 85 24 53 35 20 86
REMARK Flexibility Score: inf
ROOT
ATOM      1  O   UNL A   1      38.947  22.745  26.442  1.00  0.00    -0.374 OA
ENDROOT
BRANCH   1   2
ATOM      2  C   UNL A   1      38.838  21.672  25.513  1.00  0.00     0.202 C 
BRANCH   2   3
ATOM      3  C   UNL A   1      38.955  20.274  26.121  1.00  0.00     0.261 C 
BRANCH   3   4
ATOM      4  O   UNL A   1      40.038  19.475  25.624  1.00  0.00    -0.460 OA
BRANCH   4   5
ATOM      5  C   UNL A   1      41.353  19.491  25.943  1.00  0.00     0.338 C 
ATOM      6  O   UNL A   1      41.982  18.438  25.831  1.00  0.00    -0.246 OA
BRANCH   5   7
ATOM      7  C   UNL A   1      42.100  20.690  26.448  1.00  0.00     0.060 A 
ATOM      8  C   UNL A   1      42.226  21.065  27.787  1.00  0.00     0.016 A 
ATOM      9  C   UNL A   1      42.688  21.528  25.474  1.00  0.00     0.016 A 
ATOM     10  C   UNL A   1      42.920  22.210  28.154  1.00  0.00     0.010 A 
ATOM     11  C   UNL A   1      43.329  22.719  25.828  1.00  0.00     0.010 A 
ATOM     12  C   UNL A   1      43.411  23.073  27.175  1.00  0.00    -0.014 A 
BRANCH  12  13
ATOM     13  C   UNL A   1      43.694  24.449  27.616  1.00  0.00     0.031 A 
ATOM     14  C   UNL A   1      45.097  24.943  27.411  1.00  0.00     0.074 A 
ATOM     15  C   UNL A   1      42.697  25.273  27.973  1.00  0.00     0.049 A 
ATOM     16  N   UNL A   1      45.575  26.155  27.486  1.00  0.00    -0.248 NA
ATOM     17  C   UNL A   1      46.088  23.930  27.000  1.00  0.00     0.031 C 
ATOM     18  C   UNL A   1      41.287  24.901  28.065  1.00  0.00     0.029 A 
ATOM     19  N   UNL A   1      42.719  26.609  28.268  1.00  0.00    -0.354 N 
ATOM     20  C   UNL A   1      46.905  26.053  27.100  1.00  0.00     0.074 A 
ATOM     21  C   UNL A   1      47.165  24.668  26.791  1.00  0.00     0.031 C 
ATOM     22  C   UNL A   1      40.569  25.996  28.369  1.00  0.00     0.029 A 
ATOM     23  C   UNL A   1      41.475  27.134  28.516  1.00  0.00     0.049 A 
ATOM     24  H   UNL A   1      43.546  27.143  28.298  1.00  0.00     0.167 HD
ATOM     25  C   UNL A   1      47.834  27.033  27.030  1.00  0.00     0.037 A 
ATOM     26  C   UNL A   1      41.128  28.398  28.824  1.00  0.00     0.037 A 
ATOM     27  C   UNL A   1      47.581  28.387  27.430  1.00  0.00     0.049 A 
ATOM     28  C   UNL A   1      42.216  29.439  28.892  1.00  0.00     0.074 A 
ATOM     29  C   UNL A   1      48.466  29.441  27.540  1.00  0.00     0.029 A 
ATOM     30  N   UNL A   1      46.333  28.861  27.815  1.00  0.00    -0.354 N 
ATOM     31  N   UNL A   1      43.485  29.337  28.568  1.00  0.00    -0.248 NA
ATOM     32  C   UNL A   1      41.828  30.769  29.380  1.00  0.00     0.031 C 
ATOM     33  C   UNL A   1      47.761  30.542  28.042  1.00  0.00     0.029 A 
ATOM     34  C   UNL A   1      46.428  30.185  28.196  1.00  0.00     0.049 A 
ATOM     35  H   UNL A   1      45.503  28.330  27.816  1.00  0.00     0.167 HD
ATOM     36  C   UNL A   1      44.043  30.586  28.803  1.00  0.00     0.074 A 
ATOM     37  C   UNL A   1      42.968  31.437  29.272  1.00  0.00     0.031 C 
ATOM     38  C   UNL A   1      45.328  30.996  28.656  1.00  0.00     0.037 A 
BRANCH  25  39
ATOM     39  C   UNL A   1      49.209  26.620  26.610  1.00  0.00     0.064 A 
ATOM     40  C   UNL A   1      50.157  26.158  27.537  1.00  0.00     0.173 A 
ATOM     41  C   UNL A   1      49.610  26.767  25.274  1.00  0.00     0.173 A 
ATOM     42  F   UNL A   1      49.833  26.038  28.833  1.00  0.00    -0.203 F 
ATOM     43  C   UNL A   1      51.466  25.884  27.143  1.00  0.00     0.198 A 
ATOM     44  C   UNL A   1      50.914  26.475  24.882  1.00  0.00     0.198 A 
ATOM     45  F   UNL A   1      48.746  27.224  24.356  1.00  0.00    -0.203 F 
ATOM     46  F   UNL A   1      52.373  25.503  28.053  1.00  0.00    -0.200 F 
ATOM     47  C   UNL A   1      51.843  26.044  25.817  1.00  0.00     0.200 A 
ATOM     48  F   UNL A   1      51.278  26.637  23.602  1.00  0.00    -0.200 F 
ATOM     49  F   UNL A   1      53.106  25.801  25.444  1.00  0.00    -0.200 F 
ENDBRANCH  25  39
BRANCH  26  50
ATOM     50  C   UNL A   1      39.710  28.742  29.110  1.00  0.00     0.064 A 
ATOM     51  C   UNL A   1      39.157  28.558  30.385  1.00  0.00     0.173 A 
ATOM     52  C   UNL A   1      38.866  29.238  28.103  1.00  0.00     0.173 A 
ATOM     53  F   UNL A   1      39.911  28.059  31.375  1.00  0.00    -0.203 F 
ATOM     54  C   UNL A   1      37.815  28.843  30.638  1.00  0.00     0.198 A 
ATOM     55  C   UNL A   1      37.533  29.548  28.364  1.00  0.00     0.198 A 
ATOM     56  F   UNL A   1      39.337  29.421  26.860  1.00  0.00    -0.203 F 
ATOM     57  F   UNL A   1      37.301  28.611  31.853  1.00  0.00    -0.200 F 
ATOM     58  C   UNL A   1      37.006  29.344  29.629  1.00  0.00     0.200 A 
ATOM     59  F   UNL A   1      36.756  30.036  27.386  1.00  0.00    -0.200 F 
ATOM     60  F   UNL A   1      35.716  29.613  29.872  1.00  0.00    -0.200 F 
ENDBRANCH  26  50
BRANCH  38  61
ATOM     61  C   UNL A   1      45.631  32.421  29.000  1.00  0.00     0.064 A 
ATOM     62  C   UNL A   1      46.069  32.784  30.282  1.00  0.00     0.173 A 
ATOM     63  C   UNL A   1      45.541  33.422  28.022  1.00  0.00     0.173 A 
ATOM     64  F   UNL A   1      46.160  31.861  31.251  1.00  0.00    -0.203 F 
ATOM     65  C   UNL A   1      46.387  34.107  30.577  1.00  0.00     0.198 A 
ATOM     66  C   UNL A   1      45.884  34.737  28.314  1.00  0.00     0.198 A 
ATOM     67  F   UNL A   1      45.136  33.118  26.779  1.00  0.00    -0.203 F 
ATOM     68  F   UNL A   1      46.767  34.440  31.818  1.00  0.00    -0.200 F 
ATOM     69  C   UNL A   1      46.301  35.080  29.592  1.00  0.00     0.200 A 
ATOM     70  F   UNL A   1      45.815  35.674  27.358  1.00  0.00    -0.200 F 
ATOM     71  F   UNL A   1      46.617  36.350  29.877  1.00  0.00    -0.200 F 
ENDBRANCH  38  61
ENDBRANCH  12  13
ENDBRANCH   5   7
ENDBRANCH   4   5
ENDBRANCH   3   4
ENDBRANCH   2   3
ENDBRANCH   1   2
BRANCH   1  72
ATOM     72  C   UNL A   1      38.147  23.883  26.127  1.00  0.00     0.202 C 
BRANCH  72  73
ATOM     73  C   UNL A   1      36.658  23.551  26.011  1.00  0.00     0.261 C 
BRANCH  73  74
ATOM     74  O   UNL A   1      36.011  24.081  24.837  1.00  0.00    -0.460 OA
BRANCH  74  75
ATOM     75  C   UNL A   1      35.882  23.225  23.805  1.00  0.00     0.340 C 
ATOM     76  O   UNL A   1      36.668  23.018  22.891  1.00  0.00    -0.246 OA
BRANCH  75  77
ATOM     77  C   UNL A   1      34.671  22.440  23.939  1.00  0.00     0.091 A 
ATOM     78  C   UNL A   1      34.738  21.348  24.796  1.00  0.00     0.127 A 
ATOM     79  C   UNL A   1      33.484  22.687  23.256  1.00  0.00     0.057 A 
ATOM     80  N   UNL A   1      33.698  20.525  25.051  1.00  0.00    -0.264 NA
ATOM     81  C   UNL A   1      32.389  21.848  23.524  1.00  0.00     0.035 A 
ATOM     82  C   UNL A   1      32.540  20.799  24.419  1.00  0.00     0.112 A 
BRANCH  79  83
ATOM     83  C   UNL A   1      33.208  23.878  22.417  1.00  0.00     0.256 C 
ATOM     84  O   UNL A   1      33.530  23.804  21.228  1.00  0.00    -0.269 OA
ATOM     85  N   UNL A   1      32.531  25.002  22.820  1.00  0.00    -0.322 N 
ATOM     86  H   UNL A   1      32.154  25.514  22.069  1.00  0.00     0.170 HD
BRANCH  85  87
ATOM     87  C   UNL A   1      32.260  25.581  24.068  1.00  0.00     0.043 A 
ATOM     88  C   UNL A   1      31.057  25.432  24.756  1.00  0.00     0.028 A 
ATOM     89  C   UNL A   1      33.271  26.383  24.615  1.00  0.00     0.048 A 
ATOM     90  C   UNL A   1      30.831  26.168  25.929  1.00  0.00     0.024 A 
ATOM     91  C   UNL A   1      33.030  27.150  25.761  1.00  0.00     0.061 A 
ATOM     92  C   UNL A   1      31.799  27.054  26.414  1.00  0.00     0.059 A 
ATOM     93  Cl  UNL A   1      34.274  28.236  26.275  1.00  0.00    -0.083 Cl
ATOM     94  Cl  UNL A   1      31.415  28.011  27.801  1.00  0.00    -0.083 Cl
ENDBRANCH  85  87
ENDBRANCH  79  83
ENDBRANCH  75  77
ENDBRANCH  74  75
ENDBRANCH  73  74
ENDBRANCH  72  73
ENDBRANCH   1  72
TORSDOF 16
ENDMDL
MODEL 2
REMARK VINA RESULT:     -11.7      5.675     10.782
REMARK SMILES O=C(OCCOCCOC(=O)c1cnccc1C(=O)Nc1ccc(Cl)c(Cl)c1)c1ccc(-c2c3nc(c(-c4c(F)c(F)c(F)c(F)c4F)c4ccc([nH]4)c(-c4c(F)c(F)c(F)c(F)c4F)c4nc(c(-c5c(F)c(F)c(F)c(F)c5F)c5ccc2[nH]5)C=C4)C=C3)cc1
REMARK SMILES IDX 6 1 5 2 4 3 3 4 2 5 1 6 29 7 30 8 91 9 31 10 90 11 32 12
REMARK SMILES IDX 33 13 34 14 84 15 35 16 89 17 83 18 85 19 36 20 88 21 82 22
REMARK SMILES IDX 81 23 37 25 69 26 49 27 68 28 50 29 53 30 67 31 86 32 51 33
REMARK SMILES IDX 52 34 66 36 87 37 54 38 38 39 39 40 47 41 40 42 41 43 45 44
REMARK SMILES IDX 48 45 42 46 43 47 46 48 44 49 70 50 71 51 79 52 72 53 73 54
REMARK SMILES IDX 77 55 80 56 74 57 75 58 78 59 76 60 55 61 56 62 64 63 57 64
REMARK SMILES IDX 58 65 62 66 65 67 59 68 60 69 63 70 61 71 7 72 8 73 9 74
REMARK SMILES IDX 10 75 11 76 12 77 13 78 17 79 14 80 16 81 15 82 18 83 19 84
REMARK SMILES IDX 20 85 21 87 22 88 28 89 23 90 26 91 24 92 27 93 25 94
REMARK H PARENT 85 24 53 35 20 86
REMARK Flexibility Score: inf
ROOT
ATOM      1  O   UNL A   1      33.207  30.342  26.629  1.00  0.00    -0.374 OA
ENDROOT
BRANCH   1   2
ATOM      2  C   UNL A   1      33.463  31.565  27.312  1.00  0.00     0.202 C 
BRANCH   2   3
ATOM      3  C   UNL A   1      32.224  32.407  27.618  1.00  0.00     0.261 C 
BRANCH   3   4
ATOM      4  O   UNL A   1      32.427  33.828  27.604  1.00  0.00    -0.460 OA
BRANCH   4   5
ATOM      5  C   UNL A   1      33.012  34.636  28.519  1.00  0.00     0.338 C 
ATOM      6  O   UNL A   1      32.475  35.719  28.751  1.00  0.00    -0.246 OA
BRANCH   5   7
ATOM      7  C   UNL A   1      34.281  34.323  29.254  1.00  0.00     0.060 A 
ATOM      8  C   UNL A   1      35.574  34.550  28.779  1.00  0.00     0.016 A 
ATOM      9  C   UNL A   1      34.147  33.707  30.519  1.00  0.00     0.016 A 
ATOM     10  C   UNL A   1      36.691  34.203  29.527  1.00  0.00     0.010 A 
ATOM     11  C   UNL A   1      35.264  33.291  31.250  1.00  0.00     0.010 A 
ATOM     12  C   UNL A   1      36.538  33.511  30.728  1.00  0.00    -0.014 A 
BRANCH  12  13
ATOM     13  C   UNL A   1      37.725  32.780  31.202  1.00  0.00     0.031 A 
ATOM     14  C   UNL A   1      38.201  33.102  32.590  1.00  0.00     0.074 A 
ATOM     15  C   UNL A   1      38.208  31.736  30.512  1.00  0.00     0.049 A 
ATOM     16  N   UNL A   1      39.058  32.472  33.346  1.00  0.00    -0.248 NA
ATOM     17  C   UNL A   1      37.569  34.268  33.238  1.00  0.00     0.031 C 
ATOM     18  C   UNL A   1      37.708  31.277  29.218  1.00  0.00     0.029 A 
ATOM     19  N   UNL A   1      39.189  30.839  30.838  1.00  0.00    -0.354 N 
ATOM     20  C   UNL A   1      39.041  33.142  34.562  1.00  0.00     0.074 A 
ATOM     21  C   UNL A   1      38.093  34.225  34.451  1.00  0.00     0.031 C 
ATOM     22  C   UNL A   1      38.372  30.161  28.868  1.00  0.00     0.029 A 
ATOM     23  C   UNL A   1      39.355  29.848  29.903  1.00  0.00     0.049 A 
ATOM     24  H   UNL A   1      39.724  30.899  31.662  1.00  0.00     0.167 HD
ATOM     25  C   UNL A   1      39.770  32.884  35.670  1.00  0.00     0.037 A 
ATOM     26  C   UNL A   1      40.211  28.809  29.904  1.00  0.00     0.037 A 
ATOM     27  C   UNL A   1      40.773  31.860  35.732  1.00  0.00     0.049 A 
ATOM     28  C   UNL A   1      41.126  28.640  31.092  1.00  0.00     0.074 A 
ATOM     29  C   UNL A   1      41.675  31.586  36.740  1.00  0.00     0.029 A 
ATOM     30  N   UNL A   1      41.018  30.954  34.708  1.00  0.00    -0.354 N 
ATOM     31  N   UNL A   1      41.141  29.299  32.228  1.00  0.00    -0.248 NA
ATOM     32  C   UNL A   1      42.150  27.592  30.992  1.00  0.00     0.031 C 
ATOM     33  C   UNL A   1      42.502  30.543  36.303  1.00  0.00     0.029 A 
ATOM     34  C   UNL A   1      42.080  30.137  35.045  1.00  0.00     0.049 A 
ATOM     35  H   UNL A   1      40.510  30.902  33.866  1.00  0.00     0.167 HD
ATOM     36  C   UNL A   1      42.166  28.741  32.981  1.00  0.00     0.074 A 
ATOM     37  C   UNL A   1      42.731  27.673  32.181  1.00  0.00     0.031 C 
ATOM     38  C   UNL A   1      42.610  29.083  34.216  1.00  0.00     0.037 A 
BRANCH  25  39
ATOM     39  C   UNL A   1      39.565  33.802  36.834  1.00  0.00     0.064 A 
ATOM     40  C   UNL A   1      40.265  35.013  36.953  1.00  0.00     0.173 A 
ATOM     41  C   UNL A   1      38.716  33.426  37.886  1.00  0.00     0.173 A 
ATOM     42  F   UNL A   1      41.117  35.398  35.991  1.00  0.00    -0.203 F 
ATOM     43  C   UNL A   1      40.142  35.800  38.096  1.00  0.00     0.198 A 
ATOM     44  C   UNL A   1      38.584  34.223  39.019  1.00  0.00     0.198 A 
ATOM     45  F   UNL A   1      38.042  32.268  37.828  1.00  0.00    -0.203 F 
ATOM     46  F   UNL A   1      40.865  36.922  38.218  1.00  0.00    -0.200 F 
ATOM     47  C   UNL A   1      39.303  35.404  39.128  1.00  0.00     0.200 A 
ATOM     48  F   UNL A   1      37.778  33.836  40.017  1.00  0.00    -0.200 F 
ATOM     49  F   UNL A   1      39.202  36.150  40.236  1.00  0.00    -0.200 F 
ENDBRANCH  25  39
BRANCH  26  50
ATOM     50  C   UNL A   1      40.262  27.872  28.751  1.00  0.00     0.064 A 
ATOM     51  C   UNL A   1      39.599  26.637  28.786  1.00  0.00     0.173 A 
ATOM     52  C   UNL A   1      40.999  28.180  27.597  1.00  0.00     0.173 A 
ATOM     53  F   UNL A   1      38.905  26.280  29.876  1.00  0.00    -0.203 F 
ATOM     54  C   UNL A   1      39.684  25.742  27.718  1.00  0.00     0.198 A 
ATOM     55  C   UNL A   1      41.060  27.297  26.520  1.00  0.00     0.198 A 
ATOM     56  F   UNL A   1      41.665  29.341  27.514  1.00  0.00    -0.203 F 
ATOM     57  F   UNL A   1      39.081  24.548  27.799  1.00  0.00    -0.200 F 
ATOM     58  C   UNL A   1      40.409  26.076  26.584  1.00  0.00     0.200 A 
ATOM     59  F   UNL A   1      41.759  27.626  25.425  1.00  0.00    -0.200 F 
ATOM     60  F   UNL A   1      40.493  25.214  25.561  1.00  0.00    -0.200 F 
ENDBRANCH  26  50
BRANCH  38  61
ATOM     61  C   UNL A   1      43.753  28.290  34.772  1.00  0.00     0.064 A 
ATOM     62  C   UNL A   1      43.536  27.105  35.489  1.00  0.00     0.173 A 
ATOM     63  C   UNL A   1      45.076  28.688  34.531  1.00  0.00     0.173 A 
ATOM     64  F   UNL A   1      42.287  26.693  35.751  1.00  0.00    -0.203 F 
ATOM     65  C   UNL A   1      44.608  26.355  35.965  1.00  0.00     0.198 A 
ATOM     66  C   UNL A   1      46.144  27.922  34.985  1.00  0.00     0.198 A 
ATOM     67  F   UNL A   1      45.329  29.810  33.840  1.00  0.00    -0.203 F 
ATOM     68  F   UNL A   1      44.380  25.246  36.681  1.00  0.00    -0.200 F 
ATOM     69  C   UNL A   1      45.909  26.760  35.706  1.00  0.00     0.200 A 
ATOM     70  F   UNL A   1      47.401  28.305  34.723  1.00  0.00    -0.200 F 
ATOM     71  F   UNL A   1      46.939  26.031  36.157  1.00  0.00    -0.200 F 
ENDBRANCH  38  61
ENDBRANCH  12  13
ENDBRANCH   5   7
ENDBRANCH   4   5
ENDBRANCH   3   4
ENDBRANCH   2   3
ENDBRANCH   1   2
BRANCH   1  72
ATOM     72  C   UNL A   1      34.201  29.337  26.825  1.00  0.00     0.202 C 
BRANCH  72  73
ATOM     73  C   UNL A   1      33.914  28.056  26.040  1.00  0.00     0.261 C 
BRANCH  73  74
ATOM     74  O   UNL A   1      33.117  27.082  26.743  1.00  0.00    -0.460 OA
BRANCH  74  75
ATOM     75  C   UNL A   1      31.812  27.386  26.878  1.00  0.00     0.340 C 
ATOM     76  O   UNL A   1      31.240  27.850  27.855  1.00  0.00    -0.246 OA
BRANCH  75  77
ATOM     77  C   UNL A   1      31.107  27.184  25.628  1.00  0.00     0.091 A 
ATOM     78  C   UNL A   1      31.040  28.280  24.776  1.00  0.00     0.127 A 
ATOM     79  C   UNL A   1      30.482  26.000  25.250  1.00  0.00     0.057 A 
ATOM     80  N   UNL A   1      30.440  28.259  23.566  1.00  0.00    -0.264 NA
ATOM     81  C   UNL A   1      29.868  25.959  23.987  1.00  0.00     0.035 A 
ATOM     82  C   UNL A   1      29.876  27.094  23.191  1.00  0.00     0.112 A 
BRANCH  79  83
ATOM     83  C   UNL A   1      30.575  24.710  25.976  1.00  0.00     0.256 C 
ATOM     84  O   UNL A   1      29.751  24.521  26.876  1.00  0.00    -0.269 OA
ATOM     85  N   UNL A   1      31.419  23.674  25.663  1.00  0.00    -0.322 N 
ATOM     86  H   UNL A   1      31.112  22.807  26.016  1.00  0.00     0.170 HD
BRANCH  85  87
ATOM     87  C   UNL A   1      32.623  23.578  24.951  1.00  0.00     0.043 A 
ATOM     88  C   UNL A   1      32.713  23.222  23.607  1.00  0.00     0.028 A 
ATOM     89  C   UNL A   1      33.796  23.833  25.676  1.00  0.00     0.048 A 
ATOM     90  C   UNL A   1      33.972  23.015  23.025  1.00  0.00     0.024 A 
ATOM     91  C   UNL A   1      35.051  23.585  25.108  1.00  0.00     0.061 A 
ATOM     92  C   UNL A   1      35.141  23.160  23.781  1.00  0.00     0.059 A 
ATOM     93  Cl  UNL A   1      36.439  23.767  26.123  1.00  0.00    -0.083 Cl
ATOM     94  Cl  UNL A   1      36.653  22.785  23.034  1.00  0.00    -0.083 Cl
ENDBRANCH  85  87
ENDBRANCH  79  83
ENDBRANCH  75  77
ENDBRANCH  74  75
ENDBRANCH  73  74
ENDBRANCH  72  73
ENDBRANCH   1  72
TORSDOF 16
ENDMDL
MODEL 3
REMARK VINA RESULT:     -11.6      5.063     10.280
REMARK SMILES O=C(OCCOCCOC(=O)c1cnccc1C(=O)Nc1ccc(Cl)c(Cl)c1)c1ccc(-c2c3nc(c(-c4c(F)c(F)c(F)c(F)c4F)c4ccc([nH]4)c(-c4c(F)c(F)c(F)c(F)c4F)c4nc(c(-c5c(F)c(F)c(F)c(F)c5F)c5ccc2[nH]5)C=C4)C=C3)cc1
REMARK SMILES IDX 6 1 5 2 4 3 3 4 2 5 1 6 29 7 30 8 91 9 31 10 90 11 32 12
REMARK SMILES IDX 33 13 34 14 84 15 35 16 89 17 83 18 85 19 36 20 88 21 82 22
REMARK SMILES IDX 81 23 37 25 69 26 49 27 68 28 50 29 53 30 67 31 86 32 51 33
REMARK SMILES IDX 52 34 66 36 87 37 54 38 38 39 39 40 47 41 40 42 41 43 45 44
REMARK SMILES IDX 48 45 42 46 43 47 46 48 44 49 70 50 71 51 79 52 72 53 73 54
REMARK SMILES IDX 77 55 80 56 74 57 75 58 78 59 76 60 55 61 56 62 64 63 57 64
REMARK SMILES IDX 58 65 62 66 65 67 59 68 60 69 63 70 61 71 7 72 8 73 9 74
REMARK SMILES IDX 10 75 11 76 12 77 13 78 17 79 14 80 16 81 15 82 18 83 19 84
REMARK SMILES IDX 20 85 21 87 22 88 28 89 23 90 26 91 24 92 27 93 25 94
REMARK H PARENT 85 24 53 35 20 86
REMARK Flexibility Score: inf
ROOT
ATOM      1  O   UNL A   1      31.644  30.653  25.443  1.00  0.00    -0.374 OA
ENDROOT
BRANCH   1   2
ATOM      2  C   UNL A   1      32.019  31.034  26.762  1.00  0.00     0.202 C 
BRANCH   2   3
ATOM      3  C   UNL A   1      31.617  32.452  27.166  1.00  0.00     0.261 C 
BRANCH   3   4
ATOM      4  O   UNL A   1      32.697  33.392  27.272  1.00  0.00    -0.460 OA
BRANCH   4   5
ATOM      5  C   UNL A   1      33.577  33.600  28.278  1.00  0.00     0.338 C 
ATOM      6  O   UNL A   1      33.361  34.543  29.041  1.00  0.00    -0.246 OA
BRANCH   5   7
ATOM      7  C   UNL A   1      34.813  32.785  28.521  1.00  0.00     0.060 A 
ATOM      8  C   UNL A   1      34.854  31.535  29.141  1.00  0.00     0.016 A 
ATOM      9  C   UNL A   1      36.040  33.359  28.122  1.00  0.00     0.016 A 
ATOM     10  C   UNL A   1      36.054  30.867  29.342  1.00  0.00     0.010 A 
ATOM     11  C   UNL A   1      37.260  32.727  28.382  1.00  0.00     0.010 A 
ATOM     12  C   UNL A   1      37.261  31.491  29.028  1.00  0.00    -0.014 A 
BRANCH  12  13
ATOM     13  C   UNL A   1      38.457  30.945  29.691  1.00  0.00     0.031 A 
ATOM     14  C   UNL A   1      38.659  31.327  31.130  1.00  0.00     0.074 A 
ATOM     15  C   UNL A   1      39.193  29.992  29.100  1.00  0.00     0.049 A 
ATOM     16  N   UNL A   1      39.474  30.829  32.019  1.00  0.00    -0.248 NA
ATOM     17  C   UNL A   1      37.765  32.378  31.653  1.00  0.00     0.031 C 
ATOM     18  C   UNL A   1      38.975  29.472  27.753  1.00  0.00     0.029 A 
ATOM     19  N   UNL A   1      40.237  29.253  29.588  1.00  0.00    -0.354 N 
ATOM     20  C   UNL A   1      39.168  31.480  33.206  1.00  0.00     0.074 A 
ATOM     21  C   UNL A   1      38.096  32.407  32.933  1.00  0.00     0.031 C 
ATOM     22  C   UNL A   1      39.846  28.472  27.528  1.00  0.00     0.029 A 
ATOM     23  C   UNL A   1      40.693  28.305  28.707  1.00  0.00     0.049 A 
ATOM     24  H   UNL A   1      40.623  29.388  30.484  1.00  0.00     0.167 HD
ATOM     25  C   UNL A   1      39.749  31.329  34.418  1.00  0.00     0.037 A 
ATOM     26  C   UNL A   1      41.687  27.408  28.857  1.00  0.00     0.037 A 
ATOM     27  C   UNL A   1      40.874  30.469  34.649  1.00  0.00     0.049 A 
ATOM     28  C   UNL A   1      42.422  27.373  30.173  1.00  0.00     0.074 A 
ATOM     29  C   UNL A   1      41.640  30.328  35.789  1.00  0.00     0.029 A 
ATOM     30  N   UNL A   1      41.408  29.618  33.691  1.00  0.00    -0.354 N 
ATOM     31  N   UNL A   1      42.162  28.018  31.287  1.00  0.00    -0.248 NA
ATOM     32  C   UNL A   1      43.596  26.493  30.250  1.00  0.00     0.031 C 
ATOM     33  C   UNL A   1      42.673  29.427  35.502  1.00  0.00     0.029 A 
ATOM     34  C   UNL A   1      42.517  28.970  34.201  1.00  0.00     0.049 A 
ATOM     35  H   UNL A   1      41.049  29.494  32.782  1.00  0.00     0.167 HD
ATOM     36  C   UNL A   1      43.130  27.618  32.198  1.00  0.00     0.074 A 
ATOM     37  C   UNL A   1      43.967  26.653  31.513  1.00  0.00     0.031 C 
ATOM     38  C   UNL A   1      43.321  28.015  33.481  1.00  0.00     0.037 A 
BRANCH  25  39
ATOM     39  C   UNL A   1      39.229  32.197  35.520  1.00  0.00     0.064 A 
ATOM     40  C   UNL A   1      39.654  33.525  35.677  1.00  0.00     0.173 A 
ATOM     41  C   UNL A   1      38.358  31.666  36.482  1.00  0.00     0.173 A 
ATOM     42  F   UNL A   1      40.517  34.067  34.804  1.00  0.00    -0.203 F 
ATOM     43  C   UNL A   1      39.243  34.282  36.773  1.00  0.00     0.198 A 
ATOM     44  C   UNL A   1      37.937  32.430  37.567  1.00  0.00     0.198 A 
ATOM     45  F   UNL A   1      37.941  30.394  36.387  1.00  0.00    -0.203 F 
ATOM     46  F   UNL A   1      39.707  35.529  36.938  1.00  0.00    -0.200 F 
ATOM     47  C   UNL A   1      38.387  33.733  37.717  1.00  0.00     0.200 A 
ATOM     48  F   UNL A   1      37.115  31.896  38.481  1.00  0.00    -0.200 F 
ATOM     49  F   UNL A   1      38.010  34.454  38.782  1.00  0.00    -0.200 F 
ENDBRANCH  25  39
BRANCH  26  50
ATOM     50  C   UNL A   1      42.056  26.497  27.741  1.00  0.00     0.064 A 
ATOM     51  C   UNL A   1      43.087  26.820  26.848  1.00  0.00     0.173 A 
ATOM     52  C   UNL A   1      41.365  25.295  27.526  1.00  0.00     0.173 A 
ATOM     53  F   UNL A   1      43.760  27.971  26.989  1.00  0.00    -0.203 F 
ATOM     54  C   UNL A   1      43.402  25.983  25.777  1.00  0.00     0.198 A 
ATOM     55  C   UNL A   1      41.698  24.446  26.473  1.00  0.00     0.198 A 
ATOM     56  F   UNL A   1      40.359  24.942  28.341  1.00  0.00    -0.203 F 
ATOM     57  F   UNL A   1      44.359  26.340  24.909  1.00  0.00    -0.200 F 
ATOM     58  C   UNL A   1      42.712  24.794  25.594  1.00  0.00     0.200 A 
ATOM     59  F   UNL A   1      41.030  23.296  26.303  1.00  0.00    -0.200 F 
ATOM     60  F   UNL A   1      43.013  23.992  24.563  1.00  0.00    -0.200 F 
ENDBRANCH  26  50
BRANCH  38  61
ATOM     61  C   UNL A   1      44.472  27.401  34.218  1.00  0.00     0.064 A 
ATOM     62  C   UNL A   1      45.724  28.030  34.266  1.00  0.00     0.173 A 
ATOM     63  C   UNL A   1      44.301  26.207  34.933  1.00  0.00     0.173 A 
ATOM     64  F   UNL A   1      45.935  29.168  33.589  1.00  0.00    -0.203 F 
ATOM     65  C   UNL A   1      46.774  27.471  34.989  1.00  0.00     0.198 A 
ATOM     66  C   UNL A   1      45.344  25.665  35.675  1.00  0.00     0.198 A 
ATOM     67  F   UNL A   1      43.116  25.577  34.923  1.00  0.00    -0.203 F 
ATOM     68  F   UNL A   1      47.974  28.066  34.992  1.00  0.00    -0.200 F 
ATOM     69  C   UNL A   1      46.581  26.294  35.698  1.00  0.00     0.200 A 
ATOM     70  F   UNL A   1      45.153  24.536  36.372  1.00  0.00    -0.200 F 
ATOM     71  F   UNL A   1      47.590  25.763  36.402  1.00  0.00    -0.200 F 
ENDBRANCH  38  61
ENDBRANCH  12  13
ENDBRANCH   5   7
ENDBRANCH   4   5
ENDBRANCH   3   4
ENDBRANCH   2   3
ENDBRANCH   1   2
BRANCH   1  72
ATOM     72  C   UNL A   1      31.750  29.254  25.179  1.00  0.00     0.202 C 
BRANCH  72  73
ATOM     73  C   UNL A   1      32.744  28.548  26.102  1.00  0.00     0.261 C 
BRANCH  73  74
ATOM     74  O   UNL A   1      32.456  27.157  26.349  1.00  0.00    -0.460 OA
BRANCH  74  75
ATOM     75  C   UNL A   1      33.187  26.276  25.641  1.00  0.00     0.340 C 
ATOM     76  O   UNL A   1      34.396  26.090  25.683  1.00  0.00    -0.246 OA
BRANCH  75  77
ATOM     77  C   UNL A   1      32.331  25.434  24.829  1.00  0.00     0.091 A 
ATOM     78  C   UNL A   1      32.121  25.852  23.521  1.00  0.00     0.127 A 
ATOM     79  C   UNL A   1      31.698  24.279  25.276  1.00  0.00     0.057 A 
ATOM     80  N   UNL A   1      31.369  25.176  22.625  1.00  0.00    -0.264 NA
ATOM     81  C   UNL A   1      30.925  23.557  24.351  1.00  0.00     0.035 A 
ATOM     82  C   UNL A   1      30.796  24.035  23.055  1.00  0.00     0.112 A 
BRANCH  79  83
ATOM     83  C   UNL A   1      31.923  23.629  26.590  1.00  0.00     0.256 C 
ATOM     84  O   UNL A   1      31.198  23.997  27.520  1.00  0.00    -0.269 OA
ATOM     85  N   UNL A   1      32.783  22.587  26.832  1.00  0.00    -0.322 N 
ATOM     86  H   UNL A   1      32.553  22.079  27.644  1.00  0.00     0.170 HD
BRANCH  85  87
ATOM     87  C   UNL A   1      33.917  22.088  26.177  1.00  0.00     0.043 A 
ATOM     88  C   UNL A   1      33.949  20.886  25.472  1.00  0.00     0.028 A 
ATOM     89  C   UNL A   1      35.085  22.854  26.283  1.00  0.00     0.048 A 
ATOM     90  C   UNL A   1      35.168  20.404  24.973  1.00  0.00     0.024 A 
ATOM     91  C   UNL A   1      36.309  22.354  25.824  1.00  0.00     0.061 A 
ATOM     92  C   UNL A   1      36.355  21.117  25.179  1.00  0.00     0.059 A 
ATOM     93  Cl  UNL A   1      37.728  23.290  26.144  1.00  0.00    -0.083 Cl
ATOM     94  Cl  UNL A   1      37.838  20.415  24.635  1.00  0.00    -0.083 Cl
ENDBRANCH  85  87
ENDBRANCH  79  83
ENDBRANCH  75  77
ENDBRANCH  74  75
ENDBRANCH  73  74
ENDBRANCH  72  73
ENDBRANCH   1  72
TORSDOF 16
ENDMDL
