MODEL 1
REMARK VINA RESULT:     -10.4      0.000      0.000
REMARK SMILES Cc1ccc(N)cc1SCc1ccc(C(=O)OCCOCCOC(=O)c2ccc(-c3c4nc(c(-c5c(F)c(F)c(F)c(F)c5F)c5ccc([nH]5)c(-c5c(F)c(F)c(F)c(F)c5F)c5nc(c(-c6c(F)c(F)c(F)c(F)c6F)c6ccc3[nH]6)C=C5)C=C4)cc2)s1
REMARK SMILES IDX 19 1 18 2 17 3 15 4 16 5 14 6 11 7 12 8 89 9 13 10 10 11
REMARK SMILES IDX 9 12 8 13 1 14 2 15 3 16 4 17 7 18 5 19 6 20 20 23 21 24
REMARK SMILES IDX 22 25 23 26 24 27 25 28 26 29 27 30 88 31 28 32 87 33 29 34
REMARK SMILES IDX 30 35 31 36 81 37 32 38 86 39 80 40 82 41 33 42 85 43 79 44
REMARK SMILES IDX 78 45 34 47 66 48 46 49 65 50 47 51 50 52 64 53 83 54 48 55
REMARK SMILES IDX 49 56 63 58 84 59 51 60 35 61 36 62 44 63 37 64 38 65 42 66
REMARK SMILES IDX 45 67 39 68 40 69 43 70 41 71 67 72 68 73 76 74 69 75 70 76
REMARK SMILES IDX 74 77 77 78 71 79 72 80 75 81 73 82 52 83 53 84 61 85 54 86
REMARK SMILES IDX 55 87 59 88 62 89 56 90 57 91 60 92 58 93
REMARK H PARENT 6 21 6 22 82 46 50 57
REMARK Flexibility Score: inf
ROOT
ATOM      1  C   UNL A   1      30.969  29.724  24.532  1.00  0.00     0.202 C 
ENDROOT
BRANCH   1   2
ATOM      2  C   UNL A   1      29.950  29.488  23.414  1.00  0.00     0.261 C 
BRANCH   2   3
ATOM      3  O   UNL A   1      29.398  28.170  23.507  1.00  0.00    -0.459 OA
BRANCH   3   4
ATOM      4  C   UNL A   1      30.182  27.158  23.025  1.00  0.00     0.348 C 
ATOM      5  O   UNL A   1      30.752  27.182  21.944  1.00  0.00    -0.245 OA
BRANCH   4   6
ATOM      6  C   UNL A   1      30.311  26.135  24.048  1.00  0.00     0.112 A 
ATOM      7  C   UNL A   1      30.908  24.063  25.258  1.00  0.00     0.016 A 
ATOM      8  C   UNL A   1      30.494  25.071  26.107  1.00  0.00     0.017 A 
ATOM      9  S   UNL A   1      30.946  24.600  23.635  1.00  0.00    -0.132 S 
ATOM     10  C   UNL A   1      30.063  26.226  25.406  1.00  0.00     0.028 A 
BRANCH   7  11
ATOM     11  C   UNL A   1      31.371  22.696  25.638  1.00  0.00     0.121 C 
BRANCH  11  12
ATOM     12  S   UNL A   1      32.679  22.579  26.902  1.00  0.00    -0.120 SA
BRANCH  12  13
ATOM     13  C   UNL A   1      34.274  22.575  26.074  1.00  0.00     0.013 A 
ATOM     14  C   UNL A   1      34.468  25.060  25.376  1.00  0.00     0.045 C 
ATOM     15  C   UNL A   1      34.955  23.646  25.472  1.00  0.00    -0.037 A 
ATOM     16  C   UNL A   1      36.192  23.396  24.837  1.00  0.00     0.007 A 
ATOM     17  C   UNL A   1      36.689  22.103  24.689  1.00  0.00     0.026 A 
ATOM     18  C   UNL A   1      34.806  21.274  25.907  1.00  0.00     0.040 A 
ATOM     19  C   UNL A   1      35.964  21.021  25.164  1.00  0.00     0.032 A 
BRANCH  19  20
ATOM     20  N   UNL A   1      36.439  19.728  25.001  1.00  0.00    -0.399 N 
ATOM     21  H   UNL A   1      36.571  19.363  24.096  1.00  0.00     0.156 HD
ATOM     22  H   UNL A   1      36.645  19.175  25.789  1.00  0.00     0.156 HD
ENDBRANCH  19  20
ENDBRANCH  12  13
ENDBRANCH  11  12
ENDBRANCH   7  11
ENDBRANCH   4   6
ENDBRANCH   3   4
ENDBRANCH   2   3
ENDBRANCH   1   2
BRANCH   1  23
ATOM     23  O   UNL A   1      32.328  29.377  24.266  1.00  0.00    -0.374 OA
BRANCH  23  24
ATOM     24  C   UNL A   1      32.991  28.514  25.189  1.00  0.00     0.202 C 
BRANCH  24  25
ATOM     25  C   UNL A   1      32.867  28.825  26.688  1.00  0.00     0.261 C 
BRANCH  25  26
ATOM     26  O   UNL A   1      34.117  28.739  27.395  1.00  0.00    -0.460 OA
BRANCH  26  27
ATOM     27  C   UNL A   1      34.638  29.937  27.762  1.00  0.00     0.338 C 
ATOM     28  O   UNL A   1      34.055  31.002  27.865  1.00  0.00    -0.246 OA
BRANCH  27  29
ATOM     29  C   UNL A   1      36.029  29.759  28.214  1.00  0.00     0.060 A 
ATOM     30  C   UNL A   1      37.051  29.958  27.277  1.00  0.00     0.016 A 
ATOM     31  C   UNL A   1      36.325  29.330  29.509  1.00  0.00     0.016 A 
ATOM     32  C   UNL A   1      38.376  29.704  27.624  1.00  0.00     0.010 A 
ATOM     33  C   UNL A   1      37.655  29.067  29.851  1.00  0.00     0.010 A 
ATOM     34  C   UNL A   1      38.684  29.229  28.905  1.00  0.00    -0.014 A 
BRANCH  34  35
ATOM     35  C   UNL A   1      40.070  28.812  29.230  1.00  0.00     0.031 A 
ATOM     36  C   UNL A   1      40.958  29.740  30.009  1.00  0.00     0.074 A 
ATOM     37  C   UNL A   1      40.528  27.611  28.834  1.00  0.00     0.049 A 
ATOM     38  N   UNL A   1      42.220  29.609  30.329  1.00  0.00    -0.248 NA
ATOM     39  C   UNL A   1      40.342  30.987  30.486  1.00  0.00     0.031 C 
ATOM     40  C   UNL A   1      39.749  26.609  28.111  1.00  0.00     0.029 A 
ATOM     41  N   UNL A   1      41.767  27.038  28.975  1.00  0.00    -0.354 N 
ATOM     42  C   UNL A   1      42.551  30.757  31.036  1.00  0.00     0.074 A 
ATOM     43  C   UNL A   1      41.367  31.589  31.071  1.00  0.00     0.031 C 
ATOM     44  C   UNL A   1      40.533  25.547  27.858  1.00  0.00     0.029 A 
ATOM     45  C   UNL A   1      41.877  25.814  28.364  1.00  0.00     0.049 A 
ATOM     46  H   UNL A   1      42.506  27.463  29.469  1.00  0.00     0.167 HD
ATOM     47  C   UNL A   1      43.735  31.083  31.609  1.00  0.00     0.037 A 
ATOM     48  C   UNL A   1      42.951  25.016  28.202  1.00  0.00     0.037 A 
ATOM     49  C   UNL A   1      44.912  30.251  31.568  1.00  0.00     0.049 A 
ATOM     50  C   UNL A   1      44.277  25.441  28.775  1.00  0.00     0.074 A 
ATOM     51  C   UNL A   1      46.151  30.481  32.138  1.00  0.00     0.029 A 
ATOM     52  N   UNL A   1      44.996  29.033  30.909  1.00  0.00    -0.354 N 
ATOM     53  N   UNL A   1      44.579  26.515  29.466  1.00  0.00    -0.248 NA
ATOM     54  C   UNL A   1      45.415  24.539  28.548  1.00  0.00     0.031 C 
ATOM     55  C   UNL A   1      47.004  29.435  31.770  1.00  0.00     0.029 A 
ATOM     56  C   UNL A   1      46.277  28.517  31.028  1.00  0.00     0.049 A 
ATOM     57  H   UNL A   1      44.254  28.599  30.428  1.00  0.00     0.167 HD
ATOM     58  C   UNL A   1      45.928  26.405  29.778  1.00  0.00     0.074 A 
ATOM     59  C   UNL A   1      46.383  25.150  29.218  1.00  0.00     0.031 C 
ATOM     60  C   UNL A   1      46.719  27.265  30.466  1.00  0.00     0.037 A 
BRANCH  47  61
ATOM     61  C   UNL A   1      43.833  32.413  32.303  1.00  0.00     0.064 A 
ATOM     62  C   UNL A   1      43.570  32.555  33.673  1.00  0.00     0.173 A 
ATOM     63  C   UNL A   1      44.236  33.555  31.592  1.00  0.00     0.173 A 
ATOM     64  F   UNL A   1      43.170  31.499  34.397  1.00  0.00    -0.203 F 
ATOM     65  C   UNL A   1      43.681  33.794  34.300  1.00  0.00     0.198 A 
ATOM     66  C   UNL A   1      44.377  34.784  32.229  1.00  0.00     0.198 A 
ATOM     67  F   UNL A   1      44.505  33.475  30.280  1.00  0.00    -0.203 F 
ATOM     68  F   UNL A   1      43.377  33.915  35.600  1.00  0.00    -0.200 F 
ATOM     69  C   UNL A   1      44.092  34.905  33.580  1.00  0.00     0.200 A 
ATOM     70  F   UNL A   1      44.791  35.853  31.534  1.00  0.00    -0.200 F 
ATOM     71  F   UNL A   1      44.208  36.095  34.187  1.00  0.00    -0.200 F 
ENDBRANCH  47  61
BRANCH  48  72
ATOM     72  C   UNL A   1      42.822  23.743  27.446  1.00  0.00     0.064 A 
ATOM     73  C   UNL A   1      42.359  22.575  28.067  1.00  0.00     0.173 A 
ATOM     74  C   UNL A   1      43.179  23.661  26.091  1.00  0.00     0.173 A 
ATOM     75  F   UNL A   1      42.031  22.594  29.368  1.00  0.00    -0.203 F 
ATOM     76  C   UNL A   1      42.278  21.371  27.369  1.00  0.00     0.198 A 
ATOM     77  C   UNL A   1      43.065  22.466  25.386  1.00  0.00     0.198 A 
ATOM     78  F   UNL A   1      43.630  24.749  25.448  1.00  0.00    -0.203 F 
ATOM     79  F   UNL A   1      41.882  20.259  28.002  1.00  0.00    -0.200 F 
ATOM     80  C   UNL A   1      42.623  21.319  26.028  1.00  0.00     0.200 A 
ATOM     81  F   UNL A   1      43.387  22.424  24.085  1.00  0.00    -0.200 F 
ATOM     82  F   UNL A   1      42.542  20.162  25.356  1.00  0.00    -0.200 F 
ENDBRANCH  48  72
BRANCH  60  83
ATOM     83  C   UNL A   1      48.150  26.864  30.683  1.00  0.00     0.064 A 
ATOM     84  C   UNL A   1      48.528  26.004  31.725  1.00  0.00     0.173 A 
ATOM     85  C   UNL A   1      49.156  27.318  29.814  1.00  0.00     0.173 A 
ATOM     86  F   UNL A   1      47.610  25.551  32.593  1.00  0.00    -0.203 F 
ATOM     87  C   UNL A   1      49.860  25.640  31.909  1.00  0.00     0.198 A 
ATOM     88  C   UNL A   1      50.481  26.924  29.979  1.00  0.00     0.198 A 
ATOM     89  F   UNL A   1      48.851  28.135  28.795  1.00  0.00    -0.203 F 
ATOM     90  F   UNL A   1      50.204  24.863  32.946  1.00  0.00    -0.200 F 
ATOM     91  C   UNL A   1      50.833  26.094  31.032  1.00  0.00     0.200 A 
ATOM     92  F   UNL A   1      51.417  27.349  29.119  1.00  0.00    -0.200 F 
ATOM     93  F   UNL A   1      52.114  25.736  31.205  1.00  0.00    -0.200 F 
ENDBRANCH  60  83
ENDBRANCH  34  35
ENDBRANCH  27  29
ENDBRANCH  26  27
ENDBRANCH  25  26
ENDBRANCH  24  25
ENDBRANCH  23  24
ENDBRANCH   1  23
TORSDOF 18
ENDMDL
MODEL 2
REMARK VINA RESULT:     -10.3      3.585      8.683
REMARK SMILES Cc1ccc(N)cc1SCc1ccc(C(=O)OCCOCCOC(=O)c2ccc(-c3c4nc(c(-c5c(F)c(F)c(F)c(F)c5F)c5ccc([nH]5)c(-c5c(F)c(F)c(F)c(F)c5F)c5nc(c(-c6c(F)c(F)c(F)c(F)c6F)c6ccc3[nH]6)C=C5)C=C4)cc2)s1
REMARK SMILES IDX 19 1 18 2 17 3 15 4 16 5 14 6 11 7 12 8 89 9 13 10 10 11
REMARK SMILES IDX 9 12 8 13 1 14 2 15 3 16 4 17 7 18 5 19 6 20 20 23 21 24
REMARK SMILES IDX 22 25 23 26 24 27 25 28 26 29 27 30 88 31 28 32 87 33 29 34
REMARK SMILES IDX 30 35 31 36 81 37 32 38 86 39 80 40 82 41 33 42 85 43 79 44
REMARK SMILES IDX 78 45 34 47 66 48 46 49 65 50 47 51 50 52 64 53 83 54 48 55
REMARK SMILES IDX 49 56 63 58 84 59 51 60 35 61 36 62 44 63 37 64 38 65 42 66
REMARK SMILES IDX 45 67 39 68 40 69 43 70 41 71 67 72 68 73 76 74 69 75 70 76
REMARK SMILES IDX 74 77 77 78 71 79 72 80 75 81 73 82 52 83 53 84 61 85 54 86
REMARK SMILES IDX 55 87 59 88 62 89 56 90 57 91 60 92 58 93
REMARK H PARENT 6 21 6 22 82 46 50 57
REMARK Flexibility Score: inf
ROOT
ATOM      1  C   UNL A   1      34.377  21.438  26.526  1.00  0.00     0.202 C 
ENDROOT
BRANCH   1   2
ATOM      2  C   UNL A   1      33.474  20.793  25.470  1.00  0.00     0.261 C 
BRANCH   2   3
ATOM      3  O   UNL A   1      33.713  21.374  24.183  1.00  0.00    -0.459 OA
BRANCH   3   4
ATOM      4  C   UNL A   1      32.636  21.428  23.341  1.00  0.00     0.348 C 
ATOM      5  O   UNL A   1      32.156  20.459  22.774  1.00  0.00    -0.245 OA
BRANCH   4   6
ATOM      6  C   UNL A   1      32.109  22.781  23.340  1.00  0.00     0.112 A 
ATOM      7  C   UNL A   1      31.641  25.136  22.748  1.00  0.00     0.016 A 
ATOM      8  C   UNL A   1      30.701  24.611  23.613  1.00  0.00     0.017 A 
ATOM      9  S   UNL A   1      32.796  23.956  22.302  1.00  0.00    -0.132 S 
ATOM     10  C   UNL A   1      31.021  23.293  24.025  1.00  0.00     0.028 A 
BRANCH   7  11
ATOM     11  C   UNL A   1      31.661  26.507  22.159  1.00  0.00     0.121 C 
BRANCH  11  12
ATOM     12  S   UNL A   1      30.911  27.847  23.141  1.00  0.00    -0.120 SA
BRANCH  12  13
ATOM     13  C   UNL A   1      31.986  28.204  24.536  1.00  0.00     0.013 A 
ATOM     14  C   UNL A   1      34.242  28.593  23.328  1.00  0.00     0.045 C 
ATOM     15  C   UNL A   1      33.357  28.512  24.534  1.00  0.00    -0.037 A 
ATOM     16  C   UNL A   1      34.010  28.716  25.769  1.00  0.00     0.007 A 
ATOM     17  C   UNL A   1      33.362  28.500  26.984  1.00  0.00     0.026 A 
ATOM     18  C   UNL A   1      31.356  27.993  25.786  1.00  0.00     0.040 A 
ATOM     19  C   UNL A   1      32.045  28.069  27.001  1.00  0.00     0.032 A 
BRANCH  19  20
ATOM     20  N   UNL A   1      31.398  27.830  28.204  1.00  0.00    -0.399 N 
ATOM     21  H   UNL A   1      30.685  28.439  28.508  1.00  0.00     0.156 HD
ATOM     22  H   UNL A   1      31.649  27.054  28.754  1.00  0.00     0.156 HD
ENDBRANCH  19  20
ENDBRANCH  12  13
ENDBRANCH  11  12
ENDBRANCH   7  11
ENDBRANCH   4   6
ENDBRANCH   3   4
ENDBRANCH   2   3
ENDBRANCH   1   2
BRANCH   1  23
ATOM     23  O   UNL A   1      34.602  22.844  26.428  1.00  0.00    -0.374 OA
BRANCH  23  24
ATOM     24  C   UNL A   1      35.910  23.290  26.074  1.00  0.00     0.202 C 
BRANCH  24  25
ATOM     25  C   UNL A   1      36.994  22.230  25.829  1.00  0.00     0.261 C 
BRANCH  25  26
ATOM     26  O   UNL A   1      38.262  22.789  25.441  1.00  0.00    -0.460 OA
BRANCH  26  27
ATOM     27  C   UNL A   1      39.206  22.772  26.417  1.00  0.00     0.338 C 
ATOM     28  O   UNL A   1      39.918  21.839  26.746  1.00  0.00    -0.246 OA
BRANCH  27  29
ATOM     29  C   UNL A   1      39.402  24.133  26.945  1.00  0.00     0.060 A 
ATOM     30  C   UNL A   1      40.078  25.056  26.138  1.00  0.00     0.016 A 
ATOM     31  C   UNL A   1      39.002  24.478  28.237  1.00  0.00     0.016 A 
ATOM     32  C   UNL A   1      40.379  26.324  26.628  1.00  0.00     0.010 A 
ATOM     33  C   UNL A   1      39.313  25.748  28.730  1.00  0.00     0.010 A 
ATOM     34  C   UNL A   1      40.024  26.670  27.939  1.00  0.00    -0.014 A 
BRANCH  34  35
ATOM     35  C   UNL A   1      40.476  27.959  28.516  1.00  0.00     0.031 A 
ATOM     36  C   UNL A   1      41.925  28.143  28.870  1.00  0.00     0.074 A 
ATOM     37  C   UNL A   1      39.598  28.957  28.717  1.00  0.00     0.049 A 
ATOM     38  N   UNL A   1      42.515  29.153  29.456  1.00  0.00    -0.248 NA
ATOM     39  C   UNL A   1      42.829  27.037  28.522  1.00  0.00     0.031 C 
ATOM     40  C   UNL A   1      38.178  28.912  28.376  1.00  0.00     0.029 A 
ATOM     41  N   UNL A   1      39.773  30.201  29.272  1.00  0.00    -0.354 N 
ATOM     42  C   UNL A   1      43.855  28.802  29.555  1.00  0.00     0.074 A 
ATOM     43  C   UNL A   1      43.986  27.473  28.997  1.00  0.00     0.031 C 
ATOM     44  C   UNL A   1      37.606  30.072  28.741  1.00  0.00     0.029 A 
ATOM     45  C   UNL A   1      38.609  30.920  29.381  1.00  0.00     0.049 A 
ATOM     46  H   UNL A   1      40.649  30.544  29.563  1.00  0.00     0.167 HD
ATOM     47  C   UNL A   1      44.882  29.528  30.059  1.00  0.00     0.037 A 
ATOM     48  C   UNL A   1      38.375  32.114  29.960  1.00  0.00     0.037 A 
ATOM     49  C   UNL A   1      44.743  30.851  30.616  1.00  0.00     0.049 A 
ATOM     50  C   UNL A   1      39.520  32.863  30.590  1.00  0.00     0.074 A 
ATOM     51  C   UNL A   1      45.726  31.678  31.129  1.00  0.00     0.029 A 
ATOM     52  N   UNL A   1      43.543  31.534  30.740  1.00  0.00    -0.354 N 
ATOM     53  N   UNL A   1      40.789  32.539  30.658  1.00  0.00    -0.248 NA
ATOM     54  C   UNL A   1      39.199  34.149  31.225  1.00  0.00     0.031 C 
ATOM     55  C   UNL A   1      45.113  32.833  31.624  1.00  0.00     0.029 A 
ATOM     56  C   UNL A   1      43.756  32.758  31.356  1.00  0.00     0.049 A 
ATOM     57  H   UNL A   1      42.668  31.199  30.435  1.00  0.00     0.167 HD
ATOM     58  C   UNL A   1      41.419  33.588  31.314  1.00  0.00     0.074 A 
ATOM     59  C   UNL A   1      40.396  34.569  31.608  1.00  0.00     0.031 C 
ATOM     60  C   UNL A   1      42.728  33.727  31.643  1.00  0.00     0.037 A 
BRANCH  47  61
ATOM     61  C   UNL A   1      46.245  28.896  30.067  1.00  0.00     0.064 A 
ATOM     62  C   UNL A   1      46.712  28.153  31.162  1.00  0.00     0.173 A 
ATOM     63  C   UNL A   1      47.081  29.001  28.944  1.00  0.00     0.173 A 
ATOM     64  F   UNL A   1      45.959  28.030  32.265  1.00  0.00    -0.203 F 
ATOM     65  C   UNL A   1      47.974  27.563  31.142  1.00  0.00     0.198 A 
ATOM     66  C   UNL A   1      48.328  28.382  28.915  1.00  0.00     0.198 A 
ATOM     67  F   UNL A   1      46.683  29.696  27.867  1.00  0.00    -0.203 F 
ATOM     68  F   UNL A   1      48.418  26.898  32.219  1.00  0.00    -0.200 F 
ATOM     69  C   UNL A   1      48.776  27.670  30.017  1.00  0.00     0.200 A 
ATOM     70  F   UNL A   1      49.094  28.474  27.820  1.00  0.00    -0.200 F 
ATOM     71  F   UNL A   1      49.986  27.093  29.996  1.00  0.00    -0.200 F 
ENDBRANCH  47  61
BRANCH  48  72
ATOM     72  C   UNL A   1      36.995  32.666  29.991  1.00  0.00     0.064 A 
ATOM     73  C   UNL A   1      36.523  33.492  28.962  1.00  0.00     0.173 A 
ATOM     74  C   UNL A   1      36.127  32.397  31.061  1.00  0.00     0.173 A 
ATOM     75  F   UNL A   1      37.323  33.801  27.931  1.00  0.00    -0.203 F 
ATOM     76  C   UNL A   1      35.244  34.045  29.012  1.00  0.00     0.198 A 
ATOM     77  C   UNL A   1      34.838  32.922  31.092  1.00  0.00     0.198 A 
ATOM     78  F   UNL A   1      36.530  31.614  32.073  1.00  0.00    -0.203 F 
ATOM     79  F   UNL A   1      34.837  34.873  28.041  1.00  0.00    -0.200 F 
ATOM     80  C   UNL A   1      34.399  33.753  30.072  1.00  0.00     0.200 A 
ATOM     81  F   UNL A   1      34.020  32.626  32.113  1.00  0.00    -0.200 F 
ATOM     82  F   UNL A   1      33.169  34.281  30.118  1.00  0.00    -0.200 F 
ENDBRANCH  48  72
BRANCH  60  83
ATOM     83  C   UNL A   1      43.136  35.001  32.329  1.00  0.00     0.064 A 
ATOM     84  C   UNL A   1      43.114  35.130  33.725  1.00  0.00     0.173 A 
ATOM     85  C   UNL A   1      43.589  36.098  31.578  1.00  0.00     0.173 A 
ATOM     86  F   UNL A   1      42.676  34.118  34.490  1.00  0.00    -0.203 F 
ATOM     87  C   UNL A   1      43.499  36.318  34.343  1.00  0.00     0.198 A 
ATOM     88  C   UNL A   1      44.007  37.271  32.200  1.00  0.00     0.198 A 
ATOM     89  F   UNL A   1      43.639  36.027  30.239  1.00  0.00    -0.203 F 
ATOM     90  F   UNL A   1      43.416  36.436  35.675  1.00  0.00    -0.200 F 
ATOM     91  C   UNL A   1      43.953  37.384  33.580  1.00  0.00     0.200 A 
ATOM     92  F   UNL A   1      44.463  38.294  31.462  1.00  0.00    -0.200 F 
ATOM     93  F   UNL A   1      44.331  38.524  34.176  1.00  0.00    -0.200 F 
ENDBRANCH  60  83
ENDBRANCH  34  35
ENDBRANCH  27  29
ENDBRANCH  26  27
ENDBRANCH  25  26
ENDBRANCH  24  25
ENDBRANCH  23  24
ENDBRANCH   1  23
TORSDOF 18
ENDMDL
MODEL 3
REMARK VINA RESULT:     -10.3      4.104      7.855
REMARK SMILES Cc1ccc(N)cc1SCc1ccc(C(=O)OCCOCCOC(=O)c2ccc(-c3c4nc(c(-c5c(F)c(F)c(F)c(F)c5F)c5ccc([nH]5)c(-c5c(F)c(F)c(F)c(F)c5F)c5nc(c(-c6c(F)c(F)c(F)c(F)c6F)c6ccc3[nH]6)C=C5)C=C4)cc2)s1
REMARK SMILES IDX 19 1 18 2 17 3 15 4 16 5 14 6 11 7 12 8 89 9 13 10 10 11
REMARK SMILES IDX 9 12 8 13 1 14 2 15 3 16 4 17 7 18 5 19 6 20 20 23 21 24
REMARK SMILES IDX 22 25 23 26 24 27 25 28 26 29 27 30 88 31 28 32 87 33 29 34
REMARK SMILES IDX 30 35 31 36 81 37 32 38 86 39 80 40 82 41 33 42 85 43 79 44
REMARK SMILES IDX 78 45 34 47 66 48 46 49 65 50 47 51 50 52 64 53 83 54 48 55
REMARK SMILES IDX 49 56 63 58 84 59 51 60 35 61 36 62 44 63 37 64 38 65 42 66
REMARK SMILES IDX 45 67 39 68 40 69 43 70 41 71 67 72 68 73 76 74 69 75 70 76
REMARK SMILES IDX 74 77 77 78 71 79 72 80 75 81 73 82 52 83 53 84 61 85 54 86
REMARK SMILES IDX 55 87 59 88 62 89 56 90 57 91 60 92 58 93
REMARK H PARENT 6 21 6 22 82 46 50 57
REMARK Flexibility Score: inf
ROOT
ATOM      1  C   UNL A   1      36.357  21.651  24.889  1.00  0.00     0.202 C 
ENDROOT
BRANCH   1   2
ATOM      2  C   UNL A   1      35.304  20.835  25.645  1.00  0.00     0.261 C 
BRANCH   2   3
ATOM      3  O   UNL A   1      34.551  20.022  24.738  1.00  0.00    -0.459 OA
BRANCH   3   4
ATOM      4  C   UNL A   1      33.199  19.996  24.939  1.00  0.00     0.348 C 
ATOM      5  O   UNL A   1      32.609  19.115  25.547  1.00  0.00    -0.245 OA
BRANCH   4   6
ATOM      6  C   UNL A   1      32.623  21.225  24.422  1.00  0.00     0.112 A 
ATOM      7  C   UNL A   1      31.527  23.435  24.255  1.00  0.00     0.016 A 
ATOM      8  C   UNL A   1      32.204  23.091  23.101  1.00  0.00     0.017 A 
ATOM      9  S   UNL A   1      31.728  22.244  25.466  1.00  0.00    -0.132 S 
ATOM     10  C   UNL A   1      32.753  21.785  23.164  1.00  0.00     0.028 A 
BRANCH   7  11
ATOM     11  C   UNL A   1      30.782  24.700  24.522  1.00  0.00     0.121 C 
BRANCH  11  12
ATOM     12  S   UNL A   1      31.209  26.150  23.504  1.00  0.00    -0.120 SA
BRANCH  12  13
ATOM     13  C   UNL A   1      32.150  27.300  24.515  1.00  0.00     0.013 A 
ATOM     14  C   UNL A   1      33.959  25.726  25.490  1.00  0.00     0.045 C 
ATOM     15  C   UNL A   1      33.284  27.052  25.306  1.00  0.00    -0.037 A 
ATOM     16  C   UNL A   1      33.838  28.112  26.056  1.00  0.00     0.007 A 
ATOM     17  C   UNL A   1      33.218  29.358  26.127  1.00  0.00     0.026 A 
ATOM     18  C   UNL A   1      31.545  28.577  24.608  1.00  0.00     0.040 A 
ATOM     19  C   UNL A   1      32.026  29.580  25.456  1.00  0.00     0.032 A 
BRANCH  19  20
ATOM     20  N   UNL A   1      31.390  30.810  25.537  1.00  0.00    -0.399 N 
ATOM     21  H   UNL A   1      30.922  31.175  24.751  1.00  0.00     0.156 HD
ATOM     22  H   UNL A   1      31.405  31.318  26.380  1.00  0.00     0.156 HD
ENDBRANCH  19  20
ENDBRANCH  12  13
ENDBRANCH  11  12
ENDBRANCH   7  11
ENDBRANCH   4   6
ENDBRANCH   3   4
ENDBRANCH   2   3
ENDBRANCH   1   2
BRANCH   1  23
ATOM     23  O   UNL A   1      37.725  21.430  25.227  1.00  0.00    -0.374 OA
BRANCH  23  24
ATOM     24  C   UNL A   1      38.237  20.103  25.117  1.00  0.00     0.202 C 
BRANCH  24  25
ATOM     25  C   UNL A   1      39.353  19.675  26.081  1.00  0.00     0.261 C 
BRANCH  25  26
ATOM     26  O   UNL A   1      40.505  19.126  25.415  1.00  0.00    -0.460 OA
BRANCH  26  27
ATOM     27  C   UNL A   1      41.657  19.206  26.127  1.00  0.00     0.338 C 
ATOM     28  O   UNL A   1      42.469  18.319  26.329  1.00  0.00    -0.246 OA
BRANCH  27  29
ATOM     29  C   UNL A   1      41.915  20.606  26.505  1.00  0.00     0.060 A 
ATOM     30  C   UNL A   1      42.106  21.535  25.474  1.00  0.00     0.016 A 
ATOM     31  C   UNL A   1      42.045  20.989  27.840  1.00  0.00     0.016 A 
ATOM     32  C   UNL A   1      42.453  22.850  25.776  1.00  0.00     0.010 A 
ATOM     33  C   UNL A   1      42.402  22.307  28.140  1.00  0.00     0.010 A 
ATOM     34  C   UNL A   1      42.632  23.238  27.110  1.00  0.00    -0.014 A 
BRANCH  34  35
ATOM     35  C   UNL A   1      43.149  24.591  27.428  1.00  0.00     0.031 A 
ATOM     36  C   UNL A   1      42.220  25.621  28.006  1.00  0.00     0.074 A 
ATOM     37  C   UNL A   1      44.440  24.894  27.205  1.00  0.00     0.049 A 
ATOM     38  N   UNL A   1      42.444  26.880  28.281  1.00  0.00    -0.248 NA
ATOM     39  C   UNL A   1      40.854  25.171  28.310  1.00  0.00     0.031 C 
ATOM     40  C   UNL A   1      45.446  23.969  26.687  1.00  0.00     0.029 A 
ATOM     41  N   UNL A   1      45.122  26.074  27.374  1.00  0.00    -0.354 N 
ATOM     42  C   UNL A   1      41.247  27.376  28.781  1.00  0.00     0.074 A 
ATOM     43  C   UNL A   1      40.291  26.289  28.743  1.00  0.00     0.031 C 
ATOM     44  C   UNL A   1      46.615  24.619  26.567  1.00  0.00     0.029 A 
ATOM     45  C   UNL A   1      46.429  26.015  26.958  1.00  0.00     0.049 A 
ATOM     46  H   UNL A   1      44.714  26.883  27.758  1.00  0.00     0.167 HD
ATOM     47  C   UNL A   1      40.974  28.623  29.237  1.00  0.00     0.037 A 
ATOM     48  C   UNL A   1      47.358  26.986  26.872  1.00  0.00     0.037 A 
ATOM     49  C   UNL A   1      41.931  29.700  29.270  1.00  0.00     0.049 A 
ATOM     50  C   UNL A   1      47.005  28.385  27.305  1.00  0.00     0.074 A 
ATOM     51  C   UNL A   1      41.759  30.992  29.736  1.00  0.00     0.029 A 
ATOM     52  N   UNL A   1      43.236  29.613  28.808  1.00  0.00    -0.354 N 
ATOM     53  N   UNL A   1      45.880  28.841  27.802  1.00  0.00    -0.248 NA
ATOM     54  C   UNL A   1      48.054  29.405  27.168  1.00  0.00     0.031 C 
ATOM     55  C   UNL A   1      42.939  31.705  29.496  1.00  0.00     0.029 A 
ATOM     56  C   UNL A   1      43.870  30.839  28.945  1.00  0.00     0.049 A 
ATOM     57  H   UNL A   1      43.651  28.800  28.439  1.00  0.00     0.167 HD
ATOM     58  C   UNL A   1      46.094  30.189  28.061  1.00  0.00     0.074 A 
ATOM     59  C   UNL A   1      47.462  30.473  27.684  1.00  0.00     0.031 C 
ATOM     60  C   UNL A   1      45.234  31.109  28.566  1.00  0.00     0.037 A 
BRANCH  47  61
ATOM     61  C   UNL A   1      39.574  28.904  29.707  1.00  0.00     0.064 A 
ATOM     62  C   UNL A   1      39.176  28.670  31.031  1.00  0.00     0.173 A 
ATOM     63  C   UNL A   1      38.629  29.454  28.827  1.00  0.00     0.173 A 
ATOM     64  F   UNL A   1      40.036  28.135  31.911  1.00  0.00    -0.203 F 
ATOM     65  C   UNL A   1      37.878  28.952  31.450  1.00  0.00     0.198 A 
ATOM     66  C   UNL A   1      37.342  29.765  29.257  1.00  0.00     0.198 A 
ATOM     67  F   UNL A   1      38.957  29.703  27.550  1.00  0.00    -0.203 F 
ATOM     68  F   UNL A   1      37.506  28.675  32.708  1.00  0.00    -0.200 F 
ATOM     69  C   UNL A   1      36.965  29.507  30.566  1.00  0.00     0.200 A 
ATOM     70  F   UNL A   1      36.467  30.317  28.405  1.00  0.00    -0.200 F 
ATOM     71  F   UNL A   1      35.719  29.787  30.974  1.00  0.00    -0.200 F 
ENDBRANCH  47  61
BRANCH  48  72
ATOM     72  C   UNL A   1      48.709  26.676  26.333  1.00  0.00     0.064 A 
ATOM     73  C   UNL A   1      49.031  26.936  24.994  1.00  0.00     0.173 A 
ATOM     74  C   UNL A   1      49.699  26.094  27.140  1.00  0.00     0.173 A 
ATOM     75  F   UNL A   1      48.111  27.466  24.175  1.00  0.00    -0.203 F 
ATOM     76  C   UNL A   1      50.283  26.606  24.478  1.00  0.00     0.198 A 
ATOM     77  C   UNL A   1      50.961  25.797  26.631  1.00  0.00     0.198 A 
ATOM     78  F   UNL A   1      49.443  25.823  28.428  1.00  0.00    -0.203 F 
ATOM     79  F   UNL A   1      50.546  26.816  23.181  1.00  0.00    -0.200 F 
ATOM     80  C   UNL A   1      51.250  26.045  25.298  1.00  0.00     0.200 A 
ATOM     81  F   UNL A   1      51.897  25.267  27.432  1.00  0.00    -0.200 F 
ATOM     82  F   UNL A   1      52.454  25.732  24.802  1.00  0.00    -0.200 F 
ENDBRANCH  48  72
BRANCH  60  83
ATOM     83  C   UNL A   1      45.758  32.502  28.773  1.00  0.00     0.064 A 
ATOM     84  C   UNL A   1      46.408  32.880  29.958  1.00  0.00     0.173 A 
ATOM     85  C   UNL A   1      45.639  33.465  27.758  1.00  0.00     0.173 A 
ATOM     86  F   UNL A   1      46.537  32.003  30.966  1.00  0.00    -0.203 F 
ATOM     87  C   UNL A   1      46.890  34.175  30.131  1.00  0.00     0.198 A 
ATOM     88  C   UNL A   1      46.153  34.749  27.920  1.00  0.00     0.198 A 
ATOM     89  F   UNL A   1      45.034  33.157  26.601  1.00  0.00    -0.203 F 
ATOM     90  F   UNL A   1      47.457  34.528  31.293  1.00  0.00    -0.200 F 
ATOM     91  C   UNL A   1      46.769  35.106  29.109  1.00  0.00     0.200 A 
ATOM     92  F   UNL A   1      46.052  35.641  26.924  1.00  0.00    -0.200 F 
ATOM     93  F   UNL A   1      47.241  36.350  29.274  1.00  0.00    -0.200 F 
ENDBRANCH  60  83
ENDBRANCH  34  35
ENDBRANCH  27  29
ENDBRANCH  26  27
ENDBRANCH  25  26
ENDBRANCH  24  25
ENDBRANCH  23  24
ENDBRANCH   1  23
TORSDOF 18
ENDMDL
