MODEL 1
REMARK VINA RESULT:     -12.3      0.000      0.000
REMARK SMILES [NH3+][C@]1(C(=O)OCCOCCOC(=O)c2ccc(-c3c4nc(c(-c5c(F)c(F)c(F)c(F)c5F)c5ccc([nH]5)c(-c5c(F)c(F)c(F)c(F)c5F)c5nc(c(-c6c(F)c(F)c(F)c(F)c6F)c6ccc3[nH]6)C=C5)C=C4)cc2)CC[C@@H]([NH+]2CCC(C(F)(F)F)CC2)C1
REMARK SMILES IDX 8 1 7 2 6 3 5 4 3 5 4 6 2 7 77 8 90 9 78 10 79 11 1 12 80 16
REMARK SMILES IDX 81 17 89 18 82 20 88 21 83 22 84 23 85 24 86 25 87 26 9 27
REMARK SMILES IDX 10 28 11 29 12 30 13 31 14 32 15 33 76 34 16 35 75 36 17 37
REMARK SMILES IDX 18 38 19 39 69 40 20 41 74 42 68 43 70 44 21 45 73 46 67 47
REMARK SMILES IDX 66 48 22 50 54 51 34 52 53 53 35 54 38 55 52 56 71 57 36 58
REMARK SMILES IDX 37 59 51 61 72 62 39 63 23 64 24 65 32 66 25 67 26 68 30 69
REMARK SMILES IDX 33 70 27 71 28 72 31 73 29 74 55 75 56 76 64 77 57 78 58 79
REMARK SMILES IDX 62 80 65 81 59 82 60 83 63 84 61 85 40 86 41 87 49 88 42 89
REMARK SMILES IDX 43 90 47 91 50 92 44 93 45 94 48 95 46 96
REMARK H PARENT 1 13 1 14 1 15 80 19 70 49 38 60
REMARK Flexibility Score: inf
ROOT
ATOM      1  O   UNL A   1      46.777  20.879  24.671  1.00  0.00    -0.374 OA
ENDROOT
BRANCH   1   2
ATOM      2  C   UNL A   1      46.060  19.738  25.149  1.00  0.00     0.202 C 
BRANCH   2   3
ATOM      3  C   UNL A   1      44.914  19.277  24.243  1.00  0.00     0.261 C 
BRANCH   3   4
ATOM      4  O   UNL A   1      43.668  19.884  24.649  1.00  0.00    -0.459 OA
BRANCH   4   5
ATOM      5  C   UNL A   1      42.912  19.202  25.551  1.00  0.00     0.368 C 
ATOM      6  O   UNL A   1      42.901  17.981  25.667  1.00  0.00    -0.245 OA
BRANCH   5   7
ATOM      7  C   UNL A   1      42.062  20.133  26.454  1.00  0.00     0.198 C 
ATOM      8  C   UNL A   1      42.273  21.605  26.071  1.00  0.00     0.087 C 
ATOM      9  C   UNL A   1      40.536  19.975  26.349  1.00  0.00     0.145 C 
ATOM     10  C   UNL A   1      41.122  22.336  26.745  1.00  0.00     0.072 C 
ATOM     11  C   UNL A   1      39.926  21.372  26.637  1.00  0.00     0.191 C 
BRANCH   7  12
ATOM     12  N   UNL A   1      42.488  19.948  27.867  1.00  0.00    -0.343 N 
ATOM     13  H   UNL A   1      42.593  20.859  28.313  1.00  0.00     0.345 HD
ATOM     14  H   UNL A   1      43.382  19.454  27.890  1.00  0.00     0.345 HD
ATOM     15  H   UNL A   1      41.786  19.402  28.365  1.00  0.00     0.345 HD
ENDBRANCH   7  12
BRANCH  11  16
ATOM     16  N   UNL A   1      38.877  21.826  25.695  1.00  0.00    -0.332 N 
ATOM     17  C   UNL A   1      37.894  20.805  25.316  1.00  0.00     0.263 C 
ATOM     18  C   UNL A   1      38.240  23.067  26.160  1.00  0.00     0.263 C 
ATOM     19  H   UNL A   1      39.372  22.025  24.825  1.00  0.00     0.348 HD
ATOM     20  C   UNL A   1      36.933  21.323  24.245  1.00  0.00     0.074 C 
ATOM     21  C   UNL A   1      37.286  23.638  25.110  1.00  0.00     0.074 C 
ATOM     22  C   UNL A   1      36.233  22.602  24.709  1.00  0.00     0.106 C 
BRANCH  22  23
ATOM     23  C   UNL A   1      35.301  23.136  23.640  1.00  0.00     0.392 C 
ATOM     24  F   UNL A   1      34.860  24.370  23.973  1.00  0.00    -0.171 F 
ATOM     25  F   UNL A   1      35.945  23.250  22.457  1.00  0.00    -0.171 F 
ATOM     26  F   UNL A   1      34.227  22.345  23.455  1.00  0.00    -0.171 F 
ENDBRANCH  22  23
ENDBRANCH  11  16
ENDBRANCH   5   7
ENDBRANCH   4   5
ENDBRANCH   3   4
ENDBRANCH   2   3
ENDBRANCH   1   2
BRANCH   1  27
ATOM     27  C   UNL A   1      45.980  22.000  24.295  1.00  0.00     0.202 C 
BRANCH  27  28
ATOM     28  C   UNL A   1      45.776  23.044  25.393  1.00  0.00     0.261 C 
BRANCH  28  29
ATOM     29  O   UNL A   1      44.688  23.925  25.056  1.00  0.00    -0.460 OA
BRANCH  29  30
ATOM     30  C   UNL A   1      44.985  25.237  25.181  1.00  0.00     0.338 C 
ATOM     31  O   UNL A   1      45.891  25.846  24.624  1.00  0.00    -0.246 OA
BRANCH  30  32
ATOM     32  C   UNL A   1      43.964  25.928  25.988  1.00  0.00     0.060 A 
ATOM     33  C   UNL A   1      44.207  27.273  26.287  1.00  0.00     0.016 A 
ATOM     34  C   UNL A   1      42.855  25.269  26.526  1.00  0.00     0.016 A 
ATOM     35  C   UNL A   1      43.403  27.937  27.204  1.00  0.00     0.010 A 
ATOM     36  C   UNL A   1      42.037  25.943  27.443  1.00  0.00     0.010 A 
ATOM     37  C   UNL A   1      42.351  27.257  27.834  1.00  0.00    -0.014 A 
BRANCH  37  38
ATOM     38  C   UNL A   1      41.755  27.869  29.047  1.00  0.00     0.031 A 
ATOM     39  C   UNL A   1      42.466  27.702  30.364  1.00  0.00     0.074 A 
ATOM     40  C   UNL A   1      40.663  28.647  28.966  1.00  0.00     0.049 A 
ATOM     41  N   UNL A   1      42.198  28.235  31.529  1.00  0.00    -0.248 NA
ATOM     42  C   UNL A   1      43.638  26.811  30.367  1.00  0.00     0.031 C 
ATOM     43  C   UNL A   1      39.898  28.901  27.749  1.00  0.00     0.029 A 
ATOM     44  N   UNL A   1      40.017  29.375  29.932  1.00  0.00    -0.354 N 
ATOM     45  C   UNL A   1      43.165  27.745  32.398  1.00  0.00     0.074 A 
ATOM     46  C   UNL A   1      43.997  26.838  31.640  1.00  0.00     0.031 C 
ATOM     47  C   UNL A   1      38.880  29.729  28.040  1.00  0.00     0.029 A 
ATOM     48  C   UNL A   1      38.921  30.054  29.466  1.00  0.00     0.049 A 
ATOM     49  H   UNL A   1      40.313  29.407  30.871  1.00  0.00     0.167 HD
ATOM     50  C   UNL A   1      43.356  28.039  33.707  1.00  0.00     0.037 A 
ATOM     51  C   UNL A   1      38.049  30.848  30.117  1.00  0.00     0.037 A 
ATOM     52  C   UNL A   1      42.534  28.946  34.461  1.00  0.00     0.049 A 
ATOM     53  C   UNL A   1      38.266  31.148  31.577  1.00  0.00     0.074 A 
ATOM     54  C   UNL A   1      42.661  29.334  35.784  1.00  0.00     0.029 A 
ATOM     55  N   UNL A   1      41.420  29.603  33.956  1.00  0.00    -0.354 N 
ATOM     56  N   UNL A   1      39.213  30.722  32.377  1.00  0.00    -0.248 NA
ATOM     57  C   UNL A   1      37.305  32.056  32.216  1.00  0.00     0.031 C 
ATOM     58  C   UNL A   1      41.596  30.189  36.092  1.00  0.00     0.029 A 
ATOM     59  C   UNL A   1      40.836  30.374  34.948  1.00  0.00     0.049 A 
ATOM     60  H   UNL A   1      41.094  29.530  33.030  1.00  0.00     0.167 HD
ATOM     61  C   UNL A   1      38.975  31.322  33.607  1.00  0.00     0.074 A 
ATOM     62  C   UNL A   1      37.803  32.158  33.441  1.00  0.00     0.031 C 
ATOM     63  C   UNL A   1      39.666  31.195  34.768  1.00  0.00     0.037 A 
BRANCH  50  64
ATOM     64  C   UNL A   1      44.490  27.345  34.403  1.00  0.00     0.064 A 
ATOM     65  C   UNL A   1      44.324  26.100  35.027  1.00  0.00     0.173 A 
ATOM     66  C   UNL A   1      45.760  27.941  34.456  1.00  0.00     0.173 A 
ATOM     67  F   UNL A   1      43.126  25.495  35.021  1.00  0.00    -0.203 F 
ATOM     68  C   UNL A   1      45.376  25.495  35.713  1.00  0.00     0.198 A 
ATOM     69  C   UNL A   1      46.817  27.319  35.116  1.00  0.00     0.198 A 
ATOM     70  F   UNL A   1      45.974  29.129  33.872  1.00  0.00    -0.203 F 
ATOM     71  F   UNL A   1      45.177  24.335  36.354  1.00  0.00    -0.200 F 
ATOM     72  C   UNL A   1      46.621  26.104  35.753  1.00  0.00     0.200 A 
ATOM     73  F   UNL A   1      48.022  27.904  35.145  1.00  0.00    -0.200 F 
ATOM     74  F   UNL A   1      47.631  25.523  36.416  1.00  0.00    -0.200 F 
ENDBRANCH  50  64
BRANCH  51  75
ATOM     75  C   UNL A   1      36.894  31.420  29.379  1.00  0.00     0.064 A 
ATOM     76  C   UNL A   1      36.856  32.774  29.020  1.00  0.00     0.173 A 
ATOM     77  C   UNL A   1      35.813  30.611  28.999  1.00  0.00     0.173 A 
ATOM     78  F   UNL A   1      37.856  33.590  29.379  1.00  0.00    -0.203 F 
ATOM     79  C   UNL A   1      35.774  33.298  28.313  1.00  0.00     0.198 A 
ATOM     80  C   UNL A   1      34.745  31.131  28.272  1.00  0.00     0.198 A 
ATOM     81  F   UNL A   1      35.805  29.309  29.319  1.00  0.00    -0.203 F 
ATOM     82  F   UNL A   1      35.747  34.602  28.007  1.00  0.00    -0.200 F 
ATOM     83  C   UNL A   1      34.725  32.475  27.933  1.00  0.00     0.200 A 
ATOM     84  F   UNL A   1      33.740  30.328  27.895  1.00  0.00    -0.200 F 
ATOM     85  F   UNL A   1      33.692  32.977  27.242  1.00  0.00    -0.200 F 
ENDBRANCH  51  75
BRANCH  63  86
ATOM     86  C   UNL A   1      39.183  31.993  35.945  1.00  0.00     0.064 A 
ATOM     87  C   UNL A   1      39.603  33.315  36.160  1.00  0.00     0.173 A 
ATOM     88  C   UNL A   1      38.261  31.441  36.848  1.00  0.00     0.173 A 
ATOM     89  F   UNL A   1      40.493  33.882  35.333  1.00  0.00    -0.203 F 
ATOM     90  C   UNL A   1      39.140  34.044  37.252  1.00  0.00     0.198 A 
ATOM     91  C   UNL A   1      37.779  32.183  37.923  1.00  0.00     0.198 A 
ATOM     92  F   UNL A   1      37.821  30.185  36.682  1.00  0.00    -0.203 F 
ATOM     93  F   UNL A   1      39.592  35.287  37.465  1.00  0.00    -0.200 F 
ATOM     94  C   UNL A   1      38.225  33.480  38.129  1.00  0.00     0.200 A 
ATOM     95  F   UNL A   1      36.885  31.641  38.761  1.00  0.00    -0.200 F 
ATOM     96  F   UNL A   1      37.777  34.184  39.177  1.00  0.00    -0.200 F 
ENDBRANCH  63  86
ENDBRANCH  37  38
ENDBRANCH  30  32
ENDBRANCH  29  30
ENDBRANCH  28  29
ENDBRANCH  27  28
ENDBRANCH   1  27
TORSDOF 17
ENDMDL
MODEL 2
REMARK VINA RESULT:     -11.7      5.012      8.048
REMARK SMILES [NH3+][C@]1(C(=O)OCCOCCOC(=O)c2ccc(-c3c4nc(c(-c5c(F)c(F)c(F)c(F)c5F)c5ccc([nH]5)c(-c5c(F)c(F)c(F)c(F)c5F)c5nc(c(-c6c(F)c(F)c(F)c(F)c6F)c6ccc3[nH]6)C=C5)C=C4)cc2)CC[C@@H]([NH+]2CCC(C(F)(F)F)CC2)C1
REMARK SMILES IDX 8 1 7 2 6 3 5 4 3 5 4 6 2 7 77 8 90 9 78 10 79 11 1 12 80 16
REMARK SMILES IDX 81 17 89 18 82 20 88 21 83 22 84 23 85 24 86 25 87 26 9 27
REMARK SMILES IDX 10 28 11 29 12 30 13 31 14 32 15 33 76 34 16 35 75 36 17 37
REMARK SMILES IDX 18 38 19 39 69 40 20 41 74 42 68 43 70 44 21 45 73 46 67 47
REMARK SMILES IDX 66 48 22 50 54 51 34 52 53 53 35 54 38 55 52 56 71 57 36 58
REMARK SMILES IDX 37 59 51 61 72 62 39 63 23 64 24 65 32 66 25 67 26 68 30 69
REMARK SMILES IDX 33 70 27 71 28 72 31 73 29 74 55 75 56 76 64 77 57 78 58 79
REMARK SMILES IDX 62 80 65 81 59 82 60 83 63 84 61 85 40 86 41 87 49 88 42 89
REMARK SMILES IDX 43 90 47 91 50 92 44 93 45 94 48 95 46 96
REMARK H PARENT 1 13 1 14 1 15 80 19 70 49 38 60
REMARK Flexibility Score: inf
ROOT
ATOM      1  O   UNL A   1      35.992  22.000  24.794  1.00  0.00    -0.374 OA
ENDROOT
BRANCH   1   2
ATOM      2  C   UNL A   1      35.581  22.740  25.946  1.00  0.00     0.202 C 
BRANCH   2   3
ATOM      3  C   UNL A   1      35.498  24.256  25.737  1.00  0.00     0.261 C 
BRANCH   3   4
ATOM      4  O   UNL A   1      34.121  24.690  25.701  1.00  0.00    -0.459 OA
BRANCH   4   5
ATOM      5  C   UNL A   1      33.695  25.303  24.565  1.00  0.00     0.368 C 
ATOM      6  O   UNL A   1      33.947  26.466  24.265  1.00  0.00    -0.245 OA
BRANCH   5   7
ATOM      7  C   UNL A   1      32.859  24.369  23.651  1.00  0.00     0.198 C 
ATOM      8  C   UNL A   1      33.745  23.729  22.572  1.00  0.00     0.087 C 
ATOM      9  C   UNL A   1      32.221  23.146  24.329  1.00  0.00     0.145 C 
ATOM     10  C   UNL A   1      32.904  22.584  22.029  1.00  0.00     0.072 C 
ATOM     11  C   UNL A   1      32.155  22.029  23.255  1.00  0.00     0.191 C 
BRANCH   7  12
ATOM     12  N   UNL A   1      31.806  25.176  22.979  1.00  0.00    -0.343 N 
ATOM     13  H   UNL A   1      30.889  24.781  23.189  1.00  0.00     0.345 HD
ATOM     14  H   UNL A   1      31.958  25.162  21.970  1.00  0.00     0.345 HD
ATOM     15  H   UNL A   1      31.848  26.138  23.315  1.00  0.00     0.345 HD
ENDBRANCH   7  12
BRANCH  11  16
ATOM     16  N   UNL A   1      32.625  20.691  23.685  1.00  0.00    -0.332 N 
ATOM     17  C   UNL A   1      32.369  20.362  25.091  1.00  0.00     0.263 C 
ATOM     18  C   UNL A   1      32.153  19.639  22.773  1.00  0.00     0.263 C 
ATOM     19  H   UNL A   1      33.642  20.737  23.625  1.00  0.00     0.348 HD
ATOM     20  C   UNL A   1      33.001  19.024  25.478  1.00  0.00     0.074 C 
ATOM     21  C   UNL A   1      32.779  18.283  23.105  1.00  0.00     0.074 C 
ATOM     22  C   UNL A   1      32.510  17.902  24.562  1.00  0.00     0.106 C 
BRANCH  22  23
ATOM     23  C   UNL A   1      33.156  16.579  24.922  1.00  0.00     0.392 C 
ATOM     24  F   UNL A   1      34.130  16.272  24.034  1.00  0.00    -0.171 F 
ATOM     25  F   UNL A   1      33.735  16.644  26.141  1.00  0.00    -0.171 F 
ATOM     26  F   UNL A   1      32.271  15.563  24.936  1.00  0.00    -0.171 F 
ENDBRANCH  22  23
ENDBRANCH  11  16
ENDBRANCH   5   7
ENDBRANCH   4   5
ENDBRANCH   3   4
ENDBRANCH   2   3
ENDBRANCH   1   2
BRANCH   1  27
ATOM     27  C   UNL A   1      36.253  20.614  25.008  1.00  0.00     0.202 C 
BRANCH  27  28
ATOM     28  C   UNL A   1      37.732  20.227  25.001  1.00  0.00     0.261 C 
BRANCH  28  29
ATOM     29  O   UNL A   1      38.556  21.378  25.267  1.00  0.00    -0.460 OA
BRANCH  29  30
ATOM     30  C   UNL A   1      39.598  21.128  26.089  1.00  0.00     0.338 C 
ATOM     31  O   UNL A   1      40.284  20.113  26.126  1.00  0.00    -0.246 OA
BRANCH  30  32
ATOM     32  C   UNL A   1      39.936  22.324  26.881  1.00  0.00     0.060 A 
ATOM     33  C   UNL A   1      39.220  23.490  26.590  1.00  0.00     0.016 A 
ATOM     34  C   UNL A   1      40.983  22.345  27.807  1.00  0.00     0.016 A 
ATOM     35  C   UNL A   1      39.612  24.702  27.144  1.00  0.00     0.010 A 
ATOM     36  C   UNL A   1      41.371  23.566  28.374  1.00  0.00     0.010 A 
ATOM     37  C   UNL A   1      40.728  24.757  27.990  1.00  0.00    -0.014 A 
BRANCH  37  38
ATOM     38  C   UNL A   1      41.327  26.085  28.267  1.00  0.00     0.031 A 
ATOM     39  C   UNL A   1      42.705  26.382  27.735  1.00  0.00     0.074 A 
ATOM     40  C   UNL A   1      40.623  27.048  28.885  1.00  0.00     0.049 A 
ATOM     41  N   UNL A   1      43.382  27.501  27.754  1.00  0.00    -0.248 NA
ATOM     42  C   UNL A   1      43.414  25.262  27.095  1.00  0.00     0.031 C 
ATOM     43  C   UNL A   1      39.277  26.891  29.428  1.00  0.00     0.029 A 
ATOM     44  N   UNL A   1      40.946  28.355  29.148  1.00  0.00    -0.354 N 
ATOM     45  C   UNL A   1      44.592  27.220  27.131  1.00  0.00     0.074 A 
ATOM     46  C   UNL A   1      44.576  25.816  26.787  1.00  0.00     0.031 C 
ATOM     47  C   UNL A   1      38.886  28.060  29.964  1.00  0.00     0.029 A 
ATOM     48  C   UNL A   1      39.960  29.042  29.808  1.00  0.00     0.049 A 
ATOM     49  H   UNL A   1      41.805  28.761  28.888  1.00  0.00     0.167 HD
ATOM     50  C   UNL A   1      45.617  28.060  26.852  1.00  0.00     0.037 A 
ATOM     51  C   UNL A   1      39.927  30.318  30.237  1.00  0.00     0.037 A 
ATOM     52  C   UNL A   1      45.633  29.457  27.187  1.00  0.00     0.049 A 
ATOM     53  C   UNL A   1      41.085  31.232  29.935  1.00  0.00     0.074 A 
ATOM     54  C   UNL A   1      46.612  30.400  26.923  1.00  0.00     0.029 A 
ATOM     55  N   UNL A   1      44.620  30.114  27.871  1.00  0.00    -0.354 N 
ATOM     56  N   UNL A   1      42.203  30.970  29.300  1.00  0.00    -0.248 NA
ATOM     57  C   UNL A   1      40.967  32.623  30.391  1.00  0.00     0.031 C 
ATOM     58  C   UNL A   1      46.210  31.616  27.489  1.00  0.00     0.029 A 
ATOM     59  C   UNL A   1      44.960  31.443  28.061  1.00  0.00     0.049 A 
ATOM     60  H   UNL A   1      43.782  29.695  28.177  1.00  0.00     0.167 HD
ATOM     61  C   UNL A   1      42.912  32.164  29.263  1.00  0.00     0.074 A 
ATOM     62  C   UNL A   1      42.088  33.156  29.925  1.00  0.00     0.031 C 
ATOM     63  C   UNL A   1      44.132  32.416  28.727  1.00  0.00     0.037 A 
BRANCH  50  64
ATOM     64  C   UNL A   1      46.817  27.468  26.170  1.00  0.00     0.064 A 
ATOM     65  C   UNL A   1      47.825  26.808  26.887  1.00  0.00     0.173 A 
ATOM     66  C   UNL A   1      46.963  27.574  24.778  1.00  0.00     0.173 A 
ATOM     67  F   UNL A   1      47.742  26.695  28.222  1.00  0.00    -0.203 F 
ATOM     68  C   UNL A   1      48.956  26.310  26.243  1.00  0.00     0.198 A 
ATOM     69  C   UNL A   1      48.081  27.049  24.133  1.00  0.00     0.198 A 
ATOM     70  F   UNL A   1      46.027  28.192  24.044  1.00  0.00    -0.203 F 
ATOM     71  F   UNL A   1      49.936  25.738  26.956  1.00  0.00    -0.200 F 
ATOM     72  C   UNL A   1      49.080  26.428  24.867  1.00  0.00     0.200 A 
ATOM     73  F   UNL A   1      48.194  27.154  22.802  1.00  0.00    -0.200 F 
ATOM     74  F   UNL A   1      50.170  25.953  24.248  1.00  0.00    -0.200 F 
ENDBRANCH  50  64
BRANCH  51  75
ATOM     75  C   UNL A   1      38.744  30.802  30.991  1.00  0.00     0.064 A 
ATOM     76  C   UNL A   1      38.699  30.752  32.391  1.00  0.00     0.173 A 
ATOM     77  C   UNL A   1      37.639  31.349  30.320  1.00  0.00     0.173 A 
ATOM     78  F   UNL A   1      39.721  30.219  33.074  1.00  0.00    -0.203 F 
ATOM     79  C   UNL A   1      37.589  31.224  33.091  1.00  0.00     0.198 A 
ATOM     80  C   UNL A   1      36.543  31.843  31.022  1.00  0.00     0.198 A 
ATOM     81  F   UNL A   1      37.637  31.421  28.981  1.00  0.00    -0.203 F 
ATOM     82  F   UNL A   1      37.558  31.138  34.427  1.00  0.00    -0.200 F 
ATOM     83  C   UNL A   1      36.517  31.777  32.406  1.00  0.00     0.200 A 
ATOM     84  F   UNL A   1      35.515  32.389  30.357  1.00  0.00    -0.200 F 
ATOM     85  F   UNL A   1      35.457  32.243  33.081  1.00  0.00    -0.200 F 
ENDBRANCH  51  75
BRANCH  63  86
ATOM     86  C   UNL A   1      44.643  33.825  28.817  1.00  0.00     0.064 A 
ATOM     87  C   UNL A   1      45.457  34.247  29.880  1.00  0.00     0.173 A 
ATOM     88  C   UNL A   1      44.347  34.755  27.808  1.00  0.00     0.173 A 
ATOM     89  F   UNL A   1      45.757  33.399  30.875  1.00  0.00    -0.203 F 
ATOM     90  C   UNL A   1      45.930  35.554  29.944  1.00  0.00     0.198 A 
ATOM     91  C   UNL A   1      44.846  36.054  27.861  1.00  0.00     0.198 A 
ATOM     92  F   UNL A   1      43.581  34.400  26.765  1.00  0.00    -0.203 F 
ATOM     93  F   UNL A   1      46.665  35.948  30.993  1.00  0.00    -0.200 F 
ATOM     94  C   UNL A   1      45.629  36.455  28.933  1.00  0.00     0.200 A 
ATOM     95  F   UNL A   1      44.565  36.918  26.876  1.00  0.00    -0.200 F 
ATOM     96  F   UNL A   1      46.088  37.712  28.994  1.00  0.00    -0.200 F 
ENDBRANCH  63  86
ENDBRANCH  37  38
ENDBRANCH  30  32
ENDBRANCH  29  30
ENDBRANCH  28  29
ENDBRANCH  27  28
ENDBRANCH   1  27
TORSDOF 17
ENDMDL
MODEL 3
REMARK VINA RESULT:     -11.6      4.907      8.145
REMARK SMILES [NH3+][C@]1(C(=O)OCCOCCOC(=O)c2ccc(-c3c4nc(c(-c5c(F)c(F)c(F)c(F)c5F)c5ccc([nH]5)c(-c5c(F)c(F)c(F)c(F)c5F)c5nc(c(-c6c(F)c(F)c(F)c(F)c6F)c6ccc3[nH]6)C=C5)C=C4)cc2)CC[C@@H]([NH+]2CCC(C(F)(F)F)CC2)C1
REMARK SMILES IDX 8 1 7 2 6 3 5 4 3 5 4 6 2 7 77 8 90 9 78 10 79 11 1 12 80 16
REMARK SMILES IDX 81 17 89 18 82 20 88 21 83 22 84 23 85 24 86 25 87 26 9 27
REMARK SMILES IDX 10 28 11 29 12 30 13 31 14 32 15 33 76 34 16 35 75 36 17 37
REMARK SMILES IDX 18 38 19 39 69 40 20 41 74 42 68 43 70 44 21 45 73 46 67 47
REMARK SMILES IDX 66 48 22 50 54 51 34 52 53 53 35 54 38 55 52 56 71 57 36 58
REMARK SMILES IDX 37 59 51 61 72 62 39 63 23 64 24 65 32 66 25 67 26 68 30 69
REMARK SMILES IDX 33 70 27 71 28 72 31 73 29 74 55 75 56 76 64 77 57 78 58 79
REMARK SMILES IDX 62 80 65 81 59 82 60 83 63 84 61 85 40 86 41 87 49 88 42 89
REMARK SMILES IDX 43 90 47 91 50 92 44 93 45 94 48 95 46 96
REMARK H PARENT 1 13 1 14 1 15 80 19 70 49 38 60
REMARK Flexibility Score: inf
ROOT
ATOM      1  O   UNL A   1      36.048  22.080  26.049  1.00  0.00    -0.374 OA
ENDROOT
BRANCH   1   2
ATOM      2  C   UNL A   1      34.719  22.378  26.485  1.00  0.00     0.202 C 
BRANCH   2   3
ATOM      3  C   UNL A   1      33.740  21.202  26.404  1.00  0.00     0.261 C 
BRANCH   3   4
ATOM      4  O   UNL A   1      32.587  21.554  25.609  1.00  0.00    -0.459 OA
BRANCH   4   5
ATOM      5  C   UNL A   1      32.619  21.218  24.292  1.00  0.00     0.368 C 
ATOM      6  O   UNL A   1      32.936  20.113  23.863  1.00  0.00    -0.245 OA
BRANCH   5   7
ATOM      7  C   UNL A   1      32.185  22.380  23.361  1.00  0.00     0.198 C 
ATOM      8  C   UNL A   1      30.908  23.051  23.887  1.00  0.00     0.087 C 
ATOM      9  C   UNL A   1      33.162  23.562  23.247  1.00  0.00     0.145 C 
ATOM     10  C   UNL A   1      30.835  24.366  23.126  1.00  0.00     0.072 C 
ATOM     11  C   UNL A   1      32.299  24.826  22.994  1.00  0.00     0.191 C 
BRANCH   7  12
ATOM     12  N   UNL A   1      31.905  21.829  22.008  1.00  0.00    -0.343 N 
ATOM     13  H   UNL A   1      30.897  21.752  21.874  1.00  0.00     0.345 HD
ATOM     14  H   UNL A   1      32.331  20.905  21.923  1.00  0.00     0.345 HD
ATOM     15  H   UNL A   1      32.298  22.450  21.300  1.00  0.00     0.345 HD
ENDBRANCH   7  12
BRANCH  11  16
ATOM     16  N   UNL A   1      32.629  26.010  23.821  1.00  0.00    -0.332 N 
ATOM     17  C   UNL A   1      31.568  27.018  23.918  1.00  0.00     0.263 C 
ATOM     18  C   UNL A   1      33.144  25.615  25.141  1.00  0.00     0.263 C 
ATOM     19  H   UNL A   1      33.375  26.486  23.314  1.00  0.00     0.348 HD
ATOM     20  C   UNL A   1      32.041  28.258  24.678  1.00  0.00     0.074 C 
ATOM     21  C   UNL A   1      33.653  26.821  25.931  1.00  0.00     0.074 C 
ATOM     22  C   UNL A   1      32.560  27.884  26.067  1.00  0.00     0.106 C 
BRANCH  22  23
ATOM     23  C   UNL A   1      33.057  29.105  26.814  1.00  0.00     0.392 C 
ATOM     24  F   UNL A   1      32.088  29.588  27.626  1.00  0.00    -0.171 F 
ATOM     25  F   UNL A   1      34.112  28.791  27.598  1.00  0.00    -0.171 F 
ATOM     26  F   UNL A   1      33.436  30.095  25.984  1.00  0.00    -0.171 F 
ENDBRANCH  22  23
ENDBRANCH  11  16
ENDBRANCH   5   7
ENDBRANCH   4   5
ENDBRANCH   3   4
ENDBRANCH   2   3
ENDBRANCH   1   2
BRANCH   1  27
ATOM     27  C   UNL A   1      36.185  20.927  25.222  1.00  0.00     0.202 C 
BRANCH  27  28
ATOM     28  C   UNL A   1      37.619  20.427  25.044  1.00  0.00     0.261 C 
BRANCH  28  29
ATOM     29  O   UNL A   1      38.554  21.510  25.205  1.00  0.00    -0.460 OA
BRANCH  29  30
ATOM     30  C   UNL A   1      39.558  21.244  26.068  1.00  0.00     0.338 C 
ATOM     31  O   UNL A   1      40.215  20.212  26.144  1.00  0.00    -0.246 OA
BRANCH  30  32
ATOM     32  C   UNL A   1      39.897  22.441  26.858  1.00  0.00     0.060 A 
ATOM     33  C   UNL A   1      39.209  23.617  26.540  1.00  0.00     0.016 A 
ATOM     34  C   UNL A   1      40.921  22.452  27.810  1.00  0.00     0.016 A 
ATOM     35  C   UNL A   1      39.608  24.827  27.093  1.00  0.00     0.010 A 
ATOM     36  C   UNL A   1      41.316  23.671  28.376  1.00  0.00     0.010 A 
ATOM     37  C   UNL A   1      40.704  24.870  27.966  1.00  0.00    -0.014 A 
BRANCH  37  38
ATOM     38  C   UNL A   1      41.319  26.190  28.246  1.00  0.00     0.031 A 
ATOM     39  C   UNL A   1      42.701  26.470  27.718  1.00  0.00     0.074 A 
ATOM     40  C   UNL A   1      40.626  27.161  28.865  1.00  0.00     0.049 A 
ATOM     41  N   UNL A   1      43.392  27.581  27.740  1.00  0.00    -0.248 NA
ATOM     42  C   UNL A   1      43.397  25.343  27.077  1.00  0.00     0.031 C 
ATOM     43  C   UNL A   1      39.277  27.019  29.405  1.00  0.00     0.029 A 
ATOM     44  N   UNL A   1      40.965  28.463  29.131  1.00  0.00    -0.354 N 
ATOM     45  C   UNL A   1      44.600  27.285  27.119  1.00  0.00     0.074 A 
ATOM     46  C   UNL A   1      44.567  25.882  26.772  1.00  0.00     0.031 C 
ATOM     47  C   UNL A   1      38.899  28.192  29.942  1.00  0.00     0.029 A 
ATOM     48  C   UNL A   1      39.985  29.161  29.790  1.00  0.00     0.049 A 
ATOM     49  H   UNL A   1      41.829  28.859  28.874  1.00  0.00     0.167 HD
ATOM     50  C   UNL A   1      45.636  28.113  26.843  1.00  0.00     0.037 A 
ATOM     51  C   UNL A   1      39.968  30.436  30.221  1.00  0.00     0.037 A 
ATOM     52  C   UNL A   1      45.669  29.510  27.181  1.00  0.00     0.049 A 
ATOM     53  C   UNL A   1      41.138  31.337  29.923  1.00  0.00     0.074 A 
ATOM     54  C   UNL A   1      46.660  30.441  26.921  1.00  0.00     0.029 A 
ATOM     55  N   UNL A   1      44.662  30.177  27.864  1.00  0.00    -0.354 N 
ATOM     56  N   UNL A   1      42.253  31.061  29.290  1.00  0.00    -0.248 NA
ATOM     57  C   UNL A   1      41.037  32.728  30.382  1.00  0.00     0.031 C 
ATOM     58  C   UNL A   1      46.273  31.660  27.488  1.00  0.00     0.029 A 
ATOM     59  C   UNL A   1      45.019  31.502  28.057  1.00  0.00     0.049 A 
ATOM     60  H   UNL A   1      43.819  29.768  28.168  1.00  0.00     0.167 HD
ATOM     61  C   UNL A   1      42.977  32.246  29.256  1.00  0.00     0.074 A 
ATOM     62  C   UNL A   1      42.165  33.248  29.919  1.00  0.00     0.031 C 
ATOM     63  C   UNL A   1      44.202  32.485  28.723  1.00  0.00     0.037 A 
BRANCH  50  64
ATOM     64  C   UNL A   1      46.829  27.507  26.163  1.00  0.00     0.064 A 
ATOM     65  C   UNL A   1      47.840  26.854  26.884  1.00  0.00     0.173 A 
ATOM     66  C   UNL A   1      46.968  27.592  24.769  1.00  0.00     0.173 A 
ATOM     67  F   UNL A   1      47.765  26.761  28.220  1.00  0.00    -0.203 F 
ATOM     68  C   UNL A   1      48.965  26.343  26.240  1.00  0.00     0.198 A 
ATOM     69  C   UNL A   1      48.079  27.054  24.125  1.00  0.00     0.198 A 
ATOM     70  F   UNL A   1      46.029  28.203  24.031  1.00  0.00    -0.203 F 
ATOM     71  F   UNL A   1      49.947  25.779  26.955  1.00  0.00    -0.200 F 
ATOM     72  C   UNL A   1      49.081  26.441  24.861  1.00  0.00     0.200 A 
ATOM     73  F   UNL A   1      48.185  27.140  22.792  1.00  0.00    -0.200 F 
ATOM     74  F   UNL A   1      50.166  25.953  24.243  1.00  0.00    -0.200 F 
ENDBRANCH  50  64
BRANCH  51  75
ATOM     75  C   UNL A   1      38.789  30.934  30.974  1.00  0.00     0.064 A 
ATOM     76  C   UNL A   1      37.686  31.496  30.317  1.00  0.00     0.173 A 
ATOM     77  C   UNL A   1      38.737  30.835  32.373  1.00  0.00     0.173 A 
ATOM     78  F   UNL A   1      37.700  31.631  28.984  1.00  0.00    -0.203 F 
ATOM     79  C   UNL A   1      36.578  31.946  31.032  1.00  0.00     0.198 A 
ATOM     80  C   UNL A   1      37.619  31.263  33.084  1.00  0.00     0.198 A 
ATOM     81  F   UNL A   1      39.767  30.303  33.046  1.00  0.00    -0.203 F 
ATOM     82  F   UNL A   1      35.548  32.506  30.384  1.00  0.00    -0.200 F 
ATOM     83  C   UNL A   1      36.542  31.821  32.413  1.00  0.00     0.200 A 
ATOM     84  F   UNL A   1      37.582  31.127  34.417  1.00  0.00    -0.200 F 
ATOM     85  F   UNL A   1      35.469  32.243  33.099  1.00  0.00    -0.200 F 
ENDBRANCH  51  75
BRANCH  63  86
ATOM     86  C   UNL A   1      44.731  33.887  28.817  1.00  0.00     0.064 A 
ATOM     87  C   UNL A   1      45.545  34.297  29.883  1.00  0.00     0.173 A 
ATOM     88  C   UNL A   1      44.451  34.821  27.807  1.00  0.00     0.173 A 
ATOM     89  F   UNL A   1      45.830  33.445  30.879  1.00  0.00    -0.203 F 
ATOM     90  C   UNL A   1      46.034  35.598  29.951  1.00  0.00     0.198 A 
ATOM     91  C   UNL A   1      44.965  36.113  27.863  1.00  0.00     0.198 A 
ATOM     92  F   UNL A   1      43.685  34.477  26.761  1.00  0.00    -0.203 F 
ATOM     93  F   UNL A   1      46.769  35.982  31.004  1.00  0.00    -0.200 F 
ATOM     94  C   UNL A   1      45.749  36.503  28.939  1.00  0.00     0.200 A 
ATOM     95  F   UNL A   1      44.700  36.982  26.879  1.00  0.00    -0.200 F 
ATOM     96  F   UNL A   1      46.224  37.755  29.004  1.00  0.00    -0.200 F 
ENDBRANCH  63  86
ENDBRANCH  37  38
ENDBRANCH  30  32
ENDBRANCH  29  30
ENDBRANCH  28  29
ENDBRANCH  27  28
ENDBRANCH   1  27
TORSDOF 17
ENDMDL
