MODEL 1
REMARK VINA RESULT:     -10.9      0.000      0.000
REMARK SMILES CCc1ccc(OCC(=O)Nc2cc(C)c(O)c(C(=O)OCCOCCOC(=O)c3ccc(-c4c5nc(c(-c6c(F)c(F)c(F)c(F)c6F)c6ccc([nH]6)c(-c6c(F)c(F)c(F)c(F)c6F)c6nc(c(-c7c(F)c(F)c(F)c(F)c7F)c7ccc4[nH]7)C=C6)C=C5)cc3)c2)cc1
REMARK SMILES IDX 22 1 21 2 19 3 20 4 18 5 12 6 13 7 93 8 14 9 15 10 16 11
REMARK SMILES IDX 11 12 9 13 10 14 8 16 7 17 6 18 3 19 4 20 95 21 5 22 94 23
REMARK SMILES IDX 2 24 1 25 17 26 23 28 24 29 25 30 26 31 27 32 28 33 29 34
REMARK SMILES IDX 30 35 31 36 92 37 32 38 91 39 33 40 34 41 35 42 85 43 36 44
REMARK SMILES IDX 90 45 84 46 86 47 37 48 89 49 83 50 82 51 38 53 70 54 50 55
REMARK SMILES IDX 69 56 51 57 54 58 68 59 87 60 52 61 53 62 67 64 88 65 55 66
REMARK SMILES IDX 39 67 40 68 48 69 41 70 42 71 46 72 49 73 43 74 44 75 47 76
REMARK SMILES IDX 45 77 71 78 72 79 80 80 73 81 74 82 78 83 81 84 75 85 76 86
REMARK SMILES IDX 79 87 77 88 56 89 57 90 65 91 58 92 59 93 63 94 66 95 60 96
REMARK SMILES IDX 61 97 64 98 62 99
REMARK H PARENT 11 15 17 27 86 52 54 63
REMARK Flexibility Score: inf
ROOT
ATOM      1  C   UNL A   1      39.281  22.734  26.116  1.00  0.00     0.261 C 
ENDROOT
BRANCH   1   2
ATOM      2  O   UNL A   1      37.892  22.464  26.368  1.00  0.00    -0.460 OA
BRANCH   2   3
ATOM      3  C   UNL A   1      37.086  22.495  25.281  1.00  0.00     0.342 C 
ATOM      4  O   UNL A   1      37.256  21.912  24.222  1.00  0.00    -0.246 OA
BRANCH   3   5
ATOM      5  C   UNL A   1      35.822  23.204  25.589  1.00  0.00     0.104 A 
ATOM      6  C   UNL A   1      34.393  25.158  25.388  1.00  0.00     0.042 A 
ATOM      7  C   UNL A   1      33.513  24.571  26.309  1.00  0.00     0.033 A 
ATOM      8  C   UNL A   1      35.561  24.478  25.061  1.00  0.00     0.045 A 
ATOM      9  C   UNL A   1      33.754  23.298  26.854  1.00  0.00    -0.006 A 
ATOM     10  C   UNL A   1      32.736  22.686  27.775  1.00  0.00     0.048 C 
ATOM     11  C   UNL A   1      34.905  22.608  26.467  1.00  0.00     0.133 A 
BRANCH   6  12
ATOM     12  N   UNL A   1      34.019  26.412  24.880  1.00  0.00    -0.323 N 
ATOM     13  C   UNL A   1      32.912  26.878  24.232  1.00  0.00     0.262 C 
ATOM     14  O   UNL A   1      32.910  28.075  23.917  1.00  0.00    -0.271 OA
ATOM     15  H   UNL A   1      34.704  27.105  25.023  1.00  0.00     0.170 HD
BRANCH  13  16
ATOM     16  C   UNL A   1      31.661  26.017  23.991  1.00  0.00     0.329 C 
BRANCH  16  17
ATOM     17  O   UNL A   1      31.671  25.027  22.972  1.00  0.00    -0.484 OA
BRANCH  17  18
ATOM     18  C   UNL A   1      31.884  23.745  23.391  1.00  0.00     0.120 A 
ATOM     19  C   UNL A   1      32.408  21.061  24.038  1.00  0.00    -0.048 A 
ATOM     20  C   UNL A   1      33.255  21.763  23.170  1.00  0.00     0.007 A 
ATOM     21  C   UNL A   1      31.340  21.750  24.627  1.00  0.00     0.007 A 
ATOM     22  C   UNL A   1      32.994  23.100  22.851  1.00  0.00     0.047 A 
ATOM     23  C   UNL A   1      31.083  23.082  24.314  1.00  0.00     0.047 A 
BRANCH  19  24
ATOM     24  C   UNL A   1      32.597  19.612  24.420  1.00  0.00     0.032 C 
ATOM     25  C   UNL A   1      34.031  19.153  24.597  1.00  0.00     0.009 C 
ENDBRANCH  19  24
ENDBRANCH  17  18
ENDBRANCH  16  17
ENDBRANCH  13  16
ENDBRANCH   6  12
BRANCH  11  26
ATOM     26  O   UNL A   1      35.108  21.361  26.998  1.00  0.00    -0.507 OA
ATOM     27  H   UNL A   1      34.374  20.813  27.198  1.00  0.00     0.293 HD
ENDBRANCH  11  26
ENDBRANCH   3   5
ENDBRANCH   2   3
ENDBRANCH   1   2
BRANCH   1  28
ATOM     28  C   UNL A   1      40.138  21.584  26.647  1.00  0.00     0.202 C 
BRANCH  28  29
ATOM     29  O   UNL A   1      41.081  21.081  25.698  1.00  0.00    -0.374 OA
BRANCH  29  30
ATOM     30  C   UNL A   1      42.429  20.993  26.163  1.00  0.00     0.202 C 
BRANCH  30  31
ATOM     31  C   UNL A   1      43.443  21.793  25.339  1.00  0.00     0.261 C 
BRANCH  31  32
ATOM     32  O   UNL A   1      42.949  23.100  25.002  1.00  0.00    -0.460 OA
BRANCH  32  33
ATOM     33  C   UNL A   1      43.837  24.114  25.152  1.00  0.00     0.338 C 
ATOM     34  O   UNL A   1      44.809  24.370  24.469  1.00  0.00    -0.246 OA
BRANCH  33  35
ATOM     35  C   UNL A   1      43.368  24.973  26.253  1.00  0.00     0.060 A 
ATOM     36  C   UNL A   1      42.495  24.456  27.216  1.00  0.00     0.016 A 
ATOM     37  C   UNL A   1      43.767  26.301  26.310  1.00  0.00     0.016 A 
ATOM     38  C   UNL A   1      42.038  25.270  28.264  1.00  0.00     0.010 A 
ATOM     39  C   UNL A   1      43.301  27.101  27.355  1.00  0.00     0.010 A 
ATOM     40  C   UNL A   1      42.445  26.608  28.359  1.00  0.00    -0.014 A 
BRANCH  40  41
ATOM     41  C   UNL A   1      41.948  27.529  29.435  1.00  0.00     0.031 A 
ATOM     42  C   UNL A   1      42.650  27.562  30.776  1.00  0.00     0.074 A 
ATOM     43  C   UNL A   1      40.835  28.277  29.279  1.00  0.00     0.049 A 
ATOM     44  N   UNL A   1      42.278  28.122  31.902  1.00  0.00    -0.248 NA
ATOM     45  C   UNL A   1      43.901  26.796  30.882  1.00  0.00     0.031 C 
ATOM     46  C   UNL A   1      39.982  28.312  28.091  1.00  0.00     0.029 A 
ATOM     47  N   UNL A   1      40.220  29.156  30.146  1.00  0.00    -0.354 N 
ATOM     48  C   UNL A   1      43.195  27.697  32.855  1.00  0.00     0.074 A 
ATOM     49  C   UNL A   1      44.097  26.783  32.190  1.00  0.00     0.031 C 
ATOM     50  C   UNL A   1      38.988  29.196  28.285  1.00  0.00     0.029 A 
ATOM     51  C   UNL A   1      39.101  29.763  29.626  1.00  0.00     0.049 A 
ATOM     52  H   UNL A   1      40.552  29.332  31.056  1.00  0.00     0.167 HD
ATOM     53  C   UNL A   1      43.312  28.060  34.156  1.00  0.00     0.037 A 
ATOM     54  C   UNL A   1      38.261  30.671  30.167  1.00  0.00     0.037 A 
ATOM     55  C   UNL A   1      42.519  29.079  34.789  1.00  0.00     0.049 A 
ATOM     56  C   UNL A   1      38.485  31.158  31.578  1.00  0.00     0.074 A 
ATOM     57  C   UNL A   1      42.659  29.613  36.059  1.00  0.00     0.029 A 
ATOM     58  N   UNL A   1      41.461  29.741  34.190  1.00  0.00    -0.354 N 
ATOM     59  N   UNL A   1      39.399  30.799  32.446  1.00  0.00    -0.248 NA
ATOM     60  C   UNL A   1      37.559  32.185  32.084  1.00  0.00     0.031 C 
ATOM     61  C   UNL A   1      41.671  30.587  36.237  1.00  0.00     0.029 A 
ATOM     62  C   UNL A   1      40.942  30.685  35.063  1.00  0.00     0.049 A 
ATOM     63  H   UNL A   1      41.127  29.568  33.280  1.00  0.00     0.167 HD
ATOM     64  C   UNL A   1      39.181  31.577  33.577  1.00  0.00     0.074 A 
ATOM     65  C   UNL A   1      38.057  32.439  33.285  1.00  0.00     0.031 C 
ATOM     66  C   UNL A   1      39.851  31.570  34.755  1.00  0.00     0.037 A 
BRANCH  53  67
ATOM     67  C   UNL A   1      44.371  27.379  34.979  1.00  0.00     0.064 A 
ATOM     68  C   UNL A   1      44.132  26.162  35.635  1.00  0.00     0.173 A 
ATOM     69  C   UNL A   1      45.653  27.942  35.091  1.00  0.00     0.173 A 
ATOM     70  F   UNL A   1      42.925  25.582  35.563  1.00  0.00    -0.203 F 
ATOM     71  C   UNL A   1      45.114  25.564  36.418  1.00  0.00     0.198 A 
ATOM     72  C   UNL A   1      46.647  27.317  35.839  1.00  0.00     0.198 A 
ATOM     73  F   UNL A   1      45.944  29.095  34.470  1.00  0.00    -0.203 F 
ATOM     74  F   UNL A   1      44.835  24.442  37.096  1.00  0.00    -0.200 F 
ATOM     75  C   UNL A   1      46.373  26.138  36.514  1.00  0.00     0.200 A 
ATOM     76  F   UNL A   1      47.870  27.861  35.913  1.00  0.00    -0.200 F 
ATOM     77  F   UNL A   1      47.319  25.556  37.264  1.00  0.00    -0.200 F 
ENDBRANCH  53  67
BRANCH  54  78
ATOM     78  C   UNL A   1      37.138  31.231  29.366  1.00  0.00     0.064 A 
ATOM     79  C   UNL A   1      37.174  32.561  28.919  1.00  0.00     0.173 A 
ATOM     80  C   UNL A   1      35.990  30.480  29.078  1.00  0.00     0.173 A 
ATOM     81  F   UNL A   1      38.238  33.330  29.194  1.00  0.00    -0.203 F 
ATOM     82  C   UNL A   1      36.093  33.128  28.248  1.00  0.00     0.198 A 
ATOM     83  C   UNL A   1      34.921  31.039  28.378  1.00  0.00     0.198 A 
ATOM     84  F   UNL A   1      35.903  29.205  29.482  1.00  0.00    -0.203 F 
ATOM     85  F   UNL A   1      36.130  34.419  27.893  1.00  0.00    -0.200 F 
ATOM     86  C   UNL A   1      34.969  32.365  27.975  1.00  0.00     0.200 A 
ATOM     87  F   UNL A   1      33.838  30.297  28.108  1.00  0.00    -0.200 F 
ATOM     88  F   UNL A   1      33.925  32.912  27.337  1.00  0.00    -0.200 F 
ENDBRANCH  54  78
BRANCH  66  89
ATOM     89  C   UNL A   1      39.444  32.567  35.803  1.00  0.00     0.064 A 
ATOM     90  C   UNL A   1      38.479  32.266  36.775  1.00  0.00     0.173 A 
ATOM     91  C   UNL A   1      40.080  33.816  35.873  1.00  0.00     0.173 A 
ATOM     92  F   UNL A   1      37.833  31.091  36.744  1.00  0.00    -0.203 F 
ATOM     93  C   UNL A   1      38.153  33.187  37.767  1.00  0.00     0.198 A 
ATOM     94  C   UNL A   1      39.772  34.723  36.885  1.00  0.00     0.198 A 
ATOM     95  F   UNL A   1      41.016  34.151  34.972  1.00  0.00    -0.203 F 
ATOM     96  F   UNL A   1      37.200  32.894  38.663  1.00  0.00    -0.200 F 
ATOM     97  C   UNL A   1      38.805  34.410  37.827  1.00  0.00     0.200 A 
ATOM     98  F   UNL A   1      40.415  35.897  36.949  1.00  0.00    -0.200 F 
ATOM     99  F   UNL A   1      38.499  35.289  38.792  1.00  0.00    -0.200 F 
ENDBRANCH  66  89
ENDBRANCH  40  41
ENDBRANCH  33  35
ENDBRANCH  32  33
ENDBRANCH  31  32
ENDBRANCH  30  31
ENDBRANCH  29  30
ENDBRANCH  28  29
ENDBRANCH   1  28
TORSDOF 20
ENDMDL
MODEL 2
REMARK VINA RESULT:     -10.9      5.352     11.034
REMARK SMILES CCc1ccc(OCC(=O)Nc2cc(C)c(O)c(C(=O)OCCOCCOC(=O)c3ccc(-c4c5nc(c(-c6c(F)c(F)c(F)c(F)c6F)c6ccc([nH]6)c(-c6c(F)c(F)c(F)c(F)c6F)c6nc(c(-c7c(F)c(F)c(F)c(F)c7F)c7ccc4[nH]7)C=C6)C=C5)cc3)c2)cc1
REMARK SMILES IDX 22 1 21 2 19 3 20 4 18 5 12 6 13 7 93 8 14 9 15 10 16 11
REMARK SMILES IDX 11 12 9 13 10 14 8 16 7 17 6 18 3 19 4 20 95 21 5 22 94 23
REMARK SMILES IDX 2 24 1 25 17 26 23 28 24 29 25 30 26 31 27 32 28 33 29 34
REMARK SMILES IDX 30 35 31 36 92 37 32 38 91 39 33 40 34 41 35 42 85 43 36 44
REMARK SMILES IDX 90 45 84 46 86 47 37 48 89 49 83 50 82 51 38 53 70 54 50 55
REMARK SMILES IDX 69 56 51 57 54 58 68 59 87 60 52 61 53 62 67 64 88 65 55 66
REMARK SMILES IDX 39 67 40 68 48 69 41 70 42 71 46 72 49 73 43 74 44 75 47 76
REMARK SMILES IDX 45 77 71 78 72 79 80 80 73 81 74 82 78 83 81 84 75 85 76 86
REMARK SMILES IDX 79 87 77 88 56 89 57 90 65 91 58 92 59 93 63 94 66 95 60 96
REMARK SMILES IDX 61 97 64 98 62 99
REMARK H PARENT 11 15 17 27 86 52 54 63
REMARK Flexibility Score: inf
ROOT
ATOM      1  C   UNL A   1      33.780  35.636  31.758  1.00  0.00     0.261 C 
ENDROOT
BRANCH   1   2
ATOM      2  O   UNL A   1      33.625  34.360  32.402  1.00  0.00    -0.460 OA
BRANCH   2   3
ATOM      3  C   UNL A   1      34.502  33.404  32.020  1.00  0.00     0.342 C 
ATOM      4  O   UNL A   1      34.246  32.350  31.459  1.00  0.00    -0.246 OA
BRANCH   3   5
ATOM      5  C   UNL A   1      35.896  33.874  32.201  1.00  0.00     0.104 A 
ATOM      6  C   UNL A   1      38.019  34.600  31.270  1.00  0.00     0.042 A 
ATOM      7  C   UNL A   1      38.552  34.603  32.568  1.00  0.00     0.033 A 
ATOM      8  C   UNL A   1      36.698  34.202  31.097  1.00  0.00     0.045 A 
ATOM      9  C   UNL A   1      37.770  34.275  33.689  1.00  0.00    -0.006 A 
ATOM     10  C   UNL A   1      38.373  34.373  35.061  1.00  0.00     0.048 C 
ATOM     11  C   UNL A   1      36.429  33.935  33.496  1.00  0.00     0.133 A 
BRANCH   6  12
ATOM     12  N   UNL A   1      38.887  34.989  30.238  1.00  0.00    -0.323 N 
ATOM     13  C   UNL A   1      40.129  34.583  29.844  1.00  0.00     0.262 C 
ATOM     14  O   UNL A   1      40.620  35.156  28.862  1.00  0.00    -0.271 OA
ATOM     15  H   UNL A   1      38.520  35.711  29.678  1.00  0.00     0.170 HD
BRANCH  13  16
ATOM     16  C   UNL A   1      40.865  33.397  30.489  1.00  0.00     0.329 C 
BRANCH  16  17
ATOM     17  O   UNL A   1      42.279  33.434  30.625  1.00  0.00    -0.484 OA
BRANCH  17  18
ATOM     18  C   UNL A   1      42.979  32.647  29.756  1.00  0.00     0.120 A 
ATOM     19  C   UNL A   1      44.377  30.843  28.115  1.00  0.00    -0.048 A 
ATOM     20  C   UNL A   1      43.246  30.427  28.829  1.00  0.00     0.007 A 
ATOM     21  C   UNL A   1      44.749  32.193  28.185  1.00  0.00     0.007 A 
ATOM     22  C   UNL A   1      42.550  31.326  29.644  1.00  0.00     0.047 A 
ATOM     23  C   UNL A   1      44.052  33.090  28.992  1.00  0.00     0.047 A 
BRANCH  19  24
ATOM     24  C   UNL A   1      45.204  29.939  27.232  1.00  0.00     0.032 C 
ATOM     25  C   UNL A   1      46.025  30.628  26.161  1.00  0.00     0.009 C 
ENDBRANCH  19  24
ENDBRANCH  17  18
ENDBRANCH  16  17
ENDBRANCH  13  16
ENDBRANCH   6  12
BRANCH  11  26
ATOM     26  O   UNL A   1      35.684  33.638  34.607  1.00  0.00    -0.507 OA
ATOM     27  H   UNL A   1      35.583  34.275  35.288  1.00  0.00     0.293 HD
ENDBRANCH  11  26
ENDBRANCH   3   5
ENDBRANCH   2   3
ENDBRANCH   1   2
BRANCH   1  28
ATOM     28  C   UNL A   1      32.460  36.054  31.108  1.00  0.00     0.202 C 
BRANCH  28  29
ATOM     29  O   UNL A   1      32.484  36.022  29.679  1.00  0.00    -0.374 OA
BRANCH  29  30
ATOM     30  C   UNL A   1      33.612  35.362  29.102  1.00  0.00     0.202 C 
BRANCH  30  31
ATOM     31  C   UNL A   1      33.271  34.116  28.278  1.00  0.00     0.261 C 
BRANCH  31  32
ATOM     32  O   UNL A   1      34.451  33.416  27.850  1.00  0.00    -0.460 OA
BRANCH  32  33
ATOM     33  C   UNL A   1      34.324  32.069  27.753  1.00  0.00     0.338 C 
ATOM     34  O   UNL A   1      33.447  31.433  27.202  1.00  0.00    -0.246 OA
BRANCH  33  35
ATOM     35  C   UNL A   1      35.525  31.454  28.344  1.00  0.00     0.060 A 
ATOM     36  C   UNL A   1      36.747  32.133  28.305  1.00  0.00     0.016 A 
ATOM     37  C   UNL A   1      35.445  30.188  28.908  1.00  0.00     0.016 A 
ATOM     38  C   UNL A   1      37.896  31.550  28.860  1.00  0.00     0.010 A 
ATOM     39  C   UNL A   1      36.597  29.617  29.452  1.00  0.00     0.010 A 
ATOM     40  C   UNL A   1      37.838  30.282  29.457  1.00  0.00    -0.014 A 
BRANCH  40  41
ATOM     41  C   UNL A   1      39.049  29.600  30.024  1.00  0.00     0.031 A 
ATOM     42  C   UNL A   1      39.575  30.013  31.381  1.00  0.00     0.074 A 
ATOM     43  C   UNL A   1      39.744  28.679  29.323  1.00  0.00     0.049 A 
ATOM     44  N   UNL A   1      40.707  29.707  31.969  1.00  0.00    -0.248 NA
ATOM     45  C   UNL A   1      38.750  30.960  32.146  1.00  0.00     0.031 C 
ATOM     46  C   UNL A   1      39.437  28.217  27.970  1.00  0.00     0.029 A 
ATOM     47  N   UNL A   1      40.876  27.966  29.661  1.00  0.00    -0.354 N 
ATOM     48  C   UNL A   1      40.761  30.493  33.115  1.00  0.00     0.074 A 
ATOM     49  C   UNL A   1      39.585  31.333  33.102  1.00  0.00     0.031 C 
ATOM     50  C   UNL A   1      40.325  27.271  27.613  1.00  0.00     0.029 A 
ATOM     51  C   UNL A   1      41.293  27.086  28.690  1.00  0.00     0.049 A 
ATOM     52  H   UNL A   1      41.342  28.078  30.521  1.00  0.00     0.167 HD
ATOM     53  C   UNL A   1      41.678  30.492  34.114  1.00  0.00     0.037 A 
ATOM     54  C   UNL A   1      42.335  26.228  28.670  1.00  0.00     0.037 A 
ATOM     55  C   UNL A   1      42.768  29.559  34.215  1.00  0.00     0.049 A 
ATOM     56  C   UNL A   1      43.273  26.154  29.849  1.00  0.00     0.074 A 
ATOM     57  C   UNL A   1      43.662  29.391  35.258  1.00  0.00     0.029 A 
ATOM     58  N   UNL A   1      43.091  28.615  33.254  1.00  0.00    -0.354 N 
ATOM     59  N   UNL A   1      43.273  26.854  30.958  1.00  0.00    -0.248 NA
ATOM     60  C   UNL A   1      44.358  25.161  29.777  1.00  0.00     0.031 C 
ATOM     61  C   UNL A   1      44.540  28.357  34.922  1.00  0.00     0.029 A 
ATOM     62  C   UNL A   1      44.168  27.857  33.685  1.00  0.00     0.049 A 
ATOM     63  H   UNL A   1      42.625  28.500  32.394  1.00  0.00     0.167 HD
ATOM     64  C   UNL A   1      44.325  26.364  31.722  1.00  0.00     0.074 A 
ATOM     65  C   UNL A   1      44.937  25.297  30.961  1.00  0.00     0.031 C 
ATOM     66  C   UNL A   1      44.748  26.768  32.944  1.00  0.00     0.037 A 
BRANCH  53  67
ATOM     67  C   UNL A   1      41.518  31.510  35.209  1.00  0.00     0.064 A 
ATOM     68  C   UNL A   1      40.542  31.375  36.210  1.00  0.00     0.173 A 
ATOM     69  C   UNL A   1      42.370  32.624  35.271  1.00  0.00     0.173 A 
ATOM     70  F   UNL A   1      39.700  30.332  36.196  1.00  0.00    -0.203 F 
ATOM     71  C   UNL A   1      40.389  32.345  37.196  1.00  0.00     0.198 A 
ATOM     72  C   UNL A   1      42.241  33.569  36.286  1.00  0.00     0.198 A 
ATOM     73  F   UNL A   1      43.332  32.794  34.352  1.00  0.00    -0.203 F 
ATOM     74  F   UNL A   1      39.400  32.232  38.093  1.00  0.00    -0.200 F 
ATOM     75  C   UNL A   1      41.242  33.437  37.238  1.00  0.00     0.200 A 
ATOM     76  F   UNL A   1      43.081  34.612  36.339  1.00  0.00    -0.200 F 
ATOM     77  F   UNL A   1      41.096  34.366  38.193  1.00  0.00    -0.200 F 
ENDBRANCH  53  67
BRANCH  54  78
ATOM     78  C   UNL A   1      42.543  25.322  27.506  1.00  0.00     0.064 A 
ATOM     79  C   UNL A   1      41.806  24.132  27.389  1.00  0.00     0.173 A 
ATOM     80  C   UNL A   1      43.508  25.588  26.526  1.00  0.00     0.173 A 
ATOM     81  F   UNL A   1      40.891  23.818  28.318  1.00  0.00    -0.203 F 
ATOM     82  C   UNL A   1      42.053  23.229  26.357  1.00  0.00     0.198 A 
ATOM     83  C   UNL A   1      43.732  24.698  25.476  1.00  0.00     0.198 A 
ATOM     84  F   UNL A   1      44.240  26.709  26.592  1.00  0.00    -0.203 F 
ATOM     85  F   UNL A   1      41.380  22.071  26.309  1.00  0.00    -0.200 F 
ATOM     86  C   UNL A   1      43.013  23.515  25.400  1.00  0.00     0.200 A 
ATOM     87  F   UNL A   1      44.655  24.980  24.547  1.00  0.00    -0.200 F 
ATOM     88  F   UNL A   1      43.256  22.642  24.412  1.00  0.00    -0.200 F 
ENDBRANCH  54  78
BRANCH  66  89
ATOM     89  C   UNL A   1      45.885  26.020  33.580  1.00  0.00     0.064 A 
ATOM     90  C   UNL A   1      47.215  26.444  33.449  1.00  0.00     0.173 A 
ATOM     91  C   UNL A   1      45.629  24.901  34.387  1.00  0.00     0.173 A 
ATOM     92  F   UNL A   1      47.515  27.501  32.679  1.00  0.00    -0.203 F 
ATOM     93  C   UNL A   1      48.249  25.763  34.088  1.00  0.00     0.198 A 
ATOM     94  C   UNL A   1      46.662  24.240  35.048  1.00  0.00     0.198 A 
ATOM     95  F   UNL A   1      44.373  24.458  34.551  1.00  0.00    -0.203 F 
ATOM     96  F   UNL A   1      49.517  26.164  33.919  1.00  0.00    -0.200 F 
ATOM     97  C   UNL A   1      47.971  24.669  34.893  1.00  0.00     0.200 A 
ATOM     98  F   UNL A   1      46.389  23.192  35.837  1.00  0.00    -0.200 F 
ATOM     99  F   UNL A   1      48.967  24.024  35.519  1.00  0.00    -0.200 F 
ENDBRANCH  66  89
ENDBRANCH  40  41
ENDBRANCH  33  35
ENDBRANCH  32  33
ENDBRANCH  31  32
ENDBRANCH  30  31
ENDBRANCH  29  30
ENDBRANCH  28  29
ENDBRANCH   1  28
TORSDOF 20
ENDMDL
MODEL 3
REMARK VINA RESULT:     -10.4      1.072      2.093
REMARK SMILES CCc1ccc(OCC(=O)Nc2cc(C)c(O)c(C(=O)OCCOCCOC(=O)c3ccc(-c4c5nc(c(-c6c(F)c(F)c(F)c(F)c6F)c6ccc([nH]6)c(-c6c(F)c(F)c(F)c(F)c6F)c6nc(c(-c7c(F)c(F)c(F)c(F)c7F)c7ccc4[nH]7)C=C6)C=C5)cc3)c2)cc1
REMARK SMILES IDX 22 1 21 2 19 3 20 4 18 5 12 6 13 7 93 8 14 9 15 10 16 11
REMARK SMILES IDX 11 12 9 13 10 14 8 16 7 17 6 18 3 19 4 20 95 21 5 22 94 23
REMARK SMILES IDX 2 24 1 25 17 26 23 28 24 29 25 30 26 31 27 32 28 33 29 34
REMARK SMILES IDX 30 35 31 36 92 37 32 38 91 39 33 40 34 41 35 42 85 43 36 44
REMARK SMILES IDX 90 45 84 46 86 47 37 48 89 49 83 50 82 51 38 53 70 54 50 55
REMARK SMILES IDX 69 56 51 57 54 58 68 59 87 60 52 61 53 62 67 64 88 65 55 66
REMARK SMILES IDX 39 67 40 68 48 69 41 70 42 71 46 72 49 73 43 74 44 75 47 76
REMARK SMILES IDX 45 77 71 78 72 79 80 80 73 81 74 82 78 83 81 84 75 85 76 86
REMARK SMILES IDX 79 87 77 88 56 89 57 90 65 91 58 92 59 93 63 94 66 95 60 96
REMARK SMILES IDX 61 97 64 98 62 99
REMARK H PARENT 11 15 17 27 86 52 54 63
REMARK Flexibility Score: inf
ROOT
ATOM      1  C   UNL A   1      37.360  21.990  24.488  1.00  0.00     0.261 C 
ENDROOT
BRANCH   1   2
ATOM      2  O   UNL A   1      36.153  22.364  25.173  1.00  0.00    -0.460 OA
BRANCH   2   3
ATOM      3  C   UNL A   1      36.193  23.555  25.815  1.00  0.00     0.342 C 
ATOM      4  O   UNL A   1      37.189  24.174  26.156  1.00  0.00    -0.246 OA
BRANCH   3   5
ATOM      5  C   UNL A   1      34.837  24.144  25.906  1.00  0.00     0.104 A 
ATOM      6  C   UNL A   1      33.349  26.057  25.743  1.00  0.00     0.042 A 
ATOM      7  C   UNL A   1      32.311  25.253  26.235  1.00  0.00     0.033 A 
ATOM      8  C   UNL A   1      34.616  25.499  25.614  1.00  0.00     0.045 A 
ATOM      9  C   UNL A   1      32.508  23.895  26.539  1.00  0.00    -0.006 A 
ATOM     10  C   UNL A   1      31.340  23.063  26.987  1.00  0.00     0.048 C 
ATOM     11  C   UNL A   1      33.776  23.341  26.346  1.00  0.00     0.133 A 
BRANCH   6  12
ATOM     12  N   UNL A   1      33.017  27.385  25.434  1.00  0.00    -0.323 N 
ATOM     13  C   UNL A   1      32.273  27.969  24.450  1.00  0.00     0.262 C 
ATOM     14  O   UNL A   1      32.183  29.204  24.474  1.00  0.00    -0.271 OA
ATOM     15  H   UNL A   1      33.404  28.036  26.063  1.00  0.00     0.170 HD
BRANCH  13  16
ATOM     16  C   UNL A   1      31.476  27.160  23.412  1.00  0.00     0.329 C 
BRANCH  16  17
ATOM     17  O   UNL A   1      32.163  26.458  22.386  1.00  0.00    -0.484 OA
BRANCH  17  18
ATOM     18  C   UNL A   1      32.214  25.101  22.526  1.00  0.00     0.120 A 
ATOM     19  C   UNL A   1      32.165  22.330  22.996  1.00  0.00    -0.048 A 
ATOM     20  C   UNL A   1      31.014  23.106  23.188  1.00  0.00     0.007 A 
ATOM     21  C   UNL A   1      33.314  22.958  22.497  1.00  0.00     0.007 A 
ATOM     22  C   UNL A   1      31.039  24.485  22.952  1.00  0.00     0.047 A 
ATOM     23  C   UNL A   1      33.338  24.330  22.256  1.00  0.00     0.047 A 
BRANCH  19  24
ATOM     24  C   UNL A   1      32.238  20.843  23.247  1.00  0.00     0.032 C 
ATOM     25  C   UNL A   1      32.198  20.412  24.699  1.00  0.00     0.009 C 
ENDBRANCH  19  24
ENDBRANCH  17  18
ENDBRANCH  16  17
ENDBRANCH  13  16
ENDBRANCH   6  12
BRANCH  11  26
ATOM     26  O   UNL A   1      33.937  22.010  26.631  1.00  0.00    -0.507 OA
ATOM     27  H   UNL A   1      33.300  21.387  26.337  1.00  0.00     0.293 HD
ENDBRANCH  11  26
ENDBRANCH   3   5
ENDBRANCH   2   3
ENDBRANCH   1   2
BRANCH   1  28
ATOM     28  C   UNL A   1      38.201  21.074  25.380  1.00  0.00     0.202 C 
BRANCH  28  29
ATOM     29  O   UNL A   1      39.278  21.743  26.040  1.00  0.00    -0.374 OA
BRANCH  29  30
ATOM     30  C   UNL A   1      40.322  20.894  26.519  1.00  0.00     0.202 C 
BRANCH  30  31
ATOM     31  C   UNL A   1      41.602  20.917  25.677  1.00  0.00     0.261 C 
BRANCH  31  32
ATOM     32  O   UNL A   1      42.619  21.743  26.268  1.00  0.00    -0.460 OA
BRANCH  32  33
ATOM     33  C   UNL A   1      42.838  22.929  25.646  1.00  0.00     0.338 C 
ATOM     34  O   UNL A   1      43.115  23.127  24.479  1.00  0.00    -0.246 OA
BRANCH  33  35
ATOM     35  C   UNL A   1      42.569  24.007  26.612  1.00  0.00     0.060 A 
ATOM     36  C   UNL A   1      41.875  23.726  27.794  1.00  0.00     0.016 A 
ATOM     37  C   UNL A   1      42.977  25.303  26.330  1.00  0.00     0.016 A 
ATOM     38  C   UNL A   1      41.609  24.750  28.716  1.00  0.00     0.010 A 
ATOM     39  C   UNL A   1      42.701  26.314  27.254  1.00  0.00     0.010 A 
ATOM     40  C   UNL A   1      42.030  26.064  28.467  1.00  0.00    -0.014 A 
BRANCH  40  41
ATOM     41  C   UNL A   1      41.730  27.200  29.401  1.00  0.00     0.031 A 
ATOM     42  C   UNL A   1      42.605  27.421  30.617  1.00  0.00     0.074 A 
ATOM     43  C   UNL A   1      40.647  27.990  29.242  1.00  0.00     0.049 A 
ATOM     44  N   UNL A   1      42.416  28.202  31.653  1.00  0.00    -0.248 NA
ATOM     45  C   UNL A   1      43.817  26.594  30.714  1.00  0.00     0.031 C 
ATOM     46  C   UNL A   1      39.647  27.874  28.181  1.00  0.00     0.029 A 
ATOM     47  N   UNL A   1      40.199  29.055  29.995  1.00  0.00    -0.354 N 
ATOM     48  C   UNL A   1      43.428  27.888  32.552  1.00  0.00     0.074 A 
ATOM     49  C   UNL A   1      44.185  26.803  31.967  1.00  0.00     0.031 C 
ATOM     50  C   UNL A   1      38.735  28.852  28.323  1.00  0.00     0.029 A 
ATOM     51  C   UNL A   1      39.054  29.642  29.509  1.00  0.00     0.049 A 
ATOM     52  H   UNL A   1      40.659  29.367  30.809  1.00  0.00     0.167 HD
ATOM     53  C   UNL A   1      43.737  28.471  33.736  1.00  0.00     0.037 A 
ATOM     54  C   UNL A   1      38.344  30.695  29.966  1.00  0.00     0.037 A 
ATOM     55  C   UNL A   1      43.089  29.645  34.256  1.00  0.00     0.049 A 
ATOM     56  C   UNL A   1      38.778  31.410  31.222  1.00  0.00     0.074 A 
ATOM     57  C   UNL A   1      43.425  30.388  35.375  1.00  0.00     0.029 A 
ATOM     58  N   UNL A   1      41.997  30.267  33.675  1.00  0.00    -0.354 N 
ATOM     59  N   UNL A   1      39.779  31.145  32.025  1.00  0.00    -0.248 NA
ATOM     60  C   UNL A   1      37.983  32.580  31.632  1.00  0.00     0.031 C 
ATOM     61  C   UNL A   1      42.522  31.450  35.484  1.00  0.00     0.029 A 
ATOM     62  C   UNL A   1      41.649  31.389  34.410  1.00  0.00     0.049 A 
ATOM     63  H   UNL A   1      41.536  29.958  32.861  1.00  0.00     0.167 HD
ATOM     64  C   UNL A   1      39.755  32.129  33.006  1.00  0.00     0.074 A 
ATOM     65  C   UNL A   1      38.650  33.008  32.695  1.00  0.00     0.031 C 
ATOM     66  C   UNL A   1      40.575  32.285  34.074  1.00  0.00     0.037 A 
BRANCH  53  67
ATOM     67  C   UNL A   1      44.859  27.871  34.538  1.00  0.00     0.064 A 
ATOM     68  C   UNL A   1      46.188  28.296  34.387  1.00  0.00     0.173 A 
ATOM     69  C   UNL A   1      44.595  26.874  35.490  1.00  0.00     0.173 A 
ATOM     70  F   UNL A   1      46.496  29.244  33.490  1.00  0.00    -0.203 F 
ATOM     71  C   UNL A   1      47.216  27.706  35.115  1.00  0.00     0.198 A 
ATOM     72  C   UNL A   1      45.621  26.317  36.249  1.00  0.00     0.198 A 
ATOM     73  F   UNL A   1      43.340  26.441  35.690  1.00  0.00    -0.203 F 
ATOM     74  F   UNL A   1      48.486  28.076  34.896  1.00  0.00    -0.200 F 
ATOM     75  C   UNL A   1      46.932  26.722  36.051  1.00  0.00     0.200 A 
ATOM     76  F   UNL A   1      45.343  25.382  37.168  1.00  0.00    -0.200 F 
ATOM     77  F   UNL A   1      47.924  26.160  36.755  1.00  0.00    -0.200 F 
ENDBRANCH  53  67
BRANCH  54  78
ATOM     78  C   UNL A   1      37.154  31.184  29.215  1.00  0.00     0.064 A 
ATOM     79  C   UNL A   1      37.155  32.462  28.633  1.00  0.00     0.173 A 
ATOM     80  C   UNL A   1      35.983  30.423  29.110  1.00  0.00     0.173 A 
ATOM     81  F   UNL A   1      38.242  33.241  28.731  1.00  0.00    -0.203 F 
ATOM     82  C   UNL A   1      36.019  32.970  28.006  1.00  0.00     0.198 A 
ATOM     83  C   UNL A   1      34.857  30.921  28.455  1.00  0.00     0.198 A 
ATOM     84  F   UNL A   1      35.928  29.196  29.649  1.00  0.00    -0.203 F 
ATOM     85  F   UNL A   1      36.029  34.219  27.519  1.00  0.00    -0.200 F 
ATOM     86  C   UNL A   1      34.872  32.198  27.915  1.00  0.00     0.200 A 
ATOM     87  F   UNL A   1      33.751  30.169  28.361  1.00  0.00    -0.200 F 
ATOM     88  F   UNL A   1      33.777  32.691  27.320  1.00  0.00    -0.200 F 
ENDBRANCH  54  78
BRANCH  66  89
ATOM     89  C   UNL A   1      40.364  33.483  34.956  1.00  0.00     0.064 A 
ATOM     90  C   UNL A   1      40.929  34.730  34.658  1.00  0.00     0.173 A 
ATOM     91  C   UNL A   1      39.527  33.393  36.079  1.00  0.00     0.173 A 
ATOM     92  F   UNL A   1      41.747  34.867  33.603  1.00  0.00    -0.203 F 
ATOM     93  C   UNL A   1      40.680  35.840  35.463  1.00  0.00     0.198 A 
ATOM     94  C   UNL A   1      39.256  34.510  36.865  1.00  0.00     0.198 A 
ATOM     95  F   UNL A   1      38.954  32.224  36.404  1.00  0.00    -0.203 F 
ATOM     96  F   UNL A   1      41.262  37.014  35.181  1.00  0.00    -0.200 F 
ATOM     97  C   UNL A   1      39.837  35.731  36.559  1.00  0.00     0.200 A 
ATOM     98  F   UNL A   1      38.429  34.406  37.914  1.00  0.00    -0.200 F 
ATOM     99  F   UNL A   1      39.587  36.803  37.324  1.00  0.00    -0.200 F 
ENDBRANCH  66  89
ENDBRANCH  40  41
ENDBRANCH  33  35
ENDBRANCH  32  33
ENDBRANCH  31  32
ENDBRANCH  30  31
ENDBRANCH  29  30
ENDBRANCH  28  29
ENDBRANCH   1  28
TORSDOF 20
ENDMDL
