MODEL 1
REMARK VINA RESULT:     -11.1      0.000      0.000
REMARK SMILES CCC(CC)(CC(=O)Nc1cccc(Br)c1)C(=O)OCCOCCOC(=O)c1ccc(-c2c3nc(c(-c4c(F)c(F)c(F)c(F)c4F)c4ccc([nH]4)c(-c4c(F)c(F)c(F)c(F)c4F)c4nc(c(-c5c(F)c(F)c(F)c(F)c5F)c5ccc2[nH]5)C=C4)C=C3)cc1
REMARK SMILES IDX 21 1 20 2 19 3 17 4 18 5 3 6 2 7 1 8 4 9 5 10 6 11 7 12 8 13
REMARK SMILES IDX 9 14 10 16 11 17 16 18 12 19 14 20 13 21 15 22 22 23 23 24
REMARK SMILES IDX 24 25 25 26 26 27 27 28 28 29 29 30 90 31 30 32 89 33 31 34
REMARK SMILES IDX 32 35 33 36 83 37 34 38 88 39 82 40 84 41 35 42 87 43 81 44
REMARK SMILES IDX 80 45 36 47 68 48 48 49 67 50 49 51 52 52 66 53 85 54 50 55
REMARK SMILES IDX 51 56 65 58 86 59 53 60 37 61 38 62 46 63 39 64 40 65 44 66
REMARK SMILES IDX 47 67 41 68 42 69 45 70 43 71 69 72 70 73 78 74 71 75 72 76
REMARK SMILES IDX 76 77 79 78 73 79 74 80 77 81 75 82 54 83 55 84 63 85 56 86
REMARK SMILES IDX 57 87 61 88 64 89 58 90 59 91 62 92 60 93
REMARK H PARENT 9 15 84 46 52 57
REMARK Flexibility Score: inf
ROOT
ATOM      1  C   UNL A   1      37.044  21.906  24.746  1.00  0.00     0.202 C 
ENDROOT
BRANCH   1   2
ATOM      2  C   UNL A   1      35.694  22.325  24.145  1.00  0.00     0.261 C 
BRANCH   2   3
ATOM      3  O   UNL A   1      34.564  21.552  24.601  1.00  0.00    -0.463 OA
BRANCH   3   4
ATOM      4  C   UNL A   1      33.981  22.031  25.724  1.00  0.00     0.312 C 
ATOM      5  O   UNL A   1      34.396  21.772  26.853  1.00  0.00    -0.252 OA
BRANCH   4   6
ATOM      6  C   UNL A   1      32.787  22.985  25.510  1.00  0.00     0.076 C 
BRANCH   6   7
ATOM      7  C   UNL A   1      31.833  22.300  24.518  1.00  0.00     0.016 C 
ATOM      8  C   UNL A   1      31.484  22.999  23.211  1.00  0.00     0.005 C 
ENDBRANCH   6   7
BRANCH   6   9
ATOM      9  C   UNL A   1      33.467  24.262  24.891  1.00  0.00     0.016 C 
ATOM     10  C   UNL A   1      34.068  25.271  25.859  1.00  0.00     0.005 C 
ENDBRANCH   6   9
BRANCH   6  11
ATOM     11  C   UNL A   1      32.001  23.459  26.772  1.00  0.00     0.119 C 
BRANCH  11  12
ATOM     12  C   UNL A   1      30.501  23.740  26.840  1.00  0.00     0.225 C 
ATOM     13  O   UNL A   1      29.786  22.995  27.523  1.00  0.00    -0.275 OA
ATOM     14  N   UNL A   1      29.875  24.841  26.324  1.00  0.00    -0.326 N 
ATOM     15  H   UNL A   1      28.896  24.830  26.425  1.00  0.00     0.169 HD
BRANCH  14  16
ATOM     16  C   UNL A   1      30.367  25.981  25.680  1.00  0.00     0.042 A 
ATOM     17  C   UNL A   1      29.956  26.265  24.375  1.00  0.00     0.026 A 
ATOM     18  C   UNL A   1      31.028  26.969  26.410  1.00  0.00     0.041 A 
ATOM     19  C   UNL A   1      30.375  27.431  23.730  1.00  0.00     0.003 A 
ATOM     20  C   UNL A   1      31.400  28.162  25.779  1.00  0.00     0.020 A 
ATOM     21  C   UNL A   1      31.111  28.381  24.432  1.00  0.00     0.016 A 
ATOM     22  Br  UNL A   1      32.269  29.520  26.768  1.00  0.00    -0.051 Br
ENDBRANCH  14  16
ENDBRANCH  11  12
ENDBRANCH   6  11
ENDBRANCH   4   6
ENDBRANCH   3   4
ENDBRANCH   2   3
ENDBRANCH   1   2
BRANCH   1  23
ATOM     23  O   UNL A   1      37.108  20.644  25.397  1.00  0.00    -0.374 OA
BRANCH  23  24
ATOM     24  C   UNL A   1      38.034  19.694  24.860  1.00  0.00     0.202 C 
BRANCH  24  25
ATOM     25  C   UNL A   1      39.236  19.326  25.740  1.00  0.00     0.261 C 
BRANCH  25  26
ATOM     26  O   UNL A   1      40.137  20.443  25.894  1.00  0.00    -0.460 OA
BRANCH  26  27
ATOM     27  C   UNL A   1      40.796  20.491  27.069  1.00  0.00     0.338 C 
ATOM     28  O   UNL A   1      41.355  19.568  27.651  1.00  0.00    -0.246 OA
BRANCH  27  29
ATOM     29  C   UNL A   1      40.933  21.889  27.504  1.00  0.00     0.060 A 
ATOM     30  C   UNL A   1      40.171  22.860  26.843  1.00  0.00     0.016 A 
ATOM     31  C   UNL A   1      41.887  22.256  28.454  1.00  0.00     0.016 A 
ATOM     32  C   UNL A   1      40.398  24.213  27.092  1.00  0.00     0.010 A 
ATOM     33  C   UNL A   1      42.123  23.614  28.691  1.00  0.00     0.010 A 
ATOM     34  C   UNL A   1      41.408  24.597  27.982  1.00  0.00    -0.014 A 
BRANCH  34  35
ATOM     35  C   UNL A   1      41.837  26.015  28.047  1.00  0.00     0.031 A 
ATOM     36  C   UNL A   1      43.175  26.394  27.478  1.00  0.00     0.074 A 
ATOM     37  C   UNL A   1      41.054  26.951  28.610  1.00  0.00     0.049 A 
ATOM     38  N   UNL A   1      43.798  27.544  27.509  1.00  0.00    -0.248 NA
ATOM     39  C   UNL A   1      43.912  25.327  26.783  1.00  0.00     0.031 C 
ATOM     40  C   UNL A   1      39.722  26.715  29.158  1.00  0.00     0.029 A 
ATOM     41  N   UNL A   1      41.283  28.286  28.833  1.00  0.00    -0.354 N 
ATOM     42  C   UNL A   1      45.006  27.334  26.855  1.00  0.00     0.074 A 
ATOM     43  C   UNL A   1      45.034  25.945  26.451  1.00  0.00     0.031 C 
ATOM     44  C   UNL A   1      39.263  27.861  29.689  1.00  0.00     0.029 A 
ATOM     45  C   UNL A   1      40.284  28.899  29.546  1.00  0.00     0.049 A 
ATOM     46  H   UNL A   1      42.086  28.757  28.512  1.00  0.00     0.167 HD
ATOM     47  C   UNL A   1      46.001  28.222  26.616  1.00  0.00     0.037 A 
ATOM     48  C   UNL A   1      40.221  30.142  30.060  1.00  0.00     0.037 A 
ATOM     49  C   UNL A   1      45.968  29.603  27.018  1.00  0.00     0.049 A 
ATOM     50  C   UNL A   1      41.360  31.099  29.833  1.00  0.00     0.074 A 
ATOM     51  C   UNL A   1      46.908  30.592  26.791  1.00  0.00     0.029 A 
ATOM     52  N   UNL A   1      44.940  30.187  27.745  1.00  0.00    -0.354 N 
ATOM     53  N   UNL A   1      42.487  30.906  29.189  1.00  0.00    -0.248 NA
ATOM     54  C   UNL A   1      41.222  32.448  30.401  1.00  0.00     0.031 C 
ATOM     55  C   UNL A   1      46.474  31.761  27.425  1.00  0.00     0.029 A 
ATOM     56  C   UNL A   1      45.239  31.514  28.003  1.00  0.00     0.049 A 
ATOM     57  H   UNL A   1      44.121  29.725  28.035  1.00  0.00     0.167 HD
ATOM     58  C   UNL A   1      43.179  32.108  29.256  1.00  0.00     0.074 A 
ATOM     59  C   UNL A   1      42.344  33.030  29.998  1.00  0.00     0.031 C 
ATOM     60  C   UNL A   1      44.394  32.420  28.742  1.00  0.00     0.037 A 
BRANCH  47  61
ATOM     61  C   UNL A   1      47.229  27.707  25.924  1.00  0.00     0.064 A 
ATOM     62  C   UNL A   1      48.347  27.253  26.638  1.00  0.00     0.173 A 
ATOM     63  C   UNL A   1      47.283  27.666  24.522  1.00  0.00     0.173 A 
ATOM     64  F   UNL A   1      48.350  27.284  27.979  1.00  0.00    -0.203 F 
ATOM     65  C   UNL A   1      49.488  26.809  25.974  1.00  0.00     0.198 A 
ATOM     66  C   UNL A   1      48.415  27.195  23.862  1.00  0.00     0.198 A 
ATOM     67  F   UNL A   1      46.238  28.084  23.792  1.00  0.00    -0.203 F 
ATOM     68  F   UNL A   1      50.566  26.429  26.675  1.00  0.00    -0.200 F 
ATOM     69  C   UNL A   1      49.519  26.775  24.587  1.00  0.00     0.200 A 
ATOM     70  F   UNL A   1      48.438  27.155  22.522  1.00  0.00    -0.200 F 
ATOM     71  F   UNL A   1      50.618  26.350  23.950  1.00  0.00    -0.200 F 
ENDBRANCH  47  61
BRANCH  48  72
ATOM     72  C   UNL A   1      39.038  30.534  30.868  1.00  0.00     0.064 A 
ATOM     73  C   UNL A   1      38.991  30.304  32.248  1.00  0.00     0.173 A 
ATOM     74  C   UNL A   1      37.941  31.175  30.273  1.00  0.00     0.173 A 
ATOM     75  F   UNL A   1      40.005  29.671  32.857  1.00  0.00    -0.203 F 
ATOM     76  C   UNL A   1      37.890  30.700  33.005  1.00  0.00     0.198 A 
ATOM     77  C   UNL A   1      36.851  31.592  31.034  1.00  0.00     0.198 A 
ATOM     78  F   UNL A   1      37.938  31.415  28.954  1.00  0.00    -0.203 F 
ATOM     79  F   UNL A   1      37.856  30.445  34.321  1.00  0.00    -0.200 F 
ATOM     80  C   UNL A   1      36.825  31.352  32.400  1.00  0.00     0.200 A 
ATOM     81  F   UNL A   1      35.831  32.231  30.446  1.00  0.00    -0.200 F 
ATOM     82  F   UNL A   1      35.774  31.745  33.130  1.00  0.00    -0.200 F 
ENDBRANCH  48  72
BRANCH  60  83
ATOM     83  C   UNL A   1      44.891  33.823  28.933  1.00  0.00     0.064 A 
ATOM     84  C   UNL A   1      45.725  34.167  30.007  1.00  0.00     0.173 A 
ATOM     85  C   UNL A   1      44.588  34.817  27.990  1.00  0.00     0.173 A 
ATOM     86  F   UNL A   1      46.032  33.256  30.942  1.00  0.00    -0.203 F 
ATOM     87  C   UNL A   1      46.230  35.459  30.134  1.00  0.00     0.198 A 
ATOM     88  C   UNL A   1      45.114  36.100  28.106  1.00  0.00     0.198 A 
ATOM     89  F   UNL A   1      43.799  34.535  26.942  1.00  0.00    -0.203 F 
ATOM     90  F   UNL A   1      47.001  35.775  31.182  1.00  0.00    -0.200 F 
ATOM     91  C   UNL A   1      45.931  36.421  29.179  1.00  0.00     0.200 A 
ATOM     92  F   UNL A   1      44.835  37.024  27.177  1.00  0.00    -0.200 F 
ATOM     93  F   UNL A   1      46.430  37.659  29.296  1.00  0.00    -0.200 F 
ENDBRANCH  60  83
ENDBRANCH  34  35
ENDBRANCH  27  29
ENDBRANCH  26  27
ENDBRANCH  25  26
ENDBRANCH  24  25
ENDBRANCH  23  24
ENDBRANCH   1  23
TORSDOF 19
ENDMDL
MODEL 2
REMARK VINA RESULT:     -10.8      1.950      7.665
REMARK SMILES CCC(CC)(CC(=O)Nc1cccc(Br)c1)C(=O)OCCOCCOC(=O)c1ccc(-c2c3nc(c(-c4c(F)c(F)c(F)c(F)c4F)c4ccc([nH]4)c(-c4c(F)c(F)c(F)c(F)c4F)c4nc(c(-c5c(F)c(F)c(F)c(F)c5F)c5ccc2[nH]5)C=C4)C=C3)cc1
REMARK SMILES IDX 21 1 20 2 19 3 17 4 18 5 3 6 2 7 1 8 4 9 5 10 6 11 7 12 8 13
REMARK SMILES IDX 9 14 10 16 11 17 16 18 12 19 14 20 13 21 15 22 22 23 23 24
REMARK SMILES IDX 24 25 25 26 26 27 27 28 28 29 29 30 90 31 30 32 89 33 31 34
REMARK SMILES IDX 32 35 33 36 83 37 34 38 88 39 82 40 84 41 35 42 87 43 81 44
REMARK SMILES IDX 80 45 36 47 68 48 48 49 67 50 49 51 52 52 66 53 85 54 50 55
REMARK SMILES IDX 51 56 65 58 86 59 53 60 37 61 38 62 46 63 39 64 40 65 44 66
REMARK SMILES IDX 47 67 41 68 42 69 45 70 43 71 69 72 70 73 78 74 71 75 72 76
REMARK SMILES IDX 76 77 79 78 73 79 74 80 77 81 75 82 54 83 55 84 63 85 56 86
REMARK SMILES IDX 57 87 61 88 64 89 58 90 59 91 62 92 60 93
REMARK H PARENT 9 15 84 46 52 57
REMARK Flexibility Score: inf
ROOT
ATOM      1  C   UNL A   1      36.928  22.204  24.016  1.00  0.00     0.202 C 
ENDROOT
BRANCH   1   2
ATOM      2  C   UNL A   1      36.109  23.430  24.448  1.00  0.00     0.261 C 
BRANCH   2   3
ATOM      3  O   UNL A   1      34.706  23.367  24.115  1.00  0.00    -0.463 OA
BRANCH   3   4
ATOM      4  C   UNL A   1      33.976  24.403  24.590  1.00  0.00     0.312 C 
ATOM      5  O   UNL A   1      34.476  25.346  25.203  1.00  0.00    -0.252 OA
BRANCH   4   6
ATOM      6  C   UNL A   1      32.468  24.371  24.262  1.00  0.00     0.076 C 
BRANCH   6   7
ATOM      7  C   UNL A   1      31.747  25.150  25.374  1.00  0.00     0.016 C 
ATOM      8  C   UNL A   1      30.386  25.770  25.091  1.00  0.00     0.005 C 
ENDBRANCH   6   7
BRANCH   6   9
ATOM      9  C   UNL A   1      32.133  22.834  24.303  1.00  0.00     0.016 C 
ATOM     10  C   UNL A   1      31.252  22.342  25.442  1.00  0.00     0.005 C 
ENDBRANCH   6   9
BRANCH   6  11
ATOM     11  C   UNL A   1      32.020  24.894  22.862  1.00  0.00     0.119 C 
BRANCH  11  12
ATOM     12  C   UNL A   1      32.842  25.786  21.933  1.00  0.00     0.225 C 
ATOM     13  O   UNL A   1      33.277  25.306  20.878  1.00  0.00    -0.275 OA
ATOM     14  N   UNL A   1      33.031  27.132  22.086  1.00  0.00    -0.326 N 
ATOM     15  H   UNL A   1      33.628  27.532  21.413  1.00  0.00     0.169 HD
BRANCH  14  16
ATOM     16  C   UNL A   1      32.534  28.046  23.021  1.00  0.00     0.042 A 
ATOM     17  C   UNL A   1      31.215  28.493  22.911  1.00  0.00     0.026 A 
ATOM     18  C   UNL A   1      33.235  28.296  24.200  1.00  0.00     0.041 A 
ATOM     19  C   UNL A   1      30.668  29.353  23.866  1.00  0.00     0.003 A 
ATOM     20  C   UNL A   1      32.665  29.113  25.183  1.00  0.00     0.020 A 
ATOM     21  C   UNL A   1      31.401  29.674  25.004  1.00  0.00     0.016 A 
ATOM     22  Br  UNL A   1      33.596  29.432  26.798  1.00  0.00    -0.051 Br
ENDBRANCH  14  16
ENDBRANCH  11  12
ENDBRANCH   6  11
ENDBRANCH   4   6
ENDBRANCH   3   4
ENDBRANCH   2   3
ENDBRANCH   1   2
BRANCH   1  23
ATOM     23  O   UNL A   1      37.631  21.496  25.029  1.00  0.00    -0.374 OA
BRANCH  23  24
ATOM     24  C   UNL A   1      37.556  20.068  24.977  1.00  0.00     0.202 C 
BRANCH  24  25
ATOM     25  C   UNL A   1      38.820  19.294  25.377  1.00  0.00     0.261 C 
BRANCH  25  26
ATOM     26  O   UNL A   1      39.742  20.133  26.104  1.00  0.00    -0.460 OA
BRANCH  26  27
ATOM     27  C   UNL A   1      41.024  19.716  26.101  1.00  0.00     0.338 C 
ATOM     28  O   UNL A   1      41.454  18.625  25.741  1.00  0.00    -0.246 OA
BRANCH  27  29
ATOM     29  C   UNL A   1      41.914  20.841  26.422  1.00  0.00     0.060 A 
ATOM     30  C   UNL A   1      42.058  21.200  27.769  1.00  0.00     0.016 A 
ATOM     31  C   UNL A   1      42.494  21.610  25.413  1.00  0.00     0.016 A 
ATOM     32  C   UNL A   1      42.742  22.366  28.110  1.00  0.00     0.010 A 
ATOM     33  C   UNL A   1      43.167  22.788  25.757  1.00  0.00     0.010 A 
ATOM     34  C   UNL A   1      43.259  23.190  27.102  1.00  0.00    -0.014 A 
BRANCH  34  35
ATOM     35  C   UNL A   1      43.740  24.552  27.435  1.00  0.00     0.031 A 
ATOM     36  C   UNL A   1      42.742  25.590  27.863  1.00  0.00     0.074 A 
ATOM     37  C   UNL A   1      45.045  24.866  27.352  1.00  0.00     0.049 A 
ATOM     38  N   UNL A   1      42.916  26.864  28.107  1.00  0.00    -0.248 NA
ATOM     39  C   UNL A   1      41.356  25.127  28.035  1.00  0.00     0.031 C 
ATOM     40  C   UNL A   1      46.111  23.937  26.989  1.00  0.00     0.029 A 
ATOM     41  N   UNL A   1      45.686  26.064  27.544  1.00  0.00    -0.354 N 
ATOM     42  C   UNL A   1      41.661  27.357  28.443  1.00  0.00     0.074 A 
ATOM     43  C   UNL A   1      40.734  26.250  28.357  1.00  0.00     0.031 C 
ATOM     44  C   UNL A   1      47.274  24.609  26.949  1.00  0.00     0.029 A 
ATOM     45  C   UNL A   1      47.025  26.018  27.251  1.00  0.00     0.049 A 
ATOM     46  H   UNL A   1      45.229  26.876  27.861  1.00  0.00     0.167 HD
ATOM     47  C   UNL A   1      41.317  28.620  28.789  1.00  0.00     0.037 A 
ATOM     48  C   UNL A   1      47.936  27.010  27.192  1.00  0.00     0.037 A 
ATOM     49  C   UNL A   1      42.243  29.718  28.874  1.00  0.00     0.049 A 
ATOM     50  C   UNL A   1      47.524  28.418  27.525  1.00  0.00     0.074 A 
ATOM     51  C   UNL A   1      42.001  31.026  29.251  1.00  0.00     0.029 A 
ATOM     52  N   UNL A   1      43.593  29.634  28.563  1.00  0.00    -0.354 N 
ATOM     53  N   UNL A   1      46.343  28.875  27.870  1.00  0.00    -0.248 NA
ATOM     54  C   UNL A   1      48.568  29.451  27.463  1.00  0.00     0.031 C 
ATOM     55  C   UNL A   1      43.192  31.747  29.119  1.00  0.00     0.029 A 
ATOM     56  C   UNL A   1      44.189  30.876  28.709  1.00  0.00     0.049 A 
ATOM     57  H   UNL A   1      44.057  28.814  28.280  1.00  0.00     0.167 HD
ATOM     58  C   UNL A   1      46.506  30.237  28.086  1.00  0.00     0.074 A 
ATOM     59  C   UNL A   1      47.902  30.535  27.840  1.00  0.00     0.031 C 
ATOM     60  C   UNL A   1      45.582  31.156  28.462  1.00  0.00     0.037 A 
BRANCH  47  61
ATOM     61  C   UNL A   1      39.865  28.887  29.056  1.00  0.00     0.064 A 
ATOM     62  C   UNL A   1      39.312  28.762  30.340  1.00  0.00     0.173 A 
ATOM     63  C   UNL A   1      39.015  29.278  28.010  1.00  0.00     0.173 A 
ATOM     64  F   UNL A   1      40.080  28.379  31.371  1.00  0.00    -0.203 F 
ATOM     65  C   UNL A   1      37.955  28.986  30.559  1.00  0.00     0.198 A 
ATOM     66  C   UNL A   1      37.664  29.527  28.239  1.00  0.00     0.198 A 
ATOM     67  F   UNL A   1      39.494  29.417  26.765  1.00  0.00    -0.203 F 
ATOM     68  F   UNL A   1      37.437  28.808  31.783  1.00  0.00    -0.200 F 
ATOM     69  C   UNL A   1      37.133  29.372  29.510  1.00  0.00     0.200 A 
ATOM     70  F   UNL A   1      36.875  29.910  27.225  1.00  0.00    -0.200 F 
ATOM     71  F   UNL A   1      35.828  29.584  29.723  1.00  0.00    -0.200 F 
ENDBRANCH  47  61
BRANCH  48  72
ATOM     72  C   UNL A   1      49.324  26.695  26.769  1.00  0.00     0.064 A 
ATOM     73  C   UNL A   1      49.689  26.689  25.417  1.00  0.00     0.173 A 
ATOM     74  C   UNL A   1      50.321  26.422  27.717  1.00  0.00     0.173 A 
ATOM     75  F   UNL A   1      48.765  26.919  24.473  1.00  0.00    -0.203 F 
ATOM     76  C   UNL A   1      51.001  26.421  25.028  1.00  0.00     0.198 A 
ATOM     77  C   UNL A   1      51.636  26.178  27.330  1.00  0.00     0.198 A 
ATOM     78  F   UNL A   1      50.020  26.414  29.024  1.00  0.00    -0.203 F 
ATOM     79  F   UNL A   1      51.320  26.395  23.727  1.00  0.00    -0.200 F 
ATOM     80  C   UNL A   1      51.975  26.175  25.985  1.00  0.00     0.200 A 
ATOM     81  F   UNL A   1      52.576  25.953  28.259  1.00  0.00    -0.200 F 
ATOM     82  F   UNL A   1      53.238  25.932  25.611  1.00  0.00    -0.200 F 
ENDBRANCH  48  72
BRANCH  60  83
ATOM     83  C   UNL A   1      46.047  32.568  28.661  1.00  0.00     0.064 A 
ATOM     84  C   UNL A   1      45.988  33.513  27.626  1.00  0.00     0.173 A 
ATOM     85  C   UNL A   1      46.487  32.998  29.922  1.00  0.00     0.173 A 
ATOM     86  F   UNL A   1      45.587  33.148  26.400  1.00  0.00    -0.203 F 
ATOM     87  C   UNL A   1      46.363  34.837  27.846  1.00  0.00     0.198 A 
ATOM     88  C   UNL A   1      46.837  34.327  30.145  1.00  0.00     0.198 A 
ATOM     89  F   UNL A   1      46.554  32.132  30.945  1.00  0.00    -0.203 F 
ATOM     90  F   UNL A   1      46.327  35.719  26.838  1.00  0.00    -0.200 F 
ATOM     91  C   UNL A   1      46.778  35.244  29.107  1.00  0.00     0.200 A 
ATOM     92  F   UNL A   1      47.225  34.721  31.365  1.00  0.00    -0.200 F 
ATOM     93  F   UNL A   1      47.123  36.521  29.319  1.00  0.00    -0.200 F 
ENDBRANCH  60  83
ENDBRANCH  34  35
ENDBRANCH  27  29
ENDBRANCH  26  27
ENDBRANCH  25  26
ENDBRANCH  24  25
ENDBRANCH  23  24
ENDBRANCH   1  23
TORSDOF 19
ENDMDL
MODEL 3
REMARK VINA RESULT:     -10.8      1.356      2.482
REMARK SMILES CCC(CC)(CC(=O)Nc1cccc(Br)c1)C(=O)OCCOCCOC(=O)c1ccc(-c2c3nc(c(-c4c(F)c(F)c(F)c(F)c4F)c4ccc([nH]4)c(-c4c(F)c(F)c(F)c(F)c4F)c4nc(c(-c5c(F)c(F)c(F)c(F)c5F)c5ccc2[nH]5)C=C4)C=C3)cc1
REMARK SMILES IDX 21 1 20 2 19 3 17 4 18 5 3 6 2 7 1 8 4 9 5 10 6 11 7 12 8 13
REMARK SMILES IDX 9 14 10 16 11 17 16 18 12 19 14 20 13 21 15 22 22 23 23 24
REMARK SMILES IDX 24 25 25 26 26 27 27 28 28 29 29 30 90 31 30 32 89 33 31 34
REMARK SMILES IDX 32 35 33 36 83 37 34 38 88 39 82 40 84 41 35 42 87 43 81 44
REMARK SMILES IDX 80 45 36 47 68 48 48 49 67 50 49 51 52 52 66 53 85 54 50 55
REMARK SMILES IDX 51 56 65 58 86 59 53 60 37 61 38 62 46 63 39 64 40 65 44 66
REMARK SMILES IDX 47 67 41 68 42 69 45 70 43 71 69 72 70 73 78 74 71 75 72 76
REMARK SMILES IDX 76 77 79 78 73 79 74 80 77 81 75 82 54 83 55 84 63 85 56 86
REMARK SMILES IDX 57 87 61 88 64 89 58 90 59 91 62 92 60 93
REMARK H PARENT 9 15 84 46 52 57
REMARK Flexibility Score: inf
ROOT
ATOM      1  C   UNL A   1      36.194  21.680  24.357  1.00  0.00     0.202 C 
ENDROOT
BRANCH   1   2
ATOM      2  C   UNL A   1      36.007  22.979  23.559  1.00  0.00     0.261 C 
BRANCH   2   3
ATOM      3  O   UNL A   1      34.643  23.267  23.183  1.00  0.00    -0.463 OA
BRANCH   3   4
ATOM      4  C   UNL A   1      33.991  24.084  24.043  1.00  0.00     0.312 C 
ATOM      5  O   UNL A   1      34.575  24.786  24.867  1.00  0.00    -0.252 OA
BRANCH   4   6
ATOM      6  C   UNL A   1      32.456  24.138  23.888  1.00  0.00     0.076 C 
BRANCH   6   7
ATOM      7  C   UNL A   1      31.904  24.883  25.113  1.00  0.00     0.016 C 
ATOM      8  C   UNL A   1      30.491  25.446  25.072  1.00  0.00     0.005 C 
ENDBRANCH   6   7
BRANCH   6   9
ATOM      9  C   UNL A   1      32.051  22.617  23.887  1.00  0.00     0.016 C 
ATOM     10  C   UNL A   1      32.030  21.900  25.229  1.00  0.00     0.005 C 
ENDBRANCH   6   9
BRANCH   6  11
ATOM     11  C   UNL A   1      31.882  24.759  22.577  1.00  0.00     0.119 C 
BRANCH  11  12
ATOM     12  C   UNL A   1      32.582  25.789  21.691  1.00  0.00     0.225 C 
ATOM     13  O   UNL A   1      33.206  25.394  20.697  1.00  0.00    -0.275 OA
ATOM     14  N   UNL A   1      32.469  27.147  21.810  1.00  0.00    -0.326 N 
ATOM     15  H   UNL A   1      33.029  27.652  21.178  1.00  0.00     0.169 HD
BRANCH  14  16
ATOM     16  C   UNL A   1      31.705  27.951  22.662  1.00  0.00     0.042 A 
ATOM     17  C   UNL A   1      32.322  28.592  23.739  1.00  0.00     0.026 A 
ATOM     18  C   UNL A   1      30.418  28.339  22.293  1.00  0.00     0.041 A 
ATOM     19  C   UNL A   1      31.601  29.456  24.568  1.00  0.00     0.003 A 
ATOM     20  C   UNL A   1      29.714  29.248  23.092  1.00  0.00     0.020 A 
ATOM     21  C   UNL A   1      30.286  29.777  24.249  1.00  0.00     0.016 A 
ATOM     22  Br  UNL A   1      27.980  29.804  22.583  1.00  0.00    -0.051 Br
ENDBRANCH  14  16
ENDBRANCH  11  12
ENDBRANCH   6  11
ENDBRANCH   4   6
ENDBRANCH   3   4
ENDBRANCH   2   3
ENDBRANCH   1   2
BRANCH   1  23
ATOM     23  O   UNL A   1      37.517  21.336  24.747  1.00  0.00    -0.374 OA
BRANCH  23  24
ATOM     24  C   UNL A   1      37.768  19.949  24.995  1.00  0.00     0.202 C 
BRANCH  24  25
ATOM     25  C   UNL A   1      39.158  19.583  25.535  1.00  0.00     0.261 C 
BRANCH  25  26
ATOM     26  O   UNL A   1      39.927  20.763  25.848  1.00  0.00    -0.460 OA
BRANCH  26  27
ATOM     27  C   UNL A   1      40.494  20.771  27.071  1.00  0.00     0.338 C 
ATOM     28  O   UNL A   1      40.947  19.816  27.692  1.00  0.00    -0.246 OA
BRANCH  27  29
ATOM     29  C   UNL A   1      40.682  22.158  27.522  1.00  0.00     0.060 A 
ATOM     30  C   UNL A   1      39.947  23.163  26.880  1.00  0.00     0.016 A 
ATOM     31  C   UNL A   1      41.656  22.481  28.468  1.00  0.00     0.016 A 
ATOM     32  C   UNL A   1      40.221  24.504  27.143  1.00  0.00     0.010 A 
ATOM     33  C   UNL A   1      41.940  23.827  28.719  1.00  0.00     0.010 A 
ATOM     34  C   UNL A   1      41.252  24.843  28.029  1.00  0.00    -0.014 A 
BRANCH  34  35
ATOM     35  C   UNL A   1      41.729  26.244  28.106  1.00  0.00     0.031 A 
ATOM     36  C   UNL A   1      43.084  26.580  27.551  1.00  0.00     0.074 A 
ATOM     37  C   UNL A   1      40.974  27.204  28.669  1.00  0.00     0.049 A 
ATOM     38  N   UNL A   1      43.747  27.708  27.594  1.00  0.00    -0.248 NA
ATOM     39  C   UNL A   1      43.789  25.493  26.855  1.00  0.00     0.031 C 
ATOM     40  C   UNL A   1      39.630  27.010  29.204  1.00  0.00     0.029 A 
ATOM     41  N   UNL A   1      41.248  28.528  28.903  1.00  0.00    -0.354 N 
ATOM     42  C   UNL A   1      44.952  27.461  26.949  1.00  0.00     0.074 A 
ATOM     43  C   UNL A   1      44.935  26.074  26.536  1.00  0.00     0.031 C 
ATOM     44  C   UNL A   1      39.207  28.168  29.739  1.00  0.00     0.029 A 
ATOM     45  C   UNL A   1      40.264  29.170  29.612  1.00  0.00     0.049 A 
ATOM     46  H   UNL A   1      42.069  28.973  28.592  1.00  0.00     0.167 HD
ATOM     47  C   UNL A   1      45.979  28.315  26.724  1.00  0.00     0.037 A 
ATOM     48  C   UNL A   1      40.240  30.412  30.134  1.00  0.00     0.037 A 
ATOM     49  C   UNL A   1      45.990  29.693  27.135  1.00  0.00     0.049 A 
ATOM     50  C   UNL A   1      41.413  31.331  29.922  1.00  0.00     0.074 A 
ATOM     51  C   UNL A   1      46.965  30.651  26.923  1.00  0.00     0.029 A 
ATOM     52  N   UNL A   1      44.977  30.308  27.857  1.00  0.00    -0.354 N 
ATOM     53  N   UNL A   1      42.538  31.102  29.287  1.00  0.00    -0.248 NA
ATOM     54  C   UNL A   1      41.317  32.679  30.498  1.00  0.00     0.031 C 
ATOM     55  C   UNL A   1      46.567  31.830  27.561  1.00  0.00     0.029 A 
ATOM     56  C   UNL A   1      45.319  31.622  28.127  1.00  0.00     0.049 A 
ATOM     57  H   UNL A   1      44.140  29.873  28.137  1.00  0.00     0.167 HD
ATOM     58  C   UNL A   1      43.271  32.279  29.367  1.00  0.00     0.074 A 
ATOM     59  C   UNL A   1      42.461  33.225  30.109  1.00  0.00     0.031 C 
ATOM     60  C   UNL A   1      44.500  32.553  28.865  1.00  0.00     0.037 A 
BRANCH  47  61
ATOM     61  C   UNL A   1      47.194  27.763  26.039  1.00  0.00     0.064 A 
ATOM     62  C   UNL A   1      48.295  27.276  26.759  1.00  0.00     0.173 A 
ATOM     63  C   UNL A   1      47.254  27.718  24.637  1.00  0.00     0.173 A 
ATOM     64  F   UNL A   1      48.292  27.308  28.100  1.00  0.00    -0.203 F 
ATOM     65  C   UNL A   1      49.424  26.796  26.101  1.00  0.00     0.198 A 
ATOM     66  C   UNL A   1      48.374  27.212  23.984  1.00  0.00     0.198 A 
ATOM     67  F   UNL A   1      46.225  28.166  23.901  1.00  0.00    -0.203 F 
ATOM     68  F   UNL A   1      50.487  26.386  26.808  1.00  0.00    -0.200 F 
ATOM     69  C   UNL A   1      49.461  26.760  24.715  1.00  0.00     0.200 A 
ATOM     70  F   UNL A   1      48.403  27.170  22.644  1.00  0.00    -0.200 F 
ATOM     71  F   UNL A   1      50.551  26.302  24.084  1.00  0.00    -0.200 F 
ENDBRANCH  47  61
BRANCH  48  72
ATOM     72  C   UNL A   1      39.065  30.839  30.934  1.00  0.00     0.064 A 
ATOM     73  C   UNL A   1      37.971  31.478  30.338  1.00  0.00     0.173 A 
ATOM     74  C   UNL A   1      39.003  30.587  32.313  1.00  0.00     0.173 A 
ATOM     75  F   UNL A   1      37.994  31.763  29.028  1.00  0.00    -0.203 F 
ATOM     76  C   UNL A   1      36.858  31.849  31.091  1.00  0.00     0.198 A 
ATOM     77  C   UNL A   1      37.881  30.937  33.061  1.00  0.00     0.198 A 
ATOM     78  F   UNL A   1      40.027  29.980  32.931  1.00  0.00    -0.203 F 
ATOM     79  F   UNL A   1      35.834  32.484  30.502  1.00  0.00    -0.200 F 
ATOM     80  C   UNL A   1      36.810  31.571  32.449  1.00  0.00     0.200 A 
ATOM     81  F   UNL A   1      37.835  30.655  34.370  1.00  0.00    -0.200 F 
ATOM     82  F   UNL A   1      35.734  31.916  33.169  1.00  0.00    -0.200 F 
ENDBRANCH  48  72
BRANCH  60  83
ATOM     83  C   UNL A   1      45.043  33.936  29.070  1.00  0.00     0.064 A 
ATOM     84  C   UNL A   1      44.754  34.979  28.179  1.00  0.00     0.173 A 
ATOM     85  C   UNL A   1      45.801  34.237  30.213  1.00  0.00     0.173 A 
ATOM     86  F   UNL A   1      44.046  34.739  27.066  1.00  0.00    -0.203 F 
ATOM     87  C   UNL A   1      45.213  36.272  28.419  1.00  0.00     0.198 A 
ATOM     88  C   UNL A   1      46.237  35.535  30.463  1.00  0.00     0.198 A 
ATOM     89  F   UNL A   1      46.098  33.274  31.099  1.00  0.00    -0.203 F 
ATOM     90  F   UNL A   1      44.951  37.249  27.540  1.00  0.00    -0.200 F 
ATOM     91  C   UNL A   1      45.945  36.550  29.565  1.00  0.00     0.200 A 
ATOM     92  F   UNL A   1      46.933  35.804  31.576  1.00  0.00    -0.200 F 
ATOM     93  F   UNL A   1      46.373  37.798  29.801  1.00  0.00    -0.200 F 
ENDBRANCH  60  83
ENDBRANCH  34  35
ENDBRANCH  27  29
ENDBRANCH  26  27
ENDBRANCH  25  26
ENDBRANCH  24  25
ENDBRANCH  23  24
ENDBRANCH   1  23
TORSDOF 19
ENDMDL
