MODEL 1
REMARK VINA RESULT:     -10.8      0.000      0.000
REMARK SMILES C#CCOc1ccccc1/C=C(\C#N)C(=O)OCCOCCOC(=O)c1ccc(-c2c3nc(c(-c4c(F)c(F)c(F)c(F)c4F)c4ccc([nH]4)c(-c4c(F)c(F)c(F)c(F)c4F)c4nc(c(-c5c(F)c(F)c(F)c(F)c5F)c5ccc2[nH]5)C=C4)C=C3)cc1
REMARK SMILES IDX 19 1 18 2 17 3 15 4 16 5 12 6 11 7 10 8 5 9 6 10 7 11 9 12
REMARK SMILES IDX 8 13 4 14 3 15 2 16 1 17 13 18 14 19 20 20 21 21 22 22 23 23
REMARK SMILES IDX 24 24 25 25 26 26 27 27 88 28 28 29 87 30 29 31 30 32 31 33
REMARK SMILES IDX 81 34 32 35 86 36 80 37 82 38 33 39 85 40 79 41 78 42 34 44
REMARK SMILES IDX 66 45 46 46 65 47 47 48 50 49 64 50 83 51 48 52 49 53 63 55
REMARK SMILES IDX 84 56 51 57 35 58 36 59 44 60 37 61 38 62 42 63 45 64 39 65
REMARK SMILES IDX 40 66 43 67 41 68 67 69 68 70 76 71 69 72 70 73 74 74 77 75
REMARK SMILES IDX 71 76 72 77 75 78 73 79 52 80 53 81 61 82 54 83 55 84 59 85
REMARK SMILES IDX 62 86 56 87 57 88 60 89 58 90
REMARK H PARENT 82 43 50 54
REMARK Flexibility Score: inf
ROOT
ATOM      1  C   UNL A   1      32.509  26.906  25.891  1.00  0.00     0.202 C 
ENDROOT
BRANCH   1   2
ATOM      2  C   UNL A   1      32.297  25.390  26.034  1.00  0.00     0.261 C 
BRANCH   2   3
ATOM      3  O   UNL A   1      32.438  24.662  24.785  1.00  0.00    -0.459 OA
BRANCH   3   4
ATOM      4  C   UNL A   1      31.779  23.473  24.758  1.00  0.00     0.348 C 
ATOM      5  O   UNL A   1      30.740  23.250  25.371  1.00  0.00    -0.245 OA
BRANCH   4   6
ATOM      6  C   UNL A   1      32.385  22.413  23.893  1.00  0.00     0.138 C 
ATOM      7  C   UNL A   1      32.144  21.101  24.181  1.00  0.00     0.039 C 
BRANCH   7   8
ATOM      8  C   UNL A   1      32.925  19.819  24.093  1.00  0.00     0.018 A 
ATOM      9  C   UNL A   1      34.213  19.477  24.668  1.00  0.00     0.128 A 
ATOM     10  C   UNL A   1      34.741  18.202  24.331  1.00  0.00     0.047 A 
ATOM     11  C   UNL A   1      34.091  17.293  23.498  1.00  0.00     0.004 A 
ATOM     12  C   UNL A   1      32.289  18.848  23.274  1.00  0.00     0.012 A 
ATOM     13  C   UNL A   1      32.864  17.620  22.963  1.00  0.00     0.001 A 
BRANCH   9  14
ATOM     14  O   UNL A   1      35.214  20.083  25.414  1.00  0.00    -0.480 OA
BRANCH  14  15
ATOM     15  C   UNL A   1      35.679  21.443  25.641  1.00  0.00     0.318 C 
BRANCH  15  16
ATOM     16  C   UNL A   1      34.757  21.980  26.723  1.00  0.00    -0.065 C 
ATOM     17  C   UNL A   1      33.966  22.441  27.652  1.00  0.00     0.007 C 
ENDBRANCH  15  16
ENDBRANCH  14  15
ENDBRANCH   9  14
ENDBRANCH   7   8
BRANCH   6  18
ATOM     18  C   UNL A   1      33.430  22.939  23.095  1.00  0.00     0.107 C 
ATOM     19  N   UNL A   1      34.274  23.262  22.362  1.00  0.00    -0.192 NA
ENDBRANCH   6  18
ENDBRANCH   4   6
ENDBRANCH   3   4
ENDBRANCH   2   3
ENDBRANCH   1   2
BRANCH   1  20
ATOM     20  O   UNL A   1      31.373  27.764  25.902  1.00  0.00    -0.374 OA
BRANCH  20  21
ATOM     21  C   UNL A   1      31.423  28.973  25.156  1.00  0.00     0.202 C 
BRANCH  21  22
ATOM     22  C   UNL A   1      32.456  30.045  25.482  1.00  0.00     0.261 C 
BRANCH  22  23
ATOM     23  O   UNL A   1      32.620  30.241  26.890  1.00  0.00    -0.460 OA
BRANCH  23  24
ATOM     24  C   UNL A   1      33.254  31.393  27.211  1.00  0.00     0.338 C 
ATOM     25  O   UNL A   1      32.777  32.513  27.269  1.00  0.00    -0.246 OA
BRANCH  24  26
ATOM     26  C   UNL A   1      34.606  31.080  27.693  1.00  0.00     0.060 A 
ATOM     27  C   UNL A   1      34.894  29.742  27.993  1.00  0.00     0.016 A 
ATOM     28  C   UNL A   1      35.545  32.086  27.914  1.00  0.00     0.016 A 
ATOM     29  C   UNL A   1      36.114  29.408  28.564  1.00  0.00     0.010 A 
ATOM     30  C   UNL A   1      36.763  31.753  28.503  1.00  0.00     0.010 A 
ATOM     31  C   UNL A   1      37.031  30.420  28.865  1.00  0.00    -0.014 A 
BRANCH  31  32
ATOM     32  C   UNL A   1      38.203  30.101  29.705  1.00  0.00     0.031 A 
ATOM     33  C   UNL A   1      39.235  29.149  29.179  1.00  0.00     0.074 A 
ATOM     34  C   UNL A   1      38.348  30.676  30.910  1.00  0.00     0.049 A 
ATOM     35  N   UNL A   1      40.310  28.683  29.759  1.00  0.00    -0.248 NA
ATOM     36  C   UNL A   1      39.020  28.648  27.812  1.00  0.00     0.031 C 
ATOM     37  C   UNL A   1      37.425  31.644  31.496  1.00  0.00     0.029 A 
ATOM     38  N   UNL A   1      39.323  30.514  31.859  1.00  0.00    -0.354 N 
ATOM     39  C   UNL A   1      40.889  27.820  28.837  1.00  0.00     0.074 A 
ATOM     40  C   UNL A   1      40.028  27.801  27.676  1.00  0.00     0.031 C 
ATOM     41  C   UNL A   1      37.871  31.982  32.716  1.00  0.00     0.029 A 
ATOM     42  C   UNL A   1      39.082  31.220  33.009  1.00  0.00     0.049 A 
ATOM     43  H   UNL A   1      40.116  29.946  31.728  1.00  0.00     0.167 HD
ATOM     44  C   UNL A   1      42.040  27.116  28.954  1.00  0.00     0.037 A 
ATOM     45  C   UNL A   1      39.751  31.221  34.177  1.00  0.00     0.037 A 
ATOM     46  C   UNL A   1      42.879  27.143  30.125  1.00  0.00     0.049 A 
ATOM     47  C   UNL A   1      40.988  30.372  34.313  1.00  0.00     0.074 A 
ATOM     48  C   UNL A   1      44.079  26.491  30.341  1.00  0.00     0.029 A 
ATOM     49  N   UNL A   1      42.592  27.847  31.286  1.00  0.00    -0.354 N 
ATOM     50  N   UNL A   1      41.553  29.582  33.432  1.00  0.00    -0.248 NA
ATOM     51  C   UNL A   1      41.683  30.422  35.605  1.00  0.00     0.031 C 
ATOM     52  C   UNL A   1      44.476  26.735  31.660  1.00  0.00     0.029 A 
ATOM     53  C   UNL A   1      43.570  27.610  32.239  1.00  0.00     0.049 A 
ATOM     54  H   UNL A   1      41.808  28.428  31.416  1.00  0.00     0.167 HD
ATOM     55  C   UNL A   1      42.682  29.062  34.050  1.00  0.00     0.074 A 
ATOM     56  C   UNL A   1      42.728  29.639  35.379  1.00  0.00     0.031 C 
ATOM     57  C   UNL A   1      43.599  28.190  33.561  1.00  0.00     0.037 A 
BRANCH  44  58
ATOM     58  C   UNL A   1      42.422  26.222  27.807  1.00  0.00     0.064 A 
ATOM     59  C   UNL A   1      43.322  26.628  26.810  1.00  0.00     0.173 A 
ATOM     60  C   UNL A   1      41.871  24.935  27.703  1.00  0.00     0.173 A 
ATOM     61  F   UNL A   1      43.871  27.851  26.852  1.00  0.00    -0.203 F 
ATOM     62  C   UNL A   1      43.617  25.800  25.728  1.00  0.00     0.198 A 
ATOM     63  C   UNL A   1      42.200  24.095  26.643  1.00  0.00     0.198 A 
ATOM     64  F   UNL A   1      41.009  24.490  28.630  1.00  0.00    -0.203 F 
ATOM     65  F   UNL A   1      44.419  26.241  24.749  1.00  0.00    -0.200 F 
ATOM     66  C   UNL A   1      43.060  24.534  25.648  1.00  0.00     0.200 A 
ATOM     67  F   UNL A   1      41.674  22.864  26.578  1.00  0.00    -0.200 F 
ATOM     68  F   UNL A   1      43.343  23.739  24.607  1.00  0.00    -0.200 F 
ENDBRANCH  44  58
BRANCH  45  69
ATOM     69  C   UNL A   1      39.251  32.049  35.303  1.00  0.00     0.064 A 
ATOM     70  C   UNL A   1      38.438  31.498  36.302  1.00  0.00     0.173 A 
ATOM     71  C   UNL A   1      39.600  33.404  35.418  1.00  0.00     0.173 A 
ATOM     72  F   UNL A   1      38.061  30.214  36.225  1.00  0.00    -0.203 F 
ATOM     73  C   UNL A   1      37.985  32.273  37.368  1.00  0.00     0.198 A 
ATOM     74  C   UNL A   1      39.173  34.168  36.501  1.00  0.00     0.198 A 
ATOM     75  F   UNL A   1      40.379  33.978  34.489  1.00  0.00    -0.203 F 
ATOM     76  F   UNL A   1      37.177  31.730  38.290  1.00  0.00    -0.200 F 
ATOM     77  C   UNL A   1      38.360  33.604  37.472  1.00  0.00     0.200 A 
ATOM     78  F   UNL A   1      39.553  35.449  36.607  1.00  0.00    -0.200 F 
ATOM     79  F   UNL A   1      37.937  34.343  38.505  1.00  0.00    -0.200 F 
ENDBRANCH  45  69
BRANCH  57  80
ATOM     80  C   UNL A   1      44.758  27.833  34.453  1.00  0.00     0.064 A 
ATOM     81  C   UNL A   1      45.935  28.594  34.482  1.00  0.00     0.173 A 
ATOM     82  C   UNL A   1      44.668  26.734  35.323  1.00  0.00     0.173 A 
ATOM     83  F   UNL A   1      46.080  29.648  33.665  1.00  0.00    -0.203 F 
ATOM     84  C   UNL A   1      46.992  28.249  35.323  1.00  0.00     0.198 A 
ATOM     85  C   UNL A   1      45.709  26.417  36.190  1.00  0.00     0.198 A 
ATOM     86  F   UNL A   1      43.561  25.976  35.345  1.00  0.00    -0.203 F 
ATOM     87  F   UNL A   1      48.130  28.956  35.289  1.00  0.00    -0.200 F 
ATOM     88  C   UNL A   1      46.874  27.167  36.182  1.00  0.00     0.200 A 
ATOM     89  F   UNL A   1      45.584  25.384  37.035  1.00  0.00    -0.200 F 
ATOM     90  F   UNL A   1      47.888  26.844  36.996  1.00  0.00    -0.200 F 
ENDBRANCH  57  80
ENDBRANCH  31  32
ENDBRANCH  24  26
ENDBRANCH  23  24
ENDBRANCH  22  23
ENDBRANCH  21  22
ENDBRANCH  20  21
ENDBRANCH   1  20
TORSDOF 19
ENDMDL
MODEL 2
REMARK VINA RESULT:     -10.7      4.988      8.886
REMARK SMILES C#CCOc1ccccc1/C=C(\C#N)C(=O)OCCOCCOC(=O)c1ccc(-c2c3nc(c(-c4c(F)c(F)c(F)c(F)c4F)c4ccc([nH]4)c(-c4c(F)c(F)c(F)c(F)c4F)c4nc(c(-c5c(F)c(F)c(F)c(F)c5F)c5ccc2[nH]5)C=C4)C=C3)cc1
REMARK SMILES IDX 19 1 18 2 17 3 15 4 16 5 12 6 11 7 10 8 5 9 6 10 7 11 9 12
REMARK SMILES IDX 8 13 4 14 3 15 2 16 1 17 13 18 14 19 20 20 21 21 22 22 23 23
REMARK SMILES IDX 24 24 25 25 26 26 27 27 88 28 28 29 87 30 29 31 30 32 31 33
REMARK SMILES IDX 81 34 32 35 86 36 80 37 82 38 33 39 85 40 79 41 78 42 34 44
REMARK SMILES IDX 66 45 46 46 65 47 47 48 50 49 64 50 83 51 48 52 49 53 63 55
REMARK SMILES IDX 84 56 51 57 35 58 36 59 44 60 37 61 38 62 42 63 45 64 39 65
REMARK SMILES IDX 40 66 43 67 41 68 67 69 68 70 76 71 69 72 70 73 74 74 77 75
REMARK SMILES IDX 71 76 72 77 75 78 73 79 52 80 53 81 61 82 54 83 55 84 59 85
REMARK SMILES IDX 62 86 56 87 57 88 60 89 58 90
REMARK H PARENT 82 43 50 54
REMARK Flexibility Score: inf
ROOT
ATOM      1  C   UNL A   1      43.053  19.235  25.592  1.00  0.00     0.202 C 
ENDROOT
BRANCH   1   2
ATOM      2  C   UNL A   1      44.154  20.171  25.068  1.00  0.00     0.261 C 
BRANCH   2   3
ATOM      3  O   UNL A   1      44.196  21.457  25.741  1.00  0.00    -0.459 OA
BRANCH   3   4
ATOM      4  C   UNL A   1      43.970  22.519  24.924  1.00  0.00     0.348 C 
ATOM      5  O   UNL A   1      44.119  22.492  23.706  1.00  0.00    -0.245 OA
BRANCH   4   6
ATOM      6  C   UNL A   1      43.486  23.766  25.596  1.00  0.00     0.138 C 
ATOM      7  C   UNL A   1      43.704  24.972  24.996  1.00  0.00     0.039 C 
BRANCH   7   8
ATOM      8  C   UNL A   1      44.008  26.368  25.466  1.00  0.00     0.018 A 
ATOM      9  C   UNL A   1      45.240  26.917  26.004  1.00  0.00     0.128 A 
ATOM     10  C   UNL A   1      45.194  28.264  26.449  1.00  0.00     0.047 A 
ATOM     11  C   UNL A   1      44.050  29.058  26.391  1.00  0.00     0.004 A 
ATOM     12  C   UNL A   1      42.878  27.224  25.401  1.00  0.00     0.012 A 
ATOM     13  C   UNL A   1      42.887  28.534  25.871  1.00  0.00     0.001 A 
BRANCH   9  14
ATOM     14  O   UNL A   1      46.514  26.482  26.341  1.00  0.00    -0.480 OA
BRANCH  14  15
ATOM     15  C   UNL A   1      47.120  25.227  26.759  1.00  0.00     0.318 C 
BRANCH  15  16
ATOM     16  C   UNL A   1      46.532  24.966  28.137  1.00  0.00    -0.065 C 
ATOM     17  C   UNL A   1      46.028  24.742  29.318  1.00  0.00     0.007 C 
ENDBRANCH  15  16
ENDBRANCH  14  15
ENDBRANCH   9  14
ENDBRANCH   7   8
BRANCH   6  18
ATOM     18  C   UNL A   1      43.176  23.526  26.957  1.00  0.00     0.107 C 
ATOM     19  N   UNL A   1      43.019  23.417  28.104  1.00  0.00    -0.192 NA
ENDBRANCH   6  18
ENDBRANCH   4   6
ENDBRANCH   3   4
ENDBRANCH   2   3
ENDBRANCH   1   2
BRANCH   1  20
ATOM     20  O   UNL A   1      42.562  19.425  26.915  1.00  0.00    -0.374 OA
BRANCH  20  21
ATOM     21  C   UNL A   1      41.213  19.842  27.089  1.00  0.00     0.202 C 
BRANCH  21  22
ATOM     22  C   UNL A   1      40.656  21.021  26.300  1.00  0.00     0.261 C 
BRANCH  22  23
ATOM     23  O   UNL A   1      40.108  22.039  27.144  1.00  0.00    -0.460 OA
BRANCH  23  24
ATOM     24  C   UNL A   1      39.238  22.862  26.513  1.00  0.00     0.338 C 
ATOM     25  O   UNL A   1      38.380  22.557  25.703  1.00  0.00    -0.246 OA
BRANCH  24  26
ATOM     26  C   UNL A   1      39.334  24.204  27.101  1.00  0.00     0.060 A 
ATOM     27  C   UNL A   1      39.950  25.205  26.337  1.00  0.00     0.016 A 
ATOM     28  C   UNL A   1      38.894  24.457  28.399  1.00  0.00     0.016 A 
ATOM     29  C   UNL A   1      40.174  26.458  26.889  1.00  0.00     0.010 A 
ATOM     30  C   UNL A   1      39.135  25.711  28.959  1.00  0.00     0.010 A 
ATOM     31  C   UNL A   1      39.810  26.698  28.218  1.00  0.00    -0.014 A 
BRANCH  31  32
ATOM     32  C   UNL A   1      40.284  27.929  28.882  1.00  0.00     0.031 A 
ATOM     33  C   UNL A   1      41.709  28.001  29.342  1.00  0.00     0.074 A 
ATOM     34  C   UNL A   1      39.454  28.971  29.048  1.00  0.00     0.049 A 
ATOM     35  N   UNL A   1      42.326  28.952  29.994  1.00  0.00    -0.248 NA
ATOM     36  C   UNL A   1      42.553  26.836  29.031  1.00  0.00     0.031 C 
ATOM     37  C   UNL A   1      38.064  29.018  28.602  1.00  0.00     0.029 A 
ATOM     38  N   UNL A   1      39.662  30.184  29.651  1.00  0.00    -0.354 N 
ATOM     39  C   UNL A   1      43.623  28.494  30.187  1.00  0.00     0.074 A 
ATOM     40  C   UNL A   1      43.693  27.167  29.615  1.00  0.00     0.031 C 
ATOM     41  C   UNL A   1      37.535  30.199  28.959  1.00  0.00     0.029 A 
ATOM     42  C   UNL A   1      38.537  30.966  29.696  1.00  0.00     0.049 A 
ATOM     43  H   UNL A   1      40.532  30.465  30.015  1.00  0.00     0.167 HD
ATOM     44  C   UNL A   1      44.659  29.131  30.782  1.00  0.00     0.037 A 
ATOM     45  C   UNL A   1      38.335  32.154  30.296  1.00  0.00     0.037 A 
ATOM     46  C   UNL A   1      44.565  30.450  31.354  1.00  0.00     0.049 A 
ATOM     47  C   UNL A   1      39.480  32.813  31.019  1.00  0.00     0.074 A 
ATOM     48  C   UNL A   1      45.557  31.202  31.957  1.00  0.00     0.029 A 
ATOM     49  N   UNL A   1      43.402  31.206  31.409  1.00  0.00    -0.354 N 
ATOM     50  N   UNL A   1      40.714  32.395  31.173  1.00  0.00    -0.248 NA
ATOM     51  C   UNL A   1      39.205  34.112  31.644  1.00  0.00     0.031 C 
ATOM     52  C   UNL A   1      44.976  32.375  32.449  1.00  0.00     0.029 A 
ATOM     53  C   UNL A   1      43.641  32.398  32.076  1.00  0.00     0.049 A 
ATOM     54  H   UNL A   1      42.533  30.935  31.032  1.00  0.00     0.167 HD
ATOM     55  C   UNL A   1      41.370  33.388  31.888  1.00  0.00     0.074 A 
ATOM     56  C   UNL A   1      40.397  34.437  32.124  1.00  0.00     0.031 C 
ATOM     57  C   UNL A   1      42.659  33.431  32.307  1.00  0.00     0.037 A 
BRANCH  44  58
ATOM     58  C   UNL A   1      45.960  28.384  30.889  1.00  0.00     0.064 A 
ATOM     59  C   UNL A   1      46.981  28.520  29.935  1.00  0.00     0.173 A 
ATOM     60  C   UNL A   1      46.186  27.512  31.966  1.00  0.00     0.173 A 
ATOM     61  F   UNL A   1      46.816  29.331  28.880  1.00  0.00    -0.203 F 
ATOM     62  C   UNL A   1      48.155  27.775  30.029  1.00  0.00     0.198 A 
ATOM     63  C   UNL A   1      47.377  26.801  32.078  1.00  0.00     0.198 A 
ATOM     64  F   UNL A   1      45.248  27.346  32.911  1.00  0.00    -0.203 F 
ATOM     65  F   UNL A   1      49.081  27.864  29.064  1.00  0.00    -0.200 F 
ATOM     66  C   UNL A   1      48.353  26.920  31.102  1.00  0.00     0.200 A 
ATOM     67  F   UNL A   1      47.574  25.989  33.126  1.00  0.00    -0.200 F 
ATOM     68  F   UNL A   1      49.482  26.203  31.190  1.00  0.00    -0.200 F 
ENDBRANCH  44  58
BRANCH  45  69
ATOM     69  C   UNL A   1      36.990  32.781  30.239  1.00  0.00     0.064 A 
ATOM     70  C   UNL A   1      36.598  33.557  29.142  1.00  0.00     0.173 A 
ATOM     71  C   UNL A   1      36.059  32.590  31.273  1.00  0.00     0.173 A 
ATOM     72  F   UNL A   1      37.459  33.783  28.140  1.00  0.00    -0.203 F 
ATOM     73  C   UNL A   1      35.328  34.128  29.083  1.00  0.00     0.198 A 
ATOM     74  C   UNL A   1      34.779  33.136  31.197  1.00  0.00     0.198 A 
ATOM     75  F   UNL A   1      36.385  31.853  32.344  1.00  0.00    -0.203 F 
ATOM     76  F   UNL A   1      34.991  34.898  28.039  1.00  0.00    -0.200 F 
ATOM     77  C   UNL A   1      34.417  33.909  30.106  1.00  0.00     0.200 A 
ATOM     78  F   UNL A   1      33.897  32.905  32.179  1.00  0.00    -0.200 F 
ATOM     79  F   UNL A   1      33.192  34.446  30.040  1.00  0.00    -0.200 F 
ENDBRANCH  45  69
BRANCH  57  80
ATOM     80  C   UNL A   1      43.110  34.670  33.032  1.00  0.00     0.064 A 
ATOM     81  C   UNL A   1      43.514  35.826  32.348  1.00  0.00     0.173 A 
ATOM     82  C   UNL A   1      43.097  34.712  34.436  1.00  0.00     0.173 A 
ATOM     83  F   UNL A   1      43.557  35.838  31.008  1.00  0.00    -0.203 F 
ATOM     84  C   UNL A   1      43.919  36.964  33.041  1.00  0.00     0.198 A 
ATOM     85  C   UNL A   1      43.464  35.865  35.124  1.00  0.00     0.198 A 
ATOM     86  F   UNL A   1      42.711  33.639  35.142  1.00  0.00    -0.203 F 
ATOM     87  F   UNL A   1      44.358  38.036  32.366  1.00  0.00    -0.200 F 
ATOM     88  C   UNL A   1      43.885  36.986  34.427  1.00  0.00     0.200 A 
ATOM     89  F   UNL A   1      43.409  35.890  36.463  1.00  0.00    -0.200 F 
ATOM     90  F   UNL A   1      44.266  38.086  35.091  1.00  0.00    -0.200 F 
ENDBRANCH  57  80
ENDBRANCH  31  32
ENDBRANCH  24  26
ENDBRANCH  23  24
ENDBRANCH  22  23
ENDBRANCH  21  22
ENDBRANCH  20  21
ENDBRANCH   1  20
TORSDOF 19
ENDMDL
MODEL 3
REMARK VINA RESULT:     -10.7      4.193      9.813
REMARK SMILES C#CCOc1ccccc1/C=C(\C#N)C(=O)OCCOCCOC(=O)c1ccc(-c2c3nc(c(-c4c(F)c(F)c(F)c(F)c4F)c4ccc([nH]4)c(-c4c(F)c(F)c(F)c(F)c4F)c4nc(c(-c5c(F)c(F)c(F)c(F)c5F)c5ccc2[nH]5)C=C4)C=C3)cc1
REMARK SMILES IDX 19 1 18 2 17 3 15 4 16 5 12 6 11 7 10 8 5 9 6 10 7 11 9 12
REMARK SMILES IDX 8 13 4 14 3 15 2 16 1 17 13 18 14 19 20 20 21 21 22 22 23 23
REMARK SMILES IDX 24 24 25 25 26 26 27 27 88 28 28 29 87 30 29 31 30 32 31 33
REMARK SMILES IDX 81 34 32 35 86 36 80 37 82 38 33 39 85 40 79 41 78 42 34 44
REMARK SMILES IDX 66 45 46 46 65 47 47 48 50 49 64 50 83 51 48 52 49 53 63 55
REMARK SMILES IDX 84 56 51 57 35 58 36 59 44 60 37 61 38 62 42 63 45 64 39 65
REMARK SMILES IDX 40 66 43 67 41 68 67 69 68 70 76 71 69 72 70 73 74 74 77 75
REMARK SMILES IDX 71 76 72 77 75 78 73 79 52 80 53 81 61 82 54 83 55 84 59 85
REMARK SMILES IDX 62 86 56 87 57 88 60 89 58 90
REMARK H PARENT 82 43 50 54
REMARK Flexibility Score: inf
ROOT
ATOM      1  C   UNL A   1      33.672  20.897  25.322  1.00  0.00     0.202 C 
ENDROOT
BRANCH   1   2
ATOM      2  C   UNL A   1      33.221  21.931  24.278  1.00  0.00     0.261 C 
BRANCH   2   3
ATOM      3  O   UNL A   1      33.558  23.299  24.631  1.00  0.00    -0.459 OA
BRANCH   3   4
ATOM      4  C   UNL A   1      34.282  23.955  23.686  1.00  0.00     0.348 C 
ATOM      5  O   UNL A   1      35.018  23.398  22.876  1.00  0.00    -0.245 OA
BRANCH   4   6
ATOM      6  C   UNL A   1      34.119  25.442  23.655  1.00  0.00     0.138 C 
ATOM      7  C   UNL A   1      34.030  26.125  24.833  1.00  0.00     0.039 C 
BRANCH   7   8
ATOM      8  C   UNL A   1      33.284  27.337  25.320  1.00  0.00     0.018 A 
ATOM      9  C   UNL A   1      31.918  27.752  25.056  1.00  0.00     0.128 A 
ATOM     10  C   UNL A   1      31.521  29.006  25.592  1.00  0.00     0.047 A 
ATOM     11  C   UNL A   1      32.362  29.828  26.340  1.00  0.00     0.004 A 
ATOM     12  C   UNL A   1      34.093  28.194  26.111  1.00  0.00     0.012 A 
ATOM     13  C   UNL A   1      33.654  29.424  26.594  1.00  0.00     0.001 A 
BRANCH   9  14
ATOM     14  O   UNL A   1      30.828  27.332  24.308  1.00  0.00    -0.480 OA
BRANCH  14  15
ATOM     15  C   UNL A   1      29.716  26.411  24.495  1.00  0.00     0.318 C 
BRANCH  15  16
ATOM     16  C   UNL A   1      30.158  25.139  23.789  1.00  0.00    -0.065 C 
ATOM     17  C   UNL A   1      30.537  24.049  23.184  1.00  0.00     0.007 C 
ENDBRANCH  15  16
ENDBRANCH  14  15
ENDBRANCH   9  14
ENDBRANCH   7   8
BRANCH   6  18
ATOM     18  C   UNL A   1      33.719  25.887  22.371  1.00  0.00     0.107 C 
ATOM     19  N   UNL A   1      33.280  26.300  21.377  1.00  0.00    -0.192 NA
ENDBRANCH   6  18
ENDBRANCH   4   6
ENDBRANCH   3   4
ENDBRANCH   2   3
ENDBRANCH   1   2
BRANCH   1  20
ATOM     20  O   UNL A   1      35.023  20.914  25.770  1.00  0.00    -0.374 OA
BRANCH  20  21
ATOM     21  C   UNL A   1      36.031  20.379  24.921  1.00  0.00     0.202 C 
BRANCH  21  22
ATOM     22  C   UNL A   1      37.371  21.088  24.762  1.00  0.00     0.261 C 
BRANCH  22  23
ATOM     23  O   UNL A   1      37.809  21.714  25.972  1.00  0.00    -0.460 OA
BRANCH  23  24
ATOM     24  C   UNL A   1      39.128  21.547  26.226  1.00  0.00     0.338 C 
ATOM     25  O   UNL A   1      39.840  20.617  25.886  1.00  0.00    -0.246 OA
BRANCH  24  26
ATOM     26  C   UNL A   1      39.663  22.778  26.824  1.00  0.00     0.060 A 
ATOM     27  C   UNL A   1      39.129  23.997  26.384  1.00  0.00     0.016 A 
ATOM     28  C   UNL A   1      40.712  22.739  27.740  1.00  0.00     0.016 A 
ATOM     29  C   UNL A   1      39.678  25.192  26.826  1.00  0.00     0.010 A 
ATOM     30  C   UNL A   1      41.274  23.941  28.170  1.00  0.00     0.010 A 
ATOM     31  C   UNL A   1      40.783  25.165  27.682  1.00  0.00    -0.014 A 
BRANCH  31  32
ATOM     32  C   UNL A   1      41.526  26.416  27.937  1.00  0.00     0.031 A 
ATOM     33  C   UNL A   1      40.837  27.532  28.663  1.00  0.00     0.074 A 
ATOM     34  C   UNL A   1      42.804  26.536  27.543  1.00  0.00     0.049 A 
ATOM     35  N   UNL A   1      41.270  28.733  28.946  1.00  0.00    -0.248 NA
ATOM     36  C   UNL A   1      39.467  27.260  29.126  1.00  0.00     0.031 C 
ATOM     37  C   UNL A   1      43.577  25.498  26.867  1.00  0.00     0.029 A 
ATOM     38  N   UNL A   1      43.668  27.595  27.646  1.00  0.00    -0.354 N 
ATOM     39  C   UNL A   1      40.222  29.364  29.604  1.00  0.00     0.074 A 
ATOM     40  C   UNL A   1      39.121  28.427  29.644  1.00  0.00     0.031 C 
ATOM     41  C   UNL A   1      44.803  25.976  26.602  1.00  0.00     0.029 A 
ATOM     42  C   UNL A   1      44.880  27.365  27.049  1.00  0.00     0.049 A 
ATOM     43  H   UNL A   1      43.441  28.437  28.103  1.00  0.00     0.167 HD
ATOM     44  C   UNL A   1      40.190  30.612  30.129  1.00  0.00     0.037 A 
ATOM     45  C   UNL A   1      45.920  28.197  26.858  1.00  0.00     0.037 A 
ATOM     46  C   UNL A   1      41.296  31.534  30.070  1.00  0.00     0.049 A 
ATOM     47  C   UNL A   1      45.836  29.606  27.383  1.00  0.00     0.074 A 
ATOM     48  C   UNL A   1      41.383  32.811  30.592  1.00  0.00     0.029 A 
ATOM     49  N   UNL A   1      42.502  31.280  29.431  1.00  0.00    -0.354 N 
ATOM     50  N   UNL A   1      44.859  30.192  28.032  1.00  0.00    -0.248 NA
ATOM     51  C   UNL A   1      47.005  30.465  27.156  1.00  0.00     0.031 C 
ATOM     52  C   UNL A   1      42.609  33.359  30.200  1.00  0.00     0.029 A 
ATOM     53  C   UNL A   1      43.324  32.394  29.508  1.00  0.00     0.049 A 
ATOM     54  H   UNL A   1      42.740  30.434  28.987  1.00  0.00     0.167 HD
ATOM     55  C   UNL A   1      45.301  31.478  28.314  1.00  0.00     0.074 A 
ATOM     56  C   UNL A   1      46.644  31.579  27.777  1.00  0.00     0.031 C 
ATOM     57  C   UNL A   1      44.658  32.481  28.963  1.00  0.00     0.037 A 
BRANCH  44  58
ATOM     58  C   UNL A   1      38.903  31.062  30.762  1.00  0.00     0.064 A 
ATOM     59  C   UNL A   1      38.672  30.961  32.143  1.00  0.00     0.173 A 
ATOM     60  C   UNL A   1      37.877  31.601  29.968  1.00  0.00     0.173 A 
ATOM     61  F   UNL A   1      39.611  30.444  32.949  1.00  0.00    -0.203 F 
ATOM     62  C   UNL A   1      37.449  31.335  32.697  1.00  0.00     0.198 A 
ATOM     63  C   UNL A   1      36.673  32.012  30.531  1.00  0.00     0.198 A 
ATOM     64  F   UNL A   1      38.043  31.728  28.643  1.00  0.00    -0.203 F 
ATOM     65  F   UNL A   1      37.226  31.156  34.006  1.00  0.00    -0.200 F 
ATOM     66  C   UNL A   1      36.453  31.864  31.891  1.00  0.00     0.200 A 
ATOM     67  F   UNL A   1      35.718  32.540  29.752  1.00  0.00    -0.200 F 
ATOM     68  F   UNL A   1      35.277  32.222  32.424  1.00  0.00    -0.200 F 
ENDBRANCH  44  58
BRANCH  45  69
ATOM     69  C   UNL A   1      47.118  27.712  26.127  1.00  0.00     0.064 A 
ATOM     70  C   UNL A   1      48.224  27.192  26.811  1.00  0.00     0.173 A 
ATOM     71  C   UNL A   1      47.168  27.733  24.723  1.00  0.00     0.173 A 
ATOM     72  F   UNL A   1      48.231  27.169  28.151  1.00  0.00    -0.203 F 
ATOM     73  C   UNL A   1      49.339  26.720  26.121  1.00  0.00     0.198 A 
ATOM     74  C   UNL A   1      48.270  27.232  24.035  1.00  0.00     0.198 A 
ATOM     75  F   UNL A   1      46.134  28.219  24.021  1.00  0.00    -0.203 F 
ATOM     76  F   UNL A   1      50.399  26.262  26.802  1.00  0.00    -0.200 F 
ATOM     77  C   UNL A   1      49.357  26.731  24.735  1.00  0.00     0.200 A 
ATOM     78  F   UNL A   1      48.275  27.228  22.695  1.00  0.00    -0.200 F 
ATOM     79  F   UNL A   1      50.423  26.263  24.073  1.00  0.00    -0.200 F 
ENDBRANCH  45  69
BRANCH  57  80
ATOM     80  C   UNL A   1      45.411  33.768  29.165  1.00  0.00     0.064 A 
ATOM     81  C   UNL A   1      45.328  34.829  28.253  1.00  0.00     0.173 A 
ATOM     82  C   UNL A   1      46.195  33.955  30.315  1.00  0.00     0.173 A 
ATOM     83  F   UNL A   1      44.602  34.702  27.131  1.00  0.00    -0.203 F 
ATOM     84  C   UNL A   1      46.027  36.015  28.466  1.00  0.00     0.198 A 
ATOM     85  C   UNL A   1      46.860  35.155  30.545  1.00  0.00     0.198 A 
ATOM     86  F   UNL A   1      46.303  32.977  31.228  1.00  0.00    -0.203 F 
ATOM     87  F   UNL A   1      45.980  36.993  27.550  1.00  0.00    -0.200 F 
ATOM     88  C   UNL A   1      46.785  36.180  29.616  1.00  0.00     0.200 A 
ATOM     89  F   UNL A   1      47.573  35.320  31.668  1.00  0.00    -0.200 F 
ATOM     90  F   UNL A   1      47.449  37.326  29.823  1.00  0.00    -0.200 F 
ENDBRANCH  57  80
ENDBRANCH  31  32
ENDBRANCH  24  26
ENDBRANCH  23  24
ENDBRANCH  22  23
ENDBRANCH  21  22
ENDBRANCH  20  21
ENDBRANCH   1  20
TORSDOF 19
ENDMDL
