MODEL 1
REMARK VINA RESULT:     -11.6      0.000      0.000
REMARK SMILES COc1cc(/C=C2/N=C(c3ccccc3)OC2=O)ccc1OCC(=O)OCCOCCOC(=O)c1ccc(-c2c3nc(c(-c4c(F)c(F)c(F)c(F)c4F)c4ccc([nH]4)c(-c4c(F)c(F)c(F)c(F)c4F)c4nc(c(-c5c(F)c(F)c(F)c(F)c5F)c5ccc2[nH]5)C=C4)C=C3)cc1
REMARK SMILES IDX 28 1 27 2 26 3 24 4 25 5 23 6 22 7 21 8 3 9 4 10 5 11 20 12
REMARK SMILES IDX 19 13 2 14 1 15 6 16 7 17 8 18 17 19 9 20 16 21 18 22 10 23
REMARK SMILES IDX 11 24 15 25 12 26 14 27 13 28 29 29 30 30 31 31 32 32 33 33
REMARK SMILES IDX 34 34 35 35 36 36 97 37 37 38 96 39 38 40 39 41 40 42 90 43
REMARK SMILES IDX 41 44 95 45 89 46 91 47 42 48 94 49 88 50 87 51 43 53 75 54
REMARK SMILES IDX 55 55 74 56 56 57 59 58 73 59 92 60 57 61 58 62 72 64 93 65
REMARK SMILES IDX 60 66 44 67 45 68 53 69 46 70 47 71 51 72 54 73 48 74 49 75
REMARK SMILES IDX 52 76 50 77 76 78 77 79 85 80 78 81 79 82 83 83 86 84 80 85
REMARK SMILES IDX 81 86 84 87 82 88 61 89 62 90 70 91 63 92 64 93 68 94 71 95
REMARK SMILES IDX 65 96 66 97 69 98 67 99
REMARK H PARENT 91 52 59 63
REMARK Flexibility Score: inf
ROOT
ATOM      1  C   UNL A   1      40.107  22.206  26.614  1.00  0.00     0.202 C 
ENDROOT
BRANCH   1   2
ATOM      2  C   UNL A   1      39.099  21.456  25.734  1.00  0.00     0.261 C 
BRANCH   2   3
ATOM      3  O   UNL A   1      37.739  21.889  25.955  1.00  0.00    -0.461 OA
BRANCH   3   4
ATOM      4  C   UNL A   1      36.783  21.166  25.310  1.00  0.00     0.344 C 
ATOM      5  O   UNL A   1      36.915  19.993  24.972  1.00  0.00    -0.248 OA
BRANCH   4   6
ATOM      6  C   UNL A   1      35.510  21.960  24.994  1.00  0.00     0.352 C 
BRANCH   6   7
ATOM      7  O   UNL A   1      34.576  22.274  25.996  1.00  0.00    -0.478 OA
BRANCH   7   8
ATOM      8  C   UNL A   1      33.829  23.413  26.004  1.00  0.00     0.162 A 
ATOM      9  C   UNL A   1      32.573  23.695  26.559  1.00  0.00     0.161 A 
ATOM     10  C   UNL A   1      32.058  25.013  26.479  1.00  0.00     0.058 A 
ATOM     11  C   UNL A   1      32.765  26.028  25.806  1.00  0.00    -0.019 A 
ATOM     12  C   UNL A   1      34.490  24.427  25.292  1.00  0.00     0.051 A 
ATOM     13  C   UNL A   1      33.970  25.713  25.182  1.00  0.00     0.012 A 
BRANCH   9  14
ATOM     14  O   UNL A   1      31.696  22.708  26.930  1.00  0.00    -0.493 OA
ATOM     15  C   UNL A   1      30.320  22.913  26.623  1.00  0.00     0.278 C 
ENDBRANCH   9  14
BRANCH  11  16
ATOM     16  C   UNL A   1      32.290  27.416  25.708  1.00  0.00     0.044 C 
ATOM     17  C   UNL A   1      31.497  27.891  24.737  1.00  0.00     0.153 C 
ATOM     18  N   UNL A   1      31.106  29.206  24.621  1.00  0.00    -0.205 NA
ATOM     19  C   UNL A   1      30.868  27.071  23.660  1.00  0.00     0.363 C 
ATOM     20  C   UNL A   1      30.273  29.156  23.636  1.00  0.00     0.231 C 
ATOM     21  O   UNL A   1      30.076  27.968  23.019  1.00  0.00    -0.402 OA
ATOM     22  O   UNL A   1      30.986  25.891  23.390  1.00  0.00    -0.244 OA
BRANCH  20  23
ATOM     23  C   UNL A   1      29.461  30.219  23.052  1.00  0.00     0.037 A 
ATOM     24  C   UNL A   1      29.104  31.344  23.796  1.00  0.00     0.014 A 
ATOM     25  C   UNL A   1      29.083  30.099  21.709  1.00  0.00     0.014 A 
ATOM     26  C   UNL A   1      28.385  32.370  23.176  1.00  0.00     0.001 A 
ATOM     27  C   UNL A   1      28.353  31.118  21.103  1.00  0.00     0.001 A 
ATOM     28  C   UNL A   1      28.011  32.255  21.834  1.00  0.00     0.000 A 
ENDBRANCH  20  23
ENDBRANCH  11  16
ENDBRANCH   7   8
ENDBRANCH   6   7
ENDBRANCH   4   6
ENDBRANCH   3   4
ENDBRANCH   2   3
ENDBRANCH   1   2
BRANCH   1  29
ATOM     29  O   UNL A   1      41.375  21.581  26.809  1.00  0.00    -0.374 OA
BRANCH  29  30
ATOM     30  C   UNL A   1      41.355  20.223  27.244  1.00  0.00     0.202 C 
BRANCH  30  31
ATOM     31  C   UNL A   1      42.209  19.232  26.461  1.00  0.00     0.261 C 
BRANCH  31  32
ATOM     32  O   UNL A   1      42.573  19.770  25.188  1.00  0.00    -0.460 OA
BRANCH  32  33
ATOM     33  C   UNL A   1      43.892  19.701  24.924  1.00  0.00     0.338 C 
ATOM     34  O   UNL A   1      44.531  18.749  24.511  1.00  0.00    -0.246 OA
BRANCH  33  35
ATOM     35  C   UNL A   1      44.450  21.053  25.030  1.00  0.00     0.060 A 
ATOM     36  C   UNL A   1      45.242  21.325  26.152  1.00  0.00     0.016 A 
ATOM     37  C   UNL A   1      44.160  22.036  24.082  1.00  0.00     0.016 A 
ATOM     38  C   UNL A   1      45.674  22.619  26.385  1.00  0.00     0.010 A 
ATOM     39  C   UNL A   1      44.591  23.336  24.317  1.00  0.00     0.010 A 
ATOM     40  C   UNL A   1      45.290  23.632  25.500  1.00  0.00    -0.014 A 
BRANCH  40  41
ATOM     41  C   UNL A   1      45.398  25.035  25.937  1.00  0.00     0.031 A 
ATOM     42  C   UNL A   1      46.744  25.691  25.837  1.00  0.00     0.074 A 
ATOM     43  C   UNL A   1      44.317  25.688  26.387  1.00  0.00     0.049 A 
ATOM     44  N   UNL A   1      47.126  26.872  26.244  1.00  0.00    -0.248 NA
ATOM     45  C   UNL A   1      47.813  24.901  25.200  1.00  0.00     0.031 C 
ATOM     46  C   UNL A   1      42.968  25.132  26.464  1.00  0.00     0.029 A 
ATOM     47  N   UNL A   1      44.192  26.959  26.877  1.00  0.00    -0.354 N 
ATOM     48  C   UNL A   1      48.477  26.953  25.934  1.00  0.00     0.074 A 
ATOM     49  C   UNL A   1      48.861  25.698  25.334  1.00  0.00     0.031 C 
ATOM     50  C   UNL A   1      42.147  26.055  26.994  1.00  0.00     0.029 A 
ATOM     51  C   UNL A   1      42.928  27.243  27.329  1.00  0.00     0.049 A 
ATOM     52  H   UNL A   1      44.934  27.605  26.903  1.00  0.00     0.167 HD
ATOM     53  C   UNL A   1      49.314  27.997  26.130  1.00  0.00     0.037 A 
ATOM     54  C   UNL A   1      42.477  28.336  27.973  1.00  0.00     0.037 A 
ATOM     55  C   UNL A   1      48.895  29.237  26.725  1.00  0.00     0.049 A 
ATOM     56  C   UNL A   1      43.444  29.461  28.237  1.00  0.00     0.074 A 
ATOM     57  C   UNL A   1      49.641  30.375  26.967  1.00  0.00     0.029 A 
ATOM     58  N   UNL A   1      47.606  29.492  27.175  1.00  0.00    -0.354 N 
ATOM     59  N   UNL A   1      44.719  29.544  27.933  1.00  0.00    -0.248 NA
ATOM     60  C   UNL A   1      42.915  30.642  28.927  1.00  0.00     0.031 C 
ATOM     61  C   UNL A   1      48.819  31.296  27.620  1.00  0.00     0.029 A 
ATOM     62  C   UNL A   1      47.541  30.764  27.715  1.00  0.00     0.049 A 
ATOM     63  H   UNL A   1      46.852  28.862  27.118  1.00  0.00     0.167 HD
ATOM     64  C   UNL A   1      45.132  30.802  28.352  1.00  0.00     0.074 A 
ATOM     65  C   UNL A   1      43.971  31.444  28.934  1.00  0.00     0.031 C 
ATOM     66  C   UNL A   1      46.355  31.379  28.258  1.00  0.00     0.037 A 
BRANCH  53  67
ATOM     67  C   UNL A   1      50.753  27.829  25.737  1.00  0.00     0.064 A 
ATOM     68  C   UNL A   1      51.195  28.043  24.422  1.00  0.00     0.173 A 
ATOM     69  C   UNL A   1      51.711  27.473  26.698  1.00  0.00     0.173 A 
ATOM     70  F   UNL A   1      50.319  28.368  23.460  1.00  0.00    -0.203 F 
ATOM     71  C   UNL A   1      52.536  27.884  24.081  1.00  0.00     0.198 A 
ATOM     72  C   UNL A   1      53.056  27.346  26.361  1.00  0.00     0.198 A 
ATOM     73  F   UNL A   1      51.345  27.252  27.970  1.00  0.00    -0.203 F 
ATOM     74  F   UNL A   1      52.926  28.045  22.809  1.00  0.00    -0.200 F 
ATOM     75  C   UNL A   1      53.467  27.545  25.052  1.00  0.00     0.200 A 
ATOM     76  F   UNL A   1      53.955  27.031  27.303  1.00  0.00    -0.200 F 
ATOM     77  F   UNL A   1      54.758  27.403  24.724  1.00  0.00    -0.200 F 
ENDBRANCH  53  67
BRANCH  54  78
ATOM     78  C   UNL A   1      41.060  28.407  28.413  1.00  0.00     0.064 A 
ATOM     79  C   UNL A   1      40.066  28.924  27.572  1.00  0.00     0.173 A 
ATOM     80  C   UNL A   1      40.668  27.959  29.684  1.00  0.00     0.173 A 
ATOM     81  F   UNL A   1      40.391  29.375  26.351  1.00  0.00    -0.203 F 
ATOM     82  C   UNL A   1      38.740  29.013  27.992  1.00  0.00     0.198 A 
ATOM     83  C   UNL A   1      39.338  28.021  30.093  1.00  0.00     0.198 A 
ATOM     84  F   UNL A   1      41.577  27.448  30.528  1.00  0.00    -0.203 F 
ATOM     85  F   UNL A   1      37.819  29.557  27.186  1.00  0.00    -0.200 F 
ATOM     86  C   UNL A   1      38.376  28.558  29.251  1.00  0.00     0.200 A 
ATOM     87  F   UNL A   1      38.988  27.560  31.302  1.00  0.00    -0.200 F 
ATOM     88  F   UNL A   1      37.101  28.641  29.653  1.00  0.00    -0.200 F 
ENDBRANCH  54  78
BRANCH  66  89
ATOM     89  C   UNL A   1      46.487  32.799  28.722  1.00  0.00     0.064 A 
ATOM     90  C   UNL A   1      46.263  33.884  27.865  1.00  0.00     0.173 A 
ATOM     91  C   UNL A   1      46.756  33.068  30.074  1.00  0.00     0.173 A 
ATOM     92  F   UNL A   1      46.015  33.678  26.563  1.00  0.00    -0.203 F 
ATOM     93  C   UNL A   1      46.318  35.191  28.343  1.00  0.00     0.198 A 
ATOM     94  C   UNL A   1      46.774  34.373  30.554  1.00  0.00     0.198 A 
ATOM     95  F   UNL A   1      46.967  32.060  30.935  1.00  0.00    -0.203 F 
ATOM     96  F   UNL A   1      46.138  36.217  27.500  1.00  0.00    -0.200 F 
ATOM     97  C   UNL A   1      46.559  35.432  29.687  1.00  0.00     0.200 A 
ATOM     98  F   UNL A   1      46.986  34.601  31.857  1.00  0.00    -0.200 F 
ATOM     99  F   UNL A   1      46.587  36.691  30.148  1.00  0.00    -0.200 F 
ENDBRANCH  66  89
ENDBRANCH  40  41
ENDBRANCH  33  35
ENDBRANCH  32  33
ENDBRANCH  31  32
ENDBRANCH  30  31
ENDBRANCH  29  30
ENDBRANCH   1  29
TORSDOF 19
ENDMDL
MODEL 2
REMARK VINA RESULT:     -11.5      2.723      4.306
REMARK SMILES COc1cc(/C=C2/N=C(c3ccccc3)OC2=O)ccc1OCC(=O)OCCOCCOC(=O)c1ccc(-c2c3nc(c(-c4c(F)c(F)c(F)c(F)c4F)c4ccc([nH]4)c(-c4c(F)c(F)c(F)c(F)c4F)c4nc(c(-c5c(F)c(F)c(F)c(F)c5F)c5ccc2[nH]5)C=C4)C=C3)cc1
REMARK SMILES IDX 28 1 27 2 26 3 24 4 25 5 23 6 22 7 21 8 3 9 4 10 5 11 20 12
REMARK SMILES IDX 19 13 2 14 1 15 6 16 7 17 8 18 17 19 9 20 16 21 18 22 10 23
REMARK SMILES IDX 11 24 15 25 12 26 14 27 13 28 29 29 30 30 31 31 32 32 33 33
REMARK SMILES IDX 34 34 35 35 36 36 97 37 37 38 96 39 38 40 39 41 40 42 90 43
REMARK SMILES IDX 41 44 95 45 89 46 91 47 42 48 94 49 88 50 87 51 43 53 75 54
REMARK SMILES IDX 55 55 74 56 56 57 59 58 73 59 92 60 57 61 58 62 72 64 93 65
REMARK SMILES IDX 60 66 44 67 45 68 53 69 46 70 47 71 51 72 54 73 48 74 49 75
REMARK SMILES IDX 52 76 50 77 76 78 77 79 85 80 78 81 79 82 83 83 86 84 80 85
REMARK SMILES IDX 81 86 84 87 82 88 61 89 62 90 70 91 63 92 64 93 68 94 71 95
REMARK SMILES IDX 65 96 66 97 69 98 67 99
REMARK H PARENT 91 52 59 63
REMARK Flexibility Score: inf
ROOT
ATOM      1  C   UNL A   1      36.945  21.563  24.469  1.00  0.00     0.202 C 
ENDROOT
BRANCH   1   2
ATOM      2  C   UNL A   1      35.766  22.370  25.027  1.00  0.00     0.261 C 
BRANCH   2   3
ATOM      3  O   UNL A   1      34.526  22.083  24.347  1.00  0.00    -0.461 OA
BRANCH   3   4
ATOM      4  C   UNL A   1      34.186  22.954  23.357  1.00  0.00     0.344 C 
ATOM      5  O   UNL A   1      34.997  23.580  22.680  1.00  0.00    -0.248 OA
BRANCH   4   6
ATOM      6  C   UNL A   1      32.674  23.126  23.172  1.00  0.00     0.352 C 
BRANCH   6   7
ATOM      7  O   UNL A   1      31.813  23.259  24.274  1.00  0.00    -0.478 OA
BRANCH   7   8
ATOM      8  C   UNL A   1      31.625  24.426  24.951  1.00  0.00     0.162 A 
ATOM      9  C   UNL A   1      31.461  24.689  26.318  1.00  0.00     0.161 A 
ATOM     10  C   UNL A   1      31.356  26.032  26.760  1.00  0.00     0.058 A 
ATOM     11  C   UNL A   1      31.362  27.100  25.841  1.00  0.00    -0.019 A 
ATOM     12  C   UNL A   1      31.573  25.502  24.051  1.00  0.00     0.051 A 
ATOM     13  C   UNL A   1      31.435  26.819  24.479  1.00  0.00     0.012 A 
BRANCH   9  14
ATOM     14  O   UNL A   1      31.120  23.712  27.218  1.00  0.00    -0.493 OA
ATOM     15  C   UNL A   1      29.947  22.954  26.940  1.00  0.00     0.278 C 
ENDBRANCH   9  14
BRANCH  11  16
ATOM     16  C   UNL A   1      31.277  28.511  26.242  1.00  0.00     0.044 C 
ATOM     17  C   UNL A   1      32.310  29.257  26.660  1.00  0.00     0.153 C 
ATOM     18  N   UNL A   1      32.209  30.561  27.090  1.00  0.00    -0.205 NA
ATOM     19  C   UNL A   1      33.737  28.817  26.678  1.00  0.00     0.363 C 
ATOM     20  C   UNL A   1      33.448  30.885  27.264  1.00  0.00     0.231 C 
ATOM     21  O   UNL A   1      34.396  29.943  27.055  1.00  0.00    -0.402 OA
ATOM     22  O   UNL A   1      34.239  27.741  26.416  1.00  0.00    -0.244 OA
BRANCH  20  23
ATOM     23  C   UNL A   1      34.024  32.165  27.663  1.00  0.00     0.037 A 
ATOM     24  C   UNL A   1      33.211  33.249  27.995  1.00  0.00     0.014 A 
ATOM     25  C   UNL A   1      35.418  32.265  27.744  1.00  0.00     0.014 A 
ATOM     26  C   UNL A   1      33.804  34.435  28.437  1.00  0.00     0.001 A 
ATOM     27  C   UNL A   1      36.002  33.455  28.170  1.00  0.00     0.001 A 
ATOM     28  C   UNL A   1      35.196  34.536  28.524  1.00  0.00     0.000 A 
ENDBRANCH  20  23
ENDBRANCH  11  16
ENDBRANCH   7   8
ENDBRANCH   6   7
ENDBRANCH   4   6
ENDBRANCH   3   4
ENDBRANCH   2   3
ENDBRANCH   1   2
BRANCH   1  29
ATOM     29  O   UNL A   1      37.818  20.962  25.425  1.00  0.00    -0.374 OA
BRANCH  29  30
ATOM     30  C   UNL A   1      38.399  19.712  25.059  1.00  0.00     0.202 C 
BRANCH  30  31
ATOM     31  C   UNL A   1      39.701  19.324  25.752  1.00  0.00     0.261 C 
BRANCH  31  32
ATOM     32  O   UNL A   1      40.594  20.437  25.814  1.00  0.00    -0.460 OA
BRANCH  32  33
ATOM     33  C   UNL A   1      41.336  20.478  26.938  1.00  0.00     0.338 C 
ATOM     34  O   UNL A   1      42.014  19.592  27.428  1.00  0.00    -0.246 OA
BRANCH  33  35
ATOM     35  C   UNL A   1      41.367  21.864  27.415  1.00  0.00     0.060 A 
ATOM     36  C   UNL A   1      40.588  22.792  26.714  1.00  0.00     0.016 A 
ATOM     37  C   UNL A   1      42.178  22.247  28.484  1.00  0.00     0.016 A 
ATOM     38  C   UNL A   1      40.688  24.138  27.021  1.00  0.00     0.010 A 
ATOM     39  C   UNL A   1      42.282  23.598  28.792  1.00  0.00     0.010 A 
ATOM     40  C   UNL A   1      41.586  24.542  28.015  1.00  0.00    -0.014 A 
BRANCH  40  41
ATOM     41  C   UNL A   1      41.990  25.957  28.075  1.00  0.00     0.031 A 
ATOM     42  C   UNL A   1      43.283  26.337  27.416  1.00  0.00     0.074 A 
ATOM     43  C   UNL A   1      41.208  26.859  28.685  1.00  0.00     0.049 A 
ATOM     44  N   UNL A   1      43.909  27.484  27.411  1.00  0.00    -0.248 NA
ATOM     45  C   UNL A   1      43.976  25.273  26.666  1.00  0.00     0.031 C 
ATOM     46  C   UNL A   1      39.915  26.572  29.303  1.00  0.00     0.029 A 
ATOM     47  N   UNL A   1      41.399  28.197  28.896  1.00  0.00    -0.354 N 
ATOM     48  C   UNL A   1      45.073  27.270  26.683  1.00  0.00     0.074 A 
ATOM     49  C   UNL A   1      45.087  25.883  26.286  1.00  0.00     0.031 C 
ATOM     50  C   UNL A   1      39.432  27.702  29.845  1.00  0.00     0.029 A 
ATOM     51  C   UNL A   1      40.406  28.773  29.647  1.00  0.00     0.049 A 
ATOM     52  H   UNL A   1      42.171  28.696  28.545  1.00  0.00     0.167 HD
ATOM     53  C   UNL A   1      46.035  28.168  26.371  1.00  0.00     0.037 A 
ATOM     54  C   UNL A   1      40.326  30.023  30.142  1.00  0.00     0.037 A 
ATOM     55  C   UNL A   1      45.984  29.546  26.777  1.00  0.00     0.049 A 
ATOM     56  C   UNL A   1      41.442  30.987  29.834  1.00  0.00     0.074 A 
ATOM     57  C   UNL A   1      46.887  30.558  26.516  1.00  0.00     0.029 A 
ATOM     58  N   UNL A   1      44.964  30.099  27.541  1.00  0.00    -0.354 N 
ATOM     59  N   UNL A   1      42.536  30.790  29.135  1.00  0.00    -0.248 NA
ATOM     60  C   UNL A   1      41.315  32.344  30.376  1.00  0.00     0.031 C 
ATOM     61  C   UNL A   1      46.445  31.709  27.174  1.00  0.00     0.029 A 
ATOM     62  C   UNL A   1      45.227  31.435  27.779  1.00  0.00     0.049 A 
ATOM     63  H   UNL A   1      44.172  29.611  27.864  1.00  0.00     0.167 HD
ATOM     64  C   UNL A   1      43.203  32.008  29.114  1.00  0.00     0.074 A 
ATOM     65  C   UNL A   1      42.390  32.936  29.875  1.00  0.00     0.031 C 
ATOM     66  C   UNL A   1      44.375  32.334  28.516  1.00  0.00     0.037 A 
BRANCH  53  67
ATOM     67  C   UNL A   1      47.224  27.683  25.594  1.00  0.00     0.064 A 
ATOM     68  C   UNL A   1      48.356  27.144  26.225  1.00  0.00     0.173 A 
ATOM     69  C   UNL A   1      47.221  27.734  24.191  1.00  0.00     0.173 A 
ATOM     70  F   UNL A   1      48.420  27.087  27.564  1.00  0.00    -0.203 F 
ATOM     71  C   UNL A   1      49.447  26.698  25.482  1.00  0.00     0.198 A 
ATOM     72  C   UNL A   1      48.300  27.257  23.452  1.00  0.00     0.198 A 
ATOM     73  F   UNL A   1      46.167  28.243  23.535  1.00  0.00    -0.203 F 
ATOM     74  F   UNL A   1      50.537  26.234  26.110  1.00  0.00    -0.200 F 
ATOM     75  C   UNL A   1      49.414  26.745  24.097  1.00  0.00     0.200 A 
ATOM     76  F   UNL A   1      48.260  27.294  22.113  1.00  0.00    -0.200 F 
ATOM     77  F   UNL A   1      50.460  26.306  23.384  1.00  0.00    -0.200 F 
ENDBRANCH  53  67
BRANCH  54  78
ATOM     78  C   UNL A   1      39.162  30.418  30.977  1.00  0.00     0.064 A 
ATOM     79  C   UNL A   1      39.270  30.508  32.371  1.00  0.00     0.173 A 
ATOM     80  C   UNL A   1      37.918  30.716  30.400  1.00  0.00     0.173 A 
ATOM     81  F   UNL A   1      40.435  30.222  32.973  1.00  0.00    -0.203 F 
ATOM     82  C   UNL A   1      38.173  30.855  33.159  1.00  0.00     0.198 A 
ATOM     83  C   UNL A   1      36.830  31.093  31.185  1.00  0.00     0.198 A 
ATOM     84  F   UNL A   1      37.761  30.654  29.070  1.00  0.00    -0.203 F 
ATOM     85  F   UNL A   1      38.292  30.885  34.492  1.00  0.00    -0.200 F 
ATOM     86  C   UNL A   1      36.956  31.151  32.564  1.00  0.00     0.200 A 
ATOM     87  F   UNL A   1      35.662  31.398  30.604  1.00  0.00    -0.200 F 
ATOM     88  F   UNL A   1      35.903  31.489  33.321  1.00  0.00    -0.200 F 
ENDBRANCH  54  78
BRANCH  66  89
ATOM     89  C   UNL A   1      44.813  33.766  28.590  1.00  0.00     0.064 A 
ATOM     90  C   UNL A   1      44.386  34.723  27.659  1.00  0.00     0.173 A 
ATOM     91  C   UNL A   1      45.603  34.199  29.667  1.00  0.00     0.173 A 
ATOM     92  F   UNL A   1      43.640  34.355  26.606  1.00  0.00    -0.203 F 
ATOM     93  C   UNL A   1      44.747  36.060  27.797  1.00  0.00     0.198 A 
ATOM     94  C   UNL A   1      45.931  35.542  29.820  1.00  0.00     0.198 A 
ATOM     95  F   UNL A   1      46.027  33.321  30.590  1.00  0.00    -0.203 F 
ATOM     96  F   UNL A   1      44.360  36.953  26.875  1.00  0.00    -0.200 F 
ATOM     97  C   UNL A   1      45.507  36.470  28.883  1.00  0.00     0.200 A 
ATOM     98  F   UNL A   1      46.647  35.937  30.882  1.00  0.00    -0.200 F 
ATOM     99  F   UNL A   1      45.832  37.762  29.025  1.00  0.00    -0.200 F 
ENDBRANCH  66  89
ENDBRANCH  40  41
ENDBRANCH  33  35
ENDBRANCH  32  33
ENDBRANCH  31  32
ENDBRANCH  30  31
ENDBRANCH  29  30
ENDBRANCH   1  29
TORSDOF 19
ENDMDL
MODEL 3
REMARK VINA RESULT:     -11.4      1.737      7.369
REMARK SMILES COc1cc(/C=C2/N=C(c3ccccc3)OC2=O)ccc1OCC(=O)OCCOCCOC(=O)c1ccc(-c2c3nc(c(-c4c(F)c(F)c(F)c(F)c4F)c4ccc([nH]4)c(-c4c(F)c(F)c(F)c(F)c4F)c4nc(c(-c5c(F)c(F)c(F)c(F)c5F)c5ccc2[nH]5)C=C4)C=C3)cc1
REMARK SMILES IDX 28 1 27 2 26 3 24 4 25 5 23 6 22 7 21 8 3 9 4 10 5 11 20 12
REMARK SMILES IDX 19 13 2 14 1 15 6 16 7 17 8 18 17 19 9 20 16 21 18 22 10 23
REMARK SMILES IDX 11 24 15 25 12 26 14 27 13 28 29 29 30 30 31 31 32 32 33 33
REMARK SMILES IDX 34 34 35 35 36 36 97 37 37 38 96 39 38 40 39 41 40 42 90 43
REMARK SMILES IDX 41 44 95 45 89 46 91 47 42 48 94 49 88 50 87 51 43 53 75 54
REMARK SMILES IDX 55 55 74 56 56 57 59 58 73 59 92 60 57 61 58 62 72 64 93 65
REMARK SMILES IDX 60 66 44 67 45 68 53 69 46 70 47 71 51 72 54 73 48 74 49 75
REMARK SMILES IDX 52 76 50 77 76 78 77 79 85 80 78 81 79 82 83 83 86 84 80 85
REMARK SMILES IDX 81 86 84 87 82 88 61 89 62 90 70 91 63 92 64 93 68 94 71 95
REMARK SMILES IDX 65 96 66 97 69 98 67 99
REMARK H PARENT 91 52 59 63
REMARK Flexibility Score: inf
ROOT
ATOM      1  C   UNL A   1      36.380  19.221  24.909  1.00  0.00     0.202 C 
ENDROOT
BRANCH   1   2
ATOM      2  C   UNL A   1      34.917  19.680  24.953  1.00  0.00     0.261 C 
BRANCH   2   3
ATOM      3  O   UNL A   1      33.997  18.643  24.549  1.00  0.00    -0.461 OA
BRANCH   3   4
ATOM      4  C   UNL A   1      32.678  18.923  24.741  1.00  0.00     0.344 C 
ATOM      5  O   UNL A   1      31.835  18.090  25.060  1.00  0.00    -0.248 OA
BRANCH   4   6
ATOM      6  C   UNL A   1      32.310  20.389  24.487  1.00  0.00     0.352 C 
BRANCH   6   7
ATOM      7  O   UNL A   1      31.551  21.125  25.412  1.00  0.00    -0.478 OA
BRANCH   7   8
ATOM      8  C   UNL A   1      31.462  22.484  25.409  1.00  0.00     0.162 A 
ATOM      9  C   UNL A   1      31.121  23.394  26.419  1.00  0.00     0.161 A 
ATOM     10  C   UNL A   1      31.183  24.785  26.151  1.00  0.00     0.058 A 
ATOM     11  C   UNL A   1      31.532  25.262  24.873  1.00  0.00    -0.019 A 
ATOM     12  C   UNL A   1      31.754  22.982  24.129  1.00  0.00     0.051 A 
ATOM     13  C   UNL A   1      31.782  24.346  23.854  1.00  0.00     0.012 A 
BRANCH   9  14
ATOM     14  O   UNL A   1      30.466  23.012  27.561  1.00  0.00    -0.493 OA
ATOM     15  C   UNL A   1      29.066  22.769  27.457  1.00  0.00     0.278 C 
ENDBRANCH   9  14
BRANCH  11  16
ATOM     16  C   UNL A   1      31.633  26.691  24.543  1.00  0.00     0.044 C 
ATOM     17  C   UNL A   1      30.666  27.417  23.963  1.00  0.00     0.153 C 
ATOM     18  N   UNL A   1      30.792  28.740  23.604  1.00  0.00    -0.205 NA
ATOM     19  C   UNL A   1      29.287  26.930  23.662  1.00  0.00     0.363 C 
ATOM     20  C   UNL A   1      29.596  29.029  23.210  1.00  0.00     0.231 C 
ATOM     21  O   UNL A   1      28.665  28.048  23.206  1.00  0.00    -0.402 OA
ATOM     22  O   UNL A   1      28.790  25.828  23.789  1.00  0.00    -0.244 OA
BRANCH  20  23
ATOM     23  C   UNL A   1      29.052  30.304  22.754  1.00  0.00     0.037 A 
ATOM     24  C   UNL A   1      29.190  31.462  23.520  1.00  0.00     0.014 A 
ATOM     25  C   UNL A   1      28.423  30.343  21.504  1.00  0.00     0.014 A 
ATOM     26  C   UNL A   1      28.714  32.674  23.013  1.00  0.00     0.001 A 
ATOM     27  C   UNL A   1      27.937  31.552  21.012  1.00  0.00     0.001 A 
ATOM     28  C   UNL A   1      28.090  32.717  21.762  1.00  0.00     0.000 A 
ENDBRANCH  20  23
ENDBRANCH  11  16
ENDBRANCH   7   8
ENDBRANCH   6   7
ENDBRANCH   4   6
ENDBRANCH   3   4
ENDBRANCH   2   3
ENDBRANCH   1   2
BRANCH   1  29
ATOM     29  O   UNL A   1      37.358  20.225  24.644  1.00  0.00    -0.374 OA
BRANCH  29  30
ATOM     30  C   UNL A   1      37.853  20.944  25.772  1.00  0.00     0.202 C 
BRANCH  30  31
ATOM     31  C   UNL A   1      39.351  21.224  25.811  1.00  0.00     0.261 C 
BRANCH  31  32
ATOM     32  O   UNL A   1      39.993  20.418  26.802  1.00  0.00    -0.460 OA
BRANCH  32  33
ATOM     33  C   UNL A   1      41.243  20.039  26.471  1.00  0.00     0.338 C 
ATOM     34  O   UNL A   1      41.592  19.047  25.855  1.00  0.00    -0.246 OA
BRANCH  33  35
ATOM     35  C   UNL A   1      42.157  21.134  26.808  1.00  0.00     0.060 A 
ATOM     36  C   UNL A   1      42.275  21.466  28.163  1.00  0.00     0.016 A 
ATOM     37  C   UNL A   1      42.837  21.844  25.817  1.00  0.00     0.016 A 
ATOM     38  C   UNL A   1      43.006  22.582  28.531  1.00  0.00     0.010 A 
ATOM     39  C   UNL A   1      43.569  22.967  26.185  1.00  0.00     0.010 A 
ATOM     40  C   UNL A   1      43.595  23.367  27.533  1.00  0.00    -0.014 A 
BRANCH  40  41
ATOM     41  C   UNL A   1      44.021  24.737  27.866  1.00  0.00     0.031 A 
ATOM     42  C   UNL A   1      42.951  25.735  28.195  1.00  0.00     0.074 A 
ATOM     43  C   UNL A   1      45.323  25.054  27.887  1.00  0.00     0.049 A 
ATOM     44  N   UNL A   1      43.051  27.018  28.422  1.00  0.00    -0.248 NA
ATOM     45  C   UNL A   1      41.571  25.220  28.266  1.00  0.00     0.031 C 
ATOM     46  C   UNL A   1      46.421  24.124  27.628  1.00  0.00     0.029 A 
ATOM     47  N   UNL A   1      45.939  26.252  28.123  1.00  0.00    -0.354 N 
ATOM     48  C   UNL A   1      41.752  27.461  28.637  1.00  0.00     0.074 A 
ATOM     49  C   UNL A   1      40.875  26.324  28.486  1.00  0.00     0.031 C 
ATOM     50  C   UNL A   1      47.584  24.794  27.700  1.00  0.00     0.029 A 
ATOM     51  C   UNL A   1      47.301  26.202  27.966  1.00  0.00     0.049 A 
ATOM     52  H   UNL A   1      45.453  27.069  28.379  1.00  0.00     0.167 HD
ATOM     53  C   UNL A   1      41.340  28.711  28.944  1.00  0.00     0.037 A 
ATOM     54  C   UNL A   1      48.202  27.202  28.001  1.00  0.00     0.037 A 
ATOM     55  C   UNL A   1      42.243  29.820  29.095  1.00  0.00     0.049 A 
ATOM     56  C   UNL A   1      47.711  28.598  28.282  1.00  0.00     0.074 A 
ATOM     57  C   UNL A   1      41.954  31.132  29.416  1.00  0.00     0.029 A 
ATOM     58  N   UNL A   1      43.619  29.736  28.926  1.00  0.00    -0.354 N 
ATOM     59  N   UNL A   1      46.484  29.016  28.499  1.00  0.00    -0.248 NA
ATOM     60  C   UNL A   1      48.721  29.660  28.328  1.00  0.00     0.031 C 
ATOM     61  C   UNL A   1      43.149  31.856  29.381  1.00  0.00     0.029 A 
ATOM     62  C   UNL A   1      44.192  30.980  29.116  1.00  0.00     0.049 A 
ATOM     63  H   UNL A   1      44.113  28.913  28.705  1.00  0.00     0.167 HD
ATOM     64  C   UNL A   1      46.582  30.377  28.753  1.00  0.00     0.074 A 
ATOM     65  C   UNL A   1      47.988  30.714  28.659  1.00  0.00     0.031 C 
ATOM     66  C   UNL A   1      45.602  31.268  29.044  1.00  0.00     0.037 A 
BRANCH  53  67
ATOM     67  C   UNL A   1      39.866  28.949  29.098  1.00  0.00     0.064 A 
ATOM     68  C   UNL A   1      39.049  29.286  28.007  1.00  0.00     0.173 A 
ATOM     69  C   UNL A   1      39.255  28.810  30.354  1.00  0.00     0.173 A 
ATOM     70  F   UNL A   1      39.583  29.449  26.788  1.00  0.00    -0.203 F 
ATOM     71  C   UNL A   1      37.682  29.499  28.174  1.00  0.00     0.198 A 
ATOM     72  C   UNL A   1      37.883  28.992  30.510  1.00  0.00     0.198 A 
ATOM     73  F   UNL A   1      39.988  28.493  31.432  1.00  0.00    -0.203 F 
ATOM     74  F   UNL A   1      36.932  29.870  27.128  1.00  0.00    -0.200 F 
ATOM     75  C   UNL A   1      37.099  29.343  29.422  1.00  0.00     0.200 A 
ATOM     76  F   UNL A   1      37.321  28.828  31.715  1.00  0.00    -0.200 F 
ATOM     77  F   UNL A   1      35.783  29.538  29.579  1.00  0.00    -0.200 F 
ENDBRANCH  53  67
BRANCH  54  78
ATOM     78  C   UNL A   1      49.639  26.916  27.756  1.00  0.00     0.064 A 
ATOM     79  C   UNL A   1      50.167  26.924  26.458  1.00  0.00     0.173 A 
ATOM     80  C   UNL A   1      50.516  26.628  28.813  1.00  0.00     0.173 A 
ATOM     81  F   UNL A   1      49.368  27.182  25.412  1.00  0.00    -0.203 F 
ATOM     82  C   UNL A   1      51.510  26.632  26.224  1.00  0.00     0.198 A 
ATOM     83  C   UNL A   1      51.865  26.367  28.582  1.00  0.00     0.198 A 
ATOM     84  F   UNL A   1      50.065  26.614  30.076  1.00  0.00    -0.203 F 
ATOM     85  F   UNL A   1      51.977  26.600  24.969  1.00  0.00    -0.200 F 
ATOM     86  C   UNL A   1      52.359  26.358  27.286  1.00  0.00     0.200 A 
ATOM     87  F   UNL A   1      52.685  26.123  29.613  1.00  0.00    -0.200 F 
ATOM     88  F   UNL A   1      53.650  26.082  27.061  1.00  0.00    -0.200 F 
ENDBRANCH  54  78
BRANCH  66  89
ATOM     89  C   UNL A   1      46.018  32.674  29.361  1.00  0.00     0.064 A 
ATOM     90  C   UNL A   1      46.383  33.067  30.655  1.00  0.00     0.173 A 
ATOM     91  C   UNL A   1      46.138  33.615  28.326  1.00  0.00     0.173 A 
ATOM     92  F   UNL A   1      46.274  32.207  31.679  1.00  0.00    -0.203 F 
ATOM     93  C   UNL A   1      46.838  34.359  30.905  1.00  0.00     0.198 A 
ATOM     94  C   UNL A   1      46.627  34.893  28.573  1.00  0.00     0.198 A 
ATOM     95  F   UNL A   1      45.810  33.281  27.067  1.00  0.00    -0.203 F 
ATOM     96  F   UNL A   1      47.146  34.727  32.156  1.00  0.00    -0.200 F 
ATOM     97  C   UNL A   1      46.972  35.265  29.862  1.00  0.00     0.200 A 
ATOM     98  F   UNL A   1      46.775  35.758  27.561  1.00  0.00    -0.200 F 
ATOM     99  F   UNL A   1      47.434  36.500  30.103  1.00  0.00    -0.200 F 
ENDBRANCH  66  89
ENDBRANCH  40  41
ENDBRANCH  33  35
ENDBRANCH  32  33
ENDBRANCH  31  32
ENDBRANCH  30  31
ENDBRANCH  29  30
ENDBRANCH   1  29
TORSDOF 19
ENDMDL
