MODEL 1
REMARK VINA RESULT:     -11.8      0.000      0.000
REMARK SMILES Cc1c(CC(=O)OCCOCCOC(=O)c2ccc(-c3c4nc(c(-c5c(F)c(F)c(F)c(F)c5F)c5ccc([nH]5)c(-c5c(F)c(F)c(F)c(F)c5F)c5nc(c(-c6c(F)c(F)c(F)c(F)c6F)c6ccc3[nH]6)C=C5)C=C4)cc2)cc(-c2ccc(S(C)(=O)=O)cc2)n1-c1cccc(F)c1
REMARK SMILES IDX 9 1 8 2 7 3 5 4 6 5 4 6 3 7 1 8 2 9 91 10 79 11 80 12 92 13
REMARK SMILES IDX 93 14 98 15 94 16 96 17 95 18 97 19 81 20 82 21 90 22 83 23
REMARK SMILES IDX 89 24 84 25 85 26 86 27 87 28 88 29 10 30 11 31 12 32 13 33
REMARK SMILES IDX 14 34 15 35 16 36 17 37 78 38 18 39 77 40 19 41 20 42 21 43
REMARK SMILES IDX 71 44 22 45 76 46 70 47 72 48 23 49 75 50 69 51 68 52 24 54
REMARK SMILES IDX 56 55 36 56 55 57 37 58 40 59 54 60 73 61 38 62 39 63 53 65
REMARK SMILES IDX 74 66 41 67 25 68 26 69 34 70 27 71 28 72 32 73 35 74 29 75
REMARK SMILES IDX 30 76 33 77 31 78 57 79 58 80 66 81 59 82 60 83 64 84 67 85
REMARK SMILES IDX 61 86 62 87 65 88 63 89 42 90 43 91 51 92 44 93 45 94 49 95
REMARK SMILES IDX 52 96 46 97 47 98 50 99 48 100
REMARK H PARENT 72 53 40 64
REMARK Flexibility Score: inf
ROOT
ATOM      1  C   UNL A   1      32.678  30.105  26.165  1.00  0.00     0.202 C 
ENDROOT
BRANCH   1   2
ATOM      2  C   UNL A   1      31.555  29.050  26.128  1.00  0.00     0.261 C 
BRANCH   2   3
ATOM      3  O   UNL A   1      31.103  28.725  24.797  1.00  0.00    -0.463 OA
BRANCH   3   4
ATOM      4  C   UNL A   1      30.572  27.481  24.634  1.00  0.00     0.310 C 
ATOM      5  O   UNL A   1      29.850  27.156  23.695  1.00  0.00    -0.252 OA
BRANCH   4   6
ATOM      6  C   UNL A   1      30.829  26.536  25.789  1.00  0.00     0.160 C 
BRANCH   6   7
ATOM      7  C   UNL A   1      31.824  25.422  25.598  1.00  0.00    -0.015 A 
ATOM      8  C   UNL A   1      34.017  26.714  25.016  1.00  0.00     0.065 C 
ATOM      9  C   UNL A   1      33.179  25.504  25.282  1.00  0.00     0.024 A 
ATOM     10  N   UNL A   1      33.671  24.213  25.100  1.00  0.00    -0.313 N 
ATOM     11  C   UNL A   1      31.487  24.044  25.535  1.00  0.00     0.033 A 
ATOM     12  C   UNL A   1      32.604  23.322  25.156  1.00  0.00     0.053 A 
BRANCH  10  13
ATOM     13  C   UNL A   1      35.031  23.861  24.877  1.00  0.00     0.049 A 
ATOM     14  C   UNL A   1      35.441  23.363  23.634  1.00  0.00     0.027 A 
ATOM     15  C   UNL A   1      35.935  23.932  25.939  1.00  0.00     0.065 A 
ATOM     16  C   UNL A   1      36.759  22.930  23.464  1.00  0.00     0.005 A 
ATOM     17  C   UNL A   1      37.224  23.445  25.768  1.00  0.00     0.125 A 
ATOM     18  C   UNL A   1      37.647  22.949  24.540  1.00  0.00     0.039 A 
ATOM     19  F   UNL A   1      38.066  23.433  26.810  1.00  0.00    -0.207 F 
ENDBRANCH  10  13
BRANCH  12  20
ATOM     20  C   UNL A   1      32.684  21.884  24.894  1.00  0.00    -0.001 A 
ATOM     21  C   UNL A   1      32.502  21.369  23.605  1.00  0.00     0.011 A 
ATOM     22  C   UNL A   1      32.964  21.009  25.954  1.00  0.00     0.011 A 
ATOM     23  C   UNL A   1      32.573  19.992  23.379  1.00  0.00     0.021 A 
ATOM     24  C   UNL A   1      33.029  19.631  25.738  1.00  0.00     0.021 A 
ATOM     25  C   UNL A   1      32.820  19.130  24.452  1.00  0.00     0.067 A 
BRANCH  25  26
ATOM     26  S   UNL A   1      32.901  17.380  24.155  1.00  0.00     0.175 S 
ATOM     27  C   UNL A   1      34.615  16.988  24.388  1.00  0.00     0.163 C 
ATOM     28  O   UNL A   1      32.137  16.734  25.201  1.00  0.00    -0.224 OA
ATOM     29  O   UNL A   1      32.590  17.154  22.753  1.00  0.00    -0.224 OA
ENDBRANCH  25  26
ENDBRANCH  12  20
ENDBRANCH   6   7
ENDBRANCH   4   6
ENDBRANCH   3   4
ENDBRANCH   2   3
ENDBRANCH   1   2
BRANCH   1  30
ATOM     30  O   UNL A   1      32.961  30.672  27.435  1.00  0.00    -0.374 OA
BRANCH  30  31
ATOM     31  C   UNL A   1      34.335  30.647  27.822  1.00  0.00     0.202 C 
BRANCH  31  32
ATOM     32  C   UNL A   1      34.776  31.529  29.024  1.00  0.00     0.261 C 
BRANCH  32  33
ATOM     33  O   UNL A   1      36.144  31.449  29.572  1.00  0.00    -0.460 OA
BRANCH  33  34
ATOM     34  C   UNL A   1      36.436  30.219  30.143  1.00  0.00     0.338 C 
ATOM     35  O   UNL A   1      35.901  29.825  31.176  1.00  0.00    -0.246 OA
BRANCH  34  36
ATOM     36  C   UNL A   1      37.577  29.373  29.557  1.00  0.00     0.060 A 
ATOM     37  C   UNL A   1      38.776  29.109  30.233  1.00  0.00     0.016 A 
ATOM     38  C   UNL A   1      37.660  29.174  28.175  1.00  0.00     0.016 A 
ATOM     39  C   UNL A   1      40.013  28.704  29.544  1.00  0.00     0.010 A 
ATOM     40  C   UNL A   1      38.880  28.714  27.499  1.00  0.00     0.010 A 
ATOM     41  C   UNL A   1      40.157  28.528  28.127  1.00  0.00    -0.014 A 
BRANCH  41  42
ATOM     42  C   UNL A   1      41.672  28.943  27.448  1.00  0.00     0.031 A 
ATOM     43  C   UNL A   1      41.787  27.916  26.334  1.00  0.00     0.074 A 
ATOM     44  C   UNL A   1      42.948  29.570  27.660  1.00  0.00     0.049 A 
ATOM     45  N   UNL A   1      41.559  26.683  26.687  1.00  0.00    -0.248 NA
ATOM     46  C   UNL A   1      42.437  28.036  25.033  1.00  0.00     0.031 C 
ATOM     47  C   UNL A   1      44.139  29.422  26.735  1.00  0.00     0.029 A 
ATOM     48  N   UNL A   1      43.627  30.356  28.639  1.00  0.00    -0.354 N 
ATOM     49  C   UNL A   1      42.575  25.985  26.110  1.00  0.00     0.074 A 
ATOM     50  C   UNL A   1      43.021  26.827  24.999  1.00  0.00     0.031 C 
ATOM     51  C   UNL A   1      45.204  30.192  27.021  1.00  0.00     0.029 A 
ATOM     52  C   UNL A   1      44.973  30.814  28.297  1.00  0.00     0.049 A 
ATOM     53  H   UNL A   1      43.208  30.577  29.502  1.00  0.00     0.167 HD
ATOM     54  C   UNL A   1      43.411  25.310  26.955  1.00  0.00     0.037 A 
ATOM     55  C   UNL A   1      46.054  31.231  29.048  1.00  0.00     0.037 A 
ATOM     56  C   UNL A   1      43.773  25.914  28.241  1.00  0.00     0.049 A 
ATOM     57  C   UNL A   1      46.327  30.103  29.981  1.00  0.00     0.074 A 
ATOM     58  C   UNL A   1      43.154  26.718  29.168  1.00  0.00     0.029 A 
ATOM     59  N   UNL A   1      44.955  25.606  28.866  1.00  0.00    -0.354 N 
ATOM     60  N   UNL A   1      47.138  29.104  29.762  1.00  0.00    -0.248 NA
ATOM     61  C   UNL A   1      45.621  30.102  31.246  1.00  0.00     0.031 C 
ATOM     62  C   UNL A   1      43.963  26.969  30.283  1.00  0.00     0.029 A 
ATOM     63  C   UNL A   1      45.199  26.501  29.909  1.00  0.00     0.049 A 
ATOM     64  H   UNL A   1      45.548  24.861  28.613  1.00  0.00     0.167 HD
ATOM     65  C   UNL A   1      46.750  28.151  30.693  1.00  0.00     0.074 A 
ATOM     66  C   UNL A   1      45.900  28.863  31.643  1.00  0.00     0.031 C 
ATOM     67  C   UNL A   1      46.552  26.883  30.237  1.00  0.00     0.037 A 
BRANCH  54  68
ATOM     68  C   UNL A   1      42.973  23.874  26.938  1.00  0.00     0.064 A 
ATOM     69  C   UNL A   1      43.644  22.931  26.138  1.00  0.00     0.173 A 
ATOM     70  C   UNL A   1      41.854  23.426  27.662  1.00  0.00     0.173 A 
ATOM     71  F   UNL A   1      44.717  23.284  25.410  1.00  0.00    -0.203 F 
ATOM     72  C   UNL A   1      43.219  21.612  26.072  1.00  0.00     0.198 A 
ATOM     73  C   UNL A   1      41.459  22.097  27.624  1.00  0.00     0.198 A 
ATOM     74  F   UNL A   1      41.119  24.252  28.421  1.00  0.00    -0.203 F 
ATOM     75  F   UNL A   1      43.871  20.745  25.285  1.00  0.00    -0.200 F 
ATOM     76  C   UNL A   1      42.141  21.191  26.832  1.00  0.00     0.200 A 
ATOM     77  F   UNL A   1      40.426  21.695  28.377  1.00  0.00    -0.200 F 
ATOM     78  F   UNL A   1      41.771  19.905  26.818  1.00  0.00    -0.200 F 
ENDBRANCH  54  68
BRANCH  55  79
ATOM     79  C   UNL A   1      47.340  32.044  28.916  1.00  0.00     0.064 A 
ATOM     80  C   UNL A   1      48.484  31.890  28.107  1.00  0.00     0.173 A 
ATOM     81  C   UNL A   1      47.495  32.954  29.992  1.00  0.00     0.173 A 
ATOM     82  F   UNL A   1      48.498  31.023  27.085  1.00  0.00    -0.203 F 
ATOM     83  C   UNL A   1      49.685  32.606  28.375  1.00  0.00     0.198 A 
ATOM     84  C   UNL A   1      48.682  33.640  30.269  1.00  0.00     0.198 A 
ATOM     85  F   UNL A   1      46.473  33.129  30.845  1.00  0.00    -0.203 F 
ATOM     86  F   UNL A   1      50.769  32.432  27.600  1.00  0.00    -0.200 F 
ATOM     87  C   UNL A   1      49.784  33.467  29.459  1.00  0.00     0.200 A 
ATOM     88  F   UNL A   1      48.757  34.433  31.347  1.00  0.00    -0.200 F 
ATOM     89  F   UNL A   1      50.931  34.107  29.738  1.00  0.00    -0.200 F 
ENDBRANCH  55  79
BRANCH  67  90
ATOM     90  C   UNL A   1      47.709  26.197  29.606  1.00  0.00     0.064 A 
ATOM     91  C   UNL A   1      47.934  26.434  28.247  1.00  0.00     0.173 A 
ATOM     92  C   UNL A   1      48.722  25.576  30.352  1.00  0.00     0.173 A 
ATOM     93  F   UNL A   1      46.986  27.019  27.499  1.00  0.00    -0.203 F 
ATOM     94  C   UNL A   1      49.175  26.169  27.682  1.00  0.00     0.198 A 
ATOM     95  C   UNL A   1      49.979  25.370  29.800  1.00  0.00     0.198 A 
ATOM     96  F   UNL A   1      48.562  25.338  31.664  1.00  0.00    -0.203 F 
ATOM     97  F   UNL A   1      49.398  26.467  26.395  1.00  0.00    -0.200 F 
ATOM     98  C   UNL A   1      50.209  25.680  28.470  1.00  0.00     0.200 A 
ATOM     99  F   UNL A   1      50.991  24.979  30.586  1.00  0.00    -0.200 F 
ATOM    100  F   UNL A   1      51.440  25.551  27.958  1.00  0.00    -0.200 F 
ENDBRANCH  67  90
ENDBRANCH  41  42
ENDBRANCH  34  36
ENDBRANCH  33  34
ENDBRANCH  32  33
ENDBRANCH  31  32
ENDBRANCH  30  31
ENDBRANCH   1  30
TORSDOF 18
ENDMDL
MODEL 2
REMARK VINA RESULT:     -11.4      1.844      7.072
REMARK SMILES Cc1c(CC(=O)OCCOCCOC(=O)c2ccc(-c3c4nc(c(-c5c(F)c(F)c(F)c(F)c5F)c5ccc([nH]5)c(-c5c(F)c(F)c(F)c(F)c5F)c5nc(c(-c6c(F)c(F)c(F)c(F)c6F)c6ccc3[nH]6)C=C5)C=C4)cc2)cc(-c2ccc(S(C)(=O)=O)cc2)n1-c1cccc(F)c1
REMARK SMILES IDX 9 1 8 2 7 3 5 4 6 5 4 6 3 7 1 8 2 9 91 10 79 11 80 12 92 13
REMARK SMILES IDX 93 14 98 15 94 16 96 17 95 18 97 19 81 20 82 21 90 22 83 23
REMARK SMILES IDX 89 24 84 25 85 26 86 27 87 28 88 29 10 30 11 31 12 32 13 33
REMARK SMILES IDX 14 34 15 35 16 36 17 37 78 38 18 39 77 40 19 41 20 42 21 43
REMARK SMILES IDX 71 44 22 45 76 46 70 47 72 48 23 49 75 50 69 51 68 52 24 54
REMARK SMILES IDX 56 55 36 56 55 57 37 58 40 59 54 60 73 61 38 62 39 63 53 65
REMARK SMILES IDX 74 66 41 67 25 68 26 69 34 70 27 71 28 72 32 73 35 74 29 75
REMARK SMILES IDX 30 76 33 77 31 78 57 79 58 80 66 81 59 82 60 83 64 84 67 85
REMARK SMILES IDX 61 86 62 87 65 88 63 89 42 90 43 91 51 92 44 93 45 94 49 95
REMARK SMILES IDX 52 96 46 97 47 98 50 99 48 100
REMARK H PARENT 72 53 40 64
REMARK Flexibility Score: inf
ROOT
ATOM      1  C   UNL A   1      32.537  29.393  25.690  1.00  0.00     0.202 C 
ENDROOT
BRANCH   1   2
ATOM      2  C   UNL A   1      31.084  29.074  25.285  1.00  0.00     0.261 C 
BRANCH   2   3
ATOM      3  O   UNL A   1      30.975  28.157  24.177  1.00  0.00    -0.463 OA
BRANCH   3   4
ATOM      4  C   UNL A   1      30.245  27.030  24.404  1.00  0.00     0.310 C 
ATOM      5  O   UNL A   1      29.271  26.692  23.736  1.00  0.00    -0.252 OA
BRANCH   4   6
ATOM      6  C   UNL A   1      30.641  26.270  25.652  1.00  0.00     0.160 C 
BRANCH   6   7
ATOM      7  C   UNL A   1      31.676  25.183  25.532  1.00  0.00    -0.015 A 
ATOM      8  C   UNL A   1      33.886  26.535  25.216  1.00  0.00     0.065 C 
ATOM      9  C   UNL A   1      33.054  25.302  25.359  1.00  0.00     0.024 A 
ATOM     10  N   UNL A   1      33.592  24.027  25.192  1.00  0.00    -0.313 N 
ATOM     11  C   UNL A   1      31.379  23.801  25.396  1.00  0.00     0.033 A 
ATOM     12  C   UNL A   1      32.545  23.113  25.112  1.00  0.00     0.053 A 
BRANCH  10  13
ATOM     13  C   UNL A   1      34.974  23.709  25.100  1.00  0.00     0.049 A 
ATOM     14  C   UNL A   1      35.826  23.920  26.192  1.00  0.00     0.027 A 
ATOM     15  C   UNL A   1      35.492  23.271  23.879  1.00  0.00     0.065 A 
ATOM     16  C   UNL A   1      37.199  23.695  26.051  1.00  0.00     0.005 A 
ATOM     17  C   UNL A   1      36.865  23.108  23.742  1.00  0.00     0.125 A 
ATOM     18  C   UNL A   1      37.723  23.311  24.817  1.00  0.00     0.039 A 
ATOM     19  F   UNL A   1      37.370  22.772  22.548  1.00  0.00    -0.207 F 
ENDBRANCH  10  13
BRANCH  12  20
ATOM     20  C   UNL A   1      32.685  21.686  24.819  1.00  0.00    -0.001 A 
ATOM     21  C   UNL A   1      32.385  21.172  23.552  1.00  0.00     0.011 A 
ATOM     22  C   UNL A   1      33.141  20.820  25.824  1.00  0.00     0.011 A 
ATOM     23  C   UNL A   1      32.516  19.805  23.295  1.00  0.00     0.021 A 
ATOM     24  C   UNL A   1      33.267  19.452  25.579  1.00  0.00     0.021 A 
ATOM     25  C   UNL A   1      32.941  18.951  24.318  1.00  0.00     0.067 A 
BRANCH  25  26
ATOM     26  S   UNL A   1      33.097  17.212  23.984  1.00  0.00     0.175 S 
ATOM     27  C   UNL A   1      32.102  16.448  25.237  1.00  0.00     0.163 C 
ATOM     28  O   UNL A   1      32.482  16.968  22.697  1.00  0.00    -0.224 OA
ATOM     29  O   UNL A   1      34.479  16.835  24.236  1.00  0.00    -0.224 OA
ENDBRANCH  25  26
ENDBRANCH  12  20
ENDBRANCH   6   7
ENDBRANCH   4   6
ENDBRANCH   3   4
ENDBRANCH   2   3
ENDBRANCH   1   2
BRANCH   1  30
ATOM     30  O   UNL A   1      32.703  30.122  26.897  1.00  0.00    -0.374 OA
BRANCH  30  31
ATOM     31  C   UNL A   1      34.047  30.232  27.364  1.00  0.00     0.202 C 
BRANCH  31  32
ATOM     32  C   UNL A   1      34.474  31.547  28.076  1.00  0.00     0.261 C 
BRANCH  32  33
ATOM     33  O   UNL A   1      35.889  31.832  28.376  1.00  0.00    -0.460 OA
BRANCH  33  34
ATOM     34  C   UNL A   1      36.228  31.601  29.701  1.00  0.00     0.338 C 
ATOM     35  O   UNL A   1      35.411  31.679  30.616  1.00  0.00    -0.246 OA
BRANCH  34  36
ATOM     36  C   UNL A   1      37.703  31.385  30.072  1.00  0.00     0.060 A 
ATOM     37  C   UNL A   1      38.734  31.271  29.129  1.00  0.00     0.016 A 
ATOM     38  C   UNL A   1      38.038  30.875  31.330  1.00  0.00     0.016 A 
ATOM     39  C   UNL A   1      40.027  30.636  29.428  1.00  0.00     0.010 A 
ATOM     40  C   UNL A   1      39.352  30.294  31.640  1.00  0.00     0.010 A 
ATOM     41  C   UNL A   1      40.402  30.062  30.689  1.00  0.00    -0.014 A 
BRANCH  41  42
ATOM     42  C   UNL A   1      41.416  28.685  30.640  1.00  0.00     0.031 A 
ATOM     43  C   UNL A   1      42.600  29.161  31.466  1.00  0.00     0.074 A 
ATOM     44  C   UNL A   1      41.771  27.484  29.935  1.00  0.00     0.049 A 
ATOM     45  N   UNL A   1      43.081  30.323  31.132  1.00  0.00    -0.248 NA
ATOM     46  C   UNL A   1      43.489  28.392  32.331  1.00  0.00     0.031 C 
ATOM     47  C   UNL A   1      43.030  26.679  30.193  1.00  0.00     0.029 A 
ATOM     48  N   UNL A   1      41.317  26.688  28.840  1.00  0.00    -0.354 N 
ATOM     49  C   UNL A   1      44.428  30.124  31.105  1.00  0.00     0.074 A 
ATOM     50  C   UNL A   1      44.649  28.963  31.970  1.00  0.00     0.031 C 
ATOM     51  C   UNL A   1      43.126  25.512  29.533  1.00  0.00     0.029 A 
ATOM     52  C   UNL A   1      42.054  25.453  28.574  1.00  0.00     0.049 A 
ATOM     53  H   UNL A   1      40.546  26.959  28.292  1.00  0.00     0.167 HD
ATOM     54  C   UNL A   1      45.053  30.328  29.907  1.00  0.00     0.037 A 
ATOM     55  C   UNL A   1      42.191  24.649  27.461  1.00  0.00     0.037 A 
ATOM     56  C   UNL A   1      44.379  29.930  28.668  1.00  0.00     0.049 A 
ATOM     57  C   UNL A   1      42.697  25.559  26.396  1.00  0.00     0.074 A 
ATOM     58  C   UNL A   1      43.082  29.887  28.214  1.00  0.00     0.029 A 
ATOM     59  N   UNL A   1      45.091  29.595  27.544  1.00  0.00    -0.354 N 
ATOM     60  N   UNL A   1      43.950  25.792  26.115  1.00  0.00    -0.248 NA
ATOM     61  C   UNL A   1      41.711  26.262  25.599  1.00  0.00     0.031 C 
ATOM     62  C   UNL A   1      42.995  29.454  26.885  1.00  0.00     0.029 A 
ATOM     63  C   UNL A   1      44.257  28.990  26.603  1.00  0.00     0.049 A 
ATOM     64  H   UNL A   1      46.055  29.757  27.419  1.00  0.00     0.167 HD
ATOM     65  C   UNL A   1      43.911  26.963  25.372  1.00  0.00     0.074 A 
ATOM     66  C   UNL A   1      42.512  27.134  24.994  1.00  0.00     0.031 C 
ATOM     67  C   UNL A   1      44.769  27.957  25.734  1.00  0.00     0.037 A 
BRANCH  54  68
ATOM     68  C   UNL A   1      45.678  31.691  29.974  1.00  0.00     0.064 A 
ATOM     69  C   UNL A   1      46.919  31.879  30.610  1.00  0.00     0.173 A 
ATOM     70  C   UNL A   1      45.035  32.834  29.465  1.00  0.00     0.173 A 
ATOM     71  F   UNL A   1      47.592  30.838  31.129  1.00  0.00    -0.203 F 
ATOM     72  C   UNL A   1      47.484  33.140  30.725  1.00  0.00     0.198 A 
ATOM     73  C   UNL A   1      45.624  34.087  29.548  1.00  0.00     0.198 A 
ATOM     74  F   UNL A   1      43.830  32.771  28.879  1.00  0.00    -0.203 F 
ATOM     75  F   UNL A   1      48.658  33.285  31.354  1.00  0.00    -0.200 F 
ATOM     76  C   UNL A   1      46.847  34.240  30.175  1.00  0.00     0.200 A 
ATOM     77  F   UNL A   1      45.009  35.141  28.995  1.00  0.00    -0.200 F 
ATOM     78  F   UNL A   1      47.423  35.447  30.229  1.00  0.00    -0.200 F 
ENDBRANCH  54  68
BRANCH  55  79
ATOM     79  C   UNL A   1      42.578  23.223  27.074  1.00  0.00     0.064 A 
ATOM     80  C   UNL A   1      43.797  22.645  26.666  1.00  0.00     0.173 A 
ATOM     81  C   UNL A   1      41.435  22.418  26.840  1.00  0.00     0.173 A 
ATOM     82  F   UNL A   1      44.953  23.316  26.779  1.00  0.00    -0.203 F 
ATOM     83  C   UNL A   1      43.846  21.354  26.070  1.00  0.00     0.198 A 
ATOM     84  C   UNL A   1      41.480  21.158  26.233  1.00  0.00     0.198 A 
ATOM     85  F   UNL A   1      40.224  22.906  27.152  1.00  0.00    -0.203 F 
ATOM     86  F   UNL A   1      45.018  20.829  25.675  1.00  0.00    -0.200 F 
ATOM     87  C   UNL A   1      42.688  20.621  25.845  1.00  0.00     0.200 A 
ATOM     88  F   UNL A   1      40.340  20.494  25.993  1.00  0.00    -0.200 F 
ATOM     89  F   UNL A   1      42.729  19.422  25.241  1.00  0.00    -0.200 F 
ENDBRANCH  55  79
BRANCH  67  90
ATOM     90  C   UNL A   1      46.222  27.652  25.693  1.00  0.00     0.064 A 
ATOM     91  C   UNL A   1      46.766  26.963  26.781  1.00  0.00     0.173 A 
ATOM     92  C   UNL A   1      46.987  27.761  24.522  1.00  0.00     0.173 A 
ATOM     93  F   UNL A   1      46.068  26.844  27.921  1.00  0.00    -0.203 F 
ATOM     94  C   UNL A   1      47.982  26.303  26.659  1.00  0.00     0.198 A 
ATOM     95  C   UNL A   1      48.171  27.049  24.384  1.00  0.00     0.198 A 
ATOM     96  F   UNL A   1      46.506  28.400  23.443  1.00  0.00    -0.203 F 
ATOM     97  F   UNL A   1      48.457  25.588  27.689  1.00  0.00    -0.200 F 
ATOM     98  C   UNL A   1      48.661  26.310  25.448  1.00  0.00     0.200 A 
ATOM     99  F   UNL A   1      48.775  26.992  23.189  1.00  0.00    -0.200 F 
ATOM    100  F   UNL A   1      49.763  25.564  25.291  1.00  0.00    -0.200 F 
ENDBRANCH  67  90
ENDBRANCH  41  42
ENDBRANCH  34  36
ENDBRANCH  33  34
ENDBRANCH  32  33
ENDBRANCH  31  32
ENDBRANCH  30  31
ENDBRANCH   1  30
TORSDOF 18
ENDMDL
MODEL 3
REMARK VINA RESULT:     -10.9      4.294      8.245
REMARK SMILES Cc1c(CC(=O)OCCOCCOC(=O)c2ccc(-c3c4nc(c(-c5c(F)c(F)c(F)c(F)c5F)c5ccc([nH]5)c(-c5c(F)c(F)c(F)c(F)c5F)c5nc(c(-c6c(F)c(F)c(F)c(F)c6F)c6ccc3[nH]6)C=C5)C=C4)cc2)cc(-c2ccc(S(C)(=O)=O)cc2)n1-c1cccc(F)c1
REMARK SMILES IDX 9 1 8 2 7 3 5 4 6 5 4 6 3 7 1 8 2 9 91 10 79 11 80 12 92 13
REMARK SMILES IDX 93 14 98 15 94 16 96 17 95 18 97 19 81 20 82 21 90 22 83 23
REMARK SMILES IDX 89 24 84 25 85 26 86 27 87 28 88 29 10 30 11 31 12 32 13 33
REMARK SMILES IDX 14 34 15 35 16 36 17 37 78 38 18 39 77 40 19 41 20 42 21 43
REMARK SMILES IDX 71 44 22 45 76 46 70 47 72 48 23 49 75 50 69 51 68 52 24 54
REMARK SMILES IDX 56 55 36 56 55 57 37 58 40 59 54 60 73 61 38 62 39 63 53 65
REMARK SMILES IDX 74 66 41 67 25 68 26 69 34 70 27 71 28 72 32 73 35 74 29 75
REMARK SMILES IDX 30 76 33 77 31 78 57 79 58 80 66 81 59 82 60 83 64 84 67 85
REMARK SMILES IDX 61 86 62 87 65 88 63 89 42 90 43 91 51 92 44 93 45 94 49 95
REMARK SMILES IDX 52 96 46 97 47 98 50 99 48 100
REMARK H PARENT 72 53 40 64
REMARK Flexibility Score: inf
ROOT
ATOM      1  C   UNL A   1      42.379  18.461  26.325  1.00  0.00     0.202 C 
ENDROOT
BRANCH   1   2
ATOM      2  C   UNL A   1      41.825  19.729  27.004  1.00  0.00     0.261 C 
BRANCH   2   3
ATOM      3  O   UNL A   1      40.812  20.409  26.234  1.00  0.00    -0.463 OA
BRANCH   3   4
ATOM      4  C   UNL A   1      40.264  21.514  26.811  1.00  0.00     0.310 C 
ATOM      5  O   UNL A   1      40.222  21.711  28.023  1.00  0.00    -0.252 OA
BRANCH   4   6
ATOM      6  C   UNL A   1      39.570  22.447  25.841  1.00  0.00     0.160 C 
BRANCH   6   7
ATOM      7  C   UNL A   1      38.069  22.395  25.745  1.00  0.00    -0.015 A 
ATOM      8  C   UNL A   1      37.658  20.141  24.493  1.00  0.00     0.065 C 
ATOM      9  C   UNL A   1      37.262  21.408  25.182  1.00  0.00     0.024 A 
ATOM     10  N   UNL A   1      35.937  21.839  25.227  1.00  0.00    -0.313 N 
ATOM     11  C   UNL A   1      37.203  23.473  26.071  1.00  0.00     0.033 A 
ATOM     12  C   UNL A   1      35.916  23.153  25.680  1.00  0.00     0.053 A 
BRANCH  10  13
ATOM     13  C   UNL A   1      34.797  21.074  24.855  1.00  0.00     0.049 A 
ATOM     14  C   UNL A   1      34.610  19.784  25.366  1.00  0.00     0.027 A 
ATOM     15  C   UNL A   1      33.914  21.588  23.903  1.00  0.00     0.065 A 
ATOM     16  C   UNL A   1      33.536  19.010  24.914  1.00  0.00     0.005 A 
ATOM     17  C   UNL A   1      32.887  20.784  23.423  1.00  0.00     0.125 A 
ATOM     18  C   UNL A   1      32.687  19.502  23.923  1.00  0.00     0.039 A 
ATOM     19  F   UNL A   1      32.093  21.245  22.449  1.00  0.00    -0.207 F 
ENDBRANCH  10  13
BRANCH  12  20
ATOM     20  C   UNL A   1      34.728  24.006  25.757  1.00  0.00    -0.001 A 
ATOM     21  C   UNL A   1      33.626  23.649  26.543  1.00  0.00     0.011 A 
ATOM     22  C   UNL A   1      34.702  25.212  25.039  1.00  0.00     0.011 A 
ATOM     23  C   UNL A   1      32.499  24.473  26.594  1.00  0.00     0.021 A 
ATOM     24  C   UNL A   1      33.577  26.037  25.079  1.00  0.00     0.021 A 
ATOM     25  C   UNL A   1      32.476  25.655  25.848  1.00  0.00     0.067 A 
BRANCH  25  26
ATOM     26  S   UNL A   1      31.035  26.692  25.914  1.00  0.00     0.175 S 
ATOM     27  C   UNL A   1      30.649  26.994  24.209  1.00  0.00     0.163 C 
ATOM     28  O   UNL A   1      29.968  25.904  26.492  1.00  0.00    -0.224 OA
ATOM     29  O   UNL A   1      31.430  27.962  26.502  1.00  0.00    -0.224 OA
ENDBRANCH  25  26
ENDBRANCH  12  20
ENDBRANCH   6   7
ENDBRANCH   4   6
ENDBRANCH   3   4
ENDBRANCH   2   3
ENDBRANCH   1   2
BRANCH   1  30
ATOM     30  O   UNL A   1      43.028  18.654  25.077  1.00  0.00    -0.374 OA
BRANCH  30  31
ATOM     31  C   UNL A   1      44.270  19.355  25.138  1.00  0.00     0.202 C 
BRANCH  31  32
ATOM     32  C   UNL A   1      44.763  20.090  23.860  1.00  0.00     0.261 C 
BRANCH  32  33
ATOM     33  O   UNL A   1      44.923  21.556  23.832  1.00  0.00    -0.460 OA
BRANCH  33  34
ATOM     34  C   UNL A   1      44.204  22.206  24.825  1.00  0.00     0.338 C 
ATOM     35  O   UNL A   1      42.999  22.428  24.730  1.00  0.00    -0.246 OA
BRANCH  34  36
ATOM     36  C   UNL A   1      44.954  22.809  26.022  1.00  0.00     0.060 A 
ATOM     37  C   UNL A   1      44.316  23.356  27.144  1.00  0.00     0.016 A 
ATOM     38  C   UNL A   1      46.281  23.225  25.876  1.00  0.00     0.016 A 
ATOM     39  C   UNL A   1      44.972  24.309  28.054  1.00  0.00     0.010 A 
ATOM     40  C   UNL A   1      46.949  24.131  26.820  1.00  0.00     0.010 A 
ATOM     41  C   UNL A   1      46.315  24.796  27.923  1.00  0.00    -0.014 A 
BRANCH  41  42
ATOM     42  C   UNL A   1      46.603  26.411  28.413  1.00  0.00     0.031 A 
ATOM     43  C   UNL A   1      47.309  26.195  29.741  1.00  0.00     0.074 A 
ATOM     44  C   UNL A   1      46.204  27.786  28.296  1.00  0.00     0.049 A 
ATOM     45  N   UNL A   1      46.717  25.372  30.559  1.00  0.00    -0.248 NA
ATOM     46  C   UNL A   1      48.341  27.006  30.379  1.00  0.00     0.031 C 
ATOM     47  C   UNL A   1      46.658  28.892  29.228  1.00  0.00     0.029 A 
ATOM     48  N   UNL A   1      45.321  28.603  27.528  1.00  0.00    -0.354 N 
ATOM     49  C   UNL A   1      46.755  26.020  31.756  1.00  0.00     0.074 A 
ATOM     50  C   UNL A   1      47.871  26.960  31.635  1.00  0.00     0.031 C 
ATOM     51  C   UNL A   1      46.292  30.139  28.882  1.00  0.00     0.029 A 
ATOM     52  C   UNL A   1      45.361  30.043  27.790  1.00  0.00     0.049 A 
ATOM     53  H   UNL A   1      44.714  28.217  26.856  1.00  0.00     0.167 HD
ATOM     54  C   UNL A   1      45.550  26.316  32.330  1.00  0.00     0.037 A 
ATOM     55  C   UNL A   1      44.469  31.072  27.573  1.00  0.00     0.037 A 
ATOM     56  C   UNL A   1      44.431  26.728  31.478  1.00  0.00     0.049 A 
ATOM     57  C   UNL A   1      43.226  30.653  28.279  1.00  0.00     0.074 A 
ATOM     58  C   UNL A   1      43.983  26.426  30.214  1.00  0.00     0.029 A 
ATOM     59  N   UNL A   1      43.425  27.529  31.958  1.00  0.00    -0.354 N 
ATOM     60  N   UNL A   1      42.915  30.931  29.516  1.00  0.00    -0.248 NA
ATOM     61  C   UNL A   1      42.275  29.855  27.533  1.00  0.00     0.031 C 
ATOM     62  C   UNL A   1      42.793  27.090  29.896  1.00  0.00     0.029 A 
ATOM     63  C   UNL A   1      42.642  28.008  30.907  1.00  0.00     0.049 A 
ATOM     64  H   UNL A   1      43.278  27.737  32.910  1.00  0.00     0.167 HD
ATOM     65  C   UNL A   1      41.917  30.016  29.820  1.00  0.00     0.074 A 
ATOM     66  C   UNL A   1      41.492  29.467  28.536  1.00  0.00     0.031 C 
ATOM     67  C   UNL A   1      42.047  29.320  30.984  1.00  0.00     0.037 A 
BRANCH  54  68
ATOM     68  C   UNL A   1      45.303  25.270  33.378  1.00  0.00     0.064 A 
ATOM     69  C   UNL A   1      44.655  24.065  33.048  1.00  0.00     0.173 A 
ATOM     70  C   UNL A   1      45.650  25.467  34.727  1.00  0.00     0.173 A 
ATOM     71  F   UNL A   1      44.286  23.806  31.782  1.00  0.00    -0.203 F 
ATOM     72  C   UNL A   1      44.374  23.111  34.015  1.00  0.00     0.198 A 
ATOM     73  C   UNL A   1      45.403  24.492  35.682  1.00  0.00     0.198 A 
ATOM     74  F   UNL A   1      46.232  26.598  35.154  1.00  0.00    -0.203 F 
ATOM     75  F   UNL A   1      43.739  21.984  33.669  1.00  0.00    -0.200 F 
ATOM     76  C   UNL A   1      44.768  23.316  35.327  1.00  0.00     0.200 A 
ATOM     77  F   UNL A   1      45.804  24.691  36.944  1.00  0.00    -0.200 F 
ATOM     78  F   UNL A   1      44.555  22.369  36.247  1.00  0.00    -0.200 F 
ENDBRANCH  54  68
BRANCH  55  79
ATOM     79  C   UNL A   1      44.432  32.593  27.433  1.00  0.00     0.064 A 
ATOM     80  C   UNL A   1      44.531  33.638  28.374  1.00  0.00     0.173 A 
ATOM     81  C   UNL A   1      43.950  32.988  26.160  1.00  0.00     0.173 A 
ATOM     82  F   UNL A   1      44.922  33.400  29.634  1.00  0.00    -0.203 F 
ATOM     83  C   UNL A   1      44.169  34.974  28.043  1.00  0.00     0.198 A 
ATOM     84  C   UNL A   1      43.573  34.297  25.840  1.00  0.00     0.198 A 
ATOM     85  F   UNL A   1      43.777  32.052  25.213  1.00  0.00    -0.203 F 
ATOM     86  F   UNL A   1      44.256  35.952  28.960  1.00  0.00    -0.200 F 
ATOM     87  C   UNL A   1      43.680  35.296  26.784  1.00  0.00     0.200 A 
ATOM     88  F   UNL A   1      43.067  34.567  24.629  1.00  0.00    -0.200 F 
ATOM     89  F   UNL A   1      43.296  36.548  26.485  1.00  0.00    -0.200 F 
ENDBRANCH  55  79
BRANCH  67  90
ATOM     90  C   UNL A   1      42.096  30.104  32.245  1.00  0.00     0.064 A 
ATOM     91  C   UNL A   1      40.931  30.157  33.015  1.00  0.00     0.173 A 
ATOM     92  C   UNL A   1      43.300  30.533  32.824  1.00  0.00     0.173 A 
ATOM     93  F   UNL A   1      39.759  29.762  32.493  1.00  0.00    -0.203 F 
ATOM     94  C   UNL A   1      40.989  30.514  34.356  1.00  0.00     0.198 A 
ATOM     95  C   UNL A   1      43.364  30.829  34.179  1.00  0.00     0.198 A 
ATOM     96  F   UNL A   1      44.450  30.489  32.133  1.00  0.00    -0.203 F 
ATOM     97  F   UNL A   1      39.874  30.493  35.099  1.00  0.00    -0.200 F 
ATOM     98  C   UNL A   1      42.211  30.806  34.947  1.00  0.00     0.200 A 
ATOM     99  F   UNL A   1      44.556  31.025  34.758  1.00  0.00    -0.200 F 
ATOM    100  F   UNL A   1      42.285  31.018  36.267  1.00  0.00    -0.200 F 
ENDBRANCH  67  90
ENDBRANCH  41  42
ENDBRANCH  34  36
ENDBRANCH  33  34
ENDBRANCH  32  33
ENDBRANCH  31  32
ENDBRANCH  30  31
ENDBRANCH   1  30
TORSDOF 18
ENDMDL
