MODEL 1
REMARK VINA RESULT:     -12.2      0.000      0.000
REMARK SMILES C[C@H]1CN(C(=O)N2CC[NH+]([C@@H](C)C(=O)OCCOCCOC(=O)c3ccc(-c4c5nc(c(-c6c(F)c(F)c(F)c(F)c6F)c6ccc([nH]6)c(-c6c(F)c(F)c(F)c(F)c6F)c6nc(c(-c7c(F)c(F)c(F)c(F)c7F)c7ccc4[nH]7)C=C6)C=C5)cc3)CC2)C[C@@H]1C
REMARK SMILES IDX 19 1 18 2 17 3 16 4 15 5 13 6 14 7 11 8 12 9 10 10 1 11 2 12
REMARK SMILES IDX 3 13 90 14 4 15 89 16 91 17 5 18 6 19 7 20 8 21 88 22 9 23
REMARK SMILES IDX 87 24 20 26 21 27 22 28 23 29 24 30 25 31 86 32 26 33 85 34
REMARK SMILES IDX 27 35 28 36 29 37 79 38 30 39 84 40 78 41 80 42 31 43 83 44
REMARK SMILES IDX 77 45 76 46 32 48 64 49 44 50 63 51 45 52 48 53 62 54 81 55
REMARK SMILES IDX 46 56 47 57 61 59 82 60 49 61 33 62 34 63 42 64 35 65 36 66
REMARK SMILES IDX 40 67 43 68 37 69 38 70 41 71 39 72 65 73 66 74 74 75 67 76
REMARK SMILES IDX 68 77 72 78 75 79 69 80 70 81 73 82 71 83 50 84 51 85 59 86
REMARK SMILES IDX 52 87 53 88 57 89 60 90 54 91 55 92 58 93 56 94
REMARK H PARENT 10 25 80 47 48 58
REMARK Flexibility Score: inf
ROOT
ATOM      1  C   UNL A   1      43.600  21.363  25.760  1.00  0.00     0.202 C 
ENDROOT
BRANCH   1   2
ATOM      2  O   UNL A   1      42.979  20.161  25.299  1.00  0.00    -0.374 OA
BRANCH   2   3
ATOM      3  C   UNL A   1      41.957  19.615  26.132  1.00  0.00     0.202 C 
BRANCH   3   4
ATOM      4  C   UNL A   1      41.026  20.643  26.781  1.00  0.00     0.261 C 
BRANCH   4   5
ATOM      5  O   UNL A   1      39.753  20.665  26.110  1.00  0.00    -0.459 OA
BRANCH   5   6
ATOM      6  C   UNL A   1      39.079  21.843  26.123  1.00  0.00     0.364 C 
ATOM      7  O   UNL A   1      39.503  22.871  26.642  1.00  0.00    -0.245 OA
BRANCH   6   8
ATOM      8  C   UNL A   1      37.684  21.765  25.474  1.00  0.00     0.292 C 
ATOM      9  C   UNL A   1      37.577  20.455  24.706  1.00  0.00     0.088 C 
BRANCH   8  10
ATOM     10  N   UNL A   1      37.196  23.025  24.841  1.00  0.00    -0.321 N 
ATOM     11  C   UNL A   1      31.735  27.528  26.655  1.00  0.00     0.010 C 
ATOM     12  C   UNL A   1      32.097  27.277  25.187  1.00  0.00     0.010 C 
ATOM     13  C   UNL A   1      33.168  26.186  25.064  1.00  0.00     0.125 C 
ATOM     14  C   UNL A   1      30.917  26.683  24.398  1.00  0.00     0.010 C 
ATOM     15  N   UNL A   1      32.420  24.939  24.905  1.00  0.00    -0.324 N 
ATOM     16  C   UNL A   1      30.996  25.200  24.755  1.00  0.00     0.125 C 
ATOM     17  C   UNL A   1      31.088  26.895  22.889  1.00  0.00     0.010 C 
ATOM     18  C   UNL A   1      32.933  23.722  24.518  1.00  0.00     0.320 C 
ATOM     19  O   UNL A   1      32.232  22.844  24.018  1.00  0.00    -0.248 OA
ATOM     20  N   UNL A   1      34.299  23.568  24.627  1.00  0.00    -0.313 N 
ATOM     21  C   UNL A   1      34.941  22.678  23.671  1.00  0.00     0.183 C 
ATOM     22  C   UNL A   1      34.960  23.635  25.925  1.00  0.00     0.183 C 
ATOM     23  C   UNL A   1      36.447  22.953  23.570  1.00  0.00     0.284 C 
ATOM     24  C   UNL A   1      36.470  23.908  25.787  1.00  0.00     0.284 C 
ATOM     25  H   UNL A   1      38.093  23.426  24.571  1.00  0.00     0.348 HD
ENDBRANCH   8  10
ENDBRANCH   6   8
ENDBRANCH   5   6
ENDBRANCH   4   5
ENDBRANCH   3   4
ENDBRANCH   2   3
ENDBRANCH   1   2
BRANCH   1  26
ATOM     26  C   UNL A   1      44.140  22.281  24.660  1.00  0.00     0.261 C 
BRANCH  26  27
ATOM     27  O   UNL A   1      43.426  23.531  24.623  1.00  0.00    -0.460 OA
BRANCH  27  28
ATOM     28  C   UNL A   1      44.136  24.604  25.037  1.00  0.00     0.338 C 
ATOM     29  O   UNL A   1      45.227  24.979  24.626  1.00  0.00    -0.246 OA
BRANCH  28  30
ATOM     30  C   UNL A   1      43.332  25.405  25.978  1.00  0.00     0.060 A 
ATOM     31  C   UNL A   1      43.699  26.744  26.156  1.00  0.00     0.016 A 
ATOM     32  C   UNL A   1      42.284  24.852  26.718  1.00  0.00     0.016 A 
ATOM     33  C   UNL A   1      43.060  27.520  27.120  1.00  0.00     0.010 A 
ATOM     34  C   UNL A   1      41.647  25.631  27.689  1.00  0.00     0.010 A 
ATOM     35  C   UNL A   1      42.060  26.955  27.922  1.00  0.00    -0.014 A 
BRANCH  35  36
ATOM     36  C   UNL A   1      41.569  27.705  29.103  1.00  0.00     0.031 A 
ATOM     37  C   UNL A   1      42.325  27.596  30.397  1.00  0.00     0.074 A 
ATOM     38  C   UNL A   1      40.496  28.508  29.014  1.00  0.00     0.049 A 
ATOM     39  N   UNL A   1      42.093  28.172  31.549  1.00  0.00    -0.248 NA
ATOM     40  C   UNL A   1      43.505  26.718  30.391  1.00  0.00     0.031 C 
ATOM     41  C   UNL A   1      39.709  28.732  27.804  1.00  0.00     0.029 A 
ATOM     42  N   UNL A   1      39.890  29.290  29.964  1.00  0.00    -0.354 N 
ATOM     43  C   UNL A   1      43.093  27.725  32.404  1.00  0.00     0.074 A 
ATOM     44  C   UNL A   1      43.913  26.802  31.648  1.00  0.00     0.031 C 
ATOM     45  C   UNL A   1      38.725  29.603  28.082  1.00  0.00     0.029 A 
ATOM     46  C   UNL A   1      38.797  29.973  29.495  1.00  0.00     0.049 A 
ATOM     47  H   UNL A   1      40.209  29.354  30.893  1.00  0.00     0.167 HD
ATOM     48  C   UNL A   1      43.316  28.063  33.696  1.00  0.00     0.037 A 
ATOM     49  C   UNL A   1      37.948  30.796  30.139  1.00  0.00     0.037 A 
ATOM     50  C   UNL A   1      42.496  28.978  34.447  1.00  0.00     0.049 A 
ATOM     51  C   UNL A   1      38.161  31.084  31.602  1.00  0.00     0.074 A 
ATOM     52  C   UNL A   1      42.652  29.404  35.755  1.00  0.00     0.029 A 
ATOM     53  N   UNL A   1      41.357  29.598  33.957  1.00  0.00    -0.354 N 
ATOM     54  N   UNL A   1      39.125  30.685  32.394  1.00  0.00    -0.248 NA
ATOM     55  C   UNL A   1      37.163  31.941  32.258  1.00  0.00     0.031 C 
ATOM     56  C   UNL A   1      41.577  30.242  36.072  1.00  0.00     0.029 A 
ATOM     57  C   UNL A   1      40.779  30.378  34.947  1.00  0.00     0.049 A 
ATOM     58  H   UNL A   1      41.009  29.499  33.042  1.00  0.00     0.167 HD
ATOM     59  C   UNL A   1      38.870  31.263  33.631  1.00  0.00     0.074 A 
ATOM     60  C   UNL A   1      37.662  32.049  33.482  1.00  0.00     0.031 C 
ATOM     61  C   UNL A   1      39.576  31.157  34.784  1.00  0.00     0.037 A 
BRANCH  48  62
ATOM     62  C   UNL A   1      44.476  27.404  34.385  1.00  0.00     0.064 A 
ATOM     63  C   UNL A   1      44.344  26.170  35.039  1.00  0.00     0.173 A 
ATOM     64  C   UNL A   1      45.736  28.021  34.396  1.00  0.00     0.173 A 
ATOM     65  F   UNL A   1      43.157  25.546  35.070  1.00  0.00    -0.203 F 
ATOM     66  C   UNL A   1      45.420  25.599  35.714  1.00  0.00     0.198 A 
ATOM     67  C   UNL A   1      46.818  27.432  35.046  1.00  0.00     0.198 A 
ATOM     68  F   UNL A   1      45.919  29.200  33.783  1.00  0.00    -0.203 F 
ATOM     69  F   UNL A   1      45.254  24.450  36.385  1.00  0.00    -0.200 F 
ATOM     70  C   UNL A   1      46.656  26.228  35.714  1.00  0.00     0.200 A 
ATOM     71  F   UNL A   1      48.014  28.037  35.036  1.00  0.00    -0.200 F 
ATOM     72  F   UNL A   1      47.689  25.679  36.368  1.00  0.00    -0.200 F 
ENDBRANCH  48  62
BRANCH  49  73
ATOM     73  C   UNL A   1      36.824  31.423  29.398  1.00  0.00     0.064 A 
ATOM     74  C   UNL A   1      35.746  30.652  28.943  1.00  0.00     0.173 A 
ATOM     75  C   UNL A   1      36.802  32.800  29.132  1.00  0.00     0.173 A 
ATOM     76  F   UNL A   1      35.736  29.327  29.150  1.00  0.00    -0.203 F 
ATOM     77  C   UNL A   1      34.690  31.234  28.244  1.00  0.00     0.198 A 
ATOM     78  C   UNL A   1      35.734  33.384  28.454  1.00  0.00     0.198 A 
ATOM     79  F   UNL A   1      37.814  33.579  29.542  1.00  0.00    -0.203 F 
ATOM     80  F   UNL A   1      33.687  30.469  27.792  1.00  0.00    -0.200 F 
ATOM     81  C   UNL A   1      34.681  32.600  28.008  1.00  0.00     0.200 A 
ATOM     82  F   UNL A   1      35.725  34.706  28.234  1.00  0.00    -0.200 F 
ATOM     83  F   UNL A   1      33.661  33.160  27.342  1.00  0.00    -0.200 F 
ENDBRANCH  49  73
BRANCH  61  84
ATOM     84  C   UNL A   1      39.081  31.936  35.969  1.00  0.00     0.064 A 
ATOM     85  C   UNL A   1      39.465  33.267  36.188  1.00  0.00     0.173 A 
ATOM     86  C   UNL A   1      38.185  31.354  36.879  1.00  0.00     0.173 A 
ATOM     87  F   UNL A   1      40.332  33.866  35.357  1.00  0.00    -0.203 F 
ATOM     88  C   UNL A   1      38.989  33.979  37.286  1.00  0.00     0.198 A 
ATOM     89  C   UNL A   1      37.688  32.077  37.960  1.00  0.00     0.198 A 
ATOM     90  F   UNL A   1      37.781  30.086  36.712  1.00  0.00    -0.203 F 
ATOM     91  F   UNL A   1      39.405  35.234  37.502  1.00  0.00    -0.200 F 
ATOM     92  C   UNL A   1      38.096  33.386  38.167  1.00  0.00     0.200 A 
ATOM     93  F   UNL A   1      36.815  31.506  38.801  1.00  0.00    -0.200 F 
ATOM     94  F   UNL A   1      37.634  34.073  39.220  1.00  0.00    -0.200 F 
ENDBRANCH  61  84
ENDBRANCH  35  36
ENDBRANCH  28  30
ENDBRANCH  27  28
ENDBRANCH  26  27
ENDBRANCH   1  26
TORSDOF 15
ENDMDL
MODEL 2
REMARK VINA RESULT:     -12.2      0.257      1.595
REMARK SMILES C[C@H]1CN(C(=O)N2CC[NH+]([C@@H](C)C(=O)OCCOCCOC(=O)c3ccc(-c4c5nc(c(-c6c(F)c(F)c(F)c(F)c6F)c6ccc([nH]6)c(-c6c(F)c(F)c(F)c(F)c6F)c6nc(c(-c7c(F)c(F)c(F)c(F)c7F)c7ccc4[nH]7)C=C6)C=C5)cc3)CC2)C[C@@H]1C
REMARK SMILES IDX 19 1 18 2 17 3 16 4 15 5 13 6 14 7 11 8 12 9 10 10 1 11 2 12
REMARK SMILES IDX 3 13 90 14 4 15 89 16 91 17 5 18 6 19 7 20 8 21 88 22 9 23
REMARK SMILES IDX 87 24 20 26 21 27 22 28 23 29 24 30 25 31 86 32 26 33 85 34
REMARK SMILES IDX 27 35 28 36 29 37 79 38 30 39 84 40 78 41 80 42 31 43 83 44
REMARK SMILES IDX 77 45 76 46 32 48 64 49 44 50 63 51 45 52 48 53 62 54 81 55
REMARK SMILES IDX 46 56 47 57 61 59 82 60 49 61 33 62 34 63 42 64 35 65 36 66
REMARK SMILES IDX 40 67 43 68 37 69 38 70 41 71 39 72 65 73 66 74 74 75 67 76
REMARK SMILES IDX 68 77 72 78 75 79 69 80 70 81 73 82 71 83 50 84 51 85 59 86
REMARK SMILES IDX 52 87 53 88 57 89 60 90 54 91 55 92 58 93 56 94
REMARK H PARENT 10 25 80 47 48 58
REMARK Flexibility Score: inf
ROOT
ATOM      1  C   UNL A   1      44.156  21.425  25.254  1.00  0.00     0.202 C 
ENDROOT
BRANCH   1   2
ATOM      2  O   UNL A   1      42.970  21.453  26.052  1.00  0.00    -0.374 OA
BRANCH   2   3
ATOM      3  C   UNL A   1      42.221  20.241  26.119  1.00  0.00     0.202 C 
BRANCH   3   4
ATOM      4  C   UNL A   1      40.936  20.312  26.949  1.00  0.00     0.261 C 
BRANCH   4   5
ATOM      5  O   UNL A   1      39.791  20.470  26.093  1.00  0.00    -0.459 OA
BRANCH   5   6
ATOM      6  C   UNL A   1      39.188  21.687  26.100  1.00  0.00     0.364 C 
ATOM      7  O   UNL A   1      39.670  22.688  26.623  1.00  0.00    -0.245 OA
BRANCH   6   8
ATOM      8  C   UNL A   1      37.796  21.693  25.441  1.00  0.00     0.292 C 
ATOM      9  C   UNL A   1      37.633  20.410  24.638  1.00  0.00     0.088 C 
BRANCH   8  10
ATOM     10  N   UNL A   1      37.373  22.990  24.838  1.00  0.00    -0.321 N 
ATOM     11  C   UNL A   1      32.039  27.640  26.661  1.00  0.00     0.010 C 
ATOM     12  C   UNL A   1      32.432  27.423  25.196  1.00  0.00     0.010 C 
ATOM     13  C   UNL A   1      33.463  26.296  25.064  1.00  0.00     0.125 C 
ATOM     14  C   UNL A   1      31.252  26.901  24.357  1.00  0.00     0.010 C 
ATOM     15  N   UNL A   1      32.673  25.084  24.843  1.00  0.00    -0.324 N 
ATOM     16  C   UNL A   1      31.265  25.405  24.666  1.00  0.00     0.125 C 
ATOM     17  C   UNL A   1      31.471  27.155  22.861  1.00  0.00     0.010 C 
ATOM     18  C   UNL A   1      33.151  23.862  24.429  1.00  0.00     0.320 C 
ATOM     19  O   UNL A   1      32.430  23.029  23.882  1.00  0.00    -0.248 OA
ATOM     20  N   UNL A   1      34.506  23.652  24.568  1.00  0.00    -0.313 N 
ATOM     21  C   UNL A   1      35.139  22.770  23.600  1.00  0.00     0.183 C 
ATOM     22  C   UNL A   1      35.134  23.651  25.884  1.00  0.00     0.183 C 
ATOM     23  C   UNL A   1      36.657  22.989  23.547  1.00  0.00     0.284 C 
ATOM     24  C   UNL A   1      36.656  23.870  25.794  1.00  0.00     0.284 C 
ATOM     25  H   UNL A   1      38.292  23.365  24.605  1.00  0.00     0.348 HD
ENDBRANCH   8  10
ENDBRANCH   6   8
ENDBRANCH   5   6
ENDBRANCH   4   5
ENDBRANCH   3   4
ENDBRANCH   2   3
ENDBRANCH   1   2
BRANCH   1  26
ATOM     26  C   UNL A   1      44.267  22.543  24.214  1.00  0.00     0.261 C 
BRANCH  26  27
ATOM     27  O   UNL A   1      43.462  23.680  24.578  1.00  0.00    -0.460 OA
BRANCH  27  28
ATOM     28  C   UNL A   1      44.158  24.752  25.018  1.00  0.00     0.338 C 
ATOM     29  O   UNL A   1      45.250  25.144  24.626  1.00  0.00    -0.246 OA
BRANCH  28  30
ATOM     30  C   UNL A   1      43.337  25.529  25.964  1.00  0.00     0.060 A 
ATOM     31  C   UNL A   1      43.657  26.882  26.129  1.00  0.00     0.016 A 
ATOM     32  C   UNL A   1      42.320  24.943  26.721  1.00  0.00     0.016 A 
ATOM     33  C   UNL A   1      43.001  27.641  27.096  1.00  0.00     0.010 A 
ATOM     34  C   UNL A   1      41.666  25.704  27.695  1.00  0.00     0.010 A 
ATOM     35  C   UNL A   1      42.033  27.045  27.914  1.00  0.00    -0.014 A 
BRANCH  35  36
ATOM     36  C   UNL A   1      41.529  27.783  29.096  1.00  0.00     0.031 A 
ATOM     37  C   UNL A   1      42.280  27.674  30.394  1.00  0.00     0.074 A 
ATOM     38  C   UNL A   1      40.450  28.577  29.006  1.00  0.00     0.049 A 
ATOM     39  N   UNL A   1      42.036  28.242  31.548  1.00  0.00    -0.248 NA
ATOM     40  C   UNL A   1      43.467  26.806  30.389  1.00  0.00     0.031 C 
ATOM     41  C   UNL A   1      39.667  28.802  27.793  1.00  0.00     0.029 A 
ATOM     42  N   UNL A   1      39.832  29.349  29.957  1.00  0.00    -0.354 N 
ATOM     43  C   UNL A   1      43.035  27.799  32.405  1.00  0.00     0.074 A 
ATOM     44  C   UNL A   1      43.867  26.888  31.649  1.00  0.00     0.031 C 
ATOM     45  C   UNL A   1      38.674  29.663  28.071  1.00  0.00     0.029 A 
ATOM     46  C   UNL A   1      38.735  30.025  29.486  1.00  0.00     0.049 A 
ATOM     47  H   UNL A   1      40.145  29.412  30.889  1.00  0.00     0.167 HD
ATOM     48  C   UNL A   1      43.248  28.132  33.700  1.00  0.00     0.037 A 
ATOM     49  C   UNL A   1      37.876  30.838  30.131  1.00  0.00     0.037 A 
ATOM     50  C   UNL A   1      42.417  29.035  34.453  1.00  0.00     0.049 A 
ATOM     51  C   UNL A   1      38.079  31.120  31.596  1.00  0.00     0.074 A 
ATOM     52  C   UNL A   1      42.563  29.456  35.763  1.00  0.00     0.029 A 
ATOM     53  N   UNL A   1      41.275  29.649  33.960  1.00  0.00    -0.354 N 
ATOM     54  N   UNL A   1      39.042  30.724  32.391  1.00  0.00    -0.248 NA
ATOM     55  C   UNL A   1      37.071  31.964  32.251  1.00  0.00     0.031 C 
ATOM     56  C   UNL A   1      41.478  30.282  36.080  1.00  0.00     0.029 A 
ATOM     57  C   UNL A   1      40.685  30.418  34.951  1.00  0.00     0.049 A 
ATOM     58  H   UNL A   1      40.933  29.551  33.042  1.00  0.00     0.167 HD
ATOM     59  C   UNL A   1      38.776  31.293  33.630  1.00  0.00     0.074 A 
ATOM     60  C   UNL A   1      37.562  32.070  33.478  1.00  0.00     0.031 C 
ATOM     61  C   UNL A   1      39.476  31.187  34.786  1.00  0.00     0.037 A 
BRANCH  48  62
ATOM     62  C   UNL A   1      44.411  27.479  34.392  1.00  0.00     0.064 A 
ATOM     63  C   UNL A   1      45.680  28.077  34.427  1.00  0.00     0.173 A 
ATOM     64  C   UNL A   1      44.254  26.235  35.021  1.00  0.00     0.173 A 
ATOM     65  F   UNL A   1      45.887  29.259  33.828  1.00  0.00    -0.203 F 
ATOM     66  C   UNL A   1      46.758  27.434  35.031  1.00  0.00     0.198 A 
ATOM     67  C   UNL A   1      45.327  25.609  35.651  1.00  0.00     0.198 A 
ATOM     68  F   UNL A   1      43.061  25.622  35.020  1.00  0.00    -0.203 F 
ATOM     69  F   UNL A   1      47.975  27.995  34.998  1.00  0.00    -0.200 F 
ATOM     70  C   UNL A   1      46.580  26.203  35.645  1.00  0.00     0.200 A 
ATOM     71  F   UNL A   1      45.150  24.425  36.252  1.00  0.00    -0.200 F 
ATOM     72  F   UNL A   1      47.619  25.583  36.222  1.00  0.00    -0.200 F 
ENDBRANCH  48  62
BRANCH  49  73
ATOM     73  C   UNL A   1      36.750  31.459  29.387  1.00  0.00     0.064 A 
ATOM     74  C   UNL A   1      35.661  30.688  28.959  1.00  0.00     0.173 A 
ATOM     75  C   UNL A   1      36.738  32.830  29.092  1.00  0.00     0.173 A 
ATOM     76  F   UNL A   1      35.642  29.368  29.194  1.00  0.00    -0.203 F 
ATOM     77  C   UNL A   1      34.604  31.265  28.257  1.00  0.00     0.198 A 
ATOM     78  C   UNL A   1      35.669  33.410  28.411  1.00  0.00     0.198 A 
ATOM     79  F   UNL A   1      37.761  33.609  29.475  1.00  0.00    -0.203 F 
ATOM     80  F   UNL A   1      33.590  30.500  27.831  1.00  0.00    -0.200 F 
ATOM     81  C   UNL A   1      34.605  32.626  27.992  1.00  0.00     0.200 A 
ATOM     82  F   UNL A   1      35.670  34.727  28.163  1.00  0.00    -0.200 F 
ATOM     83  F   UNL A   1      33.583  33.181  27.324  1.00  0.00    -0.200 F 
ENDBRANCH  49  73
BRANCH  61  84
ATOM     84  C   UNL A   1      38.969  31.956  35.972  1.00  0.00     0.064 A 
ATOM     85  C   UNL A   1      38.153  31.357  36.944  1.00  0.00     0.173 A 
ATOM     86  C   UNL A   1      39.332  33.299  36.157  1.00  0.00     0.173 A 
ATOM     87  F   UNL A   1      37.765  30.081  36.807  1.00  0.00    -0.203 F 
ATOM     88  C   UNL A   1      37.700  32.082  38.043  1.00  0.00     0.198 A 
ATOM     89  C   UNL A   1      38.900  34.012  37.272  1.00  0.00     0.198 A 
ATOM     90  F   UNL A   1      40.116  33.916  35.261  1.00  0.00    -0.203 F 
ATOM     91  F   UNL A   1      36.882  31.505  38.934  1.00  0.00    -0.200 F 
ATOM     92  C   UNL A   1      38.079  33.406  38.210  1.00  0.00     0.200 A 
ATOM     93  F   UNL A   1      39.280  35.287  37.438  1.00  0.00    -0.200 F 
ATOM     94  F   UNL A   1      37.647  34.100  39.271  1.00  0.00    -0.200 F 
ENDBRANCH  61  84
ENDBRANCH  35  36
ENDBRANCH  28  30
ENDBRANCH  27  28
ENDBRANCH  26  27
ENDBRANCH   1  26
TORSDOF 15
ENDMDL
MODEL 3
REMARK VINA RESULT:     -11.9      0.599      7.405
REMARK SMILES C[C@H]1CN(C(=O)N2CC[NH+]([C@@H](C)C(=O)OCCOCCOC(=O)c3ccc(-c4c5nc(c(-c6c(F)c(F)c(F)c(F)c6F)c6ccc([nH]6)c(-c6c(F)c(F)c(F)c(F)c6F)c6nc(c(-c7c(F)c(F)c(F)c(F)c7F)c7ccc4[nH]7)C=C6)C=C5)cc3)CC2)C[C@@H]1C
REMARK SMILES IDX 19 1 18 2 17 3 16 4 15 5 13 6 14 7 11 8 12 9 10 10 1 11 2 12
REMARK SMILES IDX 3 13 90 14 4 15 89 16 91 17 5 18 6 19 7 20 8 21 88 22 9 23
REMARK SMILES IDX 87 24 20 26 21 27 22 28 23 29 24 30 25 31 86 32 26 33 85 34
REMARK SMILES IDX 27 35 28 36 29 37 79 38 30 39 84 40 78 41 80 42 31 43 83 44
REMARK SMILES IDX 77 45 76 46 32 48 64 49 44 50 63 51 45 52 48 53 62 54 81 55
REMARK SMILES IDX 46 56 47 57 61 59 82 60 49 61 33 62 34 63 42 64 35 65 36 66
REMARK SMILES IDX 40 67 43 68 37 69 38 70 41 71 39 72 65 73 66 74 74 75 67 76
REMARK SMILES IDX 68 77 72 78 75 79 69 80 70 81 73 82 71 83 50 84 51 85 59 86
REMARK SMILES IDX 52 87 53 88 57 89 60 90 54 91 55 92 58 93 56 94
REMARK H PARENT 10 25 80 47 48 58
REMARK Flexibility Score: inf
ROOT
ATOM      1  C   UNL A   1      43.795  21.996  25.477  1.00  0.00     0.202 C 
ENDROOT
BRANCH   1   2
ATOM      2  O   UNL A   1      42.607  21.220  25.644  1.00  0.00    -0.374 OA
BRANCH   2   3
ATOM      3  C   UNL A   1      42.275  20.848  26.982  1.00  0.00     0.202 C 
BRANCH   3   4
ATOM      4  C   UNL A   1      40.790  20.576  27.234  1.00  0.00     0.261 C 
BRANCH   4   5
ATOM      5  O   UNL A   1      40.011  20.907  26.070  1.00  0.00    -0.459 OA
BRANCH   5   6
ATOM      6  C   UNL A   1      39.242  22.023  26.150  1.00  0.00     0.364 C 
ATOM      7  O   UNL A   1      39.599  23.066  26.690  1.00  0.00    -0.245 OA
BRANCH   6   8
ATOM      8  C   UNL A   1      37.834  21.848  25.550  1.00  0.00     0.292 C 
ATOM      9  C   UNL A   1      37.776  20.510  24.826  1.00  0.00     0.088 C 
BRANCH   8  10
ATOM     10  N   UNL A   1      37.257  23.058  24.896  1.00  0.00    -0.321 N 
ATOM     11  C   UNL A   1      31.760  27.447  26.875  1.00  0.00     0.010 C 
ATOM     12  C   UNL A   1      32.033  27.140  25.399  1.00  0.00     0.010 C 
ATOM     13  C   UNL A   1      33.134  26.082  25.252  1.00  0.00     0.125 C 
ATOM     14  C   UNL A   1      30.827  26.467  24.720  1.00  0.00     0.010 C 
ATOM     15  N   UNL A   1      32.426  24.803  25.201  1.00  0.00    -0.324 N 
ATOM     16  C   UNL A   1      30.986  25.006  25.138  1.00  0.00     0.125 C 
ATOM     17  C   UNL A   1      30.887  26.613  23.195  1.00  0.00     0.010 C 
ATOM     18  C   UNL A   1      32.959  23.589  24.835  1.00  0.00     0.320 C 
ATOM     19  O   UNL A   1      32.259  22.664  24.424  1.00  0.00    -0.248 OA
ATOM     20  N   UNL A   1      34.333  23.488  24.857  1.00  0.00    -0.313 N 
ATOM     21  C   UNL A   1      34.944  22.577  23.900  1.00  0.00     0.183 C 
ATOM     22  C   UNL A   1      35.076  23.640  26.102  1.00  0.00     0.183 C 
ATOM     23  C   UNL A   1      36.428  22.900  23.684  1.00  0.00     0.284 C 
ATOM     24  C   UNL A   1      36.563  23.959  25.849  1.00  0.00     0.284 C 
ATOM     25  H   UNL A   1      38.118  23.478  24.548  1.00  0.00     0.348 HD
ENDBRANCH   8  10
ENDBRANCH   6   8
ENDBRANCH   5   6
ENDBRANCH   4   5
ENDBRANCH   3   4
ENDBRANCH   2   3
ENDBRANCH   1   2
BRANCH   1  26
ATOM     26  C   UNL A   1      43.783  22.957  24.285  1.00  0.00     0.261 C 
BRANCH  26  27
ATOM     27  O   UNL A   1      43.157  24.208  24.627  1.00  0.00    -0.460 OA
BRANCH  27  28
ATOM     28  C   UNL A   1      43.964  25.095  25.250  1.00  0.00     0.338 C 
ATOM     29  O   UNL A   1      45.120  25.379  24.966  1.00  0.00    -0.246 OA
BRANCH  28  30
ATOM     30  C   UNL A   1      43.200  25.840  26.268  1.00  0.00     0.060 A 
ATOM     31  C   UNL A   1      43.485  27.202  26.415  1.00  0.00     0.016 A 
ATOM     32  C   UNL A   1      42.271  25.215  27.104  1.00  0.00     0.016 A 
ATOM     33  C   UNL A   1      42.888  27.934  27.439  1.00  0.00     0.010 A 
ATOM     34  C   UNL A   1      41.677  25.948  28.136  1.00  0.00     0.010 A 
ATOM     35  C   UNL A   1      42.014  27.300  28.332  1.00  0.00    -0.014 A 
BRANCH  35  36
ATOM     36  C   UNL A   1      41.587  28.016  29.558  1.00  0.00     0.031 A 
ATOM     37  C   UNL A   1      40.351  28.871  29.506  1.00  0.00     0.074 A 
ATOM     38  C   UNL A   1      42.258  27.870  30.712  1.00  0.00     0.049 A 
ATOM     39  N   UNL A   1      39.782  29.571  30.455  1.00  0.00    -0.248 NA
ATOM     40  C   UNL A   1      39.664  28.945  28.208  1.00  0.00     0.031 C 
ATOM     41  C   UNL A   1      43.441  27.034  30.899  1.00  0.00     0.029 A 
ATOM     42  N   UNL A   1      42.032  28.421  31.948  1.00  0.00    -0.354 N 
ATOM     43  C   UNL A   1      38.674  30.170  29.869  1.00  0.00     0.074 A 
ATOM     44  C   UNL A   1      38.671  29.780  28.475  1.00  0.00     0.031 C 
ATOM     45  C   UNL A   1      43.835  27.119  32.180  1.00  0.00     0.029 A 
ATOM     46  C   UNL A   1      42.949  28.038  32.894  1.00  0.00     0.049 A 
ATOM     47  H   UNL A   1      41.283  29.031  32.138  1.00  0.00     0.167 HD
ATOM     48  C   UNL A   1      37.737  30.961  30.442  1.00  0.00     0.037 A 
ATOM     49  C   UNL A   1      43.062  28.399  34.186  1.00  0.00     0.037 A 
ATOM     50  C   UNL A   1      37.744  31.351  31.828  1.00  0.00     0.049 A 
ATOM     51  C   UNL A   1      42.061  29.355  34.780  1.00  0.00     0.074 A 
ATOM     52  C   UNL A   1      36.827  32.131  32.512  1.00  0.00     0.029 A 
ATOM     53  N   UNL A   1      38.728  30.999  32.740  1.00  0.00    -0.354 N 
ATOM     54  N   UNL A   1      40.999  29.891  34.229  1.00  0.00    -0.248 NA
ATOM     55  C   UNL A   1      42.277  29.755  36.177  1.00  0.00     0.031 C 
ATOM     56  C   UNL A   1      37.284  32.293  33.824  1.00  0.00     0.029 A 
ATOM     57  C   UNL A   1      38.459  31.573  33.973  1.00  0.00     0.049 A 
ATOM     58  H   UNL A   1      39.503  30.426  32.541  1.00  0.00     0.167 HD
ATOM     59  C   UNL A   1      40.405  30.666  35.218  1.00  0.00     0.074 A 
ATOM     60  C   UNL A   1      41.221  30.522  36.406  1.00  0.00     0.031 C 
ATOM     61  C   UNL A   1      39.281  31.422  35.149  1.00  0.00     0.037 A 
BRANCH  48  62
ATOM     62  C   UNL A   1      36.647  31.486  29.553  1.00  0.00     0.064 A 
ATOM     63  C   UNL A   1      36.595  32.833  29.162  1.00  0.00     0.173 A 
ATOM     64  C   UNL A   1      35.636  30.630  29.091  1.00  0.00     0.173 A 
ATOM     65  F   UNL A   1      37.530  33.695  29.589  1.00  0.00    -0.203 F 
ATOM     66  C   UNL A   1      35.549  33.311  28.377  1.00  0.00     0.198 A 
ATOM     67  C   UNL A   1      34.608  31.104  28.280  1.00  0.00     0.198 A 
ATOM     68  F   UNL A   1      35.640  29.332  29.431  1.00  0.00    -0.203 F 
ATOM     69  F   UNL A   1      35.487  34.614  28.069  1.00  0.00    -0.200 F 
ATOM     70  C   UNL A   1      34.559  32.446  27.934  1.00  0.00     0.200 A 
ATOM     71  F   UNL A   1      33.658  30.266  27.845  1.00  0.00    -0.200 F 
ATOM     72  F   UNL A   1      33.550  32.909  27.182  1.00  0.00    -0.200 F 
ENDBRANCH  48  62
BRANCH  49  73
ATOM     73  C   UNL A   1      44.159  27.837  35.016  1.00  0.00     0.064 A 
ATOM     74  C   UNL A   1      45.399  28.484  35.098  1.00  0.00     0.173 A 
ATOM     75  C   UNL A   1      43.990  26.650  35.742  1.00  0.00     0.173 A 
ATOM     76  F   UNL A   1      45.615  29.607  34.398  1.00  0.00    -0.203 F 
ATOM     77  C   UNL A   1      46.433  27.960  35.871  1.00  0.00     0.198 A 
ATOM     78  C   UNL A   1      45.017  26.140  36.534  1.00  0.00     0.198 A 
ATOM     79  F   UNL A   1      42.823  25.991  35.691  1.00  0.00    -0.203 F 
ATOM     80  F   UNL A   1      47.620  28.580  35.906  1.00  0.00    -0.200 F 
ATOM     81  C   UNL A   1      46.238  26.793  36.595  1.00  0.00     0.200 A 
ATOM     82  F   UNL A   1      44.823  25.016  37.239  1.00  0.00    -0.200 F 
ATOM     83  F   UNL A   1      47.231  26.294  37.345  1.00  0.00    -0.200 F 
ENDBRANCH  49  73
BRANCH  61  84
ATOM     84  C   UNL A   1      38.846  32.126  36.402  1.00  0.00     0.064 A 
ATOM     85  C   UNL A   1      37.996  31.513  37.335  1.00  0.00     0.173 A 
ATOM     86  C   UNL A   1      39.313  33.418  36.690  1.00  0.00     0.173 A 
ATOM     87  F   UNL A   1      37.509  30.286  37.100  1.00  0.00    -0.203 F 
ATOM     88  C   UNL A   1      37.611  32.177  38.496  1.00  0.00     0.198 A 
ATOM     89  C   UNL A   1      38.949  34.067  37.866  1.00  0.00     0.198 A 
ATOM     90  F   UNL A   1      40.134  34.046  35.834  1.00  0.00    -0.203 F 
ATOM     91  F   UNL A   1      36.760  31.592  39.351  1.00  0.00    -0.200 F 
ATOM     92  C   UNL A   1      38.093  33.450  38.764  1.00  0.00     0.200 A 
ATOM     93  F   UNL A   1      39.428  35.291  38.129  1.00  0.00    -0.200 F 
ATOM     94  F   UNL A   1      37.726  34.086  39.885  1.00  0.00    -0.200 F 
ENDBRANCH  61  84
ENDBRANCH  35  36
ENDBRANCH  28  30
ENDBRANCH  27  28
ENDBRANCH  26  27
ENDBRANCH   1  26
TORSDOF 15
ENDMDL
