MODEL 1
REMARK VINA RESULT:      -9.2      0.000      0.000
REMARK SMILES C[C@@H]([C@H](C)O)[C@H](C(=O)OCCOCCOC(=O)c1ccc(-c2c3nc(c(-c4c(F)c(F)c(F)c(F)c4F)c4ccc([nH]4)c(-c4c(F)c(F)c(F)c(F)c4F)c4nc(c(-c5c(F)c(F)c(F)c(F)c5F)c5ccc2[nH]5)C=C4)C=C3)cc1)c1ccccc1Br
REMARK SMILES IDX 11 1 10 2 9 3 7 4 8 5 6 6 2 7 1 8 3 9 4 10 5 11 81 13 82 14
REMARK SMILES IDX 86 15 83 16 85 17 87 18 84 19 12 20 13 21 14 22 15 23 16 24
REMARK SMILES IDX 17 25 18 26 19 27 80 28 20 29 79 30 21 31 22 32 23 33 73 34
REMARK SMILES IDX 24 35 78 36 72 37 74 38 25 39 77 40 71 41 70 42 26 44 58 45
REMARK SMILES IDX 38 46 57 47 39 48 42 49 56 50 75 51 40 52 41 53 55 55 76 56
REMARK SMILES IDX 43 57 27 58 28 59 36 60 29 61 30 62 34 63 37 64 31 65 32 66
REMARK SMILES IDX 35 67 33 68 59 69 60 70 68 71 61 72 62 73 66 74 69 75 63 76
REMARK SMILES IDX 64 77 67 78 65 79 44 80 45 81 53 82 46 83 47 84 51 85 54 86
REMARK SMILES IDX 48 87 49 88 52 89 50 90
REMARK H PARENT 5 12 74 43 42 54
REMARK Flexibility Score: inf
ROOT
ATOM      1  C   UNL A   1      32.937  35.290  31.340  1.00  0.00     0.202 C 
ENDROOT
BRANCH   1   2
ATOM      2  C   UNL A   1      34.376  35.359  31.856  1.00  0.00     0.261 C 
BRANCH   2   3
ATOM      3  O   UNL A   1      34.626  34.452  32.946  1.00  0.00    -0.463 OA
BRANCH   3   4
ATOM      4  C   UNL A   1      35.201  33.262  32.639  1.00  0.00     0.313 C 
ATOM      5  O   UNL A   1      34.606  32.313  32.135  1.00  0.00    -0.252 OA
BRANCH   4   6
ATOM      6  C   UNL A   1      36.671  33.176  33.085  1.00  0.00     0.136 C 
BRANCH   6   7
ATOM      7  C   UNL A   1      36.920  31.863  33.904  1.00  0.00     0.033 C 
ATOM      8  C   UNL A   1      37.354  30.689  32.999  1.00  0.00     0.011 C 
BRANCH   7   9
ATOM      9  C   UNL A   1      37.877  31.961  35.122  1.00  0.00     0.115 C 
ATOM     10  C   UNL A   1      39.286  31.466  34.792  1.00  0.00     0.038 C 
BRANCH   9  11
ATOM     11  O   UNL A   1      37.403  31.224  36.239  1.00  0.00    -0.393 OA
ATOM     12  H   UNL A   1      36.444  31.347  36.323  1.00  0.00     0.210 HD
ENDBRANCH   9  11
ENDBRANCH   7   9
ENDBRANCH   6   7
BRANCH   6  13
ATOM     13  C   UNL A   1      37.611  33.660  31.954  1.00  0.00    -0.019 A 
ATOM     14  C   UNL A   1      37.112  33.513  30.628  1.00  0.00     0.006 A 
ATOM     15  C   UNL A   1      38.868  34.284  32.060  1.00  0.00     0.022 A 
ATOM     16  C   UNL A   1      37.870  33.804  29.493  1.00  0.00     0.000 A 
ATOM     17  C   UNL A   1      39.642  34.544  30.913  1.00  0.00     0.016 A 
ATOM     18  Br  UNL A   1      39.661  34.952  33.654  1.00  0.00    -0.051 Br
ATOM     19  C   UNL A   1      39.157  34.283  29.637  1.00  0.00     0.001 A 
ENDBRANCH   6  13
ENDBRANCH   4   6
ENDBRANCH   3   4
ENDBRANCH   2   3
ENDBRANCH   1   2
BRANCH   1  20
ATOM     20  O   UNL A   1      32.788  34.922  29.969  1.00  0.00    -0.374 OA
BRANCH  20  21
ATOM     21  C   UNL A   1      33.949  34.424  29.309  1.00  0.00     0.202 C 
BRANCH  21  22
ATOM     22  C   UNL A   1      33.735  33.131  28.517  1.00  0.00     0.261 C 
BRANCH  22  23
ATOM     23  O   UNL A   1      34.687  32.124  28.917  1.00  0.00    -0.460 OA
BRANCH  23  24
ATOM     24  C   UNL A   1      34.710  31.021  28.131  1.00  0.00     0.338 C 
ATOM     25  O   UNL A   1      33.899  30.701  27.281  1.00  0.00    -0.246 OA
BRANCH  24  26
ATOM     26  C   UNL A   1      35.984  30.299  28.309  1.00  0.00     0.060 A 
ATOM     27  C   UNL A   1      36.214  29.709  29.556  1.00  0.00     0.016 A 
ATOM     28  C   UNL A   1      36.972  30.280  27.322  1.00  0.00     0.016 A 
ATOM     29  C   UNL A   1      37.453  29.138  29.842  1.00  0.00     0.010 A 
ATOM     30  C   UNL A   1      38.219  29.711  27.613  1.00  0.00     0.010 A 
ATOM     31  C   UNL A   1      38.476  29.167  28.885  1.00  0.00    -0.014 A 
BRANCH  31  32
ATOM     32  C   UNL A   1      39.844  28.733  29.270  1.00  0.00     0.031 A 
ATOM     33  C   UNL A   1      40.663  29.593  30.193  1.00  0.00     0.074 A 
ATOM     34  C   UNL A   1      40.336  27.557  28.843  1.00  0.00     0.049 A 
ATOM     35  N   UNL A   1      41.878  29.406  30.643  1.00  0.00    -0.248 NA
ATOM     36  C   UNL A   1      40.024  30.826  30.676  1.00  0.00     0.031 C 
ATOM     37  C   UNL A   1      39.626  26.608  27.986  1.00  0.00     0.029 A 
ATOM     38  N   UNL A   1      41.551  26.961  29.073  1.00  0.00    -0.354 N 
ATOM     39  C   UNL A   1      42.150  30.495  31.462  1.00  0.00     0.074 A 
ATOM     40  C   UNL A   1      40.985  31.353  31.423  1.00  0.00     0.031 C 
ATOM     41  C   UNL A   1      40.422  25.550  27.758  1.00  0.00     0.029 A 
ATOM     42  C   UNL A   1      41.709  25.764  28.420  1.00  0.00     0.049 A 
ATOM     43  H   UNL A   1      42.243  27.354  29.652  1.00  0.00     0.167 HD
ATOM     44  C   UNL A   1      43.265  30.751  32.186  1.00  0.00     0.037 A 
ATOM     45  C   UNL A   1      42.778  24.948  28.341  1.00  0.00     0.037 A 
ATOM     46  C   UNL A   1      44.424  29.897  32.229  1.00  0.00     0.049 A 
ATOM     47  C   UNL A   1      44.046  25.309  29.072  1.00  0.00     0.074 A 
ATOM     48  C   UNL A   1      45.586  30.055  32.966  1.00  0.00     0.029 A 
ATOM     49  N   UNL A   1      44.575  28.731  31.493  1.00  0.00    -0.354 N 
ATOM     50  N   UNL A   1      44.284  26.324  29.867  1.00  0.00    -0.248 NA
ATOM     51  C   UNL A   1      45.197  24.412  28.886  1.00  0.00     0.031 C 
ATOM     52  C   UNL A   1      46.463  29.018  32.631  1.00  0.00     0.029 A 
ATOM     53  C   UNL A   1      45.829  28.185  31.723  1.00  0.00     0.049 A 
ATOM     54  H   UNL A   1      43.893  28.349  30.895  1.00  0.00     0.167 HD
ATOM     55  C   UNL A   1      45.601  26.182  30.285  1.00  0.00     0.074 A 
ATOM     56  C   UNL A   1      46.106  24.970  29.673  1.00  0.00     0.031 C 
ATOM     57  C   UNL A   1      46.327  26.986  31.100  1.00  0.00     0.037 A 
BRANCH  44  58
ATOM     58  C   UNL A   1      43.302  32.025  32.977  1.00  0.00     0.064 A 
ATOM     59  C   UNL A   1      43.657  33.249  32.392  1.00  0.00     0.173 A 
ATOM     60  C   UNL A   1      42.931  32.027  34.331  1.00  0.00     0.173 A 
ATOM     61  F   UNL A   1      44.027  33.299  31.104  1.00  0.00    -0.203 F 
ATOM     62  C   UNL A   1      43.662  34.425  33.138  1.00  0.00     0.198 A 
ATOM     63  C   UNL A   1      42.912  33.209  35.068  1.00  0.00     0.198 A 
ATOM     64  F   UNL A   1      42.577  30.883  34.938  1.00  0.00    -0.203 F 
ATOM     65  F   UNL A   1      44.043  35.577  32.570  1.00  0.00    -0.200 F 
ATOM     66  C   UNL A   1      43.284  34.405  34.473  1.00  0.00     0.200 A 
ATOM     67  F   UNL A   1      42.534  33.189  36.353  1.00  0.00    -0.200 F 
ATOM     68  F   UNL A   1      43.282  35.538  35.187  1.00  0.00    -0.200 F 
ENDBRANCH  44  58
BRANCH  45  69
ATOM     69  C   UNL A   1      42.711  23.721  27.506  1.00  0.00     0.064 A 
ATOM     70  C   UNL A   1      42.269  22.504  28.040  1.00  0.00     0.173 A 
ATOM     71  C   UNL A   1      43.105  23.739  26.160  1.00  0.00     0.173 A 
ATOM     72  F   UNL A   1      41.912  22.430  29.331  1.00  0.00    -0.203 F 
ATOM     73  C   UNL A   1      42.233  21.349  27.263  1.00  0.00     0.198 A 
ATOM     74  C   UNL A   1      43.042  22.590  25.375  1.00  0.00     0.198 A 
ATOM     75  F   UNL A   1      43.547  24.878  25.604  1.00  0.00    -0.203 F 
ATOM     76  F   UNL A   1      41.847  20.188  27.809  1.00  0.00    -0.200 F 
ATOM     77  C   UNL A   1      42.611  21.395  25.928  1.00  0.00     0.200 A 
ATOM     78  F   UNL A   1      43.402  22.641  24.085  1.00  0.00    -0.200 F 
ATOM     79  F   UNL A   1      42.573  20.284  25.180  1.00  0.00    -0.200 F 
ENDBRANCH  45  69
BRANCH  57  80
ATOM     80  C   UNL A   1      47.748  26.587  31.381  1.00  0.00     0.064 A 
ATOM     81  C   UNL A   1      48.071  25.741  32.452  1.00  0.00     0.173 A 
ATOM     82  C   UNL A   1      48.790  27.016  30.545  1.00  0.00     0.173 A 
ATOM     83  F   UNL A   1      47.113  25.316  33.290  1.00  0.00    -0.203 F 
ATOM     84  C   UNL A   1      49.388  25.352  32.686  1.00  0.00     0.198 A 
ATOM     85  C   UNL A   1      50.102  26.603  30.767  1.00  0.00     0.198 A 
ATOM     86  F   UNL A   1      48.535  27.822  29.504  1.00  0.00    -0.203 F 
ATOM     87  F   UNL A   1      49.679  24.577  33.739  1.00  0.00    -0.200 F 
ATOM     88  C   UNL A   1      50.401  25.778  31.839  1.00  0.00     0.200 A 
ATOM     89  F   UNL A   1      51.078  27.004  29.939  1.00  0.00    -0.200 F 
ATOM     90  F   UNL A   1      51.666  25.395  32.061  1.00  0.00    -0.200 F 
ENDBRANCH  57  80
ENDBRANCH  31  32
ENDBRANCH  24  26
ENDBRANCH  23  24
ENDBRANCH  22  23
ENDBRANCH  21  22
ENDBRANCH  20  21
ENDBRANCH   1  20
TORSDOF 18
ENDMDL
MODEL 2
REMARK VINA RESULT:      -8.9      1.057      2.094
REMARK SMILES C[C@@H]([C@H](C)O)[C@H](C(=O)OCCOCCOC(=O)c1ccc(-c2c3nc(c(-c4c(F)c(F)c(F)c(F)c4F)c4ccc([nH]4)c(-c4c(F)c(F)c(F)c(F)c4F)c4nc(c(-c5c(F)c(F)c(F)c(F)c5F)c5ccc2[nH]5)C=C4)C=C3)cc1)c1ccccc1Br
REMARK SMILES IDX 11 1 10 2 9 3 7 4 8 5 6 6 2 7 1 8 3 9 4 10 5 11 81 13 82 14
REMARK SMILES IDX 86 15 83 16 85 17 87 18 84 19 12 20 13 21 14 22 15 23 16 24
REMARK SMILES IDX 17 25 18 26 19 27 80 28 20 29 79 30 21 31 22 32 23 33 73 34
REMARK SMILES IDX 24 35 78 36 72 37 74 38 25 39 77 40 71 41 70 42 26 44 58 45
REMARK SMILES IDX 38 46 57 47 39 48 42 49 56 50 75 51 40 52 41 53 55 55 76 56
REMARK SMILES IDX 43 57 27 58 28 59 36 60 29 61 30 62 34 63 37 64 31 65 32 66
REMARK SMILES IDX 35 67 33 68 59 69 60 70 68 71 61 72 62 73 66 74 69 75 63 76
REMARK SMILES IDX 64 77 67 78 65 79 44 80 45 81 53 82 46 83 47 84 51 85 54 86
REMARK SMILES IDX 48 87 49 88 52 89 50 90
REMARK H PARENT 5 12 74 43 42 54
REMARK Flexibility Score: inf
ROOT
ATOM      1  C   UNL A   1      32.876  35.204  31.121  1.00  0.00     0.202 C 
ENDROOT
BRANCH   1   2
ATOM      2  C   UNL A   1      34.365  35.353  31.436  1.00  0.00     0.261 C 
BRANCH   2   3
ATOM      3  O   UNL A   1      34.807  34.472  32.486  1.00  0.00    -0.463 OA
BRANCH   3   4
ATOM      4  C   UNL A   1      35.228  33.235  32.118  1.00  0.00     0.313 C 
ATOM      5  O   UNL A   1      34.480  32.311  31.812  1.00  0.00    -0.252 OA
BRANCH   4   6
ATOM      6  C   UNL A   1      36.754  33.069  32.220  1.00  0.00     0.136 C 
BRANCH   6   7
ATOM      7  C   UNL A   1      37.483  34.170  31.375  1.00  0.00     0.033 C 
ATOM      8  C   UNL A   1      38.831  34.585  32.004  1.00  0.00     0.011 C 
BRANCH   7   9
ATOM      9  C   UNL A   1      37.682  33.885  29.863  1.00  0.00     0.115 C 
ATOM     10  C   UNL A   1      39.061  34.323  29.367  1.00  0.00     0.038 C 
BRANCH   9  11
ATOM     11  O   UNL A   1      36.702  34.526  29.061  1.00  0.00    -0.393 OA
ATOM     12  H   UNL A   1      35.912  33.965  29.006  1.00  0.00     0.210 HD
ENDBRANCH   9  11
ENDBRANCH   7   9
ENDBRANCH   6   7
BRANCH   6  13
ATOM     13  C   UNL A   1      37.165  32.699  33.665  1.00  0.00    -0.019 A 
ATOM     14  C   UNL A   1      37.024  33.734  34.633  1.00  0.00     0.006 A 
ATOM     15  C   UNL A   1      37.602  31.459  34.166  1.00  0.00     0.022 A 
ATOM     16  C   UNL A   1      37.444  33.600  35.958  1.00  0.00     0.000 A 
ATOM     17  C   UNL A   1      38.056  31.338  35.494  1.00  0.00     0.016 A 
ATOM     18  Br  UNL A   1      37.560  29.795  33.245  1.00  0.00    -0.051 Br
ATOM     19  C   UNL A   1      38.001  32.408  36.379  1.00  0.00     0.001 A 
ENDBRANCH   6  13
ENDBRANCH   4   6
ENDBRANCH   3   4
ENDBRANCH   2   3
ENDBRANCH   1   2
BRANCH   1  20
ATOM     20  O   UNL A   1      32.546  35.069  29.739  1.00  0.00    -0.374 OA
BRANCH  20  21
ATOM     21  C   UNL A   1      33.590  34.636  28.870  1.00  0.00     0.202 C 
BRANCH  21  22
ATOM     22  C   UNL A   1      33.406  33.230  28.293  1.00  0.00     0.261 C 
BRANCH  22  23
ATOM     23  O   UNL A   1      34.582  32.427  28.525  1.00  0.00    -0.460 OA
BRANCH  23  24
ATOM     24  C   UNL A   1      34.517  31.169  28.025  1.00  0.00     0.338 C 
ATOM     25  O   UNL A   1      33.629  30.687  27.347  1.00  0.00    -0.246 OA
BRANCH  24  26
ATOM     26  C   UNL A   1      35.792  30.464  28.261  1.00  0.00     0.060 A 
ATOM     27  C   UNL A   1      35.954  29.839  29.502  1.00  0.00     0.016 A 
ATOM     28  C   UNL A   1      36.840  30.495  27.340  1.00  0.00     0.016 A 
ATOM     29  C   UNL A   1      37.183  29.280  29.849  1.00  0.00     0.010 A 
ATOM     30  C   UNL A   1      38.078  29.939  27.692  1.00  0.00     0.010 A 
ATOM     31  C   UNL A   1      38.264  29.358  28.961  1.00  0.00    -0.014 A 
BRANCH  31  32
ATOM     32  C   UNL A   1      39.613  28.936  29.418  1.00  0.00     0.031 A 
ATOM     33  C   UNL A   1      40.356  29.782  30.415  1.00  0.00     0.074 A 
ATOM     34  C   UNL A   1      40.152  27.782  28.989  1.00  0.00     0.049 A 
ATOM     35  N   UNL A   1      41.544  29.602  30.936  1.00  0.00    -0.248 NA
ATOM     36  C   UNL A   1      39.665  30.989  30.893  1.00  0.00     0.031 C 
ATOM     37  C   UNL A   1      39.516  26.847  28.063  1.00  0.00     0.029 A 
ATOM     38  N   UNL A   1      41.362  27.200  29.279  1.00  0.00    -0.354 N 
ATOM     39  C   UNL A   1      41.744  30.670  31.801  1.00  0.00     0.074 A 
ATOM     40  C   UNL A   1      40.567  31.509  31.714  1.00  0.00     0.031 C 
ATOM     41  C   UNL A   1      40.344  25.810  27.855  1.00  0.00     0.029 A 
ATOM     42  C   UNL A   1      41.583  26.026  28.602  1.00  0.00     0.049 A 
ATOM     43  H   UNL A   1      42.009  27.587  29.911  1.00  0.00     0.167 HD
ATOM     44  C   UNL A   1      42.806  30.923  32.602  1.00  0.00     0.037 A 
ATOM     45  C   UNL A   1      42.670  25.231  28.567  1.00  0.00     0.037 A 
ATOM     46  C   UNL A   1      43.976  30.088  32.693  1.00  0.00     0.049 A 
ATOM     47  C   UNL A   1      43.883  25.591  29.388  1.00  0.00     0.074 A 
ATOM     48  C   UNL A   1      45.086  30.244  33.507  1.00  0.00     0.029 A 
ATOM     49  N   UNL A   1      44.195  28.948  31.935  1.00  0.00    -0.354 N 
ATOM     50  N   UNL A   1      44.051  26.586  30.225  1.00  0.00    -0.248 NA
ATOM     51  C   UNL A   1      45.060  24.720  29.249  1.00  0.00     0.031 C 
ATOM     52  C   UNL A   1      46.002  29.232  33.198  1.00  0.00     0.029 A 
ATOM     53  C   UNL A   1      45.441  28.416  32.228  1.00  0.00     0.049 A 
ATOM     54  H   UNL A   1      43.558  28.572  31.284  1.00  0.00     0.167 HD
ATOM     55  C   UNL A   1      45.342  26.453  30.721  1.00  0.00     0.074 A 
ATOM     56  C   UNL A   1      45.907  25.269  30.108  1.00  0.00     0.031 C 
ATOM     57  C   UNL A   1      46.000  27.245  31.603  1.00  0.00     0.037 A 
BRANCH  44  58
ATOM     58  C   UNL A   1      42.769  32.173  33.430  1.00  0.00     0.064 A 
ATOM     59  C   UNL A   1      43.367  33.366  32.997  1.00  0.00     0.173 A 
ATOM     60  C   UNL A   1      42.085  32.189  34.656  1.00  0.00     0.173 A 
ATOM     61  F   UNL A   1      44.041  33.400  31.838  1.00  0.00    -0.203 F 
ATOM     62  C   UNL A   1      43.302  34.521  33.770  1.00  0.00     0.198 A 
ATOM     63  C   UNL A   1      41.999  33.354  35.414  1.00  0.00     0.198 A 
ATOM     64  F   UNL A   1      41.490  31.077  35.113  1.00  0.00    -0.203 F 
ATOM     65  F   UNL A   1      43.914  35.640  33.357  1.00  0.00    -0.200 F 
ATOM     66  C   UNL A   1      42.613  34.517  34.974  1.00  0.00     0.200 A 
ATOM     67  F   UNL A   1      41.321  33.350  36.570  1.00  0.00    -0.200 F 
ATOM     68  F   UNL A   1      42.544  35.632  35.714  1.00  0.00    -0.200 F 
ENDBRANCH  44  58
BRANCH  45  69
ATOM     69  C   UNL A   1      42.678  24.029  27.695  1.00  0.00     0.064 A 
ATOM     70  C   UNL A   1      42.337  22.766  28.197  1.00  0.00     0.173 A 
ATOM     71  C   UNL A   1      43.046  24.117  26.344  1.00  0.00     0.173 A 
ATOM     72  F   UNL A   1      42.011  22.626  29.491  1.00  0.00    -0.203 F 
ATOM     73  C   UNL A   1      42.373  21.636  27.383  1.00  0.00     0.198 A 
ATOM     74  C   UNL A   1      43.053  22.991  25.524  1.00  0.00     0.198 A 
ATOM     75  F   UNL A   1      43.392  25.302  25.818  1.00  0.00    -0.203 F 
ATOM     76  F   UNL A   1      42.084  20.433  27.898  1.00  0.00    -0.200 F 
ATOM     77  C   UNL A   1      42.722  21.751  26.045  1.00  0.00     0.200 A 
ATOM     78  F   UNL A   1      43.384  23.109  24.231  1.00  0.00    -0.200 F 
ATOM     79  F   UNL A   1      42.752  20.664  25.262  1.00  0.00    -0.200 F 
ENDBRANCH  45  69
BRANCH  57  80
ATOM     80  C   UNL A   1      47.408  26.862  31.961  1.00  0.00     0.064 A 
ATOM     81  C   UNL A   1      47.679  25.979  33.018  1.00  0.00     0.173 A 
ATOM     82  C   UNL A   1      48.493  27.344  31.214  1.00  0.00     0.173 A 
ATOM     83  F   UNL A   1      46.677  25.502  33.773  1.00  0.00    -0.203 F 
ATOM     84  C   UNL A   1      48.985  25.607  33.323  1.00  0.00     0.198 A 
ATOM     85  C   UNL A   1      49.797  26.947  31.506  1.00  0.00     0.198 A 
ATOM     86  F   UNL A   1      48.290  28.186  30.190  1.00  0.00    -0.203 F 
ATOM     87  F   UNL A   1      49.223  24.794  34.362  1.00  0.00    -0.200 F 
ATOM     88  C   UNL A   1      50.042  26.085  32.562  1.00  0.00     0.200 A 
ATOM     89  F   UNL A   1      50.815  27.400  30.761  1.00  0.00    -0.200 F 
ATOM     90  F   UNL A   1      51.298  25.718  32.852  1.00  0.00    -0.200 F 
ENDBRANCH  57  80
ENDBRANCH  31  32
ENDBRANCH  24  26
ENDBRANCH  23  24
ENDBRANCH  22  23
ENDBRANCH  21  22
ENDBRANCH  20  21
ENDBRANCH   1  20
TORSDOF 18
ENDMDL
MODEL 3
REMARK VINA RESULT:      -8.9      4.962     10.270
REMARK SMILES C[C@@H]([C@H](C)O)[C@H](C(=O)OCCOCCOC(=O)c1ccc(-c2c3nc(c(-c4c(F)c(F)c(F)c(F)c4F)c4ccc([nH]4)c(-c4c(F)c(F)c(F)c(F)c4F)c4nc(c(-c5c(F)c(F)c(F)c(F)c5F)c5ccc2[nH]5)C=C4)C=C3)cc1)c1ccccc1Br
REMARK SMILES IDX 11 1 10 2 9 3 7 4 8 5 6 6 2 7 1 8 3 9 4 10 5 11 81 13 82 14
REMARK SMILES IDX 86 15 83 16 85 17 87 18 84 19 12 20 13 21 14 22 15 23 16 24
REMARK SMILES IDX 17 25 18 26 19 27 80 28 20 29 79 30 21 31 22 32 23 33 73 34
REMARK SMILES IDX 24 35 78 36 72 37 74 38 25 39 77 40 71 41 70 42 26 44 58 45
REMARK SMILES IDX 38 46 57 47 39 48 42 49 56 50 75 51 40 52 41 53 55 55 76 56
REMARK SMILES IDX 43 57 27 58 28 59 36 60 29 61 30 62 34 63 37 64 31 65 32 66
REMARK SMILES IDX 35 67 33 68 59 69 60 70 68 71 61 72 62 73 66 74 69 75 63 76
REMARK SMILES IDX 64 77 67 78 65 79 44 80 45 81 53 82 46 83 47 84 51 85 54 86
REMARK SMILES IDX 48 87 49 88 52 89 50 90
REMARK H PARENT 5 12 74 43 42 54
REMARK Flexibility Score: inf
ROOT
ATOM      1  C   UNL A   1      33.494  22.133  25.364  1.00  0.00     0.202 C 
ENDROOT
BRANCH   1   2
ATOM      2  C   UNL A   1      33.976  23.586  25.347  1.00  0.00     0.261 C 
BRANCH   2   3
ATOM      3  O   UNL A   1      33.171  24.453  26.167  1.00  0.00    -0.463 OA
BRANCH   3   4
ATOM      4  C   UNL A   1      31.959  24.818  25.677  1.00  0.00     0.313 C 
ATOM      5  O   UNL A   1      30.907  24.235  25.924  1.00  0.00    -0.252 OA
BRANCH   4   6
ATOM      6  C   UNL A   1      32.045  25.991  24.685  1.00  0.00     0.136 C 
BRANCH   6   7
ATOM      7  C   UNL A   1      31.054  25.770  23.490  1.00  0.00     0.033 C 
ATOM      8  C   UNL A   1      29.976  26.874  23.420  1.00  0.00     0.011 C 
BRANCH   7   9
ATOM      9  C   UNL A   1      31.678  25.565  22.083  1.00  0.00     0.115 C 
ATOM     10  C   UNL A   1      33.197  25.399  22.141  1.00  0.00     0.038 C 
BRANCH   9  11
ATOM     11  O   UNL A   1      31.387  26.641  21.204  1.00  0.00    -0.393 OA
ATOM     12  H   UNL A   1      32.182  26.866  20.695  1.00  0.00     0.210 HD
ENDBRANCH   9  11
ENDBRANCH   7   9
ENDBRANCH   6   7
BRANCH   6  13
ATOM     13  C   UNL A   1      32.175  27.334  25.441  1.00  0.00    -0.019 A 
ATOM     14  C   UNL A   1      31.699  27.338  26.783  1.00  0.00     0.006 A 
ATOM     15  C   UNL A   1      32.757  28.538  25.003  1.00  0.00     0.022 A 
ATOM     16  C   UNL A   1      31.648  28.491  27.570  1.00  0.00     0.000 A 
ATOM     17  C   UNL A   1      32.673  29.706  25.787  1.00  0.00     0.016 A 
ATOM     18  Br  UNL A   1      33.796  28.778  23.429  1.00  0.00    -0.051 Br
ATOM     19  C   UNL A   1      32.100  29.689  27.053  1.00  0.00     0.001 A 
ENDBRANCH   6  13
ENDBRANCH   4   6
ENDBRANCH   3   4
ENDBRANCH   2   3
ENDBRANCH   1   2
BRANCH   1  20
ATOM     20  O   UNL A   1      34.520  21.141  25.347  1.00  0.00    -0.374 OA
BRANCH  20  21
ATOM     21  C   UNL A   1      35.821  21.557  25.752  1.00  0.00     0.202 C 
BRANCH  21  22
ATOM     22  C   UNL A   1      36.975  20.796  25.093  1.00  0.00     0.261 C 
BRANCH  22  23
ATOM     23  O   UNL A   1      38.157  21.620  25.027  1.00  0.00    -0.460 OA
BRANCH  23  24
ATOM     24  C   UNL A   1      39.102  21.331  25.955  1.00  0.00     0.338 C 
ATOM     25  O   UNL A   1      39.636  20.256  26.157  1.00  0.00    -0.246 OA
BRANCH  24  26
ATOM     26  C   UNL A   1      39.561  22.570  26.612  1.00  0.00     0.060 A 
ATOM     27  C   UNL A   1      38.976  23.769  26.192  1.00  0.00     0.016 A 
ATOM     28  C   UNL A   1      40.603  22.576  27.541  1.00  0.00     0.016 A 
ATOM     29  C   UNL A   1      39.462  24.987  26.663  1.00  0.00     0.010 A 
ATOM     30  C   UNL A   1      41.095  23.802  28.009  1.00  0.00     0.010 A 
ATOM     31  C   UNL A   1      40.549  25.014  27.547  1.00  0.00    -0.014 A 
BRANCH  31  32
ATOM     32  C   UNL A   1      41.179  26.316  27.886  1.00  0.00     0.031 A 
ATOM     33  C   UNL A   1      42.612  26.568  27.506  1.00  0.00     0.074 A 
ATOM     34  C   UNL A   1      40.466  27.288  28.482  1.00  0.00     0.049 A 
ATOM     35  N   UNL A   1      43.354  27.626  27.716  1.00  0.00    -0.248 NA
ATOM     36  C   UNL A   1      43.298  25.483  26.788  1.00  0.00     0.031 C 
ATOM     37  C   UNL A   1      39.058  27.190  28.858  1.00  0.00     0.029 A 
ATOM     38  N   UNL A   1      40.835  28.550  28.877  1.00  0.00    -0.354 N 
ATOM     39  C   UNL A   1      44.593  27.337  27.158  1.00  0.00     0.074 A 
ATOM     40  C   UNL A   1      44.512  25.992  26.626  1.00  0.00     0.031 C 
ATOM     41  C   UNL A   1      38.680  28.344  29.434  1.00  0.00     0.029 A 
ATOM     42  C   UNL A   1      39.831  29.245  29.504  1.00  0.00     0.049 A 
ATOM     43  H   UNL A   1      41.734  28.922  28.725  1.00  0.00     0.167 HD
ATOM     44  C   UNL A   1      45.693  28.123  27.088  1.00  0.00     0.037 A 
ATOM     45  C   UNL A   1      39.844  30.458  30.091  1.00  0.00     0.037 A 
ATOM     46  C   UNL A   1      45.775  29.461  27.613  1.00  0.00     0.049 A 
ATOM     47  C   UNL A   1      41.113  31.271  30.092  1.00  0.00     0.074 A 
ATOM     48  C   UNL A   1      46.837  30.348  27.553  1.00  0.00     0.029 A 
ATOM     49  N   UNL A   1      44.760  30.100  28.308  1.00  0.00    -0.354 N 
ATOM     50  N   UNL A   1      42.270  31.002  29.537  1.00  0.00    -0.248 NA
ATOM     51  C   UNL A   1      41.079  32.553  30.811  1.00  0.00     0.031 C 
ATOM     52  C   UNL A   1      46.486  31.500  28.264  1.00  0.00     0.029 A 
ATOM     53  C   UNL A   1      45.187  31.353  28.723  1.00  0.00     0.049 A 
ATOM     54  H   UNL A   1      43.868  29.721  28.482  1.00  0.00     0.167 HD
ATOM     55  C   UNL A   1      43.093  32.083  29.826  1.00  0.00     0.074 A 
ATOM     56  C   UNL A   1      42.298  33.023  30.589  1.00  0.00     0.031 C 
ATOM     57  C   UNL A   1      44.393  32.276  29.492  1.00  0.00     0.037 A 
BRANCH  44  58
ATOM     58  C   UNL A   1      46.917  27.547  26.439  1.00  0.00     0.064 A 
ATOM     59  C   UNL A   1      47.882  26.842  27.175  1.00  0.00     0.173 A 
ATOM     60  C   UNL A   1      47.104  27.662  25.053  1.00  0.00     0.173 A 
ATOM     61  F   UNL A   1      47.755  26.711  28.503  1.00  0.00    -0.203 F 
ATOM     62  C   UNL A   1      49.000  26.295  26.550  1.00  0.00     0.198 A 
ATOM     63  C   UNL A   1      48.209  27.091  24.428  1.00  0.00     0.198 A 
ATOM     64  F   UNL A   1      46.207  28.320  24.302  1.00  0.00    -0.203 F 
ATOM     65  F   UNL A   1      49.930  25.660  27.277  1.00  0.00    -0.200 F 
ATOM     66  C   UNL A   1      49.159  26.414  25.177  1.00  0.00     0.200 A 
ATOM     67  F   UNL A   1      48.354  27.196  23.100  1.00  0.00    -0.200 F 
ATOM     68  F   UNL A   1      50.232  25.880  24.577  1.00  0.00    -0.200 F 
ENDBRANCH  44  58
BRANCH  45  69
ATOM     69  C   UNL A   1      38.620  30.966  30.762  1.00  0.00     0.064 A 
ATOM     70  C   UNL A   1      38.458  30.861  32.150  1.00  0.00     0.173 A 
ATOM     71  C   UNL A   1      37.580  31.551  30.025  1.00  0.00     0.173 A 
ATOM     72  F   UNL A   1      39.411  30.279  32.894  1.00  0.00    -0.203 F 
ATOM     73  C   UNL A   1      37.297  31.314  32.774  1.00  0.00     0.198 A 
ATOM     74  C   UNL A   1      36.432  32.030  30.653  1.00  0.00     0.198 A 
ATOM     75  F   UNL A   1      37.682  31.665  28.693  1.00  0.00    -0.203 F 
ATOM     76  F   UNL A   1      37.148  31.163  34.097  1.00  0.00    -0.200 F 
ATOM     77  C   UNL A   1      36.289  31.905  32.026  1.00  0.00     0.200 A 
ATOM     78  F   UNL A   1      35.465  32.607  29.927  1.00  0.00    -0.200 F 
ATOM     79  F   UNL A   1      35.175  32.344  32.627  1.00  0.00    -0.200 F 
ENDBRANCH  45  69
BRANCH  57  80
ATOM     80  C   UNL A   1      45.043  33.551  29.949  1.00  0.00     0.064 A 
ATOM     81  C   UNL A   1      44.945  34.731  29.196  1.00  0.00     0.173 A 
ATOM     82  C   UNL A   1      45.731  33.606  31.170  1.00  0.00     0.173 A 
ATOM     83  F   UNL A   1      44.312  34.728  28.014  1.00  0.00    -0.203 F 
ATOM     84  C   UNL A   1      45.526  35.916  29.643  1.00  0.00     0.198 A 
ATOM     85  C   UNL A   1      46.287  34.800  31.626  1.00  0.00     0.198 A 
ATOM     86  F   UNL A   1      45.850  32.508  31.931  1.00  0.00    -0.203 F 
ATOM     87  F   UNL A   1      45.455  37.021  28.888  1.00  0.00    -0.200 F 
ATOM     88  C   UNL A   1      46.190  35.950  30.860  1.00  0.00     0.200 A 
ATOM     89  F   UNL A   1      46.917  34.834  32.809  1.00  0.00    -0.200 F 
ATOM     90  F   UNL A   1      46.740  37.093  31.292  1.00  0.00    -0.200 F 
ENDBRANCH  57  80
ENDBRANCH  31  32
ENDBRANCH  24  26
ENDBRANCH  23  24
ENDBRANCH  22  23
ENDBRANCH  21  22
ENDBRANCH  20  21
ENDBRANCH   1  20
TORSDOF 18
ENDMDL
