MODEL 1
REMARK VINA RESULT:     -11.0      0.000      0.000
REMARK SMILES O=C1NC(=O)/C(=C/c2ccc(OCc3cn(-c4ccc(C(=O)OCCOCCOC(=O)c5ccc(-c6c7nc(c(-c8c(F)c(F)c(F)c(F)c8F)c8ccc([nH]8)c(-c8c(F)c(F)c(F)c(F)c8F)c8nc(c(-c9c(F)c(F)c(F)c(F)c9F)c9ccc6[nH]9)C=C8)C=C7)cc5)cc4)nn3)cc2)S1
REMARK SMILES IDX 24 1 23 2 21 3 22 4 20 5 17 6 18 7 96 8 19 9 95 10 16 11
REMARK SMILES IDX 14 12 15 13 98 14 97 15 13 16 12 17 11 18 8 19 9 20 100 21
REMARK SMILES IDX 10 22 99 23 7 24 1 25 2 26 3 27 101 28 4 29 6 31 5 32 25 33
REMARK SMILES IDX 26 34 27 35 28 36 29 37 30 38 31 39 32 40 33 41 94 42 34 43
REMARK SMILES IDX 93 44 35 45 36 46 37 47 87 48 38 49 92 50 86 51 88 52 39 53
REMARK SMILES IDX 91 54 85 55 84 56 40 58 72 59 52 60 71 61 53 62 56 63 70 64
REMARK SMILES IDX 89 65 54 66 55 67 69 69 90 70 57 71 41 72 42 73 50 74 43 75
REMARK SMILES IDX 44 76 48 77 51 78 45 79 46 80 49 81 47 82 73 83 74 84 82 85
REMARK SMILES IDX 75 86 76 87 80 88 83 89 77 90 78 91 81 92 79 93 58 94 59 95
REMARK SMILES IDX 67 96 60 97 61 98 65 99 68 100 62 101 63 102 66 103 64 104
REMARK H PARENT 3 30 88 57 56 68
REMARK Flexibility Score: inf
ROOT
ATOM      1  C   UNL A   1      32.867  36.514  30.039  1.00  0.00     0.261 C 
ENDROOT
BRANCH   1   2
ATOM      2  O   UNL A   1      32.190  35.540  30.848  1.00  0.00    -0.460 OA
BRANCH   2   3
ATOM      3  C   UNL A   1      32.186  35.840  32.169  1.00  0.00     0.338 C 
ATOM      4  O   UNL A   1      31.325  36.441  32.788  1.00  0.00    -0.246 OA
BRANCH   3   5
ATOM      5  C   UNL A   1      33.314  35.177  32.845  1.00  0.00     0.060 A 
ATOM      6  C   UNL A   1      35.652  34.025  33.791  1.00  0.00     0.066 A 
ATOM      7  C   UNL A   1      35.519  35.421  33.793  1.00  0.00     0.029 A 
ATOM      8  C   UNL A   1      34.578  33.206  33.417  1.00  0.00     0.029 A 
ATOM      9  C   UNL A   1      34.362  35.994  33.284  1.00  0.00     0.018 A 
ATOM     10  C   UNL A   1      33.390  33.787  32.967  1.00  0.00     0.018 A 
BRANCH   6  11
ATOM     11  N   UNL A   1      36.926  33.479  34.058  1.00  0.00    -0.220 N 
ATOM     12  C   UNL A   1      39.053  33.232  34.468  1.00  0.00     0.120 A 
ATOM     13  C   UNL A   1      38.159  34.030  33.786  1.00  0.00     0.144 A 
ATOM     14  N   UNL A   1      38.358  32.221  35.076  1.00  0.00    -0.131 NA
ATOM     15  N   UNL A   1      37.073  32.379  34.825  1.00  0.00    -0.062 NA
BRANCH  12  16
ATOM     16  C   UNL A   1      40.518  33.393  34.707  1.00  0.00     0.289 C 
BRANCH  16  17
ATOM     17  O   UNL A   1      41.366  32.558  33.901  1.00  0.00    -0.487 OA
BRANCH  17  18
ATOM     18  C   UNL A   1      41.855  33.075  32.733  1.00  0.00     0.119 A 
ATOM     19  C   UNL A   1      42.868  33.759  30.203  1.00  0.00    -0.024 A 
ATOM     20  C   UNL A   1      41.731  32.954  30.310  1.00  0.00     0.012 A 
ATOM     21  C   UNL A   1      43.434  34.293  31.362  1.00  0.00     0.012 A 
ATOM     22  C   UNL A   1      41.233  32.612  31.573  1.00  0.00     0.047 A 
ATOM     23  C   UNL A   1      42.914  33.975  32.617  1.00  0.00     0.047 A 
BRANCH  19  24
ATOM     24  C   UNL A   1      43.454  34.059  28.895  1.00  0.00     0.029 C 
ATOM     25  O   UNL A   1      41.898  38.273  26.612  1.00  0.00    -0.261 OA
ATOM     26  C   UNL A   1      42.408  37.219  26.968  1.00  0.00     0.290 C 
ATOM     27  N   UNL A   1      43.259  36.465  26.233  1.00  0.00    -0.282 N 
ATOM     28  S   UNL A   1      42.138  36.466  28.524  1.00  0.00    -0.022 SA
ATOM     29  C   UNL A   1      43.743  35.316  26.786  1.00  0.00     0.265 C 
ATOM     30  H   UNL A   1      43.521  36.738  25.324  1.00  0.00     0.174 HD
ATOM     31  C   UNL A   1      43.171  35.135  28.147  1.00  0.00     0.083 C 
ATOM     32  O   UNL A   1      44.515  34.551  26.236  1.00  0.00    -0.268 OA
ENDBRANCH  19  24
ENDBRANCH  17  18
ENDBRANCH  16  17
ENDBRANCH  12  16
ENDBRANCH   6  11
ENDBRANCH   3   5
ENDBRANCH   2   3
ENDBRANCH   1   2
BRANCH   1  33
ATOM     33  C   UNL A   1      32.920  36.127  28.561  1.00  0.00     0.202 C 
BRANCH  33  34
ATOM     34  O   UNL A   1      32.820  34.751  28.194  1.00  0.00    -0.374 OA
BRANCH  34  35
ATOM     35  C   UNL A   1      33.982  33.938  28.082  1.00  0.00     0.202 C 
BRANCH  35  36
ATOM     36  C   UNL A   1      34.384  33.063  29.260  1.00  0.00     0.261 C 
BRANCH  36  37
ATOM     37  O   UNL A   1      34.908  31.819  28.833  1.00  0.00    -0.460 OA
BRANCH  37  38
ATOM     38  C   UNL A   1      35.724  31.240  29.742  1.00  0.00     0.338 C 
ATOM     39  O   UNL A   1      35.601  31.231  30.954  1.00  0.00    -0.246 OA
BRANCH  38  40
ATOM     40  C   UNL A   1      36.912  30.746  29.043  1.00  0.00     0.060 A 
ATOM     41  C   UNL A   1      36.879  29.389  28.723  1.00  0.00     0.016 A 
ATOM     42  C   UNL A   1      38.106  31.472  29.146  1.00  0.00     0.016 A 
ATOM     43  C   UNL A   1      38.051  28.686  28.834  1.00  0.00     0.010 A 
ATOM     44  C   UNL A   1      39.270  30.767  29.283  1.00  0.00     0.010 A 
ATOM     45  C   UNL A   1      39.201  29.378  29.229  1.00  0.00    -0.014 A 
BRANCH  45  46
ATOM     46  C   UNL A   1      40.399  28.610  29.459  1.00  0.00     0.031 A 
ATOM     47  C   UNL A   1      40.710  28.540  30.900  1.00  0.00     0.074 A 
ATOM     48  C   UNL A   1      41.048  27.984  28.460  1.00  0.00     0.049 A 
ATOM     49  N   UNL A   1      41.698  29.093  31.519  1.00  0.00    -0.248 NA
ATOM     50  C   UNL A   1      39.668  27.998  31.791  1.00  0.00     0.031 C 
ATOM     51  C   UNL A   1      40.633  27.827  27.064  1.00  0.00     0.029 A 
ATOM     52  N   UNL A   1      42.195  27.257  28.521  1.00  0.00    -0.354 N 
ATOM     53  C   UNL A   1      41.513  28.768  32.857  1.00  0.00     0.074 A 
ATOM     54  C   UNL A   1      40.152  28.331  32.986  1.00  0.00     0.031 C 
ATOM     55  C   UNL A   1      41.391  26.870  26.477  1.00  0.00     0.029 A 
ATOM     56  C   UNL A   1      42.414  26.444  27.413  1.00  0.00     0.049 A 
ATOM     57  H   UNL A   1      42.817  27.303  29.283  1.00  0.00     0.167 HD
ATOM     58  C   UNL A   1      42.591  28.555  33.658  1.00  0.00     0.037 A 
ATOM     59  C   UNL A   1      43.322  25.435  27.353  1.00  0.00     0.037 A 
ATOM     60  C   UNL A   1      43.759  29.205  33.109  1.00  0.00     0.049 A 
ATOM     61  C   UNL A   1      44.306  25.667  28.446  1.00  0.00     0.074 A 
ATOM     62  C   UNL A   1      44.091  30.511  32.803  1.00  0.00     0.029 A 
ATOM     63  N   UNL A   1      44.656  28.422  32.423  1.00  0.00    -0.354 N 
ATOM     64  N   UNL A   1      45.147  26.664  28.458  1.00  0.00    -0.248 NA
ATOM     65  C   UNL A   1      44.015  25.080  29.747  1.00  0.00     0.031 C 
ATOM     66  C   UNL A   1      44.869  30.432  31.610  1.00  0.00     0.029 A 
ATOM     67  C   UNL A   1      45.030  29.085  31.286  1.00  0.00     0.049 A 
ATOM     68  H   UNL A   1      44.976  27.535  32.703  1.00  0.00     0.167 HD
ATOM     69  C   UNL A   1      45.150  27.108  29.774  1.00  0.00     0.074 A 
ATOM     70  C   UNL A   1      44.488  26.049  30.534  1.00  0.00     0.031 C 
ATOM     71  C   UNL A   1      45.417  28.414  30.068  1.00  0.00     0.037 A 
BRANCH  58  72
ATOM     72  C   UNL A   1      42.685  27.388  34.621  1.00  0.00     0.064 A 
ATOM     73  C   UNL A   1      43.090  26.140  34.106  1.00  0.00     0.173 A 
ATOM     74  C   UNL A   1      42.102  27.342  35.909  1.00  0.00     0.173 A 
ATOM     75  F   UNL A   1      43.675  26.055  32.902  1.00  0.00    -0.203 F 
ATOM     76  C   UNL A   1      42.806  24.941  34.763  1.00  0.00     0.198 A 
ATOM     77  C   UNL A   1      41.860  26.146  36.581  1.00  0.00     0.198 A 
ATOM     78  F   UNL A   1      41.646  28.423  36.548  1.00  0.00    -0.203 F 
ATOM     79  F   UNL A   1      43.077  23.776  34.160  1.00  0.00    -0.200 F 
ATOM     80  C   UNL A   1      42.174  24.944  35.991  1.00  0.00     0.200 A 
ATOM     81  F   UNL A   1      41.241  26.176  37.770  1.00  0.00    -0.200 F 
ATOM     82  F   UNL A   1      41.828  23.796  36.586  1.00  0.00    -0.200 F 
ENDBRANCH  58  72
BRANCH  59  83
ATOM     83  C   UNL A   1      43.190  24.117  26.684  1.00  0.00     0.064 A 
ATOM     84  C   UNL A   1      43.979  23.788  25.569  1.00  0.00     0.173 A 
ATOM     85  C   UNL A   1      42.500  23.051  27.294  1.00  0.00     0.173 A 
ATOM     86  F   UNL A   1      44.711  24.734  24.960  1.00  0.00    -0.203 F 
ATOM     87  C   UNL A   1      44.090  22.471  25.107  1.00  0.00     0.198 A 
ATOM     88  C   UNL A   1      42.605  21.739  26.830  1.00  0.00     0.198 A 
ATOM     89  F   UNL A   1      41.789  23.242  28.415  1.00  0.00    -0.203 F 
ATOM     90  F   UNL A   1      44.904  22.187  24.081  1.00  0.00    -0.200 F 
ATOM     91  C   UNL A   1      43.411  21.447  25.745  1.00  0.00     0.200 A 
ATOM     92  F   UNL A   1      41.977  20.751  27.482  1.00  0.00    -0.200 F 
ATOM     93  F   UNL A   1      43.566  20.177  25.345  1.00  0.00    -0.200 F 
ENDBRANCH  59  83
BRANCH  71  94
ATOM     94  C   UNL A   1      45.969  29.274  28.966  1.00  0.00     0.064 A 
ATOM     95  C   UNL A   1      45.180  30.031  28.082  1.00  0.00     0.173 A 
ATOM     96  C   UNL A   1      47.358  29.441  28.896  1.00  0.00     0.173 A 
ATOM     97  F   UNL A   1      43.843  29.998  28.153  1.00  0.00    -0.203 F 
ATOM     98  C   UNL A   1      45.762  30.883  27.144  1.00  0.00     0.198 A 
ATOM     99  C   UNL A   1      47.934  30.321  27.985  1.00  0.00     0.198 A 
ATOM    100  F   UNL A   1      48.156  28.785  29.752  1.00  0.00    -0.203 F 
ATOM    101  F   UNL A   1      44.990  31.586  26.302  1.00  0.00    -0.200 F 
ATOM    102  C   UNL A   1      47.139  31.033  27.103  1.00  0.00     0.200 A 
ATOM    103  F   UNL A   1      49.263  30.498  27.983  1.00  0.00    -0.200 F 
ATOM    104  F   UNL A   1      47.698  31.883  26.230  1.00  0.00    -0.200 F 
ENDBRANCH  71  94
ENDBRANCH  45  46
ENDBRANCH  38  40
ENDBRANCH  37  38
ENDBRANCH  36  37
ENDBRANCH  35  36
ENDBRANCH  34  35
ENDBRANCH  33  34
ENDBRANCH   1  33
TORSDOF 19
ENDMDL
MODEL 2
REMARK VINA RESULT:     -11.0      5.265     12.023
REMARK SMILES O=C1NC(=O)/C(=C/c2ccc(OCc3cn(-c4ccc(C(=O)OCCOCCOC(=O)c5ccc(-c6c7nc(c(-c8c(F)c(F)c(F)c(F)c8F)c8ccc([nH]8)c(-c8c(F)c(F)c(F)c(F)c8F)c8nc(c(-c9c(F)c(F)c(F)c(F)c9F)c9ccc6[nH]9)C=C8)C=C7)cc5)cc4)nn3)cc2)S1
REMARK SMILES IDX 24 1 23 2 21 3 22 4 20 5 17 6 18 7 96 8 19 9 95 10 16 11
REMARK SMILES IDX 14 12 15 13 98 14 97 15 13 16 12 17 11 18 8 19 9 20 100 21
REMARK SMILES IDX 10 22 99 23 7 24 1 25 2 26 3 27 101 28 4 29 6 31 5 32 25 33
REMARK SMILES IDX 26 34 27 35 28 36 29 37 30 38 31 39 32 40 33 41 94 42 34 43
REMARK SMILES IDX 93 44 35 45 36 46 37 47 87 48 38 49 92 50 86 51 88 52 39 53
REMARK SMILES IDX 91 54 85 55 84 56 40 58 72 59 52 60 71 61 53 62 56 63 70 64
REMARK SMILES IDX 89 65 54 66 55 67 69 69 90 70 57 71 41 72 42 73 50 74 43 75
REMARK SMILES IDX 44 76 48 77 51 78 45 79 46 80 49 81 47 82 73 83 74 84 82 85
REMARK SMILES IDX 75 86 76 87 80 88 83 89 77 90 78 91 81 92 79 93 58 94 59 95
REMARK SMILES IDX 67 96 60 97 61 98 65 99 68 100 62 101 63 102 66 103 64 104
REMARK H PARENT 3 30 88 57 56 68
REMARK Flexibility Score: inf
ROOT
ATOM      1  C   UNL A   1      46.164  30.090  26.034  1.00  0.00     0.261 C 
ENDROOT
BRANCH   1   2
ATOM      2  O   UNL A   1      45.220  29.009  25.991  1.00  0.00    -0.460 OA
BRANCH   2   3
ATOM      3  C   UNL A   1      45.731  27.864  25.479  1.00  0.00     0.338 C 
ATOM      4  O   UNL A   1      46.775  27.730  24.865  1.00  0.00    -0.246 OA
BRANCH   3   5
ATOM      5  C   UNL A   1      44.929  26.708  25.915  1.00  0.00     0.060 A 
ATOM      6  C   UNL A   1      43.263  24.537  26.365  1.00  0.00     0.066 A 
ATOM      7  C   UNL A   1      44.418  24.372  25.587  1.00  0.00     0.029 A 
ATOM      8  C   UNL A   1      43.000  25.758  27.004  1.00  0.00     0.029 A 
ATOM      9  C   UNL A   1      45.229  25.470  25.333  1.00  0.00     0.018 A 
ATOM     10  C   UNL A   1      43.856  26.843  26.799  1.00  0.00     0.018 A 
BRANCH   6  11
ATOM     11  N   UNL A   1      42.321  23.487  26.386  1.00  0.00    -0.220 N 
ATOM     12  C   UNL A   1      40.470  22.335  26.435  1.00  0.00     0.120 A 
ATOM     13  C   UNL A   1      41.039  23.507  26.889  1.00  0.00     0.144 A 
ATOM     14  N   UNL A   1      41.415  21.637  25.731  1.00  0.00    -0.131 NA
ATOM     15  N   UNL A   1      42.530  22.341  25.705  1.00  0.00    -0.062 NA
BRANCH  12  16
ATOM     16  C   UNL A   1      39.061  21.847  26.499  1.00  0.00     0.289 C 
BRANCH  16  17
ATOM     17  O   UNL A   1      38.599  21.151  25.330  1.00  0.00    -0.487 OA
BRANCH  17  18
ATOM     18  C   UNL A   1      37.340  21.427  24.872  1.00  0.00     0.119 A 
ATOM     19  C   UNL A   1      34.796  22.351  24.115  1.00  0.00    -0.024 A 
ATOM     20  C   UNL A   1      35.928  23.134  23.874  1.00  0.00     0.012 A 
ATOM     21  C   UNL A   1      34.957  21.070  24.648  1.00  0.00     0.012 A 
ATOM     22  C   UNL A   1      37.193  22.672  24.258  1.00  0.00     0.047 A 
ATOM     23  C   UNL A   1      36.224  20.602  24.999  1.00  0.00     0.047 A 
BRANCH  19  24
ATOM     24  C   UNL A   1      33.457  22.851  23.799  1.00  0.00     0.029 C 
ATOM     25  O   UNL A   1      30.193  23.197  27.623  1.00  0.00    -0.261 OA
ATOM     26  C   UNL A   1      30.802  23.192  26.561  1.00  0.00     0.290 C 
ATOM     27  N   UNL A   1      30.280  23.497  25.349  1.00  0.00    -0.282 N 
ATOM     28  S   UNL A   1      32.495  22.784  26.394  1.00  0.00    -0.022 SA
ATOM     29  C   UNL A   1      31.103  23.447  24.264  1.00  0.00     0.265 C 
ATOM     30  H   UNL A   1      29.333  23.748  25.255  1.00  0.00     0.174 HD
ATOM     31  C   UNL A   1      32.464  23.020  24.684  1.00  0.00     0.083 C 
ATOM     32  O   UNL A   1      30.763  23.700  23.121  1.00  0.00    -0.268 OA
ENDBRANCH  19  24
ENDBRANCH  17  18
ENDBRANCH  16  17
ENDBRANCH  12  16
ENDBRANCH   6  11
ENDBRANCH   3   5
ENDBRANCH   2   3
ENDBRANCH   1   2
BRANCH   1  33
ATOM     33  C   UNL A   1      45.598  31.348  26.695  1.00  0.00     0.202 C 
BRANCH  33  34
ATOM     34  O   UNL A   1      45.814  32.617  26.079  1.00  0.00    -0.374 OA
BRANCH  34  35
ATOM     35  C   UNL A   1      44.717  33.429  25.677  1.00  0.00     0.202 C 
BRANCH  35  36
ATOM     36  C   UNL A   1      44.897  34.939  25.631  1.00  0.00     0.261 C 
BRANCH  36  37
ATOM     37  O   UNL A   1      43.995  35.601  26.498  1.00  0.00    -0.460 OA
BRANCH  37  38
ATOM     38  C   UNL A   1      44.603  36.436  27.371  1.00  0.00     0.338 C 
ATOM     39  O   UNL A   1      45.513  37.214  27.146  1.00  0.00    -0.246 OA
BRANCH  38  40
ATOM     40  C   UNL A   1      44.101  36.140  28.714  1.00  0.00     0.060 A 
ATOM     41  C   UNL A   1      44.486  34.898  29.220  1.00  0.00     0.016 A 
ATOM     42  C   UNL A   1      42.979  36.835  29.184  1.00  0.00     0.016 A 
ATOM     43  C   UNL A   1      43.562  34.204  29.958  1.00  0.00     0.010 A 
ATOM     44  C   UNL A   1      42.047  36.133  29.898  1.00  0.00     0.010 A 
ATOM     45  C   UNL A   1      42.314  34.796  30.179  1.00  0.00    -0.014 A 
BRANCH  45  46
ATOM     46  C   UNL A   1      41.310  34.011  30.853  1.00  0.00     0.031 A 
ATOM     47  C   UNL A   1      41.780  33.592  32.188  1.00  0.00     0.074 A 
ATOM     48  C   UNL A   1      40.090  33.806  30.324  1.00  0.00     0.049 A 
ATOM     49  N   UNL A   1      42.078  32.398  32.577  1.00  0.00    -0.248 NA
ATOM     50  C   UNL A   1      42.202  34.654  33.120  1.00  0.00     0.031 C 
ATOM     51  C   UNL A   1      39.507  34.409  29.123  1.00  0.00     0.029 A 
ATOM     52  N   UNL A   1      39.063  33.070  30.826  1.00  0.00    -0.354 N 
ATOM     53  C   UNL A   1      42.511  32.545  33.890  1.00  0.00     0.074 A 
ATOM     54  C   UNL A   1      42.803  33.938  34.070  1.00  0.00     0.031 C 
ATOM     55  C   UNL A   1      38.169  34.196  29.121  1.00  0.00     0.029 A 
ATOM     56  C   UNL A   1      37.829  33.343  30.244  1.00  0.00     0.049 A 
ATOM     57  H   UNL A   1      39.183  32.401  31.539  1.00  0.00     0.167 HD
ATOM     58  C   UNL A   1      42.253  31.569  34.801  1.00  0.00     0.037 A 
ATOM     59  C   UNL A   1      36.627  32.954  30.745  1.00  0.00     0.037 A 
ATOM     60  C   UNL A   1      42.017  30.309  34.133  1.00  0.00     0.049 A 
ATOM     61  C   UNL A   1      36.890  31.843  31.700  1.00  0.00     0.074 A 
ATOM     62  C   UNL A   1      42.760  29.499  33.296  1.00  0.00     0.029 A 
ATOM     63  N   UNL A   1      40.712  29.909  33.977  1.00  0.00    -0.354 N 
ATOM     64  N   UNL A   1      37.321  30.667  31.336  1.00  0.00    -0.248 NA
ATOM     65  C   UNL A   1      37.147  32.199  33.089  1.00  0.00     0.031 C 
ATOM     66  C   UNL A   1      41.826  28.972  32.356  1.00  0.00     0.029 A 
ATOM     67  C   UNL A   1      40.555  29.428  32.705  1.00  0.00     0.049 A 
ATOM     68  H   UNL A   1      40.009  29.960  34.664  1.00  0.00     0.167 HD
ATOM     69  C   UNL A   1      38.267  30.325  32.293  1.00  0.00     0.074 A 
ATOM     70  C   UNL A   1      38.064  31.275  33.385  1.00  0.00     0.031 C 
ATOM     71  C   UNL A   1      39.311  29.503  31.978  1.00  0.00     0.037 A 
BRANCH  58  72
ATOM     72  C   UNL A   1      41.737  31.860  36.197  1.00  0.00     0.064 A 
ATOM     73  C   UNL A   1      40.583  32.659  36.320  1.00  0.00     0.173 A 
ATOM     74  C   UNL A   1      42.474  31.685  37.393  1.00  0.00     0.173 A 
ATOM     75  F   UNL A   1      39.791  32.882  35.260  1.00  0.00    -0.203 F 
ATOM     76  C   UNL A   1      40.274  33.336  37.501  1.00  0.00     0.198 A 
ATOM     77  C   UNL A   1      42.136  32.327  38.582  1.00  0.00     0.198 A 
ATOM     78  F   UNL A   1      43.602  30.974  37.464  1.00  0.00    -0.203 F 
ATOM     79  F   UNL A   1      39.251  34.201  37.520  1.00  0.00    -0.200 F 
ATOM     80  C   UNL A   1      41.062  33.185  38.626  1.00  0.00     0.200 A 
ATOM     81  F   UNL A   1      42.920  32.169  39.657  1.00  0.00    -0.200 F 
ATOM     82  F   UNL A   1      40.816  33.894  39.734  1.00  0.00    -0.200 F 
ENDBRANCH  58  72
BRANCH  59  83
ATOM     83  C   UNL A   1      35.346  33.703  30.747  1.00  0.00     0.064 A 
ATOM     84  C   UNL A   1      35.079  34.679  31.721  1.00  0.00     0.173 A 
ATOM     85  C   UNL A   1      34.483  33.683  29.633  1.00  0.00     0.173 A 
ATOM     86  F   UNL A   1      35.882  34.803  32.789  1.00  0.00    -0.203 F 
ATOM     87  C   UNL A   1      34.028  35.594  31.579  1.00  0.00     0.198 A 
ATOM     88  C   UNL A   1      33.432  34.591  29.495  1.00  0.00     0.198 A 
ATOM     89  F   UNL A   1      34.703  32.848  28.607  1.00  0.00    -0.203 F 
ATOM     90  F   UNL A   1      33.845  36.552  32.498  1.00  0.00    -0.200 F 
ATOM     91  C   UNL A   1      33.213  35.555  30.461  1.00  0.00     0.200 A 
ATOM     92  F   UNL A   1      32.678  34.569  28.387  1.00  0.00    -0.200 F 
ATOM     93  F   UNL A   1      32.248  36.469  30.291  1.00  0.00    -0.200 F 
ENDBRANCH  59  83
BRANCH  71  94
ATOM     94  C   UNL A   1      39.248  28.775  30.665  1.00  0.00     0.064 A 
ATOM     95  C   UNL A   1      39.670  29.318  29.438  1.00  0.00     0.173 A 
ATOM     96  C   UNL A   1      38.875  27.425  30.679  1.00  0.00     0.173 A 
ATOM     97  F   UNL A   1      40.134  30.572  29.363  1.00  0.00    -0.203 F 
ATOM     98  C   UNL A   1      39.674  28.551  28.273  1.00  0.00     0.198 A 
ATOM     99  C   UNL A   1      38.916  26.653  29.522  1.00  0.00     0.198 A 
ATOM    100  F   UNL A   1      38.515  26.841  31.832  1.00  0.00    -0.203 F 
ATOM    101  F   UNL A   1      40.068  29.094  27.111  1.00  0.00    -0.200 F 
ATOM    102  C   UNL A   1      39.304  27.217  28.319  1.00  0.00     0.200 A 
ATOM    103  F   UNL A   1      38.605  25.350  29.583  1.00  0.00    -0.200 F 
ATOM    104  F   UNL A   1      39.348  26.467  27.208  1.00  0.00    -0.200 F 
ENDBRANCH  71  94
ENDBRANCH  45  46
ENDBRANCH  38  40
ENDBRANCH  37  38
ENDBRANCH  36  37
ENDBRANCH  35  36
ENDBRANCH  34  35
ENDBRANCH  33  34
ENDBRANCH   1  33
TORSDOF 19
ENDMDL
MODEL 3
REMARK VINA RESULT:     -10.5      5.033      8.165
REMARK SMILES O=C1NC(=O)/C(=C/c2ccc(OCc3cn(-c4ccc(C(=O)OCCOCCOC(=O)c5ccc(-c6c7nc(c(-c8c(F)c(F)c(F)c(F)c8F)c8ccc([nH]8)c(-c8c(F)c(F)c(F)c(F)c8F)c8nc(c(-c9c(F)c(F)c(F)c(F)c9F)c9ccc6[nH]9)C=C8)C=C7)cc5)cc4)nn3)cc2)S1
REMARK SMILES IDX 24 1 23 2 21 3 22 4 20 5 17 6 18 7 96 8 19 9 95 10 16 11
REMARK SMILES IDX 14 12 15 13 98 14 97 15 13 16 12 17 11 18 8 19 9 20 100 21
REMARK SMILES IDX 10 22 99 23 7 24 1 25 2 26 3 27 101 28 4 29 6 31 5 32 25 33
REMARK SMILES IDX 26 34 27 35 28 36 29 37 30 38 31 39 32 40 33 41 94 42 34 43
REMARK SMILES IDX 93 44 35 45 36 46 37 47 87 48 38 49 92 50 86 51 88 52 39 53
REMARK SMILES IDX 91 54 85 55 84 56 40 58 72 59 52 60 71 61 53 62 56 63 70 64
REMARK SMILES IDX 89 65 54 66 55 67 69 69 90 70 57 71 41 72 42 73 50 74 43 75
REMARK SMILES IDX 44 76 48 77 51 78 45 79 46 80 49 81 47 82 73 83 74 84 82 85
REMARK SMILES IDX 75 86 76 87 80 88 83 89 77 90 78 91 81 92 79 93 58 94 59 95
REMARK SMILES IDX 67 96 60 97 61 98 65 99 68 100 62 101 63 102 66 103 64 104
REMARK H PARENT 3 30 88 57 56 68
REMARK Flexibility Score: inf
ROOT
ATOM      1  C   UNL A   1      33.618  33.881  29.248  1.00  0.00     0.261 C 
ENDROOT
BRANCH   1   2
ATOM      2  O   UNL A   1      33.868  33.175  28.024  1.00  0.00    -0.460 OA
BRANCH   2   3
ATOM      3  C   UNL A   1      32.744  32.720  27.420  1.00  0.00     0.338 C 
ATOM      4  O   UNL A   1      31.782  33.376  27.060  1.00  0.00    -0.246 OA
BRANCH   3   5
ATOM      5  C   UNL A   1      32.892  31.297  27.073  1.00  0.00     0.060 A 
ATOM      6  C   UNL A   1      33.407  28.745  26.117  1.00  0.00     0.066 A 
ATOM      7  C   UNL A   1      34.399  29.428  26.834  1.00  0.00     0.029 A 
ATOM      8  C   UNL A   1      32.125  29.295  25.972  1.00  0.00     0.029 A 
ATOM      9  C   UNL A   1      34.150  30.720  27.277  1.00  0.00     0.018 A 
ATOM     10  C   UNL A   1      31.858  30.569  26.479  1.00  0.00     0.018 A 
BRANCH   6  11
ATOM     11  N   UNL A   1      33.769  27.555  25.450  1.00  0.00    -0.220 N 
ATOM     12  C   UNL A   1      34.027  25.463  24.894  1.00  0.00     0.120 A 
ATOM     13  C   UNL A   1      33.933  26.298  25.988  1.00  0.00     0.144 A 
ATOM     14  N   UNL A   1      33.967  26.225  23.759  1.00  0.00    -0.131 NA
ATOM     15  N   UNL A   1      33.809  27.489  24.103  1.00  0.00    -0.062 NA
BRANCH  12  16
ATOM     16  C   UNL A   1      34.052  23.973  24.804  1.00  0.00     0.289 C 
BRANCH  16  17
ATOM     17  O   UNL A   1      32.807  23.320  25.102  1.00  0.00    -0.487 OA
BRANCH  17  18
ATOM     18  C   UNL A   1      31.652  24.036  24.948  1.00  0.00     0.119 A 
ATOM     19  C   UNL A   1      29.460  25.676  24.314  1.00  0.00    -0.024 A 
ATOM     20  C   UNL A   1      30.045  24.874  23.331  1.00  0.00     0.012 A 
ATOM     21  C   UNL A   1      29.918  25.580  25.630  1.00  0.00     0.012 A 
ATOM     22  C   UNL A   1      31.140  24.063  23.650  1.00  0.00     0.047 A 
ATOM     23  C   UNL A   1      30.989  24.745  25.949  1.00  0.00     0.047 A 
BRANCH  19  24
ATOM     24  C   UNL A   1      28.369  26.594  23.982  1.00  0.00     0.029 C 
ATOM     25  O   UNL A   1      29.605  30.790  21.479  1.00  0.00    -0.261 OA
ATOM     26  C   UNL A   1      29.082  29.861  22.080  1.00  0.00     0.290 C 
ATOM     27  N   UNL A   1      27.777  29.782  22.434  1.00  0.00    -0.282 N 
ATOM     28  S   UNL A   1      29.929  28.424  22.610  1.00  0.00    -0.022 SA
ATOM     29  C   UNL A   1      27.356  28.668  23.098  1.00  0.00     0.265 C 
ATOM     30  H   UNL A   1      27.150  30.510  22.217  1.00  0.00     0.174 HD
ATOM     31  C   UNL A   1      28.504  27.748  23.314  1.00  0.00     0.083 C 
ATOM     32  O   UNL A   1      26.212  28.471  23.470  1.00  0.00    -0.268 OA
ENDBRANCH  19  24
ENDBRANCH  17  18
ENDBRANCH  16  17
ENDBRANCH  12  16
ENDBRANCH   6  11
ENDBRANCH   3   5
ENDBRANCH   2   3
ENDBRANCH   1   2
BRANCH   1  33
ATOM     33  C   UNL A   1      34.898  34.380  29.921  1.00  0.00     0.202 C 
BRANCH  33  34
ATOM     34  O   UNL A   1      35.658  33.482  30.729  1.00  0.00    -0.374 OA
BRANCH  34  35
ATOM     35  C   UNL A   1      36.090  33.859  32.030  1.00  0.00     0.202 C 
BRANCH  35  36
ATOM     36  C   UNL A   1      37.377  33.263  32.580  1.00  0.00     0.261 C 
BRANCH  36  37
ATOM     37  O   UNL A   1      38.422  33.300  31.625  1.00  0.00    -0.460 OA
BRANCH  37  38
ATOM     38  C   UNL A   1      39.584  32.779  32.080  1.00  0.00     0.338 C 
ATOM     39  O   UNL A   1      40.206  33.102  33.076  1.00  0.00    -0.246 OA
BRANCH  38  40
ATOM     40  C   UNL A   1      40.092  31.847  31.071  1.00  0.00     0.060 A 
ATOM     41  C   UNL A   1      39.286  30.730  30.849  1.00  0.00     0.016 A 
ATOM     42  C   UNL A   1      41.458  31.871  30.758  1.00  0.00     0.016 A 
ATOM     43  C   UNL A   1      39.916  29.533  30.626  1.00  0.00     0.010 A 
ATOM     44  C   UNL A   1      42.087  30.672  30.562  1.00  0.00     0.010 A 
ATOM     45  C   UNL A   1      41.314  29.516  30.606  1.00  0.00    -0.014 A 
BRANCH  45  46
ATOM     46  C   UNL A   1      41.967  28.235  30.489  1.00  0.00     0.031 A 
ATOM     47  C   UNL A   1      42.677  27.893  31.737  1.00  0.00     0.074 A 
ATOM     48  C   UNL A   1      41.829  27.460  29.399  1.00  0.00     0.049 A 
ATOM     49  N   UNL A   1      43.952  27.823  31.922  1.00  0.00    -0.248 NA
ATOM     50  C   UNL A   1      41.885  27.867  32.980  1.00  0.00     0.031 C 
ATOM     51  C   UNL A   1      40.940  27.655  28.251  1.00  0.00     0.029 A 
ATOM     52  N   UNL A   1      42.404  26.256  29.139  1.00  0.00    -0.354 N 
ATOM     53  C   UNL A   1      44.105  27.517  33.269  1.00  0.00     0.074 A 
ATOM     54  C   UNL A   1      42.848  27.807  33.898  1.00  0.00     0.031 C 
ATOM     55  C   UNL A   1      40.866  26.503  27.542  1.00  0.00     0.029 A 
ATOM     56  C   UNL A   1      41.792  25.543  28.111  1.00  0.00     0.049 A 
ATOM     57  H   UNL A   1      43.185  25.918  29.633  1.00  0.00     0.167 HD
ATOM     58  C   UNL A   1      45.134  26.725  33.671  1.00  0.00     0.037 A 
ATOM     59  C   UNL A   1      41.995  24.225  27.848  1.00  0.00     0.037 A 
ATOM     60  C   UNL A   1      46.198  26.751  32.694  1.00  0.00     0.049 A 
ATOM     61  C   UNL A   1      43.270  23.838  28.511  1.00  0.00     0.074 A 
ATOM     62  C   UNL A   1      47.006  27.738  32.162  1.00  0.00     0.029 A 
ATOM     63  N   UNL A   1      46.288  25.689  31.827  1.00  0.00    -0.354 N 
ATOM     64  N   UNL A   1      44.440  24.277  28.134  1.00  0.00    -0.248 NA
ATOM     65  C   UNL A   1      43.196  23.363  29.885  1.00  0.00     0.031 C 
ATOM     66  C   UNL A   1      47.174  27.387  30.790  1.00  0.00     0.029 A 
ATOM     67  C   UNL A   1      46.523  26.174  30.569  1.00  0.00     0.049 A 
ATOM     68  H   UNL A   1      46.199  24.739  32.070  1.00  0.00     0.167 HD
ATOM     69  C   UNL A   1      45.116  24.543  29.317  1.00  0.00     0.074 A 
ATOM     70  C   UNL A   1      44.325  23.893  30.361  1.00  0.00     0.031 C 
ATOM     71  C   UNL A   1      46.078  25.509  29.368  1.00  0.00     0.037 A 
BRANCH  58  72
ATOM     72  C   UNL A   1      44.962  25.586  34.658  1.00  0.00     0.064 A 
ATOM     73  C   UNL A   1      45.816  25.550  35.778  1.00  0.00     0.173 A 
ATOM     74  C   UNL A   1      44.255  24.386  34.406  1.00  0.00     0.173 A 
ATOM     75  F   UNL A   1      46.525  26.633  36.132  1.00  0.00    -0.203 F 
ATOM     76  C   UNL A   1      46.048  24.374  36.495  1.00  0.00     0.198 A 
ATOM     77  C   UNL A   1      44.456  23.227  35.152  1.00  0.00     0.198 A 
ATOM     78  F   UNL A   1      43.413  24.231  33.381  1.00  0.00    -0.203 F 
ATOM     79  F   UNL A   1      46.982  24.357  37.454  1.00  0.00    -0.200 F 
ATOM     80  C   UNL A   1      45.382  23.208  36.168  1.00  0.00     0.200 A 
ATOM     81  F   UNL A   1      43.802  22.108  34.812  1.00  0.00    -0.200 F 
ATOM     82  F   UNL A   1      45.661  22.062  36.800  1.00  0.00    -0.200 F 
ENDBRANCH  58  72
BRANCH  59  83
ATOM     83  C   UNL A   1      41.005  23.214  27.402  1.00  0.00     0.064 A 
ATOM     84  C   UNL A   1      39.673  23.572  27.132  1.00  0.00     0.173 A 
ATOM     85  C   UNL A   1      41.410  21.940  26.954  1.00  0.00     0.173 A 
ATOM     86  F   UNL A   1      39.221  24.787  27.477  1.00  0.00    -0.203 F 
ATOM     87  C   UNL A   1      38.807  22.720  26.438  1.00  0.00     0.198 A 
ATOM     88  C   UNL A   1      40.543  21.088  26.268  1.00  0.00     0.198 A 
ATOM     89  F   UNL A   1      42.681  21.537  27.084  1.00  0.00    -0.203 F 
ATOM     90  F   UNL A   1      37.563  23.123  26.143  1.00  0.00    -0.200 F 
ATOM     91  C   UNL A   1      39.246  21.483  25.998  1.00  0.00     0.200 A 
ATOM     92  F   UNL A   1      40.994  19.912  25.809  1.00  0.00    -0.200 F 
ATOM     93  F   UNL A   1      38.439  20.692  25.277  1.00  0.00    -0.200 F 
ENDBRANCH  59  83
BRANCH  71  94
ATOM     94  C   UNL A   1      46.565  26.072  28.062  1.00  0.00     0.064 A 
ATOM     95  C   UNL A   1      47.629  25.534  27.316  1.00  0.00     0.173 A 
ATOM     96  C   UNL A   1      45.831  27.114  27.481  1.00  0.00     0.173 A 
ATOM     97  F   UNL A   1      48.315  24.474  27.762  1.00  0.00    -0.203 F 
ATOM     98  C   UNL A   1      47.965  26.049  26.064  1.00  0.00     0.198 A 
ATOM     99  C   UNL A   1      46.146  27.600  26.215  1.00  0.00     0.198 A 
ATOM    100  F   UNL A   1      44.772  27.629  28.124  1.00  0.00    -0.203 F 
ATOM    101  F   UNL A   1      48.993  25.528  25.376  1.00  0.00    -0.200 F 
ATOM    102  C   UNL A   1      47.217  27.076  25.512  1.00  0.00     0.200 A 
ATOM    103  F   UNL A   1      45.388  28.559  25.666  1.00  0.00    -0.200 F 
ATOM    104  F   UNL A   1      47.513  27.543  24.291  1.00  0.00    -0.200 F 
ENDBRANCH  71  94
ENDBRANCH  45  46
ENDBRANCH  38  40
ENDBRANCH  37  38
ENDBRANCH  36  37
ENDBRANCH  35  36
ENDBRANCH  34  35
ENDBRANCH  33  34
ENDBRANCH   1  33
TORSDOF 19
ENDMDL
