MODEL 1
REMARK VINA RESULT:     -12.9      0.000      0.000
REMARK SMILES C[N@@H+]1CCN(C(=O)c2ccc3[nH]c4c(c3c2)CSCC4)C[C@H]1C(=O)OCCOCCOC(=O)c1ccc(-c2c3nc(c(-c4c(F)c(F)c(F)c(F)c4F)c4ccc([nH]4)c(-c4c(F)c(F)c(F)c(F)c4F)c4nc(c(-c5c(F)c(F)c(F)c(F)c5F)c5ccc2[nH]5)C=C4)C=C3)cc1
REMARK SMILES IDX 28 1 27 2 26 3 25 4 23 5 24 6 22 7 1 8 2 9 3 10 4 12 21 13
REMARK SMILES IDX 5 14 6 15 7 16 8 17 9 18 16 19 10 20 15 21 11 22 14 23 12 24
REMARK SMILES IDX 13 25 17 26 20 28 18 29 19 30 29 31 30 32 31 33 32 34 33 35
REMARK SMILES IDX 34 36 35 37 96 38 36 39 95 40 37 41 38 42 39 43 89 44 40 45
REMARK SMILES IDX 94 46 88 47 90 48 41 49 93 50 87 51 86 52 42 54 74 55 54 56
REMARK SMILES IDX 73 57 55 58 58 59 72 60 91 61 56 62 57 63 71 65 92 66 59 67
REMARK SMILES IDX 43 68 44 69 52 70 45 71 46 72 50 73 53 74 47 75 48 76 51 77
REMARK SMILES IDX 49 78 75 79 76 80 84 81 77 82 78 83 82 84 85 85 79 86 80 87
REMARK SMILES IDX 83 88 81 89 60 90 61 91 69 92 62 93 63 94 67 95 70 96 64 97
REMARK SMILES IDX 65 98 68 99 66 100
REMARK H PARENT 2 11 12 27 90 53 58 64
REMARK Flexibility Score: inf
ROOT
ATOM      1  O   UNL A   1      36.130  22.741  24.367  1.00  0.00    -0.374 OA
ENDROOT
BRANCH   1   2
ATOM      2  C   UNL A   1      35.164  22.954  23.347  1.00  0.00     0.202 C 
BRANCH   2   3
ATOM      3  C   UNL A   1      34.352  24.259  23.321  1.00  0.00     0.261 C 
BRANCH   3   4
ATOM      4  O   UNL A   1      33.536  24.485  22.158  1.00  0.00    -0.459 OA
BRANCH   4   5
ATOM      5  C   UNL A   1      32.561  25.404  22.370  1.00  0.00     0.366 C 
ATOM      6  O   UNL A   1      31.952  25.974  21.463  1.00  0.00    -0.245 OA
BRANCH   5   7
ATOM      7  C   UNL A   1      32.321  25.805  23.809  1.00  0.00     0.314 C 
ATOM      8  C   UNL A   1      33.513  27.979  23.778  1.00  0.00     0.333 C 
ATOM      9  N   UNL A   1      32.341  27.245  24.230  1.00  0.00    -0.323 N 
ATOM     10  C   UNL A   1      32.305  27.248  25.726  1.00  0.00     0.284 C 
ATOM     11  H   UNL A   1      31.542  27.715  23.805  1.00  0.00     0.348 HD
ATOM     12  C   UNL A   1      31.098  26.481  26.322  1.00  0.00     0.181 C 
ATOM     13  C   UNL A   1      30.959  25.225  24.215  1.00  0.00     0.197 C 
ATOM     14  N   UNL A   1      30.901  25.180  25.679  1.00  0.00    -0.326 N 
BRANCH  14  15
ATOM     15  C   UNL A   1      30.726  24.036  26.442  1.00  0.00     0.254 C 
ATOM     16  O   UNL A   1      29.730  23.806  27.120  1.00  0.00    -0.269 OA
BRANCH  15  17
ATOM     17  C   UNL A   1      31.783  23.007  26.385  1.00  0.00     0.040 A 
ATOM     18  C   UNL A   1      32.887  23.057  27.240  1.00  0.00     0.016 A 
ATOM     19  C   UNL A   1      31.655  22.012  25.410  1.00  0.00     0.024 A 
ATOM     20  C   UNL A   1      33.925  22.128  27.109  1.00  0.00     0.027 A 
ATOM     21  C   UNL A   1      32.680  21.060  25.277  1.00  0.00     0.004 A 
ATOM     22  C   UNL A   1      33.791  21.142  26.122  1.00  0.00     0.046 A 
ATOM     23  C   UNL A   1      32.868  19.929  24.426  1.00  0.00    -0.009 A 
ATOM     24  N   UNL A   1      34.634  20.106  25.783  1.00  0.00    -0.358 N 
ATOM     25  C   UNL A   1      34.063  19.344  24.801  1.00  0.00     0.021 A 
ATOM     26  C   UNL A   1      31.925  19.428  23.381  1.00  0.00     0.107 C 
ATOM     27  H   UNL A   1      35.517  19.942  26.186  1.00  0.00     0.166 HD
ATOM     28  C   UNL A   1      34.660  18.092  24.260  1.00  0.00     0.065 C 
ATOM     29  S   UNL A   1      32.592  18.046  22.385  1.00  0.00    -0.157 SA
ATOM     30  C   UNL A   1      33.566  17.189  23.679  1.00  0.00     0.076 C 
ENDBRANCH  15  17
ENDBRANCH  14  15
ENDBRANCH   5   7
ENDBRANCH   4   5
ENDBRANCH   3   4
ENDBRANCH   2   3
ENDBRANCH   1   2
BRANCH   1  31
ATOM     31  C   UNL A   1      37.194  21.824  24.105  1.00  0.00     0.202 C 
BRANCH  31  32
ATOM     32  C   UNL A   1      37.975  21.253  25.300  1.00  0.00     0.261 C 
BRANCH  32  33
ATOM     33  O   UNL A   1      38.435  22.305  26.159  1.00  0.00    -0.460 OA
BRANCH  33  34
ATOM     34  C   UNL A   1      39.755  22.198  26.488  1.00  0.00     0.338 C 
ATOM     35  O   UNL A   1      40.529  21.337  26.155  1.00  0.00    -0.246 OA
BRANCH  34  36
ATOM     36  C   UNL A   1      40.140  23.549  26.950  1.00  0.00     0.060 A 
ATOM     37  C   UNL A   1      41.258  23.746  27.759  1.00  0.00     0.016 A 
ATOM     38  C   UNL A   1      39.181  24.560  26.774  1.00  0.00     0.016 A 
ATOM     39  C   UNL A   1      41.388  24.958  28.430  1.00  0.00     0.010 A 
ATOM     40  C   UNL A   1      39.305  25.761  27.467  1.00  0.00     0.010 A 
ATOM     41  C   UNL A   1      40.400  25.956  28.310  1.00  0.00    -0.014 A 
BRANCH  41  42
ATOM     42  C   UNL A   1      40.679  27.257  28.926  1.00  0.00     0.031 A 
ATOM     43  C   UNL A   1      41.910  27.914  28.401  1.00  0.00     0.074 A 
ATOM     44  C   UNL A   1      39.893  27.966  29.760  1.00  0.00     0.049 A 
ATOM     45  N   UNL A   1      42.965  28.281  29.053  1.00  0.00    -0.248 NA
ATOM     46  C   UNL A   1      41.991  28.121  26.947  1.00  0.00     0.031 C 
ATOM     47  C   UNL A   1      38.507  27.707  30.149  1.00  0.00     0.029 A 
ATOM     48  N   UNL A   1      40.174  29.160  30.375  1.00  0.00    -0.354 N 
ATOM     49  C   UNL A   1      43.798  28.886  28.117  1.00  0.00     0.074 A 
ATOM     50  C   UNL A   1      43.195  28.676  26.825  1.00  0.00     0.031 C 
ATOM     51  C   UNL A   1      38.009  28.806  30.765  1.00  0.00     0.029 A 
ATOM     52  C   UNL A   1      39.072  29.787  30.933  1.00  0.00     0.049 A 
ATOM     53  H   UNL A   1      41.082  29.538  30.416  1.00  0.00     0.167 HD
ATOM     54  C   UNL A   1      44.850  29.665  28.480  1.00  0.00     0.037 A 
ATOM     55  C   UNL A   1      39.028  31.039  31.448  1.00  0.00     0.037 A 
ATOM     56  C   UNL A   1      45.221  29.472  29.852  1.00  0.00     0.049 A 
ATOM     57  C   UNL A   1      40.406  31.448  31.806  1.00  0.00     0.074 A 
ATOM     58  C   UNL A   1      45.757  28.441  30.594  1.00  0.00     0.029 A 
ATOM     59  N   UNL A   1      44.777  30.404  30.751  1.00  0.00    -0.354 N 
ATOM     60  N   UNL A   1      41.096  30.945  32.790  1.00  0.00    -0.248 NA
ATOM     61  C   UNL A   1      41.153  32.308  30.897  1.00  0.00     0.031 C 
ATOM     62  C   UNL A   1      45.272  28.629  31.922  1.00  0.00     0.029 A 
ATOM     63  C   UNL A   1      44.457  29.762  31.917  1.00  0.00     0.049 A 
ATOM     64  H   UNL A   1      44.700  31.372  30.586  1.00  0.00     0.167 HD
ATOM     65  C   UNL A   1      42.413  31.079  32.393  1.00  0.00     0.074 A 
ATOM     66  C   UNL A   1      42.391  32.074  31.333  1.00  0.00     0.031 C 
ATOM     67  C   UNL A   1      43.344  30.151  32.751  1.00  0.00     0.037 A 
BRANCH  54  68
ATOM     68  C   UNL A   1      45.339  30.849  27.687  1.00  0.00     0.064 A 
ATOM     69  C   UNL A   1      46.679  30.891  27.254  1.00  0.00     0.173 A 
ATOM     70  C   UNL A   1      44.629  32.065  27.601  1.00  0.00     0.173 A 
ATOM     71  F   UNL A   1      47.455  29.799  27.330  1.00  0.00    -0.203 F 
ATOM     72  C   UNL A   1      47.275  32.077  26.817  1.00  0.00     0.198 A 
ATOM     73  C   UNL A   1      45.210  33.233  27.112  1.00  0.00     0.198 A 
ATOM     74  F   UNL A   1      43.388  32.192  28.089  1.00  0.00    -0.203 F 
ATOM     75  F   UNL A   1      48.583  32.095  26.525  1.00  0.00    -0.200 F 
ATOM     76  C   UNL A   1      46.541  33.246  26.747  1.00  0.00     0.200 A 
ATOM     77  F   UNL A   1      44.491  34.363  27.074  1.00  0.00    -0.200 F 
ATOM     78  F   UNL A   1      47.124  34.394  26.378  1.00  0.00    -0.200 F 
ENDBRANCH  54  68
BRANCH  55  79
ATOM     79  C   UNL A   1      37.908  32.012  31.484  1.00  0.00     0.064 A 
ATOM     80  C   UNL A   1      37.537  32.731  30.333  1.00  0.00     0.173 A 
ATOM     81  C   UNL A   1      36.998  32.035  32.556  1.00  0.00     0.173 A 
ATOM     82  F   UNL A   1      38.329  32.733  29.250  1.00  0.00    -0.203 F 
ATOM     83  C   UNL A   1      36.308  33.392  30.244  1.00  0.00     0.198 A 
ATOM     84  C   UNL A   1      35.777  32.707  32.471  1.00  0.00     0.198 A 
ATOM     85  F   UNL A   1      37.230  31.326  33.670  1.00  0.00    -0.203 F 
ATOM     86  F   UNL A   1      35.958  34.000  29.101  1.00  0.00    -0.200 F 
ATOM     87  C   UNL A   1      35.424  33.369  31.309  1.00  0.00     0.200 A 
ATOM     88  F   UNL A   1      34.915  32.650  33.496  1.00  0.00    -0.200 F 
ATOM     89  F   UNL A   1      34.219  33.944  31.200  1.00  0.00    -0.200 F 
ENDBRANCH  55  79
BRANCH  67  90
ATOM     90  C   UNL A   1      43.042  29.293  33.944  1.00  0.00     0.064 A 
ATOM     91  C   UNL A   1      42.257  28.129  33.901  1.00  0.00     0.173 A 
ATOM     92  C   UNL A   1      43.662  29.613  35.160  1.00  0.00     0.173 A 
ATOM     93  F   UNL A   1      41.712  27.706  32.752  1.00  0.00    -0.203 F 
ATOM     94  C   UNL A   1      42.062  27.353  35.042  1.00  0.00     0.198 A 
ATOM     95  C   UNL A   1      43.498  28.814  36.286  1.00  0.00     0.198 A 
ATOM     96  F   UNL A   1      44.464  30.687  35.243  1.00  0.00    -0.203 F 
ATOM     97  F   UNL A   1      41.286  26.259  34.984  1.00  0.00    -0.200 F 
ATOM     98  C   UNL A   1      42.687  27.691  36.231  1.00  0.00     0.200 A 
ATOM     99  F   UNL A   1      44.141  29.121  37.421  1.00  0.00    -0.200 F 
ATOM    100  F   UNL A   1      42.523  26.925  37.319  1.00  0.00    -0.200 F 
ENDBRANCH  67  90
ENDBRANCH  41  42
ENDBRANCH  34  36
ENDBRANCH  33  34
ENDBRANCH  32  33
ENDBRANCH  31  32
ENDBRANCH   1  31
TORSDOF 16
ENDMDL
MODEL 2
REMARK VINA RESULT:     -12.5      0.914      1.789
REMARK SMILES C[N@@H+]1CCN(C(=O)c2ccc3[nH]c4c(c3c2)CSCC4)C[C@H]1C(=O)OCCOCCOC(=O)c1ccc(-c2c3nc(c(-c4c(F)c(F)c(F)c(F)c4F)c4ccc([nH]4)c(-c4c(F)c(F)c(F)c(F)c4F)c4nc(c(-c5c(F)c(F)c(F)c(F)c5F)c5ccc2[nH]5)C=C4)C=C3)cc1
REMARK SMILES IDX 28 1 27 2 26 3 25 4 23 5 24 6 22 7 1 8 2 9 3 10 4 12 21 13
REMARK SMILES IDX 5 14 6 15 7 16 8 17 9 18 16 19 10 20 15 21 11 22 14 23 12 24
REMARK SMILES IDX 13 25 17 26 20 28 18 29 19 30 29 31 30 32 31 33 32 34 33 35
REMARK SMILES IDX 34 36 35 37 96 38 36 39 95 40 37 41 38 42 39 43 89 44 40 45
REMARK SMILES IDX 94 46 88 47 90 48 41 49 93 50 87 51 86 52 42 54 74 55 54 56
REMARK SMILES IDX 73 57 55 58 58 59 72 60 91 61 56 62 57 63 71 65 92 66 59 67
REMARK SMILES IDX 43 68 44 69 52 70 45 71 46 72 50 73 53 74 47 75 48 76 51 77
REMARK SMILES IDX 49 78 75 79 76 80 84 81 77 82 78 83 82 84 85 85 79 86 80 87
REMARK SMILES IDX 83 88 81 89 60 90 61 91 69 92 62 93 63 94 67 95 70 96 64 97
REMARK SMILES IDX 65 98 68 99 66 100
REMARK H PARENT 2 11 12 27 90 53 58 64
REMARK Flexibility Score: inf
ROOT
ATOM      1  O   UNL A   1      36.139  22.358  23.431  1.00  0.00    -0.374 OA
ENDROOT
BRANCH   1   2
ATOM      2  C   UNL A   1      34.888  22.969  23.145  1.00  0.00     0.202 C 
BRANCH   2   3
ATOM      3  C   UNL A   1      34.619  24.414  23.595  1.00  0.00     0.261 C 
BRANCH   3   4
ATOM      4  O   UNL A   1      34.100  25.311  22.599  1.00  0.00    -0.459 OA
BRANCH   4   5
ATOM      5  C   UNL A   1      32.747  25.408  22.631  1.00  0.00     0.366 C 
ATOM      6  O   UNL A   1      32.031  25.298  21.635  1.00  0.00    -0.245 OA
BRANCH   5   7
ATOM      7  C   UNL A   1      32.136  25.788  23.962  1.00  0.00     0.314 C 
ATOM      8  C   UNL A   1      32.595  28.224  23.885  1.00  0.00     0.333 C 
ATOM      9  N   UNL A   1      31.640  27.180  24.223  1.00  0.00    -0.323 N 
ATOM     10  C   UNL A   1      31.329  27.250  25.685  1.00  0.00     0.284 C 
ATOM     11  H   UNL A   1      30.828  27.347  23.628  1.00  0.00     0.348 HD
ATOM     12  C   UNL A   1      30.324  26.172  26.161  1.00  0.00     0.181 C 
ATOM     13  C   UNL A   1      30.964  24.827  24.208  1.00  0.00     0.197 C 
ATOM     14  N   UNL A   1      30.654  24.844  25.640  1.00  0.00    -0.326 N 
BRANCH  14  15
ATOM     15  C   UNL A   1      30.697  23.746  26.485  1.00  0.00     0.254 C 
ATOM     16  O   UNL A   1      29.807  23.450  27.276  1.00  0.00    -0.269 OA
BRANCH  15  17
ATOM     17  C   UNL A   1      31.865  22.848  26.382  1.00  0.00     0.040 A 
ATOM     18  C   UNL A   1      33.045  23.114  27.083  1.00  0.00     0.016 A 
ATOM     19  C   UNL A   1      31.756  21.753  25.519  1.00  0.00     0.024 A 
ATOM     20  C   UNL A   1      34.172  22.305  26.900  1.00  0.00     0.027 A 
ATOM     21  C   UNL A   1      32.873  20.920  25.338  1.00  0.00     0.004 A 
ATOM     22  C   UNL A   1      34.053  21.217  26.025  1.00  0.00     0.046 A 
ATOM     23  C   UNL A   1      33.107  19.741  24.569  1.00  0.00    -0.009 A 
ATOM     24  N   UNL A   1      34.979  20.259  25.670  1.00  0.00    -0.358 N 
ATOM     25  C   UNL A   1      34.402  19.341  24.837  1.00  0.00     0.021 A 
ATOM     26  C   UNL A   1      32.122  19.029  23.698  1.00  0.00     0.107 C 
ATOM     27  H   UNL A   1      35.916  20.241  25.971  1.00  0.00     0.166 HD
ATOM     28  C   UNL A   1      35.090  18.120  24.332  1.00  0.00     0.065 C 
ATOM     29  S   UNL A   1      32.843  17.644  22.746  1.00  0.00    -0.157 SA
ATOM     30  C   UNL A   1      34.062  17.042  23.973  1.00  0.00     0.076 C 
ENDBRANCH  15  17
ENDBRANCH  14  15
ENDBRANCH   5   7
ENDBRANCH   4   5
ENDBRANCH   3   4
ENDBRANCH   2   3
ENDBRANCH   1   2
BRANCH   1  31
ATOM     31  C   UNL A   1      36.979  22.970  24.411  1.00  0.00     0.202 C 
BRANCH  31  32
ATOM     32  C   UNL A   1      37.955  22.077  25.195  1.00  0.00     0.261 C 
BRANCH  32  33
ATOM     33  O   UNL A   1      38.434  22.748  26.368  1.00  0.00    -0.460 OA
BRANCH  33  34
ATOM     34  C   UNL A   1      39.793  22.717  26.493  1.00  0.00     0.338 C 
ATOM     35  O   UNL A   1      40.567  21.989  25.928  1.00  0.00    -0.246 OA
BRANCH  34  36
ATOM     36  C   UNL A   1      40.145  24.018  27.102  1.00  0.00     0.060 A 
ATOM     37  C   UNL A   1      41.263  24.153  27.924  1.00  0.00     0.016 A 
ATOM     38  C   UNL A   1      39.159  25.016  27.045  1.00  0.00     0.016 A 
ATOM     39  C   UNL A   1      41.366  25.285  28.726  1.00  0.00     0.010 A 
ATOM     40  C   UNL A   1      39.256  26.135  27.868  1.00  0.00     0.010 A 
ATOM     41  C   UNL A   1      40.350  26.263  28.723  1.00  0.00    -0.014 A 
BRANCH  41  42
ATOM     42  C   UNL A   1      40.600  27.493  29.481  1.00  0.00     0.031 A 
ATOM     43  C   UNL A   1      41.765  28.277  28.979  1.00  0.00     0.074 A 
ATOM     44  C   UNL A   1      39.828  28.052  30.434  1.00  0.00     0.049 A 
ATOM     45  N   UNL A   1      42.836  28.621  29.619  1.00  0.00    -0.248 NA
ATOM     46  C   UNL A   1      41.753  28.663  27.560  1.00  0.00     0.031 C 
ATOM     47  C   UNL A   1      38.481  27.671  30.857  1.00  0.00     0.029 A 
ATOM     48  N   UNL A   1      40.085  29.176  31.177  1.00  0.00    -0.354 N 
ATOM     49  C   UNL A   1      43.584  29.380  28.723  1.00  0.00     0.074 A 
ATOM     50  C   UNL A   1      42.920  29.295  27.448  1.00  0.00     0.031 C 
ATOM     51  C   UNL A   1      37.965  28.658  31.629  1.00  0.00     0.029 A 
ATOM     52  C   UNL A   1      38.986  29.669  31.863  1.00  0.00     0.049 A 
ATOM     53  H   UNL A   1      40.974  29.597  31.219  1.00  0.00     0.167 HD
ATOM     54  C   UNL A   1      44.615  30.167  29.127  1.00  0.00     0.037 A 
ATOM     55  C   UNL A   1      38.910  30.846  32.530  1.00  0.00     0.037 A 
ATOM     56  C   UNL A   1      45.072  29.831  30.444  1.00  0.00     0.049 A 
ATOM     57  C   UNL A   1      40.284  31.285  32.866  1.00  0.00     0.074 A 
ATOM     58  C   UNL A   1      45.700  28.749  31.025  1.00  0.00     0.029 A 
ATOM     59  N   UNL A   1      44.635  30.621  31.472  1.00  0.00    -0.354 N 
ATOM     60  N   UNL A   1      41.053  30.706  33.744  1.00  0.00    -0.248 NA
ATOM     61  C   UNL A   1      40.935  32.289  32.034  1.00  0.00     0.031 C 
ATOM     62  C   UNL A   1      45.282  28.748  32.388  1.00  0.00     0.029 A 
ATOM     63  C   UNL A   1      44.413  29.826  32.565  1.00  0.00     0.049 A 
ATOM     64  H   UNL A   1      44.501  31.596  31.433  1.00  0.00     0.167 HD
ATOM     65  C   UNL A   1      42.337  30.960  33.301  1.00  0.00     0.074 A 
ATOM     66  C   UNL A   1      42.206  32.073  32.376  1.00  0.00     0.031 C 
ATOM     67  C   UNL A   1      43.331  30.049  33.496  1.00  0.00     0.037 A 
BRANCH  54  68
ATOM     68  C   UNL A   1      45.000  31.464  28.463  1.00  0.00     0.064 A 
ATOM     69  C   UNL A   1      44.052  32.501  28.360  1.00  0.00     0.173 A 
ATOM     70  C   UNL A   1      46.157  31.608  27.668  1.00  0.00     0.173 A 
ATOM     71  F   UNL A   1      42.900  32.443  29.044  1.00  0.00    -0.203 F 
ATOM     72  C   UNL A   1      44.229  33.576  27.484  1.00  0.00     0.198 A 
ATOM     73  C   UNL A   1      46.356  32.709  26.838  1.00  0.00     0.198 A 
ATOM     74  F   UNL A   1      47.079  30.640  27.583  1.00  0.00    -0.203 F 
ATOM     75  F   UNL A   1      43.251  34.478  27.332  1.00  0.00    -0.200 F 
ATOM     76  C   UNL A   1      45.380  33.678  26.724  1.00  0.00     0.200 A 
ATOM     77  F   UNL A   1      47.465  32.780  26.090  1.00  0.00    -0.200 F 
ATOM     78  F   UNL A   1      45.528  34.679  25.847  1.00  0.00    -0.200 F 
ENDBRANCH  54  68
BRANCH  55  79
ATOM     79  C   UNL A   1      37.747  31.742  32.742  1.00  0.00     0.064 A 
ATOM     80  C   UNL A   1      37.363  32.133  34.039  1.00  0.00     0.173 A 
ATOM     81  C   UNL A   1      37.180  32.466  31.678  1.00  0.00     0.173 A 
ATOM     82  F   UNL A   1      37.883  31.521  35.113  1.00  0.00    -0.203 F 
ATOM     83  C   UNL A   1      36.502  33.213  34.256  1.00  0.00     0.198 A 
ATOM     84  C   UNL A   1      36.310  33.536  31.895  1.00  0.00     0.198 A 
ATOM     85  F   UNL A   1      37.536  32.213  30.410  1.00  0.00    -0.203 F 
ATOM     86  F   UNL A   1      36.223  33.604  35.507  1.00  0.00    -0.200 F 
ATOM     87  C   UNL A   1      35.986  33.921  33.184  1.00  0.00     0.200 A 
ATOM     88  F   UNL A   1      35.843  34.234  30.851  1.00  0.00    -0.200 F 
ATOM     89  F   UNL A   1      35.216  34.998  33.392  1.00  0.00    -0.200 F 
ENDBRANCH  55  79
BRANCH  67  90
ATOM     90  C   UNL A   1      43.140  29.038  34.587  1.00  0.00     0.064 A 
ATOM     91  C   UNL A   1      42.368  27.871  34.456  1.00  0.00     0.173 A 
ATOM     92  C   UNL A   1      43.855  29.212  35.780  1.00  0.00     0.173 A 
ATOM     93  F   UNL A   1      41.734  27.587  33.310  1.00  0.00    -0.203 F 
ATOM     94  C   UNL A   1      42.278  26.950  35.498  1.00  0.00     0.198 A 
ATOM     95  C   UNL A   1      43.794  28.271  36.802  1.00  0.00     0.198 A 
ATOM     96  F   UNL A   1      44.648  30.284  35.937  1.00  0.00    -0.203 F 
ATOM     97  F   UNL A   1      41.514  25.855  35.361  1.00  0.00    -0.200 F 
ATOM     98  C   UNL A   1      42.996  27.147  36.667  1.00  0.00     0.200 A 
ATOM     99  F   UNL A   1      44.526  28.444  37.911  1.00  0.00    -0.200 F 
ATOM    100  F   UNL A   1      42.932  26.243  37.655  1.00  0.00    -0.200 F 
ENDBRANCH  67  90
ENDBRANCH  41  42
ENDBRANCH  34  36
ENDBRANCH  33  34
ENDBRANCH  32  33
ENDBRANCH  31  32
ENDBRANCH   1  31
TORSDOF 16
ENDMDL
MODEL 3
REMARK VINA RESULT:     -12.4      2.454      4.841
REMARK SMILES C[N@@H+]1CCN(C(=O)c2ccc3[nH]c4c(c3c2)CSCC4)C[C@H]1C(=O)OCCOCCOC(=O)c1ccc(-c2c3nc(c(-c4c(F)c(F)c(F)c(F)c4F)c4ccc([nH]4)c(-c4c(F)c(F)c(F)c(F)c4F)c4nc(c(-c5c(F)c(F)c(F)c(F)c5F)c5ccc2[nH]5)C=C4)C=C3)cc1
REMARK SMILES IDX 28 1 27 2 26 3 25 4 23 5 24 6 22 7 1 8 2 9 3 10 4 12 21 13
REMARK SMILES IDX 5 14 6 15 7 16 8 17 9 18 16 19 10 20 15 21 11 22 14 23 12 24
REMARK SMILES IDX 13 25 17 26 20 28 18 29 19 30 29 31 30 32 31 33 32 34 33 35
REMARK SMILES IDX 34 36 35 37 96 38 36 39 95 40 37 41 38 42 39 43 89 44 40 45
REMARK SMILES IDX 94 46 88 47 90 48 41 49 93 50 87 51 86 52 42 54 74 55 54 56
REMARK SMILES IDX 73 57 55 58 58 59 72 60 91 61 56 62 57 63 71 65 92 66 59 67
REMARK SMILES IDX 43 68 44 69 52 70 45 71 46 72 50 73 53 74 47 75 48 76 51 77
REMARK SMILES IDX 49 78 75 79 76 80 84 81 77 82 78 83 82 84 85 85 79 86 80 87
REMARK SMILES IDX 83 88 81 89 60 90 61 91 69 92 62 93 63 94 67 95 70 96 64 97
REMARK SMILES IDX 65 98 68 99 66 100
REMARK H PARENT 2 11 12 27 90 53 58 64
REMARK Flexibility Score: inf
ROOT
ATOM      1  O   UNL A   1      39.152  21.976  26.342  1.00  0.00    -0.374 OA
ENDROOT
BRANCH   1   2
ATOM      2  C   UNL A   1      38.112  22.082  25.379  1.00  0.00     0.202 C 
BRANCH   2   3
ATOM      3  C   UNL A   1      36.705  22.522  25.813  1.00  0.00     0.261 C 
BRANCH   3   4
ATOM      4  O   UNL A   1      35.767  21.473  26.108  1.00  0.00    -0.459 OA
BRANCH   4   5
ATOM      5  C   UNL A   1      34.518  21.940  26.359  1.00  0.00     0.366 C 
ATOM      6  O   UNL A   1      34.037  22.031  27.490  1.00  0.00    -0.245 OA
BRANCH   5   7
ATOM      7  C   UNL A   1      33.662  22.244  25.148  1.00  0.00     0.314 C 
ATOM      8  C   UNL A   1      32.741  19.971  24.781  1.00  0.00     0.333 C 
ATOM      9  N   UNL A   1      32.470  21.400  24.805  1.00  0.00    -0.323 N 
ATOM     10  C   UNL A   1      32.019  21.839  23.448  1.00  0.00     0.284 C 
ATOM     11  H   UNL A   1      31.764  21.534  25.529  1.00  0.00     0.348 HD
ATOM     12  C   UNL A   1      31.710  23.354  23.353  1.00  0.00     0.181 C 
ATOM     13  C   UNL A   1      33.175  23.693  25.296  1.00  0.00     0.197 C 
ATOM     14  N   UNL A   1      32.756  24.169  23.974  1.00  0.00    -0.326 N 
BRANCH  14  15
ATOM     15  C   UNL A   1      33.295  25.255  23.303  1.00  0.00     0.254 C 
ATOM     16  O   UNL A   1      34.028  25.164  22.323  1.00  0.00    -0.269 OA
BRANCH  15  17
ATOM     17  C   UNL A   1      32.914  26.604  23.765  1.00  0.00     0.040 A 
ATOM     18  C   UNL A   1      33.708  27.309  24.674  1.00  0.00     0.016 A 
ATOM     19  C   UNL A   1      31.703  27.124  23.293  1.00  0.00     0.024 A 
ATOM     20  C   UNL A   1      33.283  28.544  25.173  1.00  0.00     0.027 A 
ATOM     21  C   UNL A   1      31.271  28.373  23.770  1.00  0.00     0.004 A 
ATOM     22  C   UNL A   1      32.065  29.050  24.701  1.00  0.00     0.046 A 
ATOM     23  C   UNL A   1      30.131  29.187  23.502  1.00  0.00    -0.009 A 
ATOM     24  N   UNL A   1      31.417  30.229  25.001  1.00  0.00    -0.358 N 
ATOM     25  C   UNL A   1      30.282  30.342  24.246  1.00  0.00     0.021 A 
ATOM     26  C   UNL A   1      29.021  28.889  22.546  1.00  0.00     0.107 C 
ATOM     27  H   UNL A   1      31.726  30.890  25.662  1.00  0.00     0.166 HD
ATOM     28  C   UNL A   1      29.389  31.534  24.250  1.00  0.00     0.065 C 
ATOM     29  S   UNL A   1      27.653  30.102  22.598  1.00  0.00    -0.157 SA
ATOM     30  C   UNL A   1      28.618  31.624  22.928  1.00  0.00     0.076 C 
ENDBRANCH  15  17
ENDBRANCH  14  15
ENDBRANCH   5   7
ENDBRANCH   4   5
ENDBRANCH   3   4
ENDBRANCH   2   3
ENDBRANCH   1   2
BRANCH   1  31
ATOM     31  C   UNL A   1      40.068  20.886  26.227  1.00  0.00     0.202 C 
BRANCH  31  32
ATOM     32  C   UNL A   1      41.573  21.185  26.327  1.00  0.00     0.261 C 
BRANCH  32  33
ATOM     33  O   UNL A   1      41.798  22.520  26.800  1.00  0.00    -0.460 OA
BRANCH  33  34
ATOM     34  C   UNL A   1      42.518  23.288  25.931  1.00  0.00     0.338 C 
ATOM     35  O   UNL A   1      42.867  23.005  24.814  1.00  0.00    -0.246 OA
BRANCH  34  36
ATOM     36  C   UNL A   1      42.397  24.665  26.457  1.00  0.00     0.060 A 
ATOM     37  C   UNL A   1      42.997  25.036  27.659  1.00  0.00     0.016 A 
ATOM     38  C   UNL A   1      41.431  25.480  25.844  1.00  0.00     0.016 A 
ATOM     39  C   UNL A   1      42.590  26.218  28.270  1.00  0.00     0.010 A 
ATOM     40  C   UNL A   1      41.010  26.649  26.472  1.00  0.00     0.010 A 
ATOM     41  C   UNL A   1      41.576  27.011  27.695  1.00  0.00    -0.014 A 
BRANCH  41  42
ATOM     42  C   UNL A   1      41.306  28.312  28.317  1.00  0.00     0.031 A 
ATOM     43  C   UNL A   1      42.308  29.359  27.970  1.00  0.00     0.074 A 
ATOM     44  C   UNL A   1      40.210  28.691  29.005  1.00  0.00     0.049 A 
ATOM     45  N   UNL A   1      43.067  30.038  28.767  1.00  0.00    -0.248 NA
ATOM     46  C   UNL A   1      42.534  29.625  26.541  1.00  0.00     0.031 C 
ATOM     47  C   UNL A   1      38.950  27.971  29.184  1.00  0.00     0.029 A 
ATOM     48  N   UNL A   1      39.979  29.891  29.628  1.00  0.00    -0.354 N 
ATOM     49  C   UNL A   1      43.781  30.915  27.955  1.00  0.00     0.074 A 
ATOM     50  C   UNL A   1      43.486  30.555  26.592  1.00  0.00     0.031 C 
ATOM     51  C   UNL A   1      38.025  28.820  29.692  1.00  0.00     0.029 A 
ATOM     52  C   UNL A   1      38.659  30.095  29.997  1.00  0.00     0.049 A 
ATOM     53  H   UNL A   1      40.690  30.550  29.798  1.00  0.00     0.167 HD
ATOM     54  C   UNL A   1      44.442  31.991  28.456  1.00  0.00     0.037 A 
ATOM     55  C   UNL A   1      38.120  31.244  30.471  1.00  0.00     0.037 A 
ATOM     56  C   UNL A   1      44.645  31.892  29.873  1.00  0.00     0.049 A 
ATOM     57  C   UNL A   1      39.209  32.081  31.025  1.00  0.00     0.074 A 
ATOM     58  C   UNL A   1      45.378  31.079  30.711  1.00  0.00     0.029 A 
ATOM     59  N   UNL A   1      43.784  32.594  30.672  1.00  0.00    -0.354 N 
ATOM     60  N   UNL A   1      39.872  31.809  32.114  1.00  0.00    -0.248 NA
ATOM     61  C   UNL A   1      39.752  33.168  30.221  1.00  0.00     0.031 C 
ATOM     62  C   UNL A   1      44.663  31.053  31.945  1.00  0.00     0.029 A 
ATOM     63  C   UNL A   1      43.526  31.847  31.790  1.00  0.00     0.049 A 
ATOM     64  H   UNL A   1      43.412  33.485  30.476  1.00  0.00     0.167 HD
ATOM     65  C   UNL A   1      41.111  32.388  31.919  1.00  0.00     0.074 A 
ATOM     66  C   UNL A   1      40.917  33.350  30.847  1.00  0.00     0.031 C 
ATOM     67  C   UNL A   1      42.234  31.815  32.436  1.00  0.00     0.037 A 
BRANCH  54  68
ATOM     68  C   UNL A   1      44.620  33.294  27.721  1.00  0.00     0.064 A 
ATOM     69  C   UNL A   1      45.880  33.625  27.187  1.00  0.00     0.173 A 
ATOM     70  C   UNL A   1      43.684  34.348  27.785  1.00  0.00     0.173 A 
ATOM     71  F   UNL A   1      46.855  32.706  27.116  1.00  0.00    -0.203 F 
ATOM     72  C   UNL A   1      46.194  34.930  26.796  1.00  0.00     0.198 A 
ATOM     73  C   UNL A   1      43.982  35.635  27.343  1.00  0.00     0.198 A 
ATOM     74  F   UNL A   1      42.492  34.197  28.378  1.00  0.00    -0.203 F 
ATOM     75  F   UNL A   1      47.441  35.224  26.404  1.00  0.00    -0.200 F 
ATOM     76  C   UNL A   1      45.246  35.933  26.875  1.00  0.00     0.200 A 
ATOM     77  F   UNL A   1      43.059  36.600  27.449  1.00  0.00    -0.200 F 
ATOM     78  F   UNL A   1      45.561  37.193  26.550  1.00  0.00    -0.200 F 
ENDBRANCH  54  68
BRANCH  55  79
ATOM     79  C   UNL A   1      36.746  31.784  30.314  1.00  0.00     0.064 A 
ATOM     80  C   UNL A   1      35.923  31.999  31.435  1.00  0.00     0.173 A 
ATOM     81  C   UNL A   1      36.328  32.373  29.108  1.00  0.00     0.173 A 
ATOM     82  F   UNL A   1      36.265  31.504  32.633  1.00  0.00    -0.203 F 
ATOM     83  C   UNL A   1      34.776  32.796  31.361  1.00  0.00     0.198 A 
ATOM     84  C   UNL A   1      35.176  33.157  29.032  1.00  0.00     0.198 A 
ATOM     85  F   UNL A   1      37.080  32.281  28.002  1.00  0.00    -0.203 F 
ATOM     86  F   UNL A   1      34.061  33.042  32.468  1.00  0.00    -0.200 F 
ATOM     87  C   UNL A   1      34.410  33.385  30.162  1.00  0.00     0.200 A 
ATOM     88  F   UNL A   1      34.849  33.748  27.874  1.00  0.00    -0.200 F 
ATOM     89  F   UNL A   1      33.351  34.203  30.106  1.00  0.00    -0.200 F 
ENDBRANCH  55  79
BRANCH  67  90
ATOM     90  C   UNL A   1      42.061  30.871  33.588  1.00  0.00     0.064 A 
ATOM     91  C   UNL A   1      42.080  31.260  34.938  1.00  0.00     0.173 A 
ATOM     92  C   UNL A   1      41.761  29.531  33.303  1.00  0.00     0.173 A 
ATOM     93  F   UNL A   1      42.264  32.541  35.285  1.00  0.00    -0.203 F 
ATOM     94  C   UNL A   1      41.861  30.332  35.955  1.00  0.00     0.198 A 
ATOM     95  C   UNL A   1      41.502  28.617  34.319  1.00  0.00     0.198 A 
ATOM     96  F   UNL A   1      41.680  29.118  32.028  1.00  0.00    -0.203 F 
ATOM     97  F   UNL A   1      41.909  30.720  37.239  1.00  0.00    -0.200 F 
ATOM     98  C   UNL A   1      41.565  29.014  35.645  1.00  0.00     0.200 A 
ATOM     99  F   UNL A   1      41.173  27.355  34.012  1.00  0.00    -0.200 F 
ATOM    100  F   UNL A   1      41.323  28.131  36.625  1.00  0.00    -0.200 F 
ENDBRANCH  67  90
ENDBRANCH  41  42
ENDBRANCH  34  36
ENDBRANCH  33  34
ENDBRANCH  32  33
ENDBRANCH  31  32
ENDBRANCH   1  31
TORSDOF 16
ENDMDL
