MODEL 1
REMARK VINA RESULT:     -10.8      0.000      0.000
REMARK SMILES C[C@@H]1CN(C(=O)NC(=O)CCCCC(=O)OCCOCCOC(=O)c2ccc(-c3c4nc(c(-c5c(F)c(F)c(F)c(F)c5F)c5ccc([nH]5)c(-c5c(F)c(F)c(F)c(F)c5F)c5nc(c(-c6c(F)c(F)c(F)c(F)c6F)c6ccc3[nH]6)C=C5)C=C4)cc2)CCO1
REMARK SMILES IDX 17 1 16 2 14 3 15 4 13 5 12 6 11 7 10 8 8 9 5 10 6 11 7 12
REMARK SMILES IDX 9 14 4 15 1 16 2 17 3 18 90 19 89 20 88 21 18 22 19 23 20 24
REMARK SMILES IDX 21 25 22 26 23 27 24 28 25 29 26 30 87 31 27 32 86 33 28 34
REMARK SMILES IDX 29 35 30 36 80 37 31 38 85 39 79 40 81 41 32 42 84 43 78 44
REMARK SMILES IDX 77 45 33 47 65 48 45 49 64 50 46 51 49 52 63 53 82 54 47 55
REMARK SMILES IDX 48 56 62 58 83 59 50 60 34 61 35 62 43 63 36 64 37 65 41 66
REMARK SMILES IDX 44 67 38 68 39 69 42 70 40 71 66 72 67 73 75 74 68 75 69 76
REMARK SMILES IDX 73 77 76 78 70 79 71 80 74 81 72 82 51 83 52 84 60 85 53 86
REMARK SMILES IDX 54 87 58 88 61 89 55 90 56 91 59 92 57 93
REMARK H PARENT 7 13 81 46 49 57
REMARK Flexibility Score: inf
ROOT
ATOM      1  C   UNL A   1      41.084  20.253  26.150  1.00  0.00     0.261 C 
ENDROOT
BRANCH   1   2
ATOM      2  O   UNL A   1      40.614  21.614  26.030  1.00  0.00    -0.463 OA
BRANCH   2   3
ATOM      3  C   UNL A   1      39.267  21.750  25.987  1.00  0.00     0.305 C 
ATOM      4  O   UNL A   1      38.509  20.927  25.483  1.00  0.00    -0.252 OA
BRANCH   3   5
ATOM      5  C   UNL A   1      38.718  22.947  26.735  1.00  0.00     0.123 C 
BRANCH   5   6
ATOM      6  C   UNL A   1      37.978  24.082  26.040  1.00  0.00     0.012 C 
BRANCH   6   7
ATOM      7  C   UNL A   1      36.460  24.034  25.888  1.00  0.00     0.010 C 
BRANCH   7   8
ATOM      8  C   UNL A   1      35.769  23.009  24.984  1.00  0.00     0.100 C 
BRANCH   8   9
ATOM      9  C   UNL A   1      35.589  23.282  23.511  1.00  0.00     0.227 C 
ATOM     10  C   UNL A   1      33.438  24.809  23.105  1.00  0.00     0.324 C 
ATOM     11  O   UNL A   1      33.213  25.572  22.159  1.00  0.00    -0.248 OA
ATOM     12  N   UNL A   1      34.524  23.966  22.939  1.00  0.00    -0.278 N 
ATOM     13  H   UNL A   1      34.557  23.757  21.977  1.00  0.00     0.174 HD
ATOM     14  O   UNL A   1      36.460  22.878  22.728  1.00  0.00    -0.275 OA
BRANCH  10  15
ATOM     15  N   UNL A   1      32.696  24.862  24.252  1.00  0.00    -0.320 N 
ATOM     16  C   UNL A   1      30.449  22.839  26.577  1.00  0.00     0.040 C 
ATOM     17  C   UNL A   1      30.928  24.124  25.908  1.00  0.00     0.134 C 
ATOM     18  C   UNL A   1      31.907  23.777  24.788  1.00  0.00     0.153 C 
ATOM     19  O   UNL A   1      31.589  24.916  26.896  1.00  0.00    -0.375 OA
ATOM     20  C   UNL A   1      31.976  26.170  26.323  1.00  0.00     0.182 C 
ATOM     21  C   UNL A   1      32.924  26.023  25.127  1.00  0.00     0.150 C 
ENDBRANCH  10  15
ENDBRANCH   8   9
ENDBRANCH   7   8
ENDBRANCH   6   7
ENDBRANCH   5   6
ENDBRANCH   3   5
ENDBRANCH   2   3
ENDBRANCH   1   2
BRANCH   1  22
ATOM     22  C   UNL A   1      42.534  20.136  26.641  1.00  0.00     0.202 C 
BRANCH  22  23
ATOM     23  O   UNL A   1      43.551  19.752  25.724  1.00  0.00    -0.374 OA
BRANCH  23  24
ATOM     24  C   UNL A   1      44.100  20.724  24.843  1.00  0.00     0.202 C 
BRANCH  24  25
ATOM     25  C   UNL A   1      44.431  22.122  25.390  1.00  0.00     0.261 C 
BRANCH  25  26
ATOM     26  O   UNL A   1      43.540  23.163  24.946  1.00  0.00    -0.460 OA
BRANCH  26  27
ATOM     27  C   UNL A   1      44.045  24.416  25.051  1.00  0.00     0.338 C 
ATOM     28  O   UNL A   1      45.061  24.850  24.535  1.00  0.00    -0.246 OA
BRANCH  27  29
ATOM     29  C   UNL A   1      43.123  25.306  25.779  1.00  0.00     0.060 A 
ATOM     30  C   UNL A   1      43.512  26.643  25.934  1.00  0.00     0.016 A 
ATOM     31  C   UNL A   1      42.018  24.804  26.469  1.00  0.00     0.016 A 
ATOM     32  C   UNL A   1      42.844  27.466  26.837  1.00  0.00     0.010 A 
ATOM     33  C   UNL A   1      41.356  25.629  27.389  1.00  0.00     0.010 A 
ATOM     34  C   UNL A   1      41.802  26.944  27.615  1.00  0.00    -0.014 A 
BRANCH  34  35
ATOM     35  C   UNL A   1      41.344  27.716  28.798  1.00  0.00     0.031 A 
ATOM     36  C   UNL A   1      42.122  27.600  30.084  1.00  0.00     0.074 A 
ATOM     37  C   UNL A   1      40.307  28.565  28.713  1.00  0.00     0.049 A 
ATOM     38  N   UNL A   1      41.914  28.183  31.237  1.00  0.00    -0.248 NA
ATOM     39  C   UNL A   1      43.296  26.712  30.063  1.00  0.00     0.031 C 
ATOM     40  C   UNL A   1      39.515  28.813  27.512  1.00  0.00     0.029 A 
ATOM     41  N   UNL A   1      39.744  29.383  29.663  1.00  0.00    -0.354 N 
ATOM     42  C   UNL A   1      42.925  27.730  32.076  1.00  0.00     0.074 A 
ATOM     43  C   UNL A   1      43.733  26.807  31.310  1.00  0.00     0.031 C 
ATOM     44  C   UNL A   1      38.560  29.716  27.798  1.00  0.00     0.029 A 
ATOM     45  C   UNL A   1      38.658  30.087  29.208  1.00  0.00     0.049 A 
ATOM     46  H   UNL A   1      40.088  29.457  30.582  1.00  0.00     0.167 HD
ATOM     47  C   UNL A   1      43.164  28.062  33.368  1.00  0.00     0.037 A 
ATOM     48  C   UNL A   1      37.827  30.922  29.864  1.00  0.00     0.037 A 
ATOM     49  C   UNL A   1      42.371  28.990  34.128  1.00  0.00     0.049 A 
ATOM     50  C   UNL A   1      38.074  31.218  31.322  1.00  0.00     0.074 A 
ATOM     51  C   UNL A   1      42.544  29.403  35.438  1.00  0.00     0.029 A 
ATOM     52  N   UNL A   1      41.252  29.650  33.645  1.00  0.00    -0.354 N 
ATOM     53  N   UNL A   1      39.040  30.797  32.101  1.00  0.00    -0.248 NA
ATOM     54  C   UNL A   1      37.114  32.108  31.990  1.00  0.00     0.031 C 
ATOM     55  C   UNL A   1      41.502  30.278  35.762  1.00  0.00     0.029 A 
ATOM     56  C   UNL A   1      40.708  30.447  34.639  1.00  0.00     0.049 A 
ATOM     57  H   UNL A   1      40.897  29.564  32.730  1.00  0.00     0.167 HD
ATOM     58  C   UNL A   1      38.822  31.392  33.338  1.00  0.00     0.074 A 
ATOM     59  C   UNL A   1      37.637  32.213  33.203  1.00  0.00     0.031 C 
ATOM     60  C   UNL A   1      39.536  31.268  34.483  1.00  0.00     0.037 A 
BRANCH  47  61
ATOM     61  C   UNL A   1      44.321  27.399  34.055  1.00  0.00     0.064 A 
ATOM     62  C   UNL A   1      45.608  27.958  34.037  1.00  0.00     0.173 A 
ATOM     63  C   UNL A   1      44.125  26.220  34.789  1.00  0.00     0.173 A 
ATOM     64  F   UNL A   1      45.847  29.077  33.338  1.00  0.00    -0.203 F 
ATOM     65  C   UNL A   1      46.659  27.351  34.717  1.00  0.00     0.198 A 
ATOM     66  C   UNL A   1      45.174  25.629  35.488  1.00  0.00     0.198 A 
ATOM     67  F   UNL A   1      42.913  25.649  34.840  1.00  0.00    -0.203 F 
ATOM     68  F   UNL A   1      47.888  27.883  34.662  1.00  0.00    -0.200 F 
ATOM     69  C   UNL A   1      46.440  26.192  35.449  1.00  0.00     0.200 A 
ATOM     70  F   UNL A   1      44.958  24.516  36.203  1.00  0.00    -0.200 F 
ATOM     71  F   UNL A   1      47.452  25.617  36.114  1.00  0.00    -0.200 F 
ENDBRANCH  47  61
BRANCH  48  72
ATOM     72  C   UNL A   1      36.666  31.524  29.159  1.00  0.00     0.064 A 
ATOM     73  C   UNL A   1      36.631  32.890  28.848  1.00  0.00     0.173 A 
ATOM     74  C   UNL A   1      35.549  30.748  28.813  1.00  0.00     0.173 A 
ATOM     75  F   UNL A   1      37.664  33.679  29.183  1.00  0.00    -0.203 F 
ATOM     76  C   UNL A   1      35.517  33.462  28.239  1.00  0.00     0.198 A 
ATOM     77  C   UNL A   1      34.448  31.315  28.178  1.00  0.00     0.198 A 
ATOM     78  F   UNL A   1      35.531  29.437  29.091  1.00  0.00    -0.203 F 
ATOM     79  F   UNL A   1      35.489  34.780  27.998  1.00  0.00    -0.200 F 
ATOM     80  C   UNL A   1      34.428  32.673  27.899  1.00  0.00     0.200 A 
ATOM     81  F   UNL A   1      33.403  30.546  27.841  1.00  0.00    -0.200 F 
ATOM     82  F   UNL A   1      33.355  33.223  27.313  1.00  0.00    -0.200 F 
ENDBRANCH  48  72
BRANCH  60  83
ATOM     83  C   UNL A   1      39.081  32.065  35.670  1.00  0.00     0.064 A 
ATOM     84  C   UNL A   1      38.283  31.498  36.674  1.00  0.00     0.173 A 
ATOM     85  C   UNL A   1      39.488  33.399  35.827  1.00  0.00     0.173 A 
ATOM     86  F   UNL A   1      37.858  30.231  36.562  1.00  0.00    -0.203 F 
ATOM     87  C   UNL A   1      37.888  32.246  37.780  1.00  0.00     0.198 A 
ATOM     88  C   UNL A   1      39.114  34.135  36.948  1.00  0.00     0.198 A 
ATOM     89  F   UNL A   1      40.259  33.985  34.899  1.00  0.00    -0.203 F 
ATOM     90  F   UNL A   1      37.089  31.698  38.706  1.00  0.00    -0.200 F 
ATOM     91  C   UNL A   1      38.310  33.560  37.920  1.00  0.00     0.200 A 
ATOM     92  F   UNL A   1      39.533  35.401  37.088  1.00  0.00    -0.200 F 
ATOM     93  F   UNL A   1      37.934  34.275  38.989  1.00  0.00    -0.200 F 
ENDBRANCH  60  83
ENDBRANCH  34  35
ENDBRANCH  27  29
ENDBRANCH  26  27
ENDBRANCH  25  26
ENDBRANCH  24  25
ENDBRANCH  23  24
ENDBRANCH  22  23
ENDBRANCH   1  22
TORSDOF 19
ENDMDL
MODEL 2
REMARK VINA RESULT:     -10.7      4.390      6.910
REMARK SMILES C[C@@H]1CN(C(=O)NC(=O)CCCCC(=O)OCCOCCOC(=O)c2ccc(-c3c4nc(c(-c5c(F)c(F)c(F)c(F)c5F)c5ccc([nH]5)c(-c5c(F)c(F)c(F)c(F)c5F)c5nc(c(-c6c(F)c(F)c(F)c(F)c6F)c6ccc3[nH]6)C=C5)C=C4)cc2)CCO1
REMARK SMILES IDX 17 1 16 2 14 3 15 4 13 5 12 6 11 7 10 8 8 9 5 10 6 11 7 12
REMARK SMILES IDX 9 14 4 15 1 16 2 17 3 18 90 19 89 20 88 21 18 22 19 23 20 24
REMARK SMILES IDX 21 25 22 26 23 27 24 28 25 29 26 30 87 31 27 32 86 33 28 34
REMARK SMILES IDX 29 35 30 36 80 37 31 38 85 39 79 40 81 41 32 42 84 43 78 44
REMARK SMILES IDX 77 45 33 47 65 48 45 49 64 50 46 51 49 52 63 53 82 54 47 55
REMARK SMILES IDX 48 56 62 58 83 59 50 60 34 61 35 62 43 63 36 64 37 65 41 66
REMARK SMILES IDX 44 67 38 68 39 69 42 70 40 71 66 72 67 73 75 74 68 75 69 76
REMARK SMILES IDX 73 77 76 78 70 79 71 80 74 81 72 82 51 83 52 84 60 85 53 86
REMARK SMILES IDX 54 87 58 88 61 89 55 90 56 91 59 92 57 93
REMARK H PARENT 7 13 81 46 49 57
REMARK Flexibility Score: inf
ROOT
ATOM      1  C   UNL A   1      34.766  22.066  26.256  1.00  0.00     0.261 C 
ENDROOT
BRANCH   1   2
ATOM      2  O   UNL A   1      33.727  21.829  25.281  1.00  0.00    -0.463 OA
BRANCH   2   3
ATOM      3  C   UNL A   1      32.953  22.904  24.998  1.00  0.00     0.305 C 
ATOM      4  O   UNL A   1      31.883  22.842  24.401  1.00  0.00    -0.252 OA
BRANCH   3   5
ATOM      5  C   UNL A   1      33.427  24.213  25.593  1.00  0.00     0.123 C 
BRANCH   5   6
ATOM      6  C   UNL A   1      34.409  25.132  24.880  1.00  0.00     0.012 C 
BRANCH   6   7
ATOM      7  C   UNL A   1      33.985  25.887  23.622  1.00  0.00     0.010 C 
BRANCH   7   8
ATOM      8  C   UNL A   1      33.565  25.156  22.343  1.00  0.00     0.100 C 
BRANCH   8   9
ATOM      9  C   UNL A   1      32.700  25.844  21.316  1.00  0.00     0.227 C 
ATOM     10  C   UNL A   1      30.839  27.333  22.516  1.00  0.00     0.324 C 
ATOM     11  O   UNL A   1      30.259  28.332  22.073  1.00  0.00    -0.248 OA
ATOM     12  N   UNL A   1      31.582  26.622  21.589  1.00  0.00    -0.278 N 
ATOM     13  H   UNL A   1      31.099  26.707  20.735  1.00  0.00     0.174 HD
ATOM     14  O   UNL A   1      33.000  25.725  20.120  1.00  0.00    -0.275 OA
BRANCH  10  15
ATOM     15  N   UNL A   1      30.790  27.015  23.844  1.00  0.00    -0.320 N 
ATOM     16  C   UNL A   1      31.683  28.228  27.349  1.00  0.00     0.040 C 
ATOM     17  C   UNL A   1      31.433  27.158  26.289  1.00  0.00     0.134 C 
ATOM     18  C   UNL A   1      31.329  27.819  24.917  1.00  0.00     0.153 C 
ATOM     19  O   UNL A   1      30.203  26.504  26.603  1.00  0.00    -0.375 OA
ATOM     20  C   UNL A   1      29.980  25.434  25.678  1.00  0.00     0.182 C 
ATOM     21  C   UNL A   1      29.906  25.900  24.220  1.00  0.00     0.150 C 
ENDBRANCH  10  15
ENDBRANCH   8   9
ENDBRANCH   7   8
ENDBRANCH   6   7
ENDBRANCH   5   6
ENDBRANCH   3   5
ENDBRANCH   2   3
ENDBRANCH   1   2
BRANCH   1  22
ATOM     22  C   UNL A   1      36.179  21.739  25.753  1.00  0.00     0.202 C 
BRANCH  22  23
ATOM     23  O   UNL A   1      36.514  20.391  25.447  1.00  0.00    -0.374 OA
BRANCH  23  24
ATOM     24  C   UNL A   1      37.686  20.118  24.690  1.00  0.00     0.202 C 
BRANCH  24  25
ATOM     25  C   UNL A   1      38.945  19.622  25.419  1.00  0.00     0.261 C 
BRANCH  25  26
ATOM     26  O   UNL A   1      39.984  20.610  25.558  1.00  0.00    -0.460 OA
BRANCH  26  27
ATOM     27  C   UNL A   1      40.684  20.528  26.715  1.00  0.00     0.338 C 
ATOM     28  O   UNL A   1      41.292  19.563  27.146  1.00  0.00    -0.246 OA
BRANCH  27  29
ATOM     29  C   UNL A   1      40.766  21.840  27.384  1.00  0.00     0.060 A 
ATOM     30  C   UNL A   1      40.013  22.887  26.837  1.00  0.00     0.016 A 
ATOM     31  C   UNL A   1      41.710  22.090  28.382  1.00  0.00     0.016 A 
ATOM     32  C   UNL A   1      40.252  24.200  27.232  1.00  0.00     0.010 A 
ATOM     33  C   UNL A   1      41.960  23.414  28.767  1.00  0.00     0.010 A 
ATOM     34  C   UNL A   1      41.270  24.476  28.153  1.00  0.00    -0.014 A 
BRANCH  34  35
ATOM     35  C   UNL A   1      41.740  25.879  28.294  1.00  0.00     0.031 A 
ATOM     36  C   UNL A   1      43.071  26.259  27.701  1.00  0.00     0.074 A 
ATOM     37  C   UNL A   1      40.965  26.815  28.865  1.00  0.00     0.049 A 
ATOM     38  N   UNL A   1      43.679  27.418  27.695  1.00  0.00    -0.248 NA
ATOM     39  C   UNL A   1      43.816  25.188  27.017  1.00  0.00     0.031 C 
ATOM     40  C   UNL A   1      39.633  26.587  29.419  1.00  0.00     0.029 A 
ATOM     41  N   UNL A   1      41.190  28.154  29.070  1.00  0.00    -0.354 N 
ATOM     42  C   UNL A   1      44.873  27.216  27.014  1.00  0.00     0.074 A 
ATOM     43  C   UNL A   1      44.919  25.819  26.641  1.00  0.00     0.031 C 
ATOM     44  C   UNL A   1      39.161  27.746  29.910  1.00  0.00     0.029 A 
ATOM     45  C   UNL A   1      40.168  28.789  29.731  1.00  0.00     0.049 A 
ATOM     46  H   UNL A   1      42.007  28.615  28.771  1.00  0.00     0.167 HD
ATOM     47  C   UNL A   1      45.840  28.117  26.717  1.00  0.00     0.037 A 
ATOM     48  C   UNL A   1      40.069  30.064  30.156  1.00  0.00     0.037 A 
ATOM     49  C   UNL A   1      45.791  29.509  27.075  1.00  0.00     0.049 A 
ATOM     50  C   UNL A   1      41.194  31.028  29.877  1.00  0.00     0.074 A 
ATOM     51  C   UNL A   1      46.716  30.503  26.805  1.00  0.00     0.029 A 
ATOM     52  N   UNL A   1      44.759  30.104  27.782  1.00  0.00    -0.354 N 
ATOM     53  N   UNL A   1      42.311  30.831  29.219  1.00  0.00    -0.248 NA
ATOM     54  C   UNL A   1      41.041  32.395  30.397  1.00  0.00     0.031 C 
ATOM     55  C   UNL A   1      46.265  31.690  27.389  1.00  0.00     0.029 A 
ATOM     56  C   UNL A   1      45.037  31.447  27.981  1.00  0.00     0.049 A 
ATOM     57  H   UNL A   1      43.949  29.641  28.096  1.00  0.00     0.167 HD
ATOM     58  C   UNL A   1      42.977  32.050  29.222  1.00  0.00     0.074 A 
ATOM     59  C   UNL A   1      42.135  32.986  29.936  1.00  0.00     0.031 C 
ATOM     60  C   UNL A   1      44.180  32.366  28.683  1.00  0.00     0.037 A 
BRANCH  47  61
ATOM     61  C   UNL A   1      47.053  27.621  25.987  1.00  0.00     0.064 A 
ATOM     62  C   UNL A   1      47.137  27.658  24.587  1.00  0.00     0.173 A 
ATOM     63  C   UNL A   1      48.168  27.158  26.701  1.00  0.00     0.173 A 
ATOM     64  F   UNL A   1      46.091  28.081  23.860  1.00  0.00    -0.203 F 
ATOM     65  C   UNL A   1      48.288  27.234  23.929  1.00  0.00     0.198 A 
ATOM     66  C   UNL A   1      49.326  26.758  26.041  1.00  0.00     0.198 A 
ATOM     67  F   UNL A   1      48.139  27.106  28.041  1.00  0.00    -0.203 F 
ATOM     68  F   UNL A   1      48.337  27.248  22.589  1.00  0.00    -0.200 F 
ATOM     69  C   UNL A   1      49.384  26.793  24.655  1.00  0.00     0.200 A 
ATOM     70  F   UNL A   1      50.388  26.342  26.744  1.00  0.00    -0.200 F 
ATOM     71  F   UNL A   1      50.496  26.398  24.020  1.00  0.00    -0.200 F 
ENDBRANCH  47  61
BRANCH  48  72
ATOM     72  C   UNL A   1      38.869  30.505  30.916  1.00  0.00     0.064 A 
ATOM     73  C   UNL A   1      37.741  31.017  30.262  1.00  0.00     0.173 A 
ATOM     74  C   UNL A   1      38.844  30.455  32.318  1.00  0.00     0.173 A 
ATOM     75  F   UNL A   1      37.728  31.110  28.924  1.00  0.00    -0.203 F 
ATOM     76  C   UNL A   1      36.642  31.482  30.981  1.00  0.00     0.198 A 
ATOM     77  C   UNL A   1      37.734  30.894  33.035  1.00  0.00     0.198 A 
ATOM     78  F   UNL A   1      39.900  29.977  32.992  1.00  0.00    -0.203 F 
ATOM     79  F   UNL A   1      35.596  32.013  30.333  1.00  0.00    -0.200 F 
ATOM     80  C   UNL A   1      36.637  31.415  32.366  1.00  0.00     0.200 A 
ATOM     81  F   UNL A   1      37.730  30.817  34.372  1.00  0.00    -0.200 F 
ATOM     82  F   UNL A   1      35.580  31.864  33.058  1.00  0.00    -0.200 F 
ENDBRANCH  48  72
BRANCH  60  83
ATOM     83  C   UNL A   1      44.641  33.789  28.810  1.00  0.00     0.064 A 
ATOM     84  C   UNL A   1      44.344  34.748  27.831  1.00  0.00     0.173 A 
ATOM     85  C   UNL A   1      45.349  34.206  29.948  1.00  0.00     0.173 A 
ATOM     86  F   UNL A   1      43.681  34.395  26.720  1.00  0.00    -0.203 F 
ATOM     87  C   UNL A   1      44.760  36.069  27.976  1.00  0.00     0.198 A 
ATOM     88  C   UNL A   1      45.740  35.533  30.102  1.00  0.00     0.198 A 
ATOM     89  F   UNL A   1      45.651  33.329  30.917  1.00  0.00    -0.203 F 
ATOM     90  F   UNL A   1      44.503  36.959  27.008  1.00  0.00    -0.200 F 
ATOM     91  C   UNL A   1      45.451  36.462  29.113  1.00  0.00     0.200 A 
ATOM     92  F   UNL A   1      46.396  35.914  31.207  1.00  0.00    -0.200 F 
ATOM     93  F   UNL A   1      45.844  37.735  29.253  1.00  0.00    -0.200 F 
ENDBRANCH  60  83
ENDBRANCH  34  35
ENDBRANCH  27  29
ENDBRANCH  26  27
ENDBRANCH  25  26
ENDBRANCH  24  25
ENDBRANCH  23  24
ENDBRANCH  22  23
ENDBRANCH   1  22
TORSDOF 19
ENDMDL
MODEL 3
REMARK VINA RESULT:     -10.6      1.070      2.226
REMARK SMILES C[C@@H]1CN(C(=O)NC(=O)CCCCC(=O)OCCOCCOC(=O)c2ccc(-c3c4nc(c(-c5c(F)c(F)c(F)c(F)c5F)c5ccc([nH]5)c(-c5c(F)c(F)c(F)c(F)c5F)c5nc(c(-c6c(F)c(F)c(F)c(F)c6F)c6ccc3[nH]6)C=C5)C=C4)cc2)CCO1
REMARK SMILES IDX 17 1 16 2 14 3 15 4 13 5 12 6 11 7 10 8 8 9 5 10 6 11 7 12
REMARK SMILES IDX 9 14 4 15 1 16 2 17 3 18 90 19 89 20 88 21 18 22 19 23 20 24
REMARK SMILES IDX 21 25 22 26 23 27 24 28 25 29 26 30 87 31 27 32 86 33 28 34
REMARK SMILES IDX 29 35 30 36 80 37 31 38 85 39 79 40 81 41 32 42 84 43 78 44
REMARK SMILES IDX 77 45 33 47 65 48 45 49 64 50 46 51 49 52 63 53 82 54 47 55
REMARK SMILES IDX 48 56 62 58 83 59 50 60 34 61 35 62 43 63 36 64 37 65 41 66
REMARK SMILES IDX 44 67 38 68 39 69 42 70 40 71 66 72 67 73 75 74 68 75 69 76
REMARK SMILES IDX 73 77 76 78 70 79 71 80 74 81 72 82 51 83 52 84 60 85 53 86
REMARK SMILES IDX 54 87 58 88 61 89 55 90 56 91 59 92 57 93
REMARK H PARENT 7 13 81 46 49 57
REMARK Flexibility Score: inf
ROOT
ATOM      1  C   UNL A   1      40.363  20.419  25.887  1.00  0.00     0.261 C 
ENDROOT
BRANCH   1   2
ATOM      2  O   UNL A   1      39.626  21.627  26.177  1.00  0.00    -0.463 OA
BRANCH   2   3
ATOM      3  C   UNL A   1      38.379  21.675  25.651  1.00  0.00     0.305 C 
ATOM      4  O   UNL A   1      37.783  20.698  25.206  1.00  0.00    -0.252 OA
BRANCH   3   5
ATOM      5  C   UNL A   1      37.682  23.014  25.767  1.00  0.00     0.123 C 
BRANCH   5   6
ATOM      6  C   UNL A   1      36.656  23.497  24.751  1.00  0.00     0.012 C 
BRANCH   6   7
ATOM      7  C   UNL A   1      35.165  23.449  25.078  1.00  0.00     0.010 C 
BRANCH   7   8
ATOM      8  C   UNL A   1      34.652  23.463  26.521  1.00  0.00     0.100 C 
BRANCH   8   9
ATOM      9  C   UNL A   1      33.738  22.372  27.020  1.00  0.00     0.227 C 
ATOM     10  C   UNL A   1      31.241  22.793  26.176  1.00  0.00     0.324 C 
ATOM     11  O   UNL A   1      30.345  21.960  26.002  1.00  0.00    -0.248 OA
ATOM     12  N   UNL A   1      32.361  22.326  26.844  1.00  0.00    -0.278 N 
ATOM     13  H   UNL A   1      32.030  21.657  27.487  1.00  0.00     0.174 HD
ATOM     14  O   UNL A   1      34.239  21.421  27.635  1.00  0.00    -0.275 OA
BRANCH  10  15
ATOM     15  N   UNL A   1      31.141  24.060  25.672  1.00  0.00    -0.320 N 
ATOM     16  C   UNL A   1      31.518  27.761  26.512  1.00  0.00     0.040 C 
ATOM     17  C   UNL A   1      30.912  26.581  25.759  1.00  0.00     0.134 C 
ATOM     18  C   UNL A   1      31.355  25.277  26.420  1.00  0.00     0.153 C 
ATOM     19  O   UNL A   1      31.390  26.624  24.413  1.00  0.00    -0.375 OA
ATOM     20  C   UNL A   1      30.773  25.579  23.653  1.00  0.00     0.182 C 
ATOM     21  C   UNL A   1      31.055  24.178  24.207  1.00  0.00     0.150 C 
ENDBRANCH  10  15
ENDBRANCH   8   9
ENDBRANCH   7   8
ENDBRANCH   6   7
ENDBRANCH   5   6
ENDBRANCH   3   5
ENDBRANCH   2   3
ENDBRANCH   1   2
BRANCH   1  22
ATOM     22  C   UNL A   1      41.511  20.140  26.869  1.00  0.00     0.202 C 
BRANCH  22  23
ATOM     23  O   UNL A   1      42.693  19.506  26.395  1.00  0.00    -0.374 OA
BRANCH  23  24
ATOM     24  C   UNL A   1      43.530  20.190  25.473  1.00  0.00     0.202 C 
BRANCH  24  25
ATOM     25  C   UNL A   1      43.942  21.641  25.774  1.00  0.00     0.261 C 
BRANCH  25  26
ATOM     26  O   UNL A   1      43.033  22.637  25.269  1.00  0.00    -0.460 OA
BRANCH  26  27
ATOM     27  C   UNL A   1      43.591  23.856  25.073  1.00  0.00     0.338 C 
ATOM     28  O   UNL A   1      44.529  24.132  24.344  1.00  0.00    -0.246 OA
BRANCH  27  29
ATOM     29  C   UNL A   1      42.822  24.913  25.756  1.00  0.00     0.060 A 
ATOM     30  C   UNL A   1      43.486  26.118  26.021  1.00  0.00     0.016 A 
ATOM     31  C   UNL A   1      41.566  24.659  26.308  1.00  0.00     0.016 A 
ATOM     32  C   UNL A   1      42.930  27.044  26.899  1.00  0.00     0.010 A 
ATOM     33  C   UNL A   1      41.014  25.585  27.204  1.00  0.00     0.010 A 
ATOM     34  C   UNL A   1      41.721  26.754  27.543  1.00  0.00    -0.014 A 
BRANCH  34  35
ATOM     35  C   UNL A   1      41.327  27.574  28.717  1.00  0.00     0.031 A 
ATOM     36  C   UNL A   1      42.153  27.482  29.974  1.00  0.00     0.074 A 
ATOM     37  C   UNL A   1      40.306  28.444  28.644  1.00  0.00     0.049 A 
ATOM     38  N   UNL A   1      42.003  28.106  31.115  1.00  0.00    -0.248 NA
ATOM     39  C   UNL A   1      43.305  26.567  29.937  1.00  0.00     0.031 C 
ATOM     40  C   UNL A   1      39.472  28.672  27.467  1.00  0.00     0.029 A 
ATOM     41  N   UNL A   1      39.799  29.304  29.588  1.00  0.00    -0.354 N 
ATOM     42  C   UNL A   1      43.037  27.657  31.929  1.00  0.00     0.074 A 
ATOM     43  C   UNL A   1      43.793  26.691  31.163  1.00  0.00     0.031 C 
ATOM     44  C   UNL A   1      38.550  29.605  27.760  1.00  0.00     0.029 A 
ATOM     45  C   UNL A   1      38.711  30.019  29.152  1.00  0.00     0.049 A 
ATOM     46  H   UNL A   1      40.181  29.400  30.489  1.00  0.00     0.167 HD
ATOM     47  C   UNL A   1      43.334  28.025  33.198  1.00  0.00     0.037 A 
ATOM     48  C   UNL A   1      37.926  30.893  29.812  1.00  0.00     0.037 A 
ATOM     49  C   UNL A   1      42.592  28.995  33.957  1.00  0.00     0.049 A 
ATOM     50  C   UNL A   1      38.236  31.230  31.249  1.00  0.00     0.074 A 
ATOM     51  C   UNL A   1      42.825  29.446  35.245  1.00  0.00     0.029 A 
ATOM     52  N   UNL A   1      41.469  29.665  33.497  1.00  0.00    -0.354 N 
ATOM     53  N   UNL A   1      39.224  30.812  32.004  1.00  0.00    -0.248 NA
ATOM     54  C   UNL A   1      37.323  32.163  31.924  1.00  0.00     0.031 C 
ATOM     55  C   UNL A   1      41.816  30.355  35.580  1.00  0.00     0.029 A 
ATOM     56  C   UNL A   1      40.983  30.505  34.484  1.00  0.00     0.049 A 
ATOM     57  H   UNL A   1      41.076  29.558  32.600  1.00  0.00     0.167 HD
ATOM     58  C   UNL A   1      39.067  31.451  33.227  1.00  0.00     0.074 A 
ATOM     59  C   UNL A   1      37.897  32.295  33.112  1.00  0.00     0.031 C 
ATOM     60  C   UNL A   1      39.824  31.348  34.347  1.00  0.00     0.037 A 
BRANCH  47  61
ATOM     61  C   UNL A   1      44.502  27.358  33.861  1.00  0.00     0.064 A 
ATOM     62  C   UNL A   1      44.359  26.159  34.575  1.00  0.00     0.173 A 
ATOM     63  C   UNL A   1      45.790  27.898  33.732  1.00  0.00     0.173 A 
ATOM     64  F   UNL A   1      43.145  25.611  34.737  1.00  0.00    -0.203 F 
ATOM     65  C   UNL A   1      45.463  25.532  35.146  1.00  0.00     0.198 A 
ATOM     66  C   UNL A   1      46.895  27.256  34.284  1.00  0.00     0.198 A 
ATOM     67  F   UNL A   1      45.980  29.042  33.057  1.00  0.00    -0.203 F 
ATOM     68  F   UNL A   1      45.301  24.403  35.850  1.00  0.00    -0.200 F 
ATOM     69  C   UNL A   1      46.730  26.076  34.994  1.00  0.00     0.200 A 
ATOM     70  F   UNL A   1      48.120  27.776  34.127  1.00  0.00    -0.200 F 
ATOM     71  F   UNL A   1      47.793  25.463  35.534  1.00  0.00    -0.200 F 
ENDBRANCH  47  61
BRANCH  48  72
ATOM     72  C   UNL A   1      36.751  31.499  29.133  1.00  0.00     0.064 A 
ATOM     73  C   UNL A   1      36.722  32.861  28.805  1.00  0.00     0.173 A 
ATOM     74  C   UNL A   1      35.616  30.731  28.831  1.00  0.00     0.173 A 
ATOM     75  F   UNL A   1      37.773  33.643  29.098  1.00  0.00    -0.203 F 
ATOM     76  C   UNL A   1      35.596  33.437  28.220  1.00  0.00     0.198 A 
ATOM     77  C   UNL A   1      34.502  31.302  28.221  1.00  0.00     0.198 A 
ATOM     78  F   UNL A   1      35.591  29.424  29.128  1.00  0.00    -0.203 F 
ATOM     79  F   UNL A   1      35.576  34.752  27.962  1.00  0.00    -0.200 F 
ATOM     80  C   UNL A   1      34.489  32.656  27.924  1.00  0.00     0.200 A 
ATOM     81  F   UNL A   1      33.439  30.541  27.926  1.00  0.00    -0.200 F 
ATOM     82  F   UNL A   1      33.406  33.210  27.362  1.00  0.00    -0.200 F 
ENDBRANCH  48  72
BRANCH  60  83
ATOM     83  C   UNL A   1      39.434  32.194  35.524  1.00  0.00     0.064 A 
ATOM     84  C   UNL A   1      39.918  33.500  35.683  1.00  0.00     0.173 A 
ATOM     85  C   UNL A   1      38.529  31.706  36.480  1.00  0.00     0.173 A 
ATOM     86  F   UNL A   1      40.795  34.006  34.803  1.00  0.00    -0.203 F 
ATOM     87  C   UNL A   1      39.529  34.279  36.769  1.00  0.00     0.198 A 
ATOM     88  C   UNL A   1      38.121  32.497  37.549  1.00  0.00     0.198 A 
ATOM     89  F   UNL A   1      38.031  30.465  36.369  1.00  0.00    -0.203 F 
ATOM     90  F   UNL A   1      40.037  35.509  36.925  1.00  0.00    -0.200 F 
ATOM     91  C   UNL A   1      38.626  33.780  37.697  1.00  0.00     0.200 A 
ATOM     92  F   UNL A   1      37.239  32.018  38.438  1.00  0.00    -0.200 F 
ATOM     93  F   UNL A   1      38.247  34.534  38.737  1.00  0.00    -0.200 F 
ENDBRANCH  60  83
ENDBRANCH  34  35
ENDBRANCH  27  29
ENDBRANCH  26  27
ENDBRANCH  25  26
ENDBRANCH  24  25
ENDBRANCH  23  24
ENDBRANCH  22  23
ENDBRANCH   1  22
TORSDOF 19
ENDMDL
