MODEL 1
REMARK VINA RESULT:     -12.3      0.000      0.000
REMARK SMILES COc1ccc2c(c1)[C@H]([NH2+][C@H]1CCC[C@H](C(=O)OCCOCCOC(=O)c3ccc(-c4c5nc(c(-c6c(F)c(F)c(F)c(F)c6F)c6ccc([nH]6)c(-c6c(F)c(F)c(F)c(F)c6F)c6nc(c(-c7c(F)c(F)c(F)c(F)c7F)c7ccc4[nH]7)C=C6)C=C5)cc3)C1)CC2
REMARK SMILES IDX 20 1 19 2 18 3 16 4 17 5 15 6 11 7 12 8 90 9 13 10 14 11
REMARK SMILES IDX 10 12 9 15 3 16 4 17 8 18 5 19 7 20 6 21 92 22 91 23 2 24
REMARK SMILES IDX 1 25 21 26 22 27 23 28 24 29 25 30 26 31 27 32 28 33 89 34
REMARK SMILES IDX 29 35 88 36 30 37 31 38 32 39 82 40 33 41 87 42 81 43 83 44
REMARK SMILES IDX 34 45 86 46 80 47 79 48 35 50 67 51 47 52 66 53 48 54 51 55
REMARK SMILES IDX 65 56 84 57 49 58 50 59 64 61 85 62 52 63 36 64 37 65 45 66
REMARK SMILES IDX 38 67 39 68 43 69 46 70 40 71 41 72 44 73 42 74 68 75 69 76
REMARK SMILES IDX 77 77 70 78 71 79 75 80 78 81 72 82 73 83 76 84 74 85 53 86
REMARK SMILES IDX 54 87 62 88 55 89 56 90 60 91 63 92 57 93 58 94 61 95 59 96
REMARK H PARENT 10 13 10 14 83 49 51 60
REMARK Flexibility Score: inf
ROOT
ATOM      1  C   UNL A   1      40.512  20.592  26.396  1.00  0.00     0.202 C 
ENDROOT
BRANCH   1   2
ATOM      2  C   UNL A   1      39.688  21.894  26.243  1.00  0.00     0.261 C 
BRANCH   2   3
ATOM      3  O   UNL A   1      38.359  21.808  25.722  1.00  0.00    -0.463 OA
BRANCH   3   4
ATOM      4  C   UNL A   1      37.745  23.005  25.814  1.00  0.00     0.309 C 
ATOM      5  O   UNL A   1      38.177  23.929  26.491  1.00  0.00    -0.252 OA
BRANCH   4   6
ATOM      6  C   UNL A   1      36.475  23.157  25.043  1.00  0.00     0.105 C 
ATOM      7  C   UNL A   1      34.008  23.101  25.402  1.00  0.00     0.183 C 
ATOM      8  C   UNL A   1      33.835  22.880  23.868  1.00  0.00     0.065 C 
ATOM      9  C   UNL A   1      35.337  22.426  25.746  1.00  0.00     0.080 C 
ATOM     10  C   UNL A   1      35.050  23.311  23.009  1.00  0.00     0.007 C 
ATOM     11  C   UNL A   1      36.416  22.848  23.558  1.00  0.00     0.016 C 
BRANCH   7  12
ATOM     12  N   UNL A   1      33.940  24.536  25.674  1.00  0.00    -0.338 N 
ATOM     13  H   UNL A   1      34.769  24.755  26.226  1.00  0.00     0.347 HD
ATOM     14  H   UNL A   1      33.835  24.914  24.733  1.00  0.00     0.347 HD
BRANCH  12  15
ATOM     15  C   UNL A   1      32.813  25.176  26.370  1.00  0.00     0.214 C 
ATOM     16  C   UNL A   1      30.984  27.870  24.275  1.00  0.00     0.119 A 
ATOM     17  C   UNL A   1      29.806  27.159  24.019  1.00  0.00     0.047 A 
ATOM     18  C   UNL A   1      31.965  27.313  25.113  1.00  0.00     0.056 A 
ATOM     19  C   UNL A   1      29.598  25.915  24.619  1.00  0.00     0.008 A 
ATOM     20  C   UNL A   1      31.831  26.010  25.584  1.00  0.00     0.016 A 
ATOM     21  C   UNL A   1      30.603  25.374  25.414  1.00  0.00    -0.038 A 
ATOM     22  C   UNL A   1      30.483  24.171  26.281  1.00  0.00     0.042 C 
ATOM     23  C   UNL A   1      31.906  23.979  26.815  1.00  0.00     0.075 C 
BRANCH  16  24
ATOM     24  O   UNL A   1      31.320  29.081  23.723  1.00  0.00    -0.497 OA
ATOM     25  C   UNL A   1      31.046  29.251  22.335  1.00  0.00     0.278 C 
ENDBRANCH  16  24
ENDBRANCH  12  15
ENDBRANCH   7  12
ENDBRANCH   4   6
ENDBRANCH   3   4
ENDBRANCH   2   3
ENDBRANCH   1   2
BRANCH   1  26
ATOM     26  O   UNL A   1      41.698  20.328  25.665  1.00  0.00    -0.374 OA
BRANCH  26  27
ATOM     27  C   UNL A   1      42.968  20.797  26.101  1.00  0.00     0.202 C 
BRANCH  27  28
ATOM     28  C   UNL A   1      43.772  21.758  25.225  1.00  0.00     0.261 C 
BRANCH  28  29
ATOM     29  O   UNL A   1      43.029  22.925  24.844  1.00  0.00    -0.460 OA
BRANCH  29  30
ATOM     30  C   UNL A   1      43.706  24.085  24.976  1.00  0.00     0.338 C 
ATOM     31  O   UNL A   1      44.760  24.401  24.434  1.00  0.00    -0.246 OA
BRANCH  30  32
ATOM     32  C   UNL A   1      42.905  25.052  25.737  1.00  0.00     0.060 A 
ATOM     33  C   UNL A   1      43.323  26.392  25.736  1.00  0.00     0.016 A 
ATOM     34  C   UNL A   1      41.823  24.639  26.514  1.00  0.00     0.016 A 
ATOM     35  C   UNL A   1      42.704  27.314  26.570  1.00  0.00     0.010 A 
ATOM     36  C   UNL A   1      41.217  25.560  27.370  1.00  0.00     0.010 A 
ATOM     37  C   UNL A   1      41.693  26.883  27.437  1.00  0.00    -0.014 A 
BRANCH  37  38
ATOM     38  C   UNL A   1      41.313  27.740  28.581  1.00  0.00     0.031 A 
ATOM     39  C   UNL A   1      42.124  27.627  29.842  1.00  0.00     0.074 A 
ATOM     40  C   UNL A   1      40.292  28.606  28.490  1.00  0.00     0.049 A 
ATOM     41  N   UNL A   1      41.937  28.194  31.004  1.00  0.00    -0.248 NA
ATOM     42  C   UNL A   1      43.307  26.749  29.785  1.00  0.00     0.031 C 
ATOM     43  C   UNL A   1      39.482  28.838  27.296  1.00  0.00     0.029 A 
ATOM     44  N   UNL A   1      39.754  29.444  29.433  1.00  0.00    -0.354 N 
ATOM     45  C   UNL A   1      42.964  27.731  31.817  1.00  0.00     0.074 A 
ATOM     46  C   UNL A   1      43.761  26.820  31.026  1.00  0.00     0.031 C 
ATOM     47  C   UNL A   1      38.530  29.742  27.587  1.00  0.00     0.029 A 
ATOM     48  C   UNL A   1      38.642  30.119  28.995  1.00  0.00     0.049 A 
ATOM     49  H   UNL A   1      40.130  29.550  30.338  1.00  0.00     0.167 HD
ATOM     50  C   UNL A   1      43.217  28.042  33.108  1.00  0.00     0.037 A 
ATOM     51  C   UNL A   1      37.798  30.920  29.672  1.00  0.00     0.037 A 
ATOM     52  C   UNL A   1      42.422  28.958  33.881  1.00  0.00     0.049 A 
ATOM     53  C   UNL A   1      38.063  31.191  31.133  1.00  0.00     0.074 A 
ATOM     54  C   UNL A   1      42.599  29.357  35.193  1.00  0.00     0.029 A 
ATOM     55  N   UNL A   1      41.295  29.612  33.408  1.00  0.00    -0.354 N 
ATOM     56  N   UNL A   1      39.042  30.765  31.893  1.00  0.00    -0.248 NA
ATOM     57  C   UNL A   1      37.102  32.059  31.831  1.00  0.00     0.031 C 
ATOM     58  C   UNL A   1      41.544  30.209  35.533  1.00  0.00     0.029 A 
ATOM     59  C   UNL A   1      40.750  30.393  34.412  1.00  0.00     0.049 A 
ATOM     60  H   UNL A   1      40.934  29.531  32.495  1.00  0.00     0.167 HD
ATOM     61  C   UNL A   1      38.842  31.345  33.140  1.00  0.00     0.074 A 
ATOM     62  C   UNL A   1      37.650  32.158  33.034  1.00  0.00     0.031 C 
ATOM     63  C   UNL A   1      39.579  31.219  34.272  1.00  0.00     0.037 A 
BRANCH  50  64
ATOM     64  C   UNL A   1      44.377  27.369  33.780  1.00  0.00     0.064 A 
ATOM     65  C   UNL A   1      44.232  26.156  34.468  1.00  0.00     0.173 A 
ATOM     66  C   UNL A   1      45.664  27.920  33.685  1.00  0.00     0.173 A 
ATOM     67  F   UNL A   1      43.020  25.595  34.603  1.00  0.00    -0.203 F 
ATOM     68  C   UNL A   1      45.332  25.525  35.046  1.00  0.00     0.198 A 
ATOM     69  C   UNL A   1      46.765  27.273  34.238  1.00  0.00     0.198 A 
ATOM     70  F   UNL A   1      45.857  29.080  33.039  1.00  0.00    -0.203 F 
ATOM     71  F   UNL A   1      45.165  24.384  35.729  1.00  0.00    -0.200 F 
ATOM     72  C   UNL A   1      46.598  26.078  34.921  1.00  0.00     0.200 A 
ATOM     73  F   UNL A   1      47.988  27.802  34.104  1.00  0.00    -0.200 F 
ATOM     74  F   UNL A   1      47.657  25.461  35.461  1.00  0.00    -0.200 F 
ENDBRANCH  50  64
BRANCH  51  75
ATOM     75  C   UNL A   1      36.607  31.499  28.996  1.00  0.00     0.064 A 
ATOM     76  C   UNL A   1      36.543  32.865  28.683  1.00  0.00     0.173 A 
ATOM     77  C   UNL A   1      35.486  30.711  28.694  1.00  0.00     0.173 A 
ATOM     78  F   UNL A   1      37.577  33.667  28.973  1.00  0.00    -0.203 F 
ATOM     79  C   UNL A   1      35.393  33.424  28.128  1.00  0.00     0.198 A 
ATOM     80  C   UNL A   1      34.351  31.264  28.106  1.00  0.00     0.198 A 
ATOM     81  F   UNL A   1      35.493  29.398  28.972  1.00  0.00    -0.203 F 
ATOM     82  F   UNL A   1      35.337  34.743  27.900  1.00  0.00    -0.200 F 
ATOM     83  C   UNL A   1      34.301  32.623  27.836  1.00  0.00     0.200 A 
ATOM     84  F   UNL A   1      33.302  30.483  27.815  1.00  0.00    -0.200 F 
ATOM     85  F   UNL A   1      33.193  33.162  27.308  1.00  0.00    -0.200 F 
ENDBRANCH  51  75
BRANCH  63  86
ATOM     86  C   UNL A   1      39.164  32.029  35.466  1.00  0.00     0.064 A 
ATOM     87  C   UNL A   1      38.375  31.489  36.491  1.00  0.00     0.173 A 
ATOM     88  C   UNL A   1      39.619  33.349  35.613  1.00  0.00     0.173 A 
ATOM     89  F   UNL A   1      37.904  30.237  36.393  1.00  0.00    -0.203 F 
ATOM     90  C   UNL A   1      38.039  32.248  37.610  1.00  0.00     0.198 A 
ATOM     91  C   UNL A   1      39.310  34.093  36.747  1.00  0.00     0.198 A 
ATOM     92  F   UNL A   1      40.386  33.909  34.665  1.00  0.00    -0.203 F 
ATOM     93  F   UNL A   1      37.247  31.727  38.556  1.00  0.00    -0.200 F 
ATOM     94  C   UNL A   1      38.515  33.545  37.741  1.00  0.00     0.200 A 
ATOM     95  F   UNL A   1      39.788  35.338  36.881  1.00  0.00    -0.200 F 
ATOM     96  F   UNL A   1      38.203  34.268  38.825  1.00  0.00    -0.200 F 
ENDBRANCH  63  86
ENDBRANCH  37  38
ENDBRANCH  30  32
ENDBRANCH  29  30
ENDBRANCH  28  29
ENDBRANCH  27  28
ENDBRANCH  26  27
ENDBRANCH   1  26
TORSDOF 17
ENDMDL
MODEL 2
REMARK VINA RESULT:     -11.7      4.709     10.344
REMARK SMILES COc1ccc2c(c1)[C@H]([NH2+][C@H]1CCC[C@H](C(=O)OCCOCCOC(=O)c3ccc(-c4c5nc(c(-c6c(F)c(F)c(F)c(F)c6F)c6ccc([nH]6)c(-c6c(F)c(F)c(F)c(F)c6F)c6nc(c(-c7c(F)c(F)c(F)c(F)c7F)c7ccc4[nH]7)C=C6)C=C5)cc3)C1)CC2
REMARK SMILES IDX 20 1 19 2 18 3 16 4 17 5 15 6 11 7 12 8 90 9 13 10 14 11
REMARK SMILES IDX 10 12 9 15 3 16 4 17 8 18 5 19 7 20 6 21 92 22 91 23 2 24
REMARK SMILES IDX 1 25 21 26 22 27 23 28 24 29 25 30 26 31 27 32 28 33 89 34
REMARK SMILES IDX 29 35 88 36 30 37 31 38 32 39 82 40 33 41 87 42 81 43 83 44
REMARK SMILES IDX 34 45 86 46 80 47 79 48 35 50 67 51 47 52 66 53 48 54 51 55
REMARK SMILES IDX 65 56 84 57 49 58 50 59 64 61 85 62 52 63 36 64 37 65 45 66
REMARK SMILES IDX 38 67 39 68 43 69 46 70 40 71 41 72 44 73 42 74 68 75 69 76
REMARK SMILES IDX 77 77 70 78 71 79 75 80 78 81 72 82 73 83 76 84 74 85 53 86
REMARK SMILES IDX 54 87 62 88 55 89 56 90 60 91 63 92 57 93 58 94 61 95 59 96
REMARK H PARENT 10 13 10 14 83 49 51 60
REMARK Flexibility Score: inf
ROOT
ATOM      1  C   UNL A   1      34.903  32.059  27.628  1.00  0.00     0.202 C 
ENDROOT
BRANCH   1   2
ATOM      2  C   UNL A   1      33.637  31.168  27.631  1.00  0.00     0.261 C 
BRANCH   2   3
ATOM      3  O   UNL A   1      33.556  30.089  26.696  1.00  0.00    -0.463 OA
BRANCH   3   4
ATOM      4  C   UNL A   1      32.368  30.116  26.057  1.00  0.00     0.309 C 
ATOM      5  O   UNL A   1      31.563  31.032  26.177  1.00  0.00    -0.252 OA
BRANCH   4   6
ATOM      6  C   UNL A   1      32.061  28.945  25.182  1.00  0.00     0.105 C 
ATOM      7  C   UNL A   1      33.198  26.967  24.177  1.00  0.00     0.183 C 
ATOM      8  C   UNL A   1      32.026  26.870  23.153  1.00  0.00     0.065 C 
ATOM      9  C   UNL A   1      33.326  28.460  24.483  1.00  0.00     0.080 C 
ATOM     10  C   UNL A   1      30.721  27.580  23.591  1.00  0.00     0.007 C 
ATOM     11  C   UNL A   1      30.929  28.995  24.172  1.00  0.00     0.016 C 
BRANCH   7  12
ATOM     12  N   UNL A   1      32.885  26.112  25.321  1.00  0.00    -0.338 N 
ATOM     13  H   UNL A   1      33.742  26.060  25.872  1.00  0.00     0.347 HD
ATOM     14  H   UNL A   1      32.060  26.576  25.699  1.00  0.00     0.347 HD
BRANCH  12  15
ATOM     15  C   UNL A   1      32.406  24.727  25.192  1.00  0.00     0.214 C 
ATOM     16  C   UNL A   1      35.230  22.101  24.840  1.00  0.00     0.119 A 
ATOM     17  C   UNL A   1      35.121  21.519  26.108  1.00  0.00     0.047 A 
ATOM     18  C   UNL A   1      34.312  23.091  24.447  1.00  0.00     0.056 A 
ATOM     19  C   UNL A   1      34.086  21.902  26.964  1.00  0.00     0.008 A 
ATOM     20  C   UNL A   1      33.379  23.585  25.354  1.00  0.00     0.016 A 
ATOM     21  C   UNL A   1      33.216  22.910  26.561  1.00  0.00    -0.038 A 
ATOM     22  C   UNL A   1      31.955  23.304  27.245  1.00  0.00     0.042 C 
ATOM     23  C   UNL A   1      31.485  24.521  26.442  1.00  0.00     0.075 C 
BRANCH  16  24
ATOM     24  O   UNL A   1      36.217  21.838  23.924  1.00  0.00    -0.497 OA
ATOM     25  C   UNL A   1      36.665  22.933  23.130  1.00  0.00     0.278 C 
ENDBRANCH  16  24
ENDBRANCH  12  15
ENDBRANCH   7  12
ENDBRANCH   4   6
ENDBRANCH   3   4
ENDBRANCH   2   3
ENDBRANCH   1   2
BRANCH   1  26
ATOM     26  O   UNL A   1      34.944  33.359  28.192  1.00  0.00    -0.374 OA
BRANCH  26  27
ATOM     27  C   UNL A   1      34.123  33.725  29.294  1.00  0.00     0.202 C 
BRANCH  27  28
ATOM     28  C   UNL A   1      34.665  33.628  30.720  1.00  0.00     0.261 C 
BRANCH  28  29
ATOM     29  O   UNL A   1      34.624  32.294  31.247  1.00  0.00    -0.460 OA
BRANCH  29  30
ATOM     30  C   UNL A   1      35.591  32.020  32.148  1.00  0.00     0.338 C 
ATOM     31  O   UNL A   1      35.623  32.341  33.331  1.00  0.00    -0.246 OA
BRANCH  30  32
ATOM     32  C   UNL A   1      36.567  31.086  31.570  1.00  0.00     0.060 A 
ATOM     33  C   UNL A   1      37.595  30.619  32.403  1.00  0.00     0.016 A 
ATOM     34  C   UNL A   1      36.532  30.752  30.217  1.00  0.00     0.016 A 
ATOM     35  C   UNL A   1      38.636  29.871  31.868  1.00  0.00     0.010 A 
ATOM     36  C   UNL A   1      37.590  30.022  29.675  1.00  0.00     0.010 A 
ATOM     37  C   UNL A   1      38.668  29.628  30.490  1.00  0.00    -0.014 A 
BRANCH  37  38
ATOM     38  C   UNL A   1      39.936  29.193  29.866  1.00  0.00     0.031 A 
ATOM     39  C   UNL A   1      41.031  30.214  29.716  1.00  0.00     0.074 A 
ATOM     40  C   UNL A   1      40.114  27.924  29.467  1.00  0.00     0.049 A 
ATOM     41  N   UNL A   1      42.190  30.108  29.121  1.00  0.00    -0.248 NA
ATOM     42  C   UNL A   1      40.780  31.537  30.315  1.00  0.00     0.031 C 
ATOM     43  C   UNL A   1      39.142  26.845  29.622  1.00  0.00     0.029 A 
ATOM     44  N   UNL A   1      41.178  27.336  28.831  1.00  0.00    -0.354 N 
ATOM     45  C   UNL A   1      42.796  31.350  29.260  1.00  0.00     0.074 A 
ATOM     46  C   UNL A   1      41.873  32.202  29.976  1.00  0.00     0.031 C 
ATOM     47  C   UNL A   1      39.646  25.726  29.072  1.00  0.00     0.029 A 
ATOM     48  C   UNL A   1      40.955  26.025  28.493  1.00  0.00     0.049 A 
ATOM     49  H   UNL A   1      42.019  27.809  28.637  1.00  0.00     0.167 HD
ATOM     50  C   UNL A   1      44.017  31.740  28.829  1.00  0.00     0.037 A 
ATOM     51  C   UNL A   1      41.714  25.181  27.767  1.00  0.00     0.037 A 
ATOM     52  C   UNL A   1      44.930  30.880  28.127  1.00  0.00     0.049 A 
ATOM     53  C   UNL A   1      43.040  25.667  27.234  1.00  0.00     0.074 A 
ATOM     54  C   UNL A   1      46.199  31.168  27.659  1.00  0.00     0.029 A 
ATOM     55  N   UNL A   1      44.665  29.561  27.789  1.00  0.00    -0.354 N 
ATOM     56  N   UNL A   1      43.617  26.835  27.381  1.00  0.00    -0.248 NA
ATOM     57  C   UNL A   1      43.823  24.712  26.435  1.00  0.00     0.031 C 
ATOM     58  C   UNL A   1      46.679  30.041  26.985  1.00  0.00     0.029 A 
ATOM     59  C   UNL A   1      45.738  29.030  27.094  1.00  0.00     0.049 A 
ATOM     60  H   UNL A   1      43.837  29.076  28.009  1.00  0.00     0.167 HD
ATOM     61  C   UNL A   1      44.843  26.743  26.734  1.00  0.00     0.074 A 
ATOM     62  C   UNL A   1      44.930  25.402  26.197  1.00  0.00     0.031 C 
ATOM     63  C   UNL A   1      45.813  27.681  26.597  1.00  0.00     0.037 A 
BRANCH  50  64
ATOM     64  C   UNL A   1      44.428  33.162  29.072  1.00  0.00     0.064 A 
ATOM     65  C   UNL A   1      44.152  34.181  28.148  1.00  0.00     0.173 A 
ATOM     66  C   UNL A   1      45.059  33.519  30.273  1.00  0.00     0.173 A 
ATOM     67  F   UNL A   1      43.567  33.891  26.976  1.00  0.00    -0.203 F 
ATOM     68  C   UNL A   1      44.502  35.503  28.415  1.00  0.00     0.198 A 
ATOM     69  C   UNL A   1      45.380  34.844  30.549  1.00  0.00     0.198 A 
ATOM     70  F   UNL A   1      45.347  32.582  31.190  1.00  0.00    -0.203 F 
ATOM     71  F   UNL A   1      44.260  36.455  27.503  1.00  0.00    -0.200 F 
ATOM     72  C   UNL A   1      45.106  35.835  29.619  1.00  0.00     0.200 A 
ATOM     73  F   UNL A   1      45.952  35.164  31.718  1.00  0.00    -0.200 F 
ATOM     74  F   UNL A   1      45.426  37.109  29.882  1.00  0.00    -0.200 F 
ENDBRANCH  50  64
BRANCH  51  75
ATOM     75  C   UNL A   1      41.234  23.805  27.470  1.00  0.00     0.064 A 
ATOM     76  C   UNL A   1      41.880  22.681  28.004  1.00  0.00     0.173 A 
ATOM     77  C   UNL A   1      40.152  23.582  26.606  1.00  0.00     0.173 A 
ATOM     78  F   UNL A   1      42.935  22.838  28.817  1.00  0.00    -0.203 F 
ATOM     79  C   UNL A   1      41.484  21.390  27.658  1.00  0.00     0.198 A 
ATOM     80  C   UNL A   1      39.734  22.292  26.289  1.00  0.00     0.198 A 
ATOM     81  F   UNL A   1      39.498  24.622  26.066  1.00  0.00    -0.203 F 
ATOM     82  F   UNL A   1      42.161  20.335  28.133  1.00  0.00    -0.200 F 
ATOM     83  C   UNL A   1      40.409  21.197  26.805  1.00  0.00     0.200 A 
ATOM     84  F   UNL A   1      38.687  22.111  25.472  1.00  0.00    -0.200 F 
ATOM     85  F   UNL A   1      40.033  19.955  26.467  1.00  0.00    -0.200 F 
ENDBRANCH  51  75
BRANCH  63  86
ATOM     86  C   UNL A   1      47.080  27.275  25.901  1.00  0.00     0.064 A 
ATOM     87  C   UNL A   1      47.272  27.483  24.528  1.00  0.00     0.173 A 
ATOM     88  C   UNL A   1      48.142  26.728  26.638  1.00  0.00     0.173 A 
ATOM     89  F   UNL A   1      46.284  27.992  23.777  1.00  0.00    -0.203 F 
ATOM     90  C   UNL A   1      48.474  27.138  23.915  1.00  0.00     0.198 A 
ATOM     91  C   UNL A   1      49.353  26.416  26.029  1.00  0.00     0.198 A 
ATOM     92  F   UNL A   1      48.013  26.519  27.958  1.00  0.00    -0.203 F 
ATOM     93  F   UNL A   1      48.620  27.304  22.594  1.00  0.00    -0.200 F 
ATOM     94  C   UNL A   1      49.516  26.615  24.667  1.00  0.00     0.200 A 
ATOM     95  F   UNL A   1      50.365  25.929  26.761  1.00  0.00    -0.200 F 
ATOM     96  F   UNL A   1      50.676  26.297  24.077  1.00  0.00    -0.200 F 
ENDBRANCH  63  86
ENDBRANCH  37  38
ENDBRANCH  30  32
ENDBRANCH  29  30
ENDBRANCH  28  29
ENDBRANCH  27  28
ENDBRANCH  26  27
ENDBRANCH   1  26
TORSDOF 17
ENDMDL
MODEL 3
REMARK VINA RESULT:     -11.5      3.120      8.863
REMARK SMILES COc1ccc2c(c1)[C@H]([NH2+][C@H]1CCC[C@H](C(=O)OCCOCCOC(=O)c3ccc(-c4c5nc(c(-c6c(F)c(F)c(F)c(F)c6F)c6ccc([nH]6)c(-c6c(F)c(F)c(F)c(F)c6F)c6nc(c(-c7c(F)c(F)c(F)c(F)c7F)c7ccc4[nH]7)C=C6)C=C5)cc3)C1)CC2
REMARK SMILES IDX 20 1 19 2 18 3 16 4 17 5 15 6 11 7 12 8 90 9 13 10 14 11
REMARK SMILES IDX 10 12 9 15 3 16 4 17 8 18 5 19 7 20 6 21 92 22 91 23 2 24
REMARK SMILES IDX 1 25 21 26 22 27 23 28 24 29 25 30 26 31 27 32 28 33 89 34
REMARK SMILES IDX 29 35 88 36 30 37 31 38 32 39 82 40 33 41 87 42 81 43 83 44
REMARK SMILES IDX 34 45 86 46 80 47 79 48 35 50 67 51 47 52 66 53 48 54 51 55
REMARK SMILES IDX 65 56 84 57 49 58 50 59 64 61 85 62 52 63 36 64 37 65 45 66
REMARK SMILES IDX 38 67 39 68 43 69 46 70 40 71 41 72 44 73 42 74 68 75 69 76
REMARK SMILES IDX 77 77 70 78 71 79 75 80 78 81 72 82 73 83 76 84 74 85 53 86
REMARK SMILES IDX 54 87 62 88 55 89 56 90 60 91 63 92 57 93 58 94 61 95 59 96
REMARK H PARENT 10 13 10 14 83 49 51 60
REMARK Flexibility Score: inf
ROOT
ATOM      1  C   UNL A   1      32.823  29.669  25.819  1.00  0.00     0.202 C 
ENDROOT
BRANCH   1   2
ATOM      2  C   UNL A   1      32.426  28.891  24.541  1.00  0.00     0.261 C 
BRANCH   2   3
ATOM      3  O   UNL A   1      31.086  29.006  24.056  1.00  0.00    -0.463 OA
BRANCH   3   4
ATOM      4  C   UNL A   1      30.785  27.953  23.268  1.00  0.00     0.309 C 
ATOM      5  O   UNL A   1      30.425  28.069  22.103  1.00  0.00    -0.252 OA
BRANCH   4   6
ATOM      6  C   UNL A   1      30.902  26.603  23.896  1.00  0.00     0.105 C 
ATOM      7  C   UNL A   1      31.713  24.309  23.350  1.00  0.00     0.183 C 
ATOM      8  C   UNL A   1      30.850  23.771  24.532  1.00  0.00     0.065 C 
ATOM      9  C   UNL A   1      30.941  25.520  22.823  1.00  0.00     0.080 C 
ATOM     10  C   UNL A   1      30.465  24.834  25.591  1.00  0.00     0.007 C 
ATOM     11  C   UNL A   1      29.957  26.167  25.001  1.00  0.00     0.016 C 
BRANCH   7  12
ATOM     12  N   UNL A   1      33.060  24.587  23.847  1.00  0.00    -0.338 N 
ATOM     13  H   UNL A   1      33.697  24.274  23.114  1.00  0.00     0.347 HD
ATOM     14  H   UNL A   1      32.989  25.577  24.077  1.00  0.00     0.347 HD
BRANCH  12  15
ATOM     15  C   UNL A   1      33.590  24.034  25.103  1.00  0.00     0.214 C 
ATOM     16  C   UNL A   1      34.353  20.240  24.966  1.00  0.00     0.119 A 
ATOM     17  C   UNL A   1      35.750  20.317  24.962  1.00  0.00     0.047 A 
ATOM     18  C   UNL A   1      33.591  21.414  25.103  1.00  0.00     0.056 A 
ATOM     19  C   UNL A   1      36.381  21.553  25.124  1.00  0.00     0.008 A 
ATOM     20  C   UNL A   1      34.213  22.659  25.106  1.00  0.00     0.016 A 
ATOM     21  C   UNL A   1      35.601  22.700  25.221  1.00  0.00    -0.038 A 
ATOM     22  C   UNL A   1      36.082  24.058  25.591  1.00  0.00     0.042 C 
ATOM     23  C   UNL A   1      34.834  24.931  25.422  1.00  0.00     0.075 C 
BRANCH  16  24
ATOM     24  O   UNL A   1      33.616  19.097  24.782  1.00  0.00    -0.497 OA
ATOM     25  C   UNL A   1      34.311  17.960  24.277  1.00  0.00     0.278 C 
ENDBRANCH  16  24
ENDBRANCH  12  15
ENDBRANCH   7  12
ENDBRANCH   4   6
ENDBRANCH   3   4
ENDBRANCH   2   3
ENDBRANCH   1   2
BRANCH   1  26
ATOM     26  O   UNL A   1      31.884  30.318  26.660  1.00  0.00    -0.374 OA
BRANCH  26  27
ATOM     27  C   UNL A   1      31.377  31.612  26.360  1.00  0.00     0.202 C 
BRANCH  27  28
ATOM     28  C   UNL A   1      31.773  32.810  27.223  1.00  0.00     0.261 C 
BRANCH  28  29
ATOM     29  O   UNL A   1      33.119  33.249  26.990  1.00  0.00    -0.460 OA
BRANCH  29  30
ATOM     30  C   UNL A   1      33.760  33.693  28.091  1.00  0.00     0.338 C 
ATOM     31  O   UNL A   1      33.349  34.497  28.922  1.00  0.00    -0.246 OA
BRANCH  30  32
ATOM     32  C   UNL A   1      34.997  32.929  28.297  1.00  0.00     0.060 A 
ATOM     33  C   UNL A   1      34.888  31.537  28.438  1.00  0.00     0.016 A 
ATOM     34  C   UNL A   1      36.225  33.571  28.446  1.00  0.00     0.016 A 
ATOM     35  C   UNL A   1      35.999  30.786  28.800  1.00  0.00     0.010 A 
ATOM     36  C   UNL A   1      37.336  32.821  28.834  1.00  0.00     0.010 A 
ATOM     37  C   UNL A   1      37.210  31.437  29.063  1.00  0.00    -0.014 A 
BRANCH  37  38
ATOM     38  C   UNL A   1      38.262  30.722  29.816  1.00  0.00     0.031 A 
ATOM     39  C   UNL A   1      38.432  31.054  31.272  1.00  0.00     0.074 A 
ATOM     40  C   UNL A   1      39.027  29.790  29.225  1.00  0.00     0.049 A 
ATOM     41  N   UNL A   1      39.336  30.639  32.120  1.00  0.00    -0.248 NA
ATOM     42  C   UNL A   1      37.449  31.987  31.851  1.00  0.00     0.031 C 
ATOM     43  C   UNL A   1      38.904  29.350  27.838  1.00  0.00     0.029 A 
ATOM     44  N   UNL A   1      40.074  29.057  29.723  1.00  0.00    -0.354 N 
ATOM     45  C   UNL A   1      39.041  31.271  33.321  1.00  0.00     0.074 A 
ATOM     46  C   UNL A   1      37.888  32.113  33.093  1.00  0.00     0.031 C 
ATOM     47  C   UNL A   1      39.859  28.437  27.586  1.00  0.00     0.029 A 
ATOM     48  C   UNL A   1      40.680  28.262  28.783  1.00  0.00     0.049 A 
ATOM     49  H   UNL A   1      40.362  29.097  30.664  1.00  0.00     0.167 HD
ATOM     50  C   UNL A   1      39.677  31.154  34.509  1.00  0.00     0.037 A 
ATOM     51  C   UNL A   1      41.793  27.510  28.879  1.00  0.00     0.037 A 
ATOM     52  C   UNL A   1      40.817  30.305  34.725  1.00  0.00     0.049 A 
ATOM     53  C   UNL A   1      42.527  27.456  30.197  1.00  0.00     0.074 A 
ATOM     54  C   UNL A   1      41.529  30.098  35.893  1.00  0.00     0.029 A 
ATOM     55  N   UNL A   1      41.413  29.525  33.746  1.00  0.00    -0.354 N 
ATOM     56  N   UNL A   1      42.236  28.041  31.334  1.00  0.00    -0.248 NA
ATOM     57  C   UNL A   1      43.745  26.633  30.245  1.00  0.00     0.031 C 
ATOM     58  C   UNL A   1      42.592  29.238  35.607  1.00  0.00     0.029 A 
ATOM     59  C   UNL A   1      42.501  28.855  34.278  1.00  0.00     0.049 A 
ATOM     60  H   UNL A   1      41.109  29.458  32.812  1.00  0.00     0.167 HD
ATOM     61  C   UNL A   1      43.204  27.624  32.239  1.00  0.00     0.074 A 
ATOM     62  C   UNL A   1      44.089  26.733  31.521  1.00  0.00     0.031 C 
ATOM     63  C   UNL A   1      43.349  27.947  33.549  1.00  0.00     0.037 A 
BRANCH  50  64
ATOM     64  C   UNL A   1      39.182  31.982  35.658  1.00  0.00     0.064 A 
ATOM     65  C   UNL A   1      38.308  31.462  36.623  1.00  0.00     0.173 A 
ATOM     66  C   UNL A   1      39.635  33.300  35.824  1.00  0.00     0.173 A 
ATOM     67  F   UNL A   1      37.831  30.213  36.501  1.00  0.00    -0.203 F 
ATOM     68  C   UNL A   1      37.897  32.235  37.707  1.00  0.00     0.198 A 
ATOM     69  C   UNL A   1      39.246  34.059  36.923  1.00  0.00     0.198 A 
ATOM     70  F   UNL A   1      40.471  33.846  34.928  1.00  0.00    -0.203 F 
ATOM     71  F   UNL A   1      37.034  31.730  38.599  1.00  0.00    -0.200 F 
ATOM     72  C   UNL A   1      38.375  33.528  37.862  1.00  0.00     0.200 A 
ATOM     73  F   UNL A   1      39.719  35.303  37.077  1.00  0.00    -0.200 F 
ATOM     74  F   UNL A   1      37.993  34.264  38.914  1.00  0.00    -0.200 F 
ENDBRANCH  50  64
BRANCH  51  75
ATOM     75  C   UNL A   1      42.307  26.772  27.694  1.00  0.00     0.064 A 
ATOM     76  C   UNL A   1      41.901  25.457  27.427  1.00  0.00     0.173 A 
ATOM     77  C   UNL A   1      43.252  27.348  26.832  1.00  0.00     0.173 A 
ATOM     78  F   UNL A   1      41.018  24.852  28.234  1.00  0.00    -0.203 F 
ATOM     79  C   UNL A   1      42.446  24.735  26.366  1.00  0.00     0.198 A 
ATOM     80  C   UNL A   1      43.769  26.639  25.750  1.00  0.00     0.198 A 
ATOM     81  F   UNL A   1      43.675  28.604  27.040  1.00  0.00    -0.203 F 
ATOM     82  F   UNL A   1      42.089  23.458  26.175  1.00  0.00    -0.200 F 
ATOM     83  C   UNL A   1      43.376  25.329  25.527  1.00  0.00     0.200 A 
ATOM     84  F   UNL A   1      44.660  27.221  24.935  1.00  0.00    -0.200 F 
ATOM     85  F   UNL A   1      43.906  24.632  24.511  1.00  0.00    -0.200 F 
ENDBRANCH  51  75
BRANCH  63  86
ATOM     86  C   UNL A   1      44.458  27.283  34.311  1.00  0.00     0.064 A 
ATOM     87  C   UNL A   1      44.294  26.031  34.921  1.00  0.00     0.173 A 
ATOM     88  C   UNL A   1      45.725  27.884  34.375  1.00  0.00     0.173 A 
ATOM     89  F   UNL A   1      43.101  25.420  34.899  1.00  0.00    -0.203 F 
ATOM     90  C   UNL A   1      45.353  25.416  35.585  1.00  0.00     0.198 A 
ATOM     91  C   UNL A   1      46.789  27.251  35.010  1.00  0.00     0.198 A 
ATOM     92  F   UNL A   1      45.937  29.077  33.799  1.00  0.00    -0.203 F 
ATOM     93  F   UNL A   1      45.162  24.240  36.199  1.00  0.00    -0.200 F 
ATOM     94  C   UNL A   1      46.600  26.021  35.620  1.00  0.00     0.200 A 
ATOM     95  F   UNL A   1      47.999  27.829  35.025  1.00  0.00    -0.200 F 
ATOM     96  F   UNL A   1      47.621  25.420  36.247  1.00  0.00    -0.200 F 
ENDBRANCH  63  86
ENDBRANCH  37  38
ENDBRANCH  30  32
ENDBRANCH  29  30
ENDBRANCH  28  29
ENDBRANCH  27  28
ENDBRANCH  26  27
ENDBRANCH   1  26
TORSDOF 17
ENDMDL
