MODEL 1
REMARK VINA RESULT:     -12.0      0.000      0.000
REMARK SMILES Cc1cc(Br)cc2c1O[C@H](C(F)(F)F)C(C(=O)OCCOCCOC(=O)c1ccc(-c3c4nc(c(-c5c(F)c(F)c(F)c(F)c5F)c5ccc([nH]5)c(-c5c(F)c(F)c(F)c(F)c5F)c5nc(c(-c6c(F)c(F)c(F)c(F)c6F)c6ccc3[nH]6)C=C5)C=C4)cc1)=C2
REMARK SMILES IDX 22 1 21 2 20 3 19 4 18 5 16 6 17 7 15 8 1 9 2 10 3 11 8 12
REMARK SMILES IDX 4 13 7 14 9 15 5 16 6 17 90 18 10 19 11 20 12 21 13 22 14 23
REMARK SMILES IDX 23 24 24 25 25 26 26 27 27 28 28 29 89 30 29 31 88 32 30 33
REMARK SMILES IDX 31 34 32 35 82 36 33 37 87 38 81 39 83 40 34 41 86 42 80 43
REMARK SMILES IDX 79 44 35 46 67 47 47 48 66 49 48 50 51 51 65 52 84 53 49 54
REMARK SMILES IDX 50 55 64 57 85 58 52 59 36 60 37 61 45 62 38 63 39 64 43 65
REMARK SMILES IDX 46 66 40 67 41 68 44 69 42 70 68 71 69 72 77 73 70 74 71 75
REMARK SMILES IDX 75 76 78 77 72 78 73 79 76 80 74 81 53 82 54 83 62 84 55 85
REMARK SMILES IDX 56 86 60 87 63 88 57 89 58 90 61 91 59 92
REMARK H PARENT 83 45 51 56
REMARK Flexibility Score: inf
ROOT
ATOM      1  C   UNL A   1      31.826  30.059  25.881  1.00  0.00     0.202 C 
ENDROOT
BRANCH   1   2
ATOM      2  O   UNL A   1      33.051  29.516  25.383  1.00  0.00    -0.374 OA
BRANCH   2   3
ATOM      3  C   UNL A   1      33.685  28.495  26.149  1.00  0.00     0.202 C 
BRANCH   3   4
ATOM      4  C   UNL A   1      33.793  27.117  25.491  1.00  0.00     0.261 C 
BRANCH   4   5
ATOM      5  O   UNL A   1      33.513  27.179  24.083  1.00  0.00    -0.460 OA
BRANCH   5   6
ATOM      6  C   UNL A   1      32.698  26.200  23.628  1.00  0.00     0.338 C 
ATOM      7  O   UNL A   1      32.988  25.023  23.461  1.00  0.00    -0.246 OA
BRANCH   6   8
ATOM      8  C   UNL A   1      31.331  26.722  23.457  1.00  0.00     0.087 C 
ATOM      9  C   UNL A   1      26.340  27.941  23.876  1.00  0.00     0.048 C 
ATOM     10  C   UNL A   1      27.555  28.507  23.195  1.00  0.00    -0.007 A 
ATOM     11  C   UNL A   1      27.447  29.761  22.570  1.00  0.00     0.023 A 
ATOM     12  C   UNL A   1      28.805  27.865  23.228  1.00  0.00     0.130 A 
ATOM     13  C   UNL A   1      28.559  30.349  21.970  1.00  0.00     0.019 A 
ATOM     14  C   UNL A   1      29.922  28.477  22.647  1.00  0.00     0.019 A 
ATOM     15  O   UNL A   1      28.866  26.640  23.833  1.00  0.00    -0.475 OA
ATOM     16  Br  UNL A   1      28.396  32.035  21.134  1.00  0.00    -0.051 Br
ATOM     17  C   UNL A   1      29.794  29.712  22.003  1.00  0.00     0.027 A 
ATOM     18  C   UNL A   1      31.231  27.862  22.761  1.00  0.00     0.027 C 
ATOM     19  C   UNL A   1      30.155  26.006  24.059  1.00  0.00     0.316 C 
BRANCH  19  20
ATOM     20  C   UNL A   1      30.315  25.772  25.568  1.00  0.00     0.430 C 
ATOM     21  F   UNL A   1      29.160  25.323  26.118  1.00  0.00    -0.167 F 
ATOM     22  F   UNL A   1      31.256  24.835  25.835  1.00  0.00    -0.167 F 
ATOM     23  F   UNL A   1      30.666  26.899  26.225  1.00  0.00    -0.167 F 
ENDBRANCH  19  20
ENDBRANCH   6   8
ENDBRANCH   5   6
ENDBRANCH   4   5
ENDBRANCH   3   4
ENDBRANCH   2   3
ENDBRANCH   1   2
BRANCH   1  24
ATOM     24  C   UNL A   1      31.861  31.516  26.357  1.00  0.00     0.261 C 
BRANCH  24  25
ATOM     25  O   UNL A   1      32.528  31.648  27.628  1.00  0.00    -0.460 OA
BRANCH  25  26
ATOM     26  C   UNL A   1      33.458  32.627  27.684  1.00  0.00     0.338 C 
ATOM     27  O   UNL A   1      33.274  33.837  27.612  1.00  0.00    -0.246 OA
BRANCH  26  28
ATOM     28  C   UNL A   1      34.768  32.058  28.037  1.00  0.00     0.060 A 
ATOM     29  C   UNL A   1      34.828  30.687  28.316  1.00  0.00     0.016 A 
ATOM     30  C   UNL A   1      35.897  32.866  28.191  1.00  0.00     0.016 A 
ATOM     31  C   UNL A   1      36.007  30.124  28.794  1.00  0.00     0.010 A 
ATOM     32  C   UNL A   1      37.077  32.302  28.686  1.00  0.00     0.010 A 
ATOM     33  C   UNL A   1      37.125  30.937  29.023  1.00  0.00    -0.014 A 
BRANCH  33  34
ATOM     34  C   UNL A   1      38.280  30.382  29.770  1.00  0.00     0.031 A 
ATOM     35  C   UNL A   1      38.491  30.805  31.196  1.00  0.00     0.074 A 
ATOM     36  C   UNL A   1      39.091  29.471  29.206  1.00  0.00     0.049 A 
ATOM     37  N   UNL A   1      39.420  30.440  32.042  1.00  0.00    -0.248 NA
ATOM     38  C   UNL A   1      37.518  31.763  31.747  1.00  0.00     0.031 C 
ATOM     39  C   UNL A   1      38.954  28.944  27.851  1.00  0.00     0.029 A 
ATOM     40  N   UNL A   1      40.188  28.820  29.713  1.00  0.00    -0.354 N 
ATOM     41  C   UNL A   1      39.139  31.113  33.223  1.00  0.00     0.074 A 
ATOM     42  C   UNL A   1      37.976  31.937  32.979  1.00  0.00     0.031 C 
ATOM     43  C   UNL A   1      39.930  28.047  27.632  1.00  0.00     0.029 A 
ATOM     44  C   UNL A   1      40.776  27.957  28.822  1.00  0.00     0.049 A 
ATOM     45  H   UNL A   1      40.522  28.960  30.629  1.00  0.00     0.167 HD
ATOM     46  C   UNL A   1      39.784  31.036  34.411  1.00  0.00     0.037 A 
ATOM     47  C   UNL A   1      41.877  27.193  28.952  1.00  0.00     0.037 A 
ATOM     48  C   UNL A   1      40.942  30.218  34.654  1.00  0.00     0.049 A 
ATOM     49  C   UNL A   1      42.639  27.206  30.252  1.00  0.00     0.074 A 
ATOM     50  C   UNL A   1      41.660  30.068  35.826  1.00  0.00     0.029 A 
ATOM     51  N   UNL A   1      41.554  29.418  33.702  1.00  0.00    -0.354 N 
ATOM     52  N   UNL A   1      42.359  27.833  31.368  1.00  0.00    -0.248 NA
ATOM     53  C   UNL A   1      43.873  26.408  30.308  1.00  0.00     0.031 C 
ATOM     54  C   UNL A   1      42.736  29.212  35.572  1.00  0.00     0.029 A 
ATOM     55  C   UNL A   1      42.661  28.794  34.254  1.00  0.00     0.049 A 
ATOM     56  H   UNL A   1      41.247  29.308  32.773  1.00  0.00     0.167 HD
ATOM     57  C   UNL A   1      43.368  27.497  32.261  1.00  0.00     0.074 A 
ATOM     58  C   UNL A   1      44.260  26.594  31.563  1.00  0.00     0.031 C 
ATOM     59  C   UNL A   1      43.541  27.901  33.544  1.00  0.00     0.037 A 
BRANCH  46  60
ATOM     60  C   UNL A   1      39.257  31.866  35.543  1.00  0.00     0.064 A 
ATOM     61  C   UNL A   1      38.374  31.331  36.492  1.00  0.00     0.173 A 
ATOM     62  C   UNL A   1      39.683  33.192  35.712  1.00  0.00     0.173 A 
ATOM     63  F   UNL A   1      37.928  30.073  36.366  1.00  0.00    -0.203 F 
ATOM     64  C   UNL A   1      37.926  32.099  37.564  1.00  0.00     0.198 A 
ATOM     65  C   UNL A   1      39.250  33.948  36.798  1.00  0.00     0.198 A 
ATOM     66  F   UNL A   1      40.529  33.749  34.832  1.00  0.00    -0.203 F 
ATOM     67  F   UNL A   1      37.058  31.578  38.443  1.00  0.00    -0.200 F 
ATOM     68  C   UNL A   1      38.371  33.403  37.720  1.00  0.00     0.200 A 
ATOM     69  F   UNL A   1      39.689  35.205  36.953  1.00  0.00    -0.200 F 
ATOM     70  F   UNL A   1      37.947  34.136  38.759  1.00  0.00    -0.200 F 
ENDBRANCH  46  60
BRANCH  47  71
ATOM     71  C   UNL A   1      42.330  26.350  27.816  1.00  0.00     0.064 A 
ATOM     72  C   UNL A   1      43.309  26.807  26.924  1.00  0.00     0.173 A 
ATOM     73  C   UNL A   1      41.793  25.072  27.598  1.00  0.00     0.173 A 
ATOM     74  F   UNL A   1      43.832  28.032  27.076  1.00  0.00    -0.203 F 
ATOM     75  C   UNL A   1      43.731  26.020  25.854  1.00  0.00     0.198 A 
ATOM     76  C   UNL A   1      42.233  24.277  26.543  1.00  0.00     0.198 A 
ATOM     77  F   UNL A   1      40.848  24.592  28.420  1.00  0.00    -0.203 F 
ATOM     78  F   UNL A   1      44.645  26.494  24.997  1.00  0.00    -0.200 F 
ATOM     79  C   UNL A   1      43.198  24.753  25.668  1.00  0.00     0.200 A 
ATOM     80  F   UNL A   1      41.721  23.050  26.371  1.00  0.00    -0.200 F 
ATOM     81  F   UNL A   1      43.610  23.994  24.643  1.00  0.00    -0.200 F 
ENDBRANCH  47  71
BRANCH  59  82
ATOM     82  C   UNL A   1      44.735  27.377  34.285  1.00  0.00     0.064 A 
ATOM     83  C   UNL A   1      45.940  28.094  34.325  1.00  0.00     0.173 A 
ATOM     84  C   UNL A   1      44.649  26.192  35.031  1.00  0.00     0.173 A 
ATOM     85  F   UNL A   1      46.075  29.225  33.618  1.00  0.00    -0.203 F 
ATOM     86  C   UNL A   1      47.018  27.638  35.079  1.00  0.00     0.198 A 
ATOM     87  C   UNL A   1      45.720  25.754  35.805  1.00  0.00     0.198 A 
ATOM     88  F   UNL A   1      43.516  25.475  35.034  1.00  0.00    -0.203 F 
ATOM     89  F   UNL A   1      48.169  28.325  35.081  1.00  0.00    -0.200 F 
ATOM     90  C   UNL A   1      46.904  26.476  35.826  1.00  0.00     0.200 A 
ATOM     91  F   UNL A   1      45.603  24.639  36.539  1.00  0.00    -0.200 F 
ATOM     92  F   UNL A   1      47.937  26.049  36.567  1.00  0.00    -0.200 F 
ENDBRANCH  59  82
ENDBRANCH  33  34
ENDBRANCH  26  28
ENDBRANCH  25  26
ENDBRANCH  24  25
ENDBRANCH   1  24
TORSDOF 15
ENDMDL
MODEL 2
REMARK VINA RESULT:     -12.0      2.278      3.550
REMARK SMILES Cc1cc(Br)cc2c1O[C@H](C(F)(F)F)C(C(=O)OCCOCCOC(=O)c1ccc(-c3c4nc(c(-c5c(F)c(F)c(F)c(F)c5F)c5ccc([nH]5)c(-c5c(F)c(F)c(F)c(F)c5F)c5nc(c(-c6c(F)c(F)c(F)c(F)c6F)c6ccc3[nH]6)C=C5)C=C4)cc1)=C2
REMARK SMILES IDX 22 1 21 2 20 3 19 4 18 5 16 6 17 7 15 8 1 9 2 10 3 11 8 12
REMARK SMILES IDX 4 13 7 14 9 15 5 16 6 17 90 18 10 19 11 20 12 21 13 22 14 23
REMARK SMILES IDX 23 24 24 25 25 26 26 27 27 28 28 29 89 30 29 31 88 32 30 33
REMARK SMILES IDX 31 34 32 35 82 36 33 37 87 38 81 39 83 40 34 41 86 42 80 43
REMARK SMILES IDX 79 44 35 46 67 47 47 48 66 49 48 50 51 51 65 52 84 53 49 54
REMARK SMILES IDX 50 55 64 57 85 58 52 59 36 60 37 61 45 62 38 63 39 64 43 65
REMARK SMILES IDX 46 66 40 67 41 68 44 69 42 70 68 71 69 72 77 73 70 74 71 75
REMARK SMILES IDX 75 76 78 77 72 78 73 79 76 80 74 81 53 82 54 83 62 84 55 85
REMARK SMILES IDX 56 86 60 87 63 88 57 89 58 90 61 91 59 92
REMARK H PARENT 83 45 51 56
REMARK Flexibility Score: inf
ROOT
ATOM      1  C   UNL A   1      31.361  31.763  26.491  1.00  0.00     0.202 C 
ENDROOT
BRANCH   1   2
ATOM      2  O   UNL A   1      31.989  30.564  26.952  1.00  0.00    -0.374 OA
BRANCH   2   3
ATOM      3  C   UNL A   1      32.782  29.830  26.022  1.00  0.00     0.202 C 
BRANCH   3   4
ATOM      4  C   UNL A   1      32.052  28.779  25.183  1.00  0.00     0.261 C 
BRANCH   4   5
ATOM      5  O   UNL A   1      32.656  27.482  25.316  1.00  0.00    -0.460 OA
BRANCH   5   6
ATOM      6  C   UNL A   1      31.951  26.608  26.070  1.00  0.00     0.338 C 
ATOM      7  O   UNL A   1      31.039  26.874  26.842  1.00  0.00    -0.246 OA
BRANCH   6   8
ATOM      8  C   UNL A   1      32.356  25.227  25.751  1.00  0.00     0.087 C 
ATOM      9  C   UNL A   1      32.839  20.450  23.877  1.00  0.00     0.048 C 
ATOM     10  C   UNL A   1      33.724  21.457  24.558  1.00  0.00    -0.007 A 
ATOM     11  C   UNL A   1      35.097  21.176  24.664  1.00  0.00     0.023 A 
ATOM     12  C   UNL A   1      33.241  22.693  25.020  1.00  0.00     0.130 A 
ATOM     13  C   UNL A   1      35.963  22.101  25.241  1.00  0.00     0.019 A 
ATOM     14  C   UNL A   1      34.125  23.628  25.573  1.00  0.00     0.019 A 
ATOM     15  O   UNL A   1      31.897  22.923  24.912  1.00  0.00    -0.475 OA
ATOM     16  Br  UNL A   1      37.806  21.707  25.376  1.00  0.00    -0.051 Br
ATOM     17  C   UNL A   1      35.484  23.323  25.699  1.00  0.00     0.027 A 
ATOM     18  C   UNL A   1      33.646  24.940  25.964  1.00  0.00     0.027 C 
ATOM     19  C   UNL A   1      31.361  24.243  25.203  1.00  0.00     0.316 C 
BRANCH  19  20
ATOM     20  C   UNL A   1      30.650  24.759  23.944  1.00  0.00     0.430 C 
ATOM     21  F   UNL A   1      29.585  25.534  24.267  1.00  0.00    -0.167 F 
ATOM     22  F   UNL A   1      31.467  25.528  23.184  1.00  0.00    -0.167 F 
ATOM     23  F   UNL A   1      30.198  23.752  23.165  1.00  0.00    -0.167 F 
ENDBRANCH  19  20
ENDBRANCH   6   8
ENDBRANCH   5   6
ENDBRANCH   4   5
ENDBRANCH   3   4
ENDBRANCH   2   3
ENDBRANCH   1   2
BRANCH   1  24
ATOM     24  C   UNL A   1      32.022  33.087  26.896  1.00  0.00     0.261 C 
BRANCH  24  25
ATOM     25  O   UNL A   1      32.923  32.916  28.008  1.00  0.00    -0.460 OA
BRANCH  25  26
ATOM     26  C   UNL A   1      33.999  33.734  27.999  1.00  0.00     0.338 C 
ATOM     27  O   UNL A   1      34.008  34.955  27.895  1.00  0.00    -0.246 OA
BRANCH  26  28
ATOM     28  C   UNL A   1      35.214  32.971  28.324  1.00  0.00     0.060 A 
ATOM     29  C   UNL A   1      35.059  31.633  28.708  1.00  0.00     0.016 A 
ATOM     30  C   UNL A   1      36.472  33.578  28.350  1.00  0.00     0.016 A 
ATOM     31  C   UNL A   1      36.156  30.907  29.164  1.00  0.00     0.010 A 
ATOM     32  C   UNL A   1      37.570  32.852  28.823  1.00  0.00     0.010 A 
ATOM     33  C   UNL A   1      37.408  31.526  29.264  1.00  0.00    -0.014 A 
BRANCH  33  34
ATOM     34  C   UNL A   1      38.500  30.832  29.988  1.00  0.00     0.031 A 
ATOM     35  C   UNL A   1      38.739  31.167  31.434  1.00  0.00     0.074 A 
ATOM     36  C   UNL A   1      39.226  29.875  29.386  1.00  0.00     0.049 A 
ATOM     37  N   UNL A   1      39.623  30.678  32.265  1.00  0.00    -0.248 NA
ATOM     38  C   UNL A   1      37.857  32.186  32.026  1.00  0.00     0.031 C 
ATOM     39  C   UNL A   1      39.050  29.426  28.007  1.00  0.00     0.029 A 
ATOM     40  N   UNL A   1      40.254  29.101  29.866  1.00  0.00    -0.354 N 
ATOM     41  C   UNL A   1      39.399  31.320  33.475  1.00  0.00     0.074 A 
ATOM     42  C   UNL A   1      38.320  32.260  33.265  1.00  0.00     0.031 C 
ATOM     43  C   UNL A   1      39.940  28.451  27.751  1.00  0.00     0.029 A 
ATOM     44  C   UNL A   1      40.764  28.228  28.938  1.00  0.00     0.049 A 
ATOM     45  H   UNL A   1      40.592  29.166  30.788  1.00  0.00     0.167 HD
ATOM     46  C   UNL A   1      40.024  31.128  34.660  1.00  0.00     0.037 A 
ATOM     47  C   UNL A   1      41.788  27.358  29.036  1.00  0.00     0.037 A 
ATOM     48  C   UNL A   1      41.098  30.194  34.869  1.00  0.00     0.049 A 
ATOM     49  C   UNL A   1      42.537  27.240  30.337  1.00  0.00     0.074 A 
ATOM     50  C   UNL A   1      41.790  29.923  36.035  1.00  0.00     0.029 A 
ATOM     51  N   UNL A   1      41.639  29.384  33.882  1.00  0.00    -0.354 N 
ATOM     52  N   UNL A   1      42.310  27.839  31.480  1.00  0.00    -0.248 NA
ATOM     53  C   UNL A   1      43.691  26.328  30.360  1.00  0.00     0.031 C 
ATOM     54  C   UNL A   1      42.782  28.982  35.745  1.00  0.00     0.029 A 
ATOM     55  C   UNL A   1      42.679  28.634  34.408  1.00  0.00     0.049 A 
ATOM     56  H   UNL A   1      41.331  29.347  32.948  1.00  0.00     0.167 HD
ATOM     57  C   UNL A   1      43.275  27.369  32.359  1.00  0.00     0.074 A 
ATOM     58  C   UNL A   1      44.084  26.419  31.624  1.00  0.00     0.031 C 
ATOM     59  C   UNL A   1      43.476  27.696  33.660  1.00  0.00     0.037 A 
BRANCH  46  60
ATOM     60  C   UNL A   1      39.569  31.951  35.828  1.00  0.00     0.064 A 
ATOM     61  C   UNL A   1      40.161  33.187  36.125  1.00  0.00     0.173 A 
ATOM     62  C   UNL A   1      38.495  31.526  36.623  1.00  0.00     0.173 A 
ATOM     63  F   UNL A   1      41.200  33.630  35.401  1.00  0.00    -0.203 F 
ATOM     64  C   UNL A   1      39.701  33.963  37.186  1.00  0.00     0.198 A 
ATOM     65  C   UNL A   1      38.024  32.315  37.668  1.00  0.00     0.198 A 
ATOM     66  F   UNL A   1      37.894  30.352  36.378  1.00  0.00    -0.203 F 
ATOM     67  F   UNL A   1      40.301  35.127  37.472  1.00  0.00    -0.200 F 
ATOM     68  C   UNL A   1      38.628  33.530  37.951  1.00  0.00     0.200 A 
ATOM     69  F   UNL A   1      36.980  31.901  38.400  1.00  0.00    -0.200 F 
ATOM     70  F   UNL A   1      38.180  34.285  38.964  1.00  0.00    -0.200 F 
ENDBRANCH  46  60
BRANCH  47  71
ATOM     71  C   UNL A   1      42.168  26.530  27.863  1.00  0.00     0.064 A 
ATOM     72  C   UNL A   1      43.156  26.957  26.967  1.00  0.00     0.173 A 
ATOM     73  C   UNL A   1      41.551  25.294  27.614  1.00  0.00     0.173 A 
ATOM     74  F   UNL A   1      43.755  28.143  27.148  1.00  0.00    -0.203 F 
ATOM     75  C   UNL A   1      43.510  26.184  25.863  1.00  0.00     0.198 A 
ATOM     76  C   UNL A   1      41.922  24.511  26.524  1.00  0.00     0.198 A 
ATOM     77  F   UNL A   1      40.594  24.843  28.439  1.00  0.00    -0.203 F 
ATOM     78  F   UNL A   1      44.435  26.632  25.003  1.00  0.00    -0.200 F 
ATOM     79  C   UNL A   1      42.898  24.959  25.646  1.00  0.00     0.200 A 
ATOM     80  F   UNL A   1      41.334  23.323  26.322  1.00  0.00    -0.200 F 
ATOM     81  F   UNL A   1      43.244  24.212  24.588  1.00  0.00    -0.200 F 
ENDBRANCH  47  71
BRANCH  59  82
ATOM     82  C   UNL A   1      44.610  27.028  34.380  1.00  0.00     0.064 A 
ATOM     83  C   UNL A   1      45.863  27.648  34.501  1.00  0.00     0.173 A 
ATOM     84  C   UNL A   1      44.420  25.797  35.027  1.00  0.00     0.173 A 
ATOM     85  F   UNL A   1      46.097  28.819  33.890  1.00  0.00    -0.203 F 
ATOM     86  C   UNL A   1      46.885  27.056  35.237  1.00  0.00     0.198 A 
ATOM     87  C   UNL A   1      45.437  25.221  35.784  1.00  0.00     0.198 A 
ATOM     88  F   UNL A   1      43.238  25.168  34.949  1.00  0.00    -0.203 F 
ATOM     89  F   UNL A   1      48.082  27.653  35.317  1.00  0.00    -0.200 F 
ATOM     90  C   UNL A   1      46.668  25.850  35.886  1.00  0.00     0.200 A 
ATOM     91  F   UNL A   1      45.221  24.064  36.423  1.00  0.00    -0.200 F 
ATOM     92  F   UNL A   1      47.649  25.291  36.610  1.00  0.00    -0.200 F 
ENDBRANCH  59  82
ENDBRANCH  33  34
ENDBRANCH  26  28
ENDBRANCH  25  26
ENDBRANCH  24  25
ENDBRANCH   1  24
TORSDOF 15
ENDMDL
MODEL 3
REMARK VINA RESULT:     -11.9      2.288      3.882
REMARK SMILES Cc1cc(Br)cc2c1O[C@H](C(F)(F)F)C(C(=O)OCCOCCOC(=O)c1ccc(-c3c4nc(c(-c5c(F)c(F)c(F)c(F)c5F)c5ccc([nH]5)c(-c5c(F)c(F)c(F)c(F)c5F)c5nc(c(-c6c(F)c(F)c(F)c(F)c6F)c6ccc3[nH]6)C=C5)C=C4)cc1)=C2
REMARK SMILES IDX 22 1 21 2 20 3 19 4 18 5 16 6 17 7 15 8 1 9 2 10 3 11 8 12
REMARK SMILES IDX 4 13 7 14 9 15 5 16 6 17 90 18 10 19 11 20 12 21 13 22 14 23
REMARK SMILES IDX 23 24 24 25 25 26 26 27 27 28 28 29 89 30 29 31 88 32 30 33
REMARK SMILES IDX 31 34 32 35 82 36 33 37 87 38 81 39 83 40 34 41 86 42 80 43
REMARK SMILES IDX 79 44 35 46 67 47 47 48 66 49 48 50 51 51 65 52 84 53 49 54
REMARK SMILES IDX 50 55 64 57 85 58 52 59 36 60 37 61 45 62 38 63 39 64 43 65
REMARK SMILES IDX 46 66 40 67 41 68 44 69 42 70 68 71 69 72 77 73 70 74 71 75
REMARK SMILES IDX 75 76 78 77 72 78 73 79 76 80 74 81 53 82 54 83 62 84 55 85
REMARK SMILES IDX 56 86 60 87 63 88 57 89 58 90 61 91 59 92
REMARK H PARENT 83 45 51 56
REMARK Flexibility Score: inf
ROOT
ATOM      1  C   UNL A   1      31.405  31.729  26.498  1.00  0.00     0.202 C 
ENDROOT
BRANCH   1   2
ATOM      2  O   UNL A   1      32.043  30.552  27.000  1.00  0.00    -0.374 OA
BRANCH   2   3
ATOM      3  C   UNL A   1      32.936  29.859  26.132  1.00  0.00     0.202 C 
BRANCH   3   4
ATOM      4  C   UNL A   1      32.318  28.776  25.242  1.00  0.00     0.261 C 
BRANCH   4   5
ATOM      5  O   UNL A   1      32.884  27.484  25.511  1.00  0.00    -0.460 OA
BRANCH   5   6
ATOM      6  C   UNL A   1      32.061  26.635  26.169  1.00  0.00     0.338 C 
ATOM      7  O   UNL A   1      31.111  26.938  26.878  1.00  0.00    -0.246 OA
BRANCH   6   8
ATOM      8  C   UNL A   1      32.393  25.241  25.822  1.00  0.00     0.087 C 
ATOM      9  C   UNL A   1      32.619  20.480  23.863  1.00  0.00     0.048 C 
ATOM     10  C   UNL A   1      33.559  21.429  24.553  1.00  0.00    -0.007 A 
ATOM     11  C   UNL A   1      34.917  21.078  24.641  1.00  0.00     0.023 A 
ATOM     12  C   UNL A   1      33.144  22.679  25.041  1.00  0.00     0.130 A 
ATOM     13  C   UNL A   1      35.834  21.948  25.226  1.00  0.00     0.019 A 
ATOM     14  C   UNL A   1      34.078  23.559  25.601  1.00  0.00     0.019 A 
ATOM     15  O   UNL A   1      31.812  22.979  24.948  1.00  0.00    -0.475 OA
ATOM     16  Br  UNL A   1      37.656  21.460  25.337  1.00  0.00    -0.051 Br
ATOM     17  C   UNL A   1      35.421  23.184  25.709  1.00  0.00     0.027 A 
ATOM     18  C   UNL A   1      33.669  24.887  26.018  1.00  0.00     0.027 C 
ATOM     19  C   UNL A   1      31.346  24.319  25.268  1.00  0.00     0.316 C 
BRANCH  19  20
ATOM     20  C   UNL A   1      30.651  24.892  24.024  1.00  0.00     0.430 C 
ATOM     21  F   UNL A   1      29.592  25.665  24.368  1.00  0.00    -0.167 F 
ATOM     22  F   UNL A   1      31.482  25.681  23.302  1.00  0.00    -0.167 F 
ATOM     23  F   UNL A   1      30.196  23.922  23.202  1.00  0.00    -0.167 F 
ENDBRANCH  19  20
ENDBRANCH   6   8
ENDBRANCH   5   6
ENDBRANCH   4   5
ENDBRANCH   3   4
ENDBRANCH   2   3
ENDBRANCH   1   2
BRANCH   1  24
ATOM     24  C   UNL A   1      32.039  33.073  26.880  1.00  0.00     0.261 C 
BRANCH  24  25
ATOM     25  O   UNL A   1      32.915  32.947  28.017  1.00  0.00    -0.460 OA
BRANCH  25  26
ATOM     26  C   UNL A   1      33.991  33.765  28.001  1.00  0.00     0.338 C 
ATOM     27  O   UNL A   1      33.999  34.985  27.890  1.00  0.00    -0.246 OA
BRANCH  26  28
ATOM     28  C   UNL A   1      35.207  33.004  28.326  1.00  0.00     0.060 A 
ATOM     29  C   UNL A   1      35.055  31.663  28.698  1.00  0.00     0.016 A 
ATOM     30  C   UNL A   1      36.462  33.617  28.365  1.00  0.00     0.016 A 
ATOM     31  C   UNL A   1      36.152  30.937  29.154  1.00  0.00     0.010 A 
ATOM     32  C   UNL A   1      37.560  32.891  28.837  1.00  0.00     0.010 A 
ATOM     33  C   UNL A   1      37.402  31.561  29.267  1.00  0.00    -0.014 A 
BRANCH  33  34
ATOM     34  C   UNL A   1      38.492  30.865  29.992  1.00  0.00     0.031 A 
ATOM     35  C   UNL A   1      38.730  31.198  31.438  1.00  0.00     0.074 A 
ATOM     36  C   UNL A   1      39.218  29.908  29.389  1.00  0.00     0.049 A 
ATOM     37  N   UNL A   1      39.612  30.707  32.269  1.00  0.00    -0.248 NA
ATOM     38  C   UNL A   1      37.847  32.217  32.030  1.00  0.00     0.031 C 
ATOM     39  C   UNL A   1      39.044  29.462  28.009  1.00  0.00     0.029 A 
ATOM     40  N   UNL A   1      40.245  29.134  29.869  1.00  0.00    -0.354 N 
ATOM     41  C   UNL A   1      39.387  31.347  33.480  1.00  0.00     0.074 A 
ATOM     42  C   UNL A   1      38.308  32.289  33.270  1.00  0.00     0.031 C 
ATOM     43  C   UNL A   1      39.933  28.487  27.752  1.00  0.00     0.029 A 
ATOM     44  C   UNL A   1      40.756  28.262  28.940  1.00  0.00     0.049 A 
ATOM     45  H   UNL A   1      40.582  29.197  30.791  1.00  0.00     0.167 HD
ATOM     46  C   UNL A   1      40.010  31.154  34.665  1.00  0.00     0.037 A 
ATOM     47  C   UNL A   1      41.779  27.391  29.038  1.00  0.00     0.037 A 
ATOM     48  C   UNL A   1      41.084  30.219  34.874  1.00  0.00     0.049 A 
ATOM     49  C   UNL A   1      42.527  27.271  30.341  1.00  0.00     0.074 A 
ATOM     50  C   UNL A   1      41.775  29.947  36.041  1.00  0.00     0.029 A 
ATOM     51  N   UNL A   1      41.626  29.410  33.887  1.00  0.00    -0.354 N 
ATOM     52  N   UNL A   1      42.299  27.868  31.484  1.00  0.00    -0.248 NA
ATOM     53  C   UNL A   1      43.680  26.358  30.363  1.00  0.00     0.031 C 
ATOM     54  C   UNL A   1      42.767  29.005  35.751  1.00  0.00     0.029 A 
ATOM     55  C   UNL A   1      42.665  28.659  34.413  1.00  0.00     0.049 A 
ATOM     56  H   UNL A   1      41.319  29.374  32.953  1.00  0.00     0.167 HD
ATOM     57  C   UNL A   1      43.263  27.396  32.364  1.00  0.00     0.074 A 
ATOM     58  C   UNL A   1      44.072  26.447  31.628  1.00  0.00     0.031 C 
ATOM     59  C   UNL A   1      43.463  27.721  33.665  1.00  0.00     0.037 A 
BRANCH  46  60
ATOM     60  C   UNL A   1      39.555  31.976  35.834  1.00  0.00     0.064 A 
ATOM     61  C   UNL A   1      40.126  33.225  36.115  1.00  0.00     0.173 A 
ATOM     62  C   UNL A   1      38.500  31.535  36.646  1.00  0.00     0.173 A 
ATOM     63  F   UNL A   1      41.147  33.683  35.375  1.00  0.00    -0.203 F 
ATOM     64  C   UNL A   1      39.665  33.999  37.177  1.00  0.00     0.198 A 
ATOM     65  C   UNL A   1      38.026  32.322  37.692  1.00  0.00     0.198 A 
ATOM     66  F   UNL A   1      37.918  30.348  36.415  1.00  0.00    -0.203 F 
ATOM     67  F   UNL A   1      40.246  35.176  37.448  1.00  0.00    -0.200 F 
ATOM     68  C   UNL A   1      38.610  33.550  37.959  1.00  0.00     0.200 A 
ATOM     69  F   UNL A   1      37.000  31.892  38.440  1.00  0.00    -0.200 F 
ATOM     70  F   UNL A   1      38.161  34.302  38.973  1.00  0.00    -0.200 F 
ENDBRANCH  46  60
BRANCH  47  71
ATOM     71  C   UNL A   1      42.160  26.564  27.865  1.00  0.00     0.064 A 
ATOM     72  C   UNL A   1      41.535  25.335  27.615  1.00  0.00     0.173 A 
ATOM     73  C   UNL A   1      43.156  26.984  26.969  1.00  0.00     0.173 A 
ATOM     74  F   UNL A   1      40.596  24.879  28.457  1.00  0.00    -0.203 F 
ATOM     75  C   UNL A   1      41.894  24.555  26.518  1.00  0.00     0.198 A 
ATOM     76  C   UNL A   1      43.498  26.214  25.860  1.00  0.00     0.198 A 
ATOM     77  F   UNL A   1      43.789  28.149  27.169  1.00  0.00    -0.203 F 
ATOM     78  F   UNL A   1      41.304  23.368  26.321  1.00  0.00    -0.200 F 
ATOM     79  C   UNL A   1      42.870  24.998  25.638  1.00  0.00     0.200 A 
ATOM     80  F   UNL A   1      44.435  26.650  25.008  1.00  0.00    -0.200 F 
ATOM     81  F   UNL A   1      43.211  24.250  24.579  1.00  0.00    -0.200 F 
ENDBRANCH  47  71
BRANCH  59  82
ATOM     82  C   UNL A   1      44.595  27.052  34.385  1.00  0.00     0.064 A 
ATOM     83  C   UNL A   1      44.435  25.793  34.984  1.00  0.00     0.173 A 
ATOM     84  C   UNL A   1      45.872  27.632  34.404  1.00  0.00     0.173 A 
ATOM     85  F   UNL A   1      43.231  25.204  35.003  1.00  0.00    -0.203 F 
ATOM     86  C   UNL A   1      45.512  25.144  35.583  1.00  0.00     0.198 A 
ATOM     87  C   UNL A   1      46.952  26.968  34.981  1.00  0.00     0.198 A 
ATOM     88  F   UNL A   1      46.080  28.830  33.838  1.00  0.00    -0.203 F 
ATOM     89  F   UNL A   1      45.331  23.955  36.172  1.00  0.00    -0.200 F 
ATOM     90  C   UNL A   1      46.770  25.727  35.571  1.00  0.00     0.200 A 
ATOM     91  F   UNL A   1      48.171  27.525  34.954  1.00  0.00    -0.200 F 
ATOM     92  F   UNL A   1      47.810  25.091  36.131  1.00  0.00    -0.200 F 
ENDBRANCH  59  82
ENDBRANCH  33  34
ENDBRANCH  26  28
ENDBRANCH  25  26
ENDBRANCH  24  25
ENDBRANCH   1  24
TORSDOF 15
ENDMDL
