MODEL 1
REMARK VINA RESULT:     -11.8      0.000      0.000
REMARK SMILES O=C(Cc1ccccc1Nc1c(F)cccc1C(F)(F)F)OCCOCCOC(=O)c1ccc(-c2c3nc(c(-c4c(F)c(F)c(F)c(F)c4F)c4ccc([nH]4)c(-c4c(F)c(F)c(F)c(F)c4F)c4nc(c(-c5c(F)c(F)c(F)c(F)c5F)c5ccc2[nH]5)C=C4)C=C3)cc1
REMARK SMILES IDX 24 1 23 2 22 3 2 4 1 5 3 6 4 7 5 8 9 9 6 10 8 11 7 12 10 13
REMARK SMILES IDX 11 15 12 16 17 17 13 18 14 19 16 20 15 21 18 22 19 23 20 24
REMARK SMILES IDX 21 25 25 26 26 27 27 28 28 29 29 30 30 31 31 32 32 33 93 34
REMARK SMILES IDX 33 35 92 36 34 37 35 38 36 39 86 40 37 41 91 42 85 43 87 44
REMARK SMILES IDX 38 45 90 46 84 47 83 48 39 50 71 51 51 52 70 53 52 54 55 55
REMARK SMILES IDX 69 56 88 57 53 58 54 59 68 61 89 62 56 63 40 64 41 65 49 66
REMARK SMILES IDX 42 67 43 68 47 69 50 70 44 71 45 72 48 73 46 74 72 75 73 76
REMARK SMILES IDX 81 77 74 78 75 79 79 80 82 81 76 82 77 83 80 84 78 85 57 86
REMARK SMILES IDX 58 87 66 88 59 89 60 90 64 91 67 92 61 93 62 94 65 95 63 96
REMARK H PARENT 10 14 87 49 55 60
REMARK Flexibility Score: inf
ROOT
ATOM      1  C   UNL A   1      39.859  21.871  26.873  1.00  0.00     0.202 C 
ENDROOT
BRANCH   1   2
ATOM      2  C   UNL A   1      39.172  21.245  25.668  1.00  0.00     0.261 C 
BRANCH   2   3
ATOM      3  O   UNL A   1      37.748  21.378  25.720  1.00  0.00    -0.463 OA
BRANCH   3   4
ATOM      4  C   UNL A   1      37.069  22.413  25.174  1.00  0.00     0.310 C 
ATOM      5  O   UNL A   1      36.978  22.482  23.947  1.00  0.00    -0.252 OA
BRANCH   4   6
ATOM      6  C   UNL A   1      36.503  23.517  26.044  1.00  0.00     0.160 C 
BRANCH   6   7
ATOM      7  C   UNL A   1      35.023  23.464  26.361  1.00  0.00    -0.013 A 
ATOM      8  C   UNL A   1      34.584  22.387  27.154  1.00  0.00     0.006 A 
ATOM      9  C   UNL A   1      34.080  24.410  25.875  1.00  0.00     0.042 A 
ATOM     10  C   UNL A   1      33.236  22.226  27.458  1.00  0.00     0.000 A 
ATOM     11  C   UNL A   1      32.724  24.201  26.171  1.00  0.00     0.026 A 
ATOM     12  C   UNL A   1      32.305  23.123  26.952  1.00  0.00     0.002 A 
BRANCH   9  13
ATOM     13  N   UNL A   1      34.494  25.585  25.208  1.00  0.00    -0.352 N 
ATOM     14  H   UNL A   1      35.469  25.722  25.213  1.00  0.00     0.167 HD
BRANCH  13  15
ATOM     15  C   UNL A   1      33.780  26.605  24.534  1.00  0.00     0.087 A 
ATOM     16  C   UNL A   1      33.691  27.850  25.198  1.00  0.00     0.147 A 
ATOM     17  C   UNL A   1      33.203  26.509  23.254  1.00  0.00     0.082 A 
ATOM     18  F   UNL A   1      34.210  27.968  26.433  1.00  0.00    -0.205 F 
ATOM     19  C   UNL A   1      33.097  28.973  24.628  1.00  0.00     0.041 A 
ATOM     20  C   UNL A   1      32.621  27.668  22.676  1.00  0.00     0.015 A 
ATOM     21  C   UNL A   1      32.570  28.887  23.350  1.00  0.00     0.004 A 
BRANCH  17  22
ATOM     22  C   UNL A   1      33.062  25.248  22.436  1.00  0.00     0.418 C 
ATOM     23  F   UNL A   1      34.184  24.468  22.540  1.00  0.00    -0.166 F 
ATOM     24  F   UNL A   1      32.041  24.460  22.875  1.00  0.00    -0.166 F 
ATOM     25  F   UNL A   1      32.884  25.394  21.101  1.00  0.00    -0.166 F 
ENDBRANCH  17  22
ENDBRANCH  13  15
ENDBRANCH   9  13
ENDBRANCH   6   7
ENDBRANCH   4   6
ENDBRANCH   3   4
ENDBRANCH   2   3
ENDBRANCH   1   2
BRANCH   1  26
ATOM     26  O   UNL A   1      41.108  21.262  27.210  1.00  0.00    -0.374 OA
BRANCH  26  27
ATOM     27  C   UNL A   1      41.861  20.812  26.073  1.00  0.00     0.202 C 
BRANCH  27  28
ATOM     28  C   UNL A   1      43.050  21.721  25.742  1.00  0.00     0.261 C 
BRANCH  28  29
ATOM     29  O   UNL A   1      42.615  22.868  24.997  1.00  0.00    -0.460 OA
BRANCH  29  30
ATOM     30  C   UNL A   1      43.436  23.945  25.076  1.00  0.00     0.338 C 
ATOM     31  O   UNL A   1      44.428  24.171  24.407  1.00  0.00    -0.246 OA
BRANCH  30  32
ATOM     32  C   UNL A   1      42.828  24.940  25.988  1.00  0.00     0.060 A 
ATOM     33  C   UNL A   1      43.416  26.211  26.057  1.00  0.00     0.016 A 
ATOM     34  C   UNL A   1      41.685  24.649  26.738  1.00  0.00     0.016 A 
ATOM     35  C   UNL A   1      42.892  27.180  26.910  1.00  0.00     0.010 A 
ATOM     36  C   UNL A   1      41.163  25.615  27.596  1.00  0.00     0.010 A 
ATOM     37  C   UNL A   1      41.789  26.869  27.713  1.00  0.00    -0.014 A 
BRANCH  37  38
ATOM     38  C   UNL A   1      41.407  27.762  28.830  1.00  0.00     0.031 A 
ATOM     39  C   UNL A   1      42.187  27.659  30.108  1.00  0.00     0.074 A 
ATOM     40  C   UNL A   1      40.376  28.616  28.719  1.00  0.00     0.049 A 
ATOM     41  N   UNL A   1      41.982  28.241  31.261  1.00  0.00    -0.248 NA
ATOM     42  C   UNL A   1      43.355  26.761  30.086  1.00  0.00     0.031 C 
ATOM     43  C   UNL A   1      39.568  28.817  27.519  1.00  0.00     0.029 A 
ATOM     44  N   UNL A   1      39.822  29.459  29.649  1.00  0.00    -0.354 N 
ATOM     45  C   UNL A   1      42.980  27.767  32.101  1.00  0.00     0.074 A 
ATOM     46  C   UNL A   1      43.772  26.828  31.339  1.00  0.00     0.031 C 
ATOM     47  C   UNL A   1      38.600  29.707  27.794  1.00  0.00     0.029 A 
ATOM     48  C   UNL A   1      38.702  30.111  29.195  1.00  0.00     0.049 A 
ATOM     49  H   UNL A   1      40.191  29.585  30.552  1.00  0.00     0.167 HD
ATOM     50  C   UNL A   1      43.215  28.092  33.394  1.00  0.00     0.037 A 
ATOM     51  C   UNL A   1      37.843  30.914  29.853  1.00  0.00     0.037 A 
ATOM     52  C   UNL A   1      42.422  29.030  34.140  1.00  0.00     0.049 A 
ATOM     53  C   UNL A   1      38.094  31.223  31.308  1.00  0.00     0.074 A 
ATOM     54  C   UNL A   1      42.594  29.462  35.442  1.00  0.00     0.029 A 
ATOM     55  N   UNL A   1      41.296  29.673  33.648  1.00  0.00    -0.354 N 
ATOM     56  N   UNL A   1      39.061  30.805  32.088  1.00  0.00    -0.248 NA
ATOM     57  C   UNL A   1      37.135  32.118  31.972  1.00  0.00     0.031 C 
ATOM     58  C   UNL A   1      41.539  30.324  35.757  1.00  0.00     0.029 A 
ATOM     59  C   UNL A   1      40.743  30.477  34.631  1.00  0.00     0.049 A 
ATOM     60  H   UNL A   1      40.941  29.572  32.735  1.00  0.00     0.167 HD
ATOM     61  C   UNL A   1      38.845  31.405  33.323  1.00  0.00     0.074 A 
ATOM     62  C   UNL A   1      37.660  32.224  33.185  1.00  0.00     0.031 C 
ATOM     63  C   UNL A   1      39.565  31.290  34.468  1.00  0.00     0.037 A 
BRANCH  50  64
ATOM     64  C   UNL A   1      44.355  27.401  34.083  1.00  0.00     0.064 A 
ATOM     65  C   UNL A   1      44.203  26.147  34.692  1.00  0.00     0.173 A 
ATOM     66  C   UNL A   1      45.623  28.001  34.126  1.00  0.00     0.173 A 
ATOM     67  F   UNL A   1      43.007  25.538  34.695  1.00  0.00    -0.203 F 
ATOM     68  C   UNL A   1      45.268  25.534  35.347  1.00  0.00     0.198 A 
ATOM     69  C   UNL A   1      46.694  27.371  34.754  1.00  0.00     0.198 A 
ATOM     70  F   UNL A   1      45.824  29.200  33.559  1.00  0.00    -0.203 F 
ATOM     71  F   UNL A   1      45.083  24.362  35.972  1.00  0.00    -0.200 F 
ATOM     72  C   UNL A   1      46.514  26.143  35.372  1.00  0.00     0.200 A 
ATOM     73  F   UNL A   1      47.899  27.956  34.767  1.00  0.00    -0.200 F 
ATOM     74  F   UNL A   1      47.539  25.551  36.000  1.00  0.00    -0.200 F 
ENDBRANCH  50  64
BRANCH  51  75
ATOM     75  C   UNL A   1      36.659  31.465  29.147  1.00  0.00     0.064 A 
ATOM     76  C   UNL A   1      36.594  32.818  28.784  1.00  0.00     0.173 A 
ATOM     77  C   UNL A   1      35.563  30.652  28.821  1.00  0.00     0.173 A 
ATOM     78  F   UNL A   1      37.606  33.642  29.096  1.00  0.00    -0.203 F 
ATOM     79  C   UNL A   1      35.476  33.338  28.135  1.00  0.00     0.198 A 
ATOM     80  C   UNL A   1      34.458  31.166  28.147  1.00  0.00     0.198 A 
ATOM     81  F   UNL A   1      35.572  29.352  29.148  1.00  0.00    -0.203 F 
ATOM     82  F   UNL A   1      35.424  34.644  27.837  1.00  0.00    -0.200 F 
ATOM     83  C   UNL A   1      34.412  32.510  27.810  1.00  0.00     0.200 A 
ATOM     84  F   UNL A   1      33.435  30.361  27.826  1.00  0.00    -0.200 F 
ATOM     85  F   UNL A   1      33.339  33.010  27.181  1.00  0.00    -0.200 F 
ENDBRANCH  51  75
BRANCH  63  86
ATOM     86  C   UNL A   1      39.116  32.095  35.652  1.00  0.00     0.064 A 
ATOM     87  C   UNL A   1      38.315  31.540  36.661  1.00  0.00     0.173 A 
ATOM     88  C   UNL A   1      39.548  33.421  35.811  1.00  0.00     0.173 A 
ATOM     89  F   UNL A   1      37.866  30.281  36.549  1.00  0.00    -0.203 F 
ATOM     90  C   UNL A   1      37.949  32.289  37.776  1.00  0.00     0.198 A 
ATOM     91  C   UNL A   1      39.206  34.156  36.943  1.00  0.00     0.198 A 
ATOM     92  F   UNL A   1      40.323  33.996  34.879  1.00  0.00    -0.203 F 
ATOM     93  F   UNL A   1      37.152  31.751  38.710  1.00  0.00    -0.200 F 
ATOM     94  C   UNL A   1      38.403  33.592  37.921  1.00  0.00     0.200 A 
ATOM     95  F   UNL A   1      39.659  35.409  37.088  1.00  0.00    -0.200 F 
ATOM     96  F   UNL A   1      38.062  34.306  39.002  1.00  0.00    -0.200 F 
ENDBRANCH  63  86
ENDBRANCH  37  38
ENDBRANCH  30  32
ENDBRANCH  29  30
ENDBRANCH  28  29
ENDBRANCH  27  28
ENDBRANCH  26  27
ENDBRANCH   1  26
TORSDOF 18
ENDMDL
MODEL 2
REMARK VINA RESULT:     -11.8      3.111      8.002
REMARK SMILES O=C(Cc1ccccc1Nc1c(F)cccc1C(F)(F)F)OCCOCCOC(=O)c1ccc(-c2c3nc(c(-c4c(F)c(F)c(F)c(F)c4F)c4ccc([nH]4)c(-c4c(F)c(F)c(F)c(F)c4F)c4nc(c(-c5c(F)c(F)c(F)c(F)c5F)c5ccc2[nH]5)C=C4)C=C3)cc1
REMARK SMILES IDX 24 1 23 2 22 3 2 4 1 5 3 6 4 7 5 8 9 9 6 10 8 11 7 12 10 13
REMARK SMILES IDX 11 15 12 16 17 17 13 18 14 19 16 20 15 21 18 22 19 23 20 24
REMARK SMILES IDX 21 25 25 26 26 27 27 28 28 29 29 30 30 31 31 32 32 33 93 34
REMARK SMILES IDX 33 35 92 36 34 37 35 38 36 39 86 40 37 41 91 42 85 43 87 44
REMARK SMILES IDX 38 45 90 46 84 47 83 48 39 50 71 51 51 52 70 53 52 54 55 55
REMARK SMILES IDX 69 56 88 57 53 58 54 59 68 61 89 62 56 63 40 64 41 65 49 66
REMARK SMILES IDX 42 67 43 68 47 69 50 70 44 71 45 72 48 73 46 74 72 75 73 76
REMARK SMILES IDX 81 77 74 78 75 79 79 80 82 81 76 82 77 83 80 84 78 85 57 86
REMARK SMILES IDX 58 87 66 88 59 89 60 90 64 91 67 92 61 93 62 94 65 95 63 96
REMARK H PARENT 10 14 87 49 55 60
REMARK Flexibility Score: inf
ROOT
ATOM      1  C   UNL A   1      33.998  28.469  23.673  1.00  0.00     0.202 C 
ENDROOT
BRANCH   1   2
ATOM      2  C   UNL A   1      33.515  28.023  22.301  1.00  0.00     0.261 C 
BRANCH   2   3
ATOM      3  O   UNL A   1      33.808  26.646  22.039  1.00  0.00    -0.463 OA
BRANCH   3   4
ATOM      4  C   UNL A   1      32.930  25.786  21.474  1.00  0.00     0.310 C 
ATOM      5  O   UNL A   1      33.031  25.539  20.271  1.00  0.00    -0.252 OA
BRANCH   4   6
ATOM      6  C   UNL A   1      31.786  25.202  22.278  1.00  0.00     0.160 C 
BRANCH   6   7
ATOM      7  C   UNL A   1      31.835  25.373  23.782  1.00  0.00    -0.013 A 
ATOM      8  C   UNL A   1      30.705  25.955  24.390  1.00  0.00     0.006 A 
ATOM      9  C   UNL A   1      32.955  25.015  24.579  1.00  0.00     0.042 A 
ATOM     10  C   UNL A   1      30.676  26.198  25.759  1.00  0.00     0.000 A 
ATOM     11  C   UNL A   1      32.908  25.304  25.952  1.00  0.00     0.026 A 
ATOM     12  C   UNL A   1      31.783  25.888  26.537  1.00  0.00     0.002 A 
BRANCH   9  13
ATOM     13  N   UNL A   1      34.042  24.292  24.037  1.00  0.00    -0.352 N 
ATOM     14  H   UNL A   1      34.475  24.738  23.273  1.00  0.00     0.167 HD
BRANCH  13  15
ATOM     15  C   UNL A   1      34.631  23.051  24.379  1.00  0.00     0.087 A 
ATOM     16  C   UNL A   1      35.922  23.108  24.955  1.00  0.00     0.147 A 
ATOM     17  C   UNL A   1      34.034  21.784  24.249  1.00  0.00     0.082 A 
ATOM     18  F   UNL A   1      36.530  24.301  25.072  1.00  0.00    -0.205 F 
ATOM     19  C   UNL A   1      36.593  21.982  25.422  1.00  0.00     0.041 A 
ATOM     20  C   UNL A   1      34.722  20.646  24.749  1.00  0.00     0.015 A 
ATOM     21  C   UNL A   1      35.984  20.741  25.333  1.00  0.00     0.004 A 
BRANCH  17  22
ATOM     22  C   UNL A   1      32.735  21.483  23.540  1.00  0.00     0.418 C 
ATOM     23  F   UNL A   1      31.676  22.061  24.191  1.00  0.00    -0.166 F 
ATOM     24  F   UNL A   1      32.702  22.001  22.280  1.00  0.00    -0.166 F 
ATOM     25  F   UNL A   1      32.380  20.180  23.426  1.00  0.00    -0.166 F 
ENDBRANCH  17  22
ENDBRANCH  13  15
ENDBRANCH   9  13
ENDBRANCH   6   7
ENDBRANCH   4   6
ENDBRANCH   3   4
ENDBRANCH   2   3
ENDBRANCH   1   2
BRANCH   1  26
ATOM     26  O   UNL A   1      33.322  29.622  24.181  1.00  0.00    -0.374 OA
BRANCH  26  27
ATOM     27  C   UNL A   1      32.079  29.326  24.835  1.00  0.00     0.202 C 
BRANCH  27  28
ATOM     28  C   UNL A   1      31.737  30.317  25.953  1.00  0.00     0.261 C 
BRANCH  28  29
ATOM     29  O   UNL A   1      32.711  30.247  27.004  1.00  0.00    -0.460 OA
BRANCH  29  30
ATOM     30  C   UNL A   1      33.338  31.417  27.282  1.00  0.00     0.338 C 
ATOM     31  O   UNL A   1      32.859  32.537  27.262  1.00  0.00    -0.246 OA
BRANCH  30  32
ATOM     32  C   UNL A   1      34.683  31.119  27.821  1.00  0.00     0.060 A 
ATOM     33  C   UNL A   1      34.988  29.784  28.122  1.00  0.00     0.016 A 
ATOM     34  C   UNL A   1      35.642  32.120  28.001  1.00  0.00     0.016 A 
ATOM     35  C   UNL A   1      36.236  29.451  28.646  1.00  0.00     0.010 A 
ATOM     36  C   UNL A   1      36.888  31.789  28.531  1.00  0.00     0.010 A 
ATOM     37  C   UNL A   1      37.173  30.461  28.891  1.00  0.00    -0.014 A 
BRANCH  37  38
ATOM     38  C   UNL A   1      38.370  30.180  29.716  1.00  0.00     0.031 A 
ATOM     39  C   UNL A   1      39.377  29.204  29.180  1.00  0.00     0.074 A 
ATOM     40  C   UNL A   1      38.540  30.754  30.918  1.00  0.00     0.049 A 
ATOM     41  N   UNL A   1      40.441  28.705  29.752  1.00  0.00    -0.248 NA
ATOM     42  C   UNL A   1      39.140  28.711  27.813  1.00  0.00     0.031 C 
ATOM     43  C   UNL A   1      37.640  31.734  31.522  1.00  0.00     0.029 A 
ATOM     44  N   UNL A   1      39.524  30.570  31.855  1.00  0.00    -0.354 N 
ATOM     45  C   UNL A   1      40.988  27.829  28.824  1.00  0.00     0.074 A 
ATOM     46  C   UNL A   1      40.125  27.840  27.664  1.00  0.00     0.031 C 
ATOM     47  C   UNL A   1      38.100  32.046  32.746  1.00  0.00     0.029 A 
ATOM     48  C   UNL A   1      39.304  31.263  33.020  1.00  0.00     0.049 A 
ATOM     49  H   UNL A   1      40.310  29.998  31.708  1.00  0.00     0.167 HD
ATOM     50  C   UNL A   1      42.114  27.086  28.931  1.00  0.00     0.037 A 
ATOM     51  C   UNL A   1      39.984  31.237  34.183  1.00  0.00     0.037 A 
ATOM     52  C   UNL A   1      42.966  27.086  30.088  1.00  0.00     0.049 A 
ATOM     53  C   UNL A   1      41.208  30.363  34.299  1.00  0.00     0.074 A 
ATOM     54  C   UNL A   1      44.151  26.401  30.288  1.00  0.00     0.029 A 
ATOM     55  N   UNL A   1      42.714  27.802  31.249  1.00  0.00    -0.354 N 
ATOM     56  N   UNL A   1      41.744  29.567  33.406  1.00  0.00    -0.248 NA
ATOM     57  C   UNL A   1      41.921  30.385  35.584  1.00  0.00     0.031 C 
ATOM     58  C   UNL A   1      44.587  26.659  31.591  1.00  0.00     0.029 A 
ATOM     59  C   UNL A   1      43.706  27.552  32.183  1.00  0.00     0.049 A 
ATOM     60  H   UNL A   1      41.943  28.399  31.389  1.00  0.00     0.167 HD
ATOM     61  C   UNL A   1      42.869  29.016  34.008  1.00  0.00     0.074 A 
ATOM     62  C   UNL A   1      42.944  29.577  35.340  1.00  0.00     0.031 C 
ATOM     63  C   UNL A   1      43.762  28.129  33.502  1.00  0.00     0.037 A 
BRANCH  50  64
ATOM     64  C   UNL A   1      42.463  26.191  27.777  1.00  0.00     0.064 A 
ATOM     65  C   UNL A   1      43.376  26.582  26.786  1.00  0.00     0.173 A 
ATOM     66  C   UNL A   1      41.881  24.920  27.669  1.00  0.00     0.173 A 
ATOM     67  F   UNL A   1      43.946  27.795  26.833  1.00  0.00    -0.203 F 
ATOM     68  C   UNL A   1      43.667  25.746  25.711  1.00  0.00     0.198 A 
ATOM     69  C   UNL A   1      42.199  24.073  26.609  1.00  0.00     0.198 A 
ATOM     70  F   UNL A   1      41.002  24.496  28.589  1.00  0.00    -0.203 F 
ATOM     71  F   UNL A   1      44.498  26.164  24.745  1.00  0.00    -0.200 F 
ATOM     72  C   UNL A   1      43.084  24.490  25.627  1.00  0.00     0.200 A 
ATOM     73  F   UNL A   1      41.643  22.856  26.537  1.00  0.00    -0.200 F 
ATOM     74  F   UNL A   1      43.368  23.685  24.594  1.00  0.00    -0.200 F 
ENDBRANCH  50  64
BRANCH  51  75
ATOM     75  C   UNL A   1      39.513  32.050  35.333  1.00  0.00     0.064 A 
ATOM     76  C   UNL A   1      38.600  31.533  36.263  1.00  0.00     0.173 A 
ATOM     77  C   UNL A   1      39.963  33.365  35.526  1.00  0.00     0.173 A 
ATOM     78  F   UNL A   1      38.120  30.290  36.108  1.00  0.00    -0.203 F 
ATOM     79  C   UNL A   1      38.146  32.302  37.333  1.00  0.00     0.198 A 
ATOM     80  C   UNL A   1      39.531  34.124  36.612  1.00  0.00     0.198 A 
ATOM     81  F   UNL A   1      40.834  33.909  34.664  1.00  0.00    -0.203 F 
ATOM     82  F   UNL A   1      37.242  31.797  38.182  1.00  0.00    -0.200 F 
ATOM     83  C   UNL A   1      38.618  33.595  37.510  1.00  0.00     0.200 A 
ATOM     84  F   UNL A   1      39.997  35.368  36.786  1.00  0.00    -0.200 F 
ATOM     85  F   UNL A   1      38.186  34.332  38.543  1.00  0.00    -0.200 F 
ENDBRANCH  51  75
BRANCH  63  86
ATOM     86  C   UNL A   1      44.918  27.735  34.375  1.00  0.00     0.064 A 
ATOM     87  C   UNL A   1      44.864  26.609  35.209  1.00  0.00     0.173 A 
ATOM     88  C   UNL A   1      46.120  28.459  34.327  1.00  0.00     0.173 A 
ATOM     89  F   UNL A   1      43.734  25.892  35.300  1.00  0.00    -0.203 F 
ATOM     90  C   UNL A   1      45.964  26.232  35.974  1.00  0.00     0.198 A 
ATOM     91  C   UNL A   1      47.228  28.062  35.070  1.00  0.00     0.198 A 
ATOM     92  F   UNL A   1      46.227  29.540  33.538  1.00  0.00    -0.203 F 
ATOM     93  F   UNL A   1      45.878  25.175  36.793  1.00  0.00    -0.200 F 
ATOM     94  C   UNL A   1      47.147  26.953  35.897  1.00  0.00     0.200 A 
ATOM     95  F   UNL A   1      48.375  28.750  34.981  1.00  0.00    -0.200 F 
ATOM     96  F   UNL A   1      48.209  26.579  36.623  1.00  0.00    -0.200 F 
ENDBRANCH  63  86
ENDBRANCH  37  38
ENDBRANCH  30  32
ENDBRANCH  29  30
ENDBRANCH  28  29
ENDBRANCH  27  28
ENDBRANCH  26  27
ENDBRANCH   1  26
TORSDOF 18
ENDMDL
MODEL 3
REMARK VINA RESULT:     -11.6      0.516      2.093
REMARK SMILES O=C(Cc1ccccc1Nc1c(F)cccc1C(F)(F)F)OCCOCCOC(=O)c1ccc(-c2c3nc(c(-c4c(F)c(F)c(F)c(F)c4F)c4ccc([nH]4)c(-c4c(F)c(F)c(F)c(F)c4F)c4nc(c(-c5c(F)c(F)c(F)c(F)c5F)c5ccc2[nH]5)C=C4)C=C3)cc1
REMARK SMILES IDX 24 1 23 2 22 3 2 4 1 5 3 6 4 7 5 8 9 9 6 10 8 11 7 12 10 13
REMARK SMILES IDX 11 15 12 16 17 17 13 18 14 19 16 20 15 21 18 22 19 23 20 24
REMARK SMILES IDX 21 25 25 26 26 27 27 28 28 29 29 30 30 31 31 32 32 33 93 34
REMARK SMILES IDX 33 35 92 36 34 37 35 38 36 39 86 40 37 41 91 42 85 43 87 44
REMARK SMILES IDX 38 45 90 46 84 47 83 48 39 50 71 51 51 52 70 53 52 54 55 55
REMARK SMILES IDX 69 56 88 57 53 58 54 59 68 61 89 62 56 63 40 64 41 65 49 66
REMARK SMILES IDX 42 67 43 68 47 69 50 70 44 71 45 72 48 73 46 74 72 75 73 76
REMARK SMILES IDX 81 77 74 78 75 79 79 80 82 81 76 82 77 83 80 84 78 85 57 86
REMARK SMILES IDX 58 87 66 88 59 89 60 90 64 91 67 92 61 93 62 94 65 95 63 96
REMARK H PARENT 10 14 87 49 55 60
REMARK Flexibility Score: inf
ROOT
ATOM      1  C   UNL A   1      39.947  21.799  27.038  1.00  0.00     0.202 C 
ENDROOT
BRANCH   1   2
ATOM      2  C   UNL A   1      39.252  21.408  25.743  1.00  0.00     0.261 C 
BRANCH   2   3
ATOM      3  O   UNL A   1      37.826  21.462  25.849  1.00  0.00    -0.463 OA
BRANCH   3   4
ATOM      4  C   UNL A   1      37.061  22.391  25.231  1.00  0.00     0.310 C 
ATOM      5  O   UNL A   1      36.946  22.344  24.004  1.00  0.00    -0.252 OA
BRANCH   4   6
ATOM      6  C   UNL A   1      36.426  23.522  26.013  1.00  0.00     0.160 C 
BRANCH   6   7
ATOM      7  C   UNL A   1      34.968  23.373  26.393  1.00  0.00    -0.013 A 
ATOM      8  C   UNL A   1      34.677  22.505  27.463  1.00  0.00     0.006 A 
ATOM      9  C   UNL A   1      33.906  24.027  25.711  1.00  0.00     0.042 A 
ATOM     10  C   UNL A   1      33.364  22.266  27.853  1.00  0.00     0.000 A 
ATOM     11  C   UNL A   1      32.590  23.738  26.107  1.00  0.00     0.026 A 
ATOM     12  C   UNL A   1      32.321  22.869  27.164  1.00  0.00     0.002 A 
BRANCH   9  13
ATOM     13  N   UNL A   1      34.158  25.019  24.737  1.00  0.00    -0.352 N 
ATOM     14  H   UNL A   1      35.116  25.192  24.585  1.00  0.00     0.167 HD
BRANCH  13  15
ATOM     15  C   UNL A   1      33.303  25.815  23.937  1.00  0.00     0.087 A 
ATOM     16  C   UNL A   1      33.017  25.320  22.643  1.00  0.00     0.147 A 
ATOM     17  C   UNL A   1      32.675  27.012  24.327  1.00  0.00     0.082 A 
ATOM     18  F   UNL A   1      33.619  24.191  22.231  1.00  0.00    -0.205 F 
ATOM     19  C   UNL A   1      32.126  25.942  21.773  1.00  0.00     0.041 A 
ATOM     20  C   UNL A   1      31.753  27.625  23.438  1.00  0.00     0.015 A 
ATOM     21  C   UNL A   1      31.476  27.097  22.178  1.00  0.00     0.004 A 
BRANCH  17  22
ATOM     22  C   UNL A   1      32.945  27.783  25.597  1.00  0.00     0.418 C 
ATOM     23  F   UNL A   1      32.779  29.129  25.398  1.00  0.00    -0.166 F 
ATOM     24  F   UNL A   1      32.071  27.461  26.592  1.00  0.00    -0.166 F 
ATOM     25  F   UNL A   1      34.186  27.680  26.131  1.00  0.00    -0.166 F 
ENDBRANCH  17  22
ENDBRANCH  13  15
ENDBRANCH   9  13
ENDBRANCH   6   7
ENDBRANCH   4   6
ENDBRANCH   3   4
ENDBRANCH   2   3
ENDBRANCH   1   2
BRANCH   1  26
ATOM     26  O   UNL A   1      41.129  21.042  27.314  1.00  0.00    -0.374 OA
BRANCH  26  27
ATOM     27  C   UNL A   1      41.867  20.667  26.141  1.00  0.00     0.202 C 
BRANCH  27  28
ATOM     28  C   UNL A   1      43.051  21.597  25.853  1.00  0.00     0.261 C 
BRANCH  28  29
ATOM     29  O   UNL A   1      42.653  22.664  24.980  1.00  0.00    -0.460 OA
BRANCH  29  30
ATOM     30  C   UNL A   1      43.461  23.752  25.003  1.00  0.00     0.338 C 
ATOM     31  O   UNL A   1      44.423  23.976  24.289  1.00  0.00    -0.246 OA
BRANCH  30  32
ATOM     32  C   UNL A   1      42.878  24.759  25.917  1.00  0.00     0.060 A 
ATOM     33  C   UNL A   1      43.481  26.024  25.970  1.00  0.00     0.016 A 
ATOM     34  C   UNL A   1      41.744  24.484  26.686  1.00  0.00     0.016 A 
ATOM     35  C   UNL A   1      42.980  27.004  26.825  1.00  0.00     0.010 A 
ATOM     36  C   UNL A   1      41.245  25.462  27.547  1.00  0.00     0.010 A 
ATOM     37  C   UNL A   1      41.886  26.709  27.646  1.00  0.00    -0.014 A 
BRANCH  37  38
ATOM     38  C   UNL A   1      41.530  27.612  28.764  1.00  0.00     0.031 A 
ATOM     39  C   UNL A   1      42.328  27.508  30.031  1.00  0.00     0.074 A 
ATOM     40  C   UNL A   1      40.507  28.478  28.663  1.00  0.00     0.049 A 
ATOM     41  N   UNL A   1      42.146  28.099  31.183  1.00  0.00    -0.248 NA
ATOM     42  C   UNL A   1      43.485  26.598  29.997  1.00  0.00     0.031 C 
ATOM     43  C   UNL A   1      39.684  28.680  27.474  1.00  0.00     0.029 A 
ATOM     44  N   UNL A   1      39.976  29.332  29.595  1.00  0.00    -0.354 N 
ATOM     45  C   UNL A   1      43.150  27.619  32.011  1.00  0.00     0.074 A 
ATOM     46  C   UNL A   1      43.921  26.667  31.244  1.00  0.00     0.031 C 
ATOM     47  C   UNL A   1      38.729  29.583  27.757  1.00  0.00     0.029 A 
ATOM     48  C   UNL A   1      38.857  29.994  29.155  1.00  0.00     0.049 A 
ATOM     49  H   UNL A   1      40.359  29.459  30.493  1.00  0.00     0.167 HD
ATOM     50  C   UNL A   1      43.408  27.949  33.298  1.00  0.00     0.037 A 
ATOM     51  C   UNL A   1      38.016  30.810  29.820  1.00  0.00     0.037 A 
ATOM     52  C   UNL A   1      42.637  28.900  34.051  1.00  0.00     0.049 A 
ATOM     53  C   UNL A   1      38.292  31.125  31.269  1.00  0.00     0.074 A 
ATOM     54  C   UNL A   1      42.833  29.337  35.348  1.00  0.00     0.029 A 
ATOM     55  N   UNL A   1      41.510  29.553  33.571  1.00  0.00    -0.354 N 
ATOM     56  N   UNL A   1      39.266  30.700  32.038  1.00  0.00    -0.248 NA
ATOM     57  C   UNL A   1      37.353  32.034  31.942  1.00  0.00     0.031 C 
ATOM     58  C   UNL A   1      41.792  30.213  35.673  1.00  0.00     0.029 A 
ATOM     59  C   UNL A   1      40.981  30.368  34.558  1.00  0.00     0.049 A 
ATOM     60  H   UNL A   1      41.141  29.451  32.664  1.00  0.00     0.167 HD
ATOM     61  C   UNL A   1      39.075  31.309  33.272  1.00  0.00     0.074 A 
ATOM     62  C   UNL A   1      37.896  32.141  33.147  1.00  0.00     0.031 C 
ATOM     63  C   UNL A   1      39.810  31.193  34.407  1.00  0.00     0.037 A 
BRANCH  50  64
ATOM     64  C   UNL A   1      44.551  27.249  33.975  1.00  0.00     0.064 A 
ATOM     65  C   UNL A   1      45.874  27.699  33.850  1.00  0.00     0.173 A 
ATOM     66  C   UNL A   1      44.315  26.117  34.769  1.00  0.00     0.173 A 
ATOM     67  F   UNL A   1      46.156  28.766  33.088  1.00  0.00    -0.203 F 
ATOM     68  C   UNL A   1      46.922  27.021  34.467  1.00  0.00     0.198 A 
ATOM     69  C   UNL A   1      45.362  25.460  35.411  1.00  0.00     0.198 A 
ATOM     70  F   UNL A   1      43.069  25.645  34.923  1.00  0.00    -0.203 F 
ATOM     71  F   UNL A   1      48.184  27.435  34.285  1.00  0.00    -0.200 F 
ATOM     72  C   UNL A   1      46.665  25.907  35.251  1.00  0.00     0.200 A 
ATOM     73  F   UNL A   1      45.110  24.390  36.177  1.00  0.00    -0.200 F 
ATOM     74  F   UNL A   1      47.674  25.257  35.847  1.00  0.00    -0.200 F 
ENDBRANCH  50  64
BRANCH  51  75
ATOM     75  C   UNL A   1      36.828  31.371  29.128  1.00  0.00     0.064 A 
ATOM     76  C   UNL A   1      36.780  32.718  28.743  1.00  0.00     0.173 A 
ATOM     77  C   UNL A   1      35.711  30.571  28.838  1.00  0.00     0.173 A 
ATOM     78  F   UNL A   1      37.812  33.529  29.020  1.00  0.00    -0.203 F 
ATOM     79  C   UNL A   1      35.659  33.247  28.107  1.00  0.00     0.198 A 
ATOM     80  C   UNL A   1      34.602  31.094  28.178  1.00  0.00     0.198 A 
ATOM     81  F   UNL A   1      35.704  29.277  29.187  1.00  0.00    -0.203 F 
ATOM     82  F   UNL A   1      35.624  34.547  27.788  1.00  0.00    -0.200 F 
ATOM     83  C   UNL A   1      34.573  32.432  27.818  1.00  0.00     0.200 A 
ATOM     84  F   UNL A   1      33.560  30.302  27.891  1.00  0.00    -0.200 F 
ATOM     85  F   UNL A   1      33.497  32.941  27.201  1.00  0.00    -0.200 F 
ENDBRANCH  51  75
BRANCH  63  86
ATOM     86  C   UNL A   1      39.387  32.010  35.593  1.00  0.00     0.064 A 
ATOM     87  C   UNL A   1      39.812  33.335  35.766  1.00  0.00     0.173 A 
ATOM     88  C   UNL A   1      38.490  31.479  36.534  1.00  0.00     0.173 A 
ATOM     89  F   UNL A   1      40.678  33.883  34.902  1.00  0.00    -0.203 F 
ATOM     90  C   UNL A   1      39.369  34.092  36.848  1.00  0.00     0.198 A 
ATOM     91  C   UNL A   1      38.026  32.249  37.596  1.00  0.00     0.198 A 
ATOM     92  F   UNL A   1      38.046  30.219  36.409  1.00  0.00    -0.203 F 
ATOM     93  F   UNL A   1      39.818  35.343  37.016  1.00  0.00    -0.200 F 
ATOM     94  C   UNL A   1      38.470  33.552  37.755  1.00  0.00     0.200 A 
ATOM     95  F   UNL A   1      37.144  31.730  38.463  1.00  0.00    -0.200 F 
ATOM     96  F   UNL A   1      38.033  34.288  38.787  1.00  0.00    -0.200 F 
ENDBRANCH  63  86
ENDBRANCH  37  38
ENDBRANCH  30  32
ENDBRANCH  29  30
ENDBRANCH  28  29
ENDBRANCH  27  28
ENDBRANCH  26  27
ENDBRANCH   1  26
TORSDOF 18
ENDMDL
