MODEL 1
REMARK VINA RESULT:     -12.4      0.000      0.000
REMARK SMILES O=C(OCCOCCOC(=O)[C@@H]1CC=CC[C@H]1C(=O)N1CC[NH+](Cc2ccc3c(c2)OCO3)CC1)c1ccc(-c2c3nc(c(-c4c(F)c(F)c(F)c(F)c4F)c4ccc([nH]4)c(-c4c(F)c(F)c(F)c(F)c4F)c4nc(c(-c5c(F)c(F)c(F)c(F)c5F)c5ccc2[nH]5)C=C4)C=C3)cc1
REMARK SMILES IDX 7 1 6 2 5 3 4 4 3 5 2 6 1 7 36 8 37 9 98 10 38 11 97 12
REMARK SMILES IDX 39 13 40 14 41 15 91 16 42 17 96 18 90 19 92 20 43 21 95 22
REMARK SMILES IDX 89 23 88 24 44 26 76 27 56 28 75 29 57 30 60 31 74 32 93 33
REMARK SMILES IDX 58 34 59 35 73 37 94 38 61 39 45 40 46 41 54 42 47 43 48 44
REMARK SMILES IDX 52 45 55 46 49 47 50 48 53 49 51 50 77 51 78 52 86 53 79 54
REMARK SMILES IDX 80 55 84 56 87 57 81 58 82 59 85 60 83 61 62 62 63 63 71 64
REMARK SMILES IDX 64 65 65 66 69 67 72 68 66 69 67 70 70 71 68 72 8 73 9 74
REMARK SMILES IDX 10 75 11 76 12 77 13 78 17 79 14 80 16 81 15 82 18 83 19 84
REMARK SMILES IDX 20 85 21 86 35 87 22 88 34 89 23 90 24 92 25 93 26 94 30 95
REMARK SMILES IDX 27 96 29 97 28 98 31 99 33 100 32 101
REMARK H PARENT 92 25 60 36 23 91
REMARK Flexibility Score: inf
ROOT
ATOM      1  C   UNL A   1      33.955  28.210  26.349  1.00  0.00     0.202 C 
ENDROOT
BRANCH   1   2
ATOM      2  O   UNL A   1      32.709  28.796  26.729  1.00  0.00    -0.374 OA
BRANCH   2   3
ATOM      3  C   UNL A   1      32.304  29.904  25.928  1.00  0.00     0.202 C 
BRANCH   3   4
ATOM      4  C   UNL A   1      31.819  31.121  26.719  1.00  0.00     0.261 C 
BRANCH   4   5
ATOM      5  O   UNL A   1      32.700  32.255  26.544  1.00  0.00    -0.460 OA
BRANCH   5   6
ATOM      6  C   UNL A   1      33.346  32.907  27.548  1.00  0.00     0.338 C 
ATOM      7  O   UNL A   1      32.920  33.962  28.001  1.00  0.00    -0.246 OA
BRANCH   6   8
ATOM      8  C   UNL A   1      34.590  32.327  28.110  1.00  0.00     0.060 A 
ATOM      9  C   UNL A   1      34.656  30.979  28.438  1.00  0.00     0.016 A 
ATOM     10  C   UNL A   1      35.725  33.121  28.287  1.00  0.00     0.016 A 
ATOM     11  C   UNL A   1      35.736  30.467  29.127  1.00  0.00     0.010 A 
ATOM     12  C   UNL A   1      36.880  32.568  28.859  1.00  0.00     0.010 A 
ATOM     13  C   UNL A   1      36.879  31.240  29.321  1.00  0.00    -0.014 A 
BRANCH  13  14
ATOM     14  C   UNL A   1      38.025  30.642  30.047  1.00  0.00     0.031 A 
ATOM     15  C   UNL A   1      38.175  30.882  31.520  1.00  0.00     0.074 A 
ATOM     16  C   UNL A   1      38.854  29.783  29.420  1.00  0.00     0.049 A 
ATOM     17  N   UNL A   1      39.185  30.603  32.301  1.00  0.00    -0.248 NA
ATOM     18  C   UNL A   1      37.043  31.527  32.203  1.00  0.00     0.031 C 
ATOM     19  C   UNL A   1      38.736  29.359  28.023  1.00  0.00     0.029 A 
ATOM     20  N   UNL A   1      39.917  29.056  29.892  1.00  0.00    -0.354 N 
ATOM     21  C   UNL A   1      38.849  31.122  33.543  1.00  0.00     0.074 A 
ATOM     22  C   UNL A   1      37.523  31.689  33.426  1.00  0.00     0.031 C 
ATOM     23  C   UNL A   1      39.615  28.375  27.783  1.00  0.00     0.029 A 
ATOM     24  C   UNL A   1      40.453  28.198  28.962  1.00  0.00     0.049 A 
ATOM     25  H   UNL A   1      40.262  29.140  30.810  1.00  0.00     0.167 HD
ATOM     26  C   UNL A   1      39.607  31.149  34.665  1.00  0.00     0.037 A 
ATOM     27  C   UNL A   1      41.531  27.396  29.037  1.00  0.00     0.037 A 
ATOM     28  C   UNL A   1      40.897  30.525  34.769  1.00  0.00     0.049 A 
ATOM     29  C   UNL A   1      42.368  27.451  30.285  1.00  0.00     0.074 A 
ATOM     30  C   UNL A   1      41.802  30.561  35.814  1.00  0.00     0.029 A 
ATOM     31  N   UNL A   1      41.451  29.715  33.787  1.00  0.00    -0.354 N 
ATOM     32  N   UNL A   1      42.140  28.096  31.403  1.00  0.00    -0.248 NA
ATOM     33  C   UNL A   1      43.637  26.715  30.260  1.00  0.00     0.031 C 
ATOM     34  C   UNL A   1      42.914  29.787  35.455  1.00  0.00     0.029 A 
ATOM     35  C   UNL A   1      42.684  29.243  34.200  1.00  0.00     0.049 A 
ATOM     36  H   UNL A   1      41.028  29.507  32.923  1.00  0.00     0.167 HD
ATOM     37  C   UNL A   1      43.244  27.861  32.208  1.00  0.00     0.074 A 
ATOM     38  C   UNL A   1      44.121  26.976  31.467  1.00  0.00     0.031 C 
ATOM     39  C   UNL A   1      43.525  28.356  33.438  1.00  0.00     0.037 A 
BRANCH  26  40
ATOM     40  C   UNL A   1      39.094  31.961  35.814  1.00  0.00     0.064 A 
ATOM     41  C   UNL A   1      39.448  33.303  36.006  1.00  0.00     0.173 A 
ATOM     42  C   UNL A   1      38.248  31.362  36.762  1.00  0.00     0.173 A 
ATOM     43  F   UNL A   1      40.277  33.911  35.144  1.00  0.00    -0.203 F 
ATOM     44  C   UNL A   1      38.995  34.009  37.119  1.00  0.00     0.198 A 
ATOM     45  C   UNL A   1      37.778  32.077  37.859  1.00  0.00     0.198 A 
ATOM     46  F   UNL A   1      37.884  30.078  36.627  1.00  0.00    -0.203 F 
ATOM     47  F   UNL A   1      39.388  35.276  37.311  1.00  0.00    -0.200 F 
ATOM     48  C   UNL A   1      38.158  33.397  38.042  1.00  0.00     0.200 A 
ATOM     49  F   UNL A   1      36.969  31.484  38.748  1.00  0.00    -0.200 F 
ATOM     50  F   UNL A   1      37.731  34.076  39.116  1.00  0.00    -0.200 F 
ENDBRANCH  26  40
BRANCH  27  51
ATOM     51  C   UNL A   1      41.917  26.538  27.885  1.00  0.00     0.064 A 
ATOM     52  C   UNL A   1      42.889  26.962  26.967  1.00  0.00     0.173 A 
ATOM     53  C   UNL A   1      41.330  25.280  27.673  1.00  0.00     0.173 A 
ATOM     54  F   UNL A   1      43.459  28.167  27.108  1.00  0.00    -0.203 F 
ATOM     55  C   UNL A   1      43.255  26.164  25.884  1.00  0.00     0.198 A 
ATOM     56  C   UNL A   1      41.721  24.469  26.611  1.00  0.00     0.198 A 
ATOM     57  F   UNL A   1      40.388  24.828  28.515  1.00  0.00    -0.203 F 
ATOM     58  F   UNL A   1      44.156  26.610  25.000  1.00  0.00    -0.200 F 
ATOM     59  C   UNL A   1      42.678  24.913  25.713  1.00  0.00     0.200 A 
ATOM     60  F   UNL A   1      41.172  23.257  26.460  1.00  0.00    -0.200 F 
ATOM     61  F   UNL A   1      43.038  24.142  24.678  1.00  0.00    -0.200 F 
ENDBRANCH  27  51
BRANCH  39  62
ATOM     62  C   UNL A   1      44.826  27.942  34.051  1.00  0.00     0.064 A 
ATOM     63  C   UNL A   1      44.926  26.777  34.824  1.00  0.00     0.173 A 
ATOM     64  C   UNL A   1      45.989  28.692  33.824  1.00  0.00     0.173 A 
ATOM     65  F   UNL A   1      43.836  26.041  35.080  1.00  0.00    -0.203 F 
ATOM     66  C   UNL A   1      46.147  26.385  35.365  1.00  0.00     0.198 A 
ATOM     67  C   UNL A   1      47.211  28.285  34.349  1.00  0.00     0.198 A 
ATOM     68  F   UNL A   1      45.939  29.812  33.089  1.00  0.00    -0.203 F 
ATOM     69  F   UNL A   1      46.216  25.287  36.130  1.00  0.00    -0.200 F 
ATOM     70  C   UNL A   1      47.289  27.134  35.121  1.00  0.00     0.200 A 
ATOM     71  F   UNL A   1      48.315  29.005  34.108  1.00  0.00    -0.200 F 
ATOM     72  F   UNL A   1      48.464  26.751  35.637  1.00  0.00    -0.200 F 
ENDBRANCH  39  62
ENDBRANCH  13  14
ENDBRANCH   6   8
ENDBRANCH   5   6
ENDBRANCH   4   5
ENDBRANCH   3   4
ENDBRANCH   2   3
ENDBRANCH   1   2
BRANCH   1  73
ATOM     73  C   UNL A   1      33.724  27.278  25.169  1.00  0.00     0.261 C 
BRANCH  73  74
ATOM     74  O   UNL A   1      34.050  25.934  25.566  1.00  0.00    -0.463 OA
BRANCH  74  75
ATOM     75  C   UNL A   1      34.211  25.027  24.566  1.00  0.00     0.310 C 
ATOM     76  O   UNL A   1      34.441  25.310  23.398  1.00  0.00    -0.252 OA
BRANCH  75  77
ATOM     77  C   UNL A   1      34.058  23.596  25.065  1.00  0.00     0.115 C 
ATOM     78  C   UNL A   1      35.297  22.769  24.639  1.00  0.00     0.043 C 
ATOM     79  C   UNL A   1      32.770  22.919  24.585  1.00  0.00     0.097 C 
ATOM     80  C   UNL A   1      35.152  21.299  24.876  1.00  0.00    -0.030 C 
ATOM     81  C   UNL A   1      32.677  21.468  25.109  1.00  0.00     0.041 C 
ATOM     82  C   UNL A   1      33.969  20.713  25.093  1.00  0.00    -0.030 C 
BRANCH  79  83
ATOM     83  C   UNL A   1      31.375  23.511  24.832  1.00  0.00     0.227 C 
ATOM     84  O   UNL A   1      30.653  22.941  25.663  1.00  0.00    -0.275 OA
ATOM     85  N   UNL A   1      31.063  24.790  24.403  1.00  0.00    -0.331 N 
ATOM     86  C   UNL A   1      30.167  25.559  25.264  1.00  0.00     0.181 C 
ATOM     87  C   UNL A   1      30.942  25.144  22.989  1.00  0.00     0.181 C 
ATOM     88  C   UNL A   1      30.267  27.075  25.017  1.00  0.00     0.284 C 
ATOM     89  C   UNL A   1      30.992  26.661  22.728  1.00  0.00     0.284 C 
ATOM     90  N   UNL A   1      30.189  27.501  23.619  1.00  0.00    -0.328 N 
ATOM     91  H   UNL A   1      30.651  28.411  23.603  1.00  0.00     0.348 HD
BRANCH  90  92
ATOM     92  C   UNL A   1      28.874  27.902  23.126  1.00  0.00     0.299 C 
BRANCH  92  93
ATOM     93  C   UNL A   1      28.643  29.366  22.835  1.00  0.00     0.010 A 
ATOM     94  C   UNL A   1      28.977  30.354  23.792  1.00  0.00     0.013 A 
ATOM     95  C   UNL A   1      28.141  29.768  21.585  1.00  0.00     0.060 A 
ATOM     96  C   UNL A   1      28.779  31.714  23.533  1.00  0.00     0.051 A 
ATOM     97  C   UNL A   1      27.987  31.119  21.346  1.00  0.00     0.166 A 
ATOM     98  C   UNL A   1      28.284  32.064  22.298  1.00  0.00     0.165 A 
ATOM     99  O   UNL A   1      27.553  31.673  20.182  1.00  0.00    -0.454 OA
ATOM    100  O   UNL A   1      28.050  33.331  21.864  1.00  0.00    -0.454 OA
ATOM    101  C   UNL A   1      27.653  33.077  20.500  1.00  0.00     0.468 C 
ENDBRANCH  92  93
ENDBRANCH  90  92
ENDBRANCH  79  83
ENDBRANCH  75  77
ENDBRANCH  74  75
ENDBRANCH  73  74
ENDBRANCH   1  73
TORSDOF 17
ENDMDL
MODEL 2
REMARK VINA RESULT:     -12.3      1.098      7.183
REMARK SMILES O=C(OCCOCCOC(=O)[C@@H]1CC=CC[C@H]1C(=O)N1CC[NH+](Cc2ccc3c(c2)OCO3)CC1)c1ccc(-c2c3nc(c(-c4c(F)c(F)c(F)c(F)c4F)c4ccc([nH]4)c(-c4c(F)c(F)c(F)c(F)c4F)c4nc(c(-c5c(F)c(F)c(F)c(F)c5F)c5ccc2[nH]5)C=C4)C=C3)cc1
REMARK SMILES IDX 7 1 6 2 5 3 4 4 3 5 2 6 1 7 36 8 37 9 98 10 38 11 97 12
REMARK SMILES IDX 39 13 40 14 41 15 91 16 42 17 96 18 90 19 92 20 43 21 95 22
REMARK SMILES IDX 89 23 88 24 44 26 76 27 56 28 75 29 57 30 60 31 74 32 93 33
REMARK SMILES IDX 58 34 59 35 73 37 94 38 61 39 45 40 46 41 54 42 47 43 48 44
REMARK SMILES IDX 52 45 55 46 49 47 50 48 53 49 51 50 77 51 78 52 86 53 79 54
REMARK SMILES IDX 80 55 84 56 87 57 81 58 82 59 85 60 83 61 62 62 63 63 71 64
REMARK SMILES IDX 64 65 65 66 69 67 72 68 66 69 67 70 70 71 68 72 8 73 9 74
REMARK SMILES IDX 10 75 11 76 12 77 13 78 17 79 14 80 16 81 15 82 18 83 19 84
REMARK SMILES IDX 20 85 21 86 35 87 22 88 34 89 23 90 24 92 25 93 26 94 30 95
REMARK SMILES IDX 27 96 29 97 28 98 31 99 33 100 32 101
REMARK H PARENT 92 25 60 36 23 91
REMARK Flexibility Score: inf
ROOT
ATOM      1  C   UNL A   1      33.204  27.106  26.175  1.00  0.00     0.202 C 
ENDROOT
BRANCH   1   2
ATOM      2  O   UNL A   1      32.658  28.037  27.110  1.00  0.00    -0.374 OA
BRANCH   2   3
ATOM      3  C   UNL A   1      31.523  28.759  26.637  1.00  0.00     0.202 C 
BRANCH   3   4
ATOM      4  C   UNL A   1      31.729  30.272  26.531  1.00  0.00     0.261 C 
BRANCH   4   5
ATOM      5  O   UNL A   1      33.134  30.615  26.467  1.00  0.00    -0.460 OA
BRANCH   5   6
ATOM      6  C   UNL A   1      33.755  31.520  27.270  1.00  0.00     0.338 C 
ATOM      7  O   UNL A   1      33.280  32.632  27.464  1.00  0.00    -0.246 OA
BRANCH   6   8
ATOM      8  C   UNL A   1      35.034  31.154  27.926  1.00  0.00     0.060 A 
ATOM      9  C   UNL A   1      35.269  29.849  28.337  1.00  0.00     0.016 A 
ATOM     10  C   UNL A   1      36.035  32.110  28.110  1.00  0.00     0.016 A 
ATOM     11  C   UNL A   1      36.369  29.532  29.109  1.00  0.00     0.010 A 
ATOM     12  C   UNL A   1      37.221  31.758  28.771  1.00  0.00     0.010 A 
ATOM     13  C   UNL A   1      37.379  30.470  29.311  1.00  0.00    -0.014 A 
BRANCH  13  14
ATOM     14  C   UNL A   1      38.555  30.081  30.127  1.00  0.00     0.031 A 
ATOM     15  C   UNL A   1      39.670  29.302  29.495  1.00  0.00     0.074 A 
ATOM     16  C   UNL A   1      38.685  30.533  31.390  1.00  0.00     0.049 A 
ATOM     17  N   UNL A   1      40.692  28.718  30.064  1.00  0.00    -0.248 NA
ATOM     18  C   UNL A   1      39.628  29.156  28.033  1.00  0.00     0.031 C 
ATOM     19  C   UNL A   1      37.735  31.412  32.078  1.00  0.00     0.029 A 
ATOM     20  N   UNL A   1      39.700  30.377  32.299  1.00  0.00    -0.354 N 
ATOM     21  C   UNL A   1      41.358  28.057  29.043  1.00  0.00     0.074 A 
ATOM     22  C   UNL A   1      40.657  28.352  27.812  1.00  0.00     0.031 C 
ATOM     23  C   UNL A   1      38.260  31.800  33.250  1.00  0.00     0.029 A 
ATOM     24  C   UNL A   1      39.513  31.088  33.461  1.00  0.00     0.049 A 
ATOM     25  H   UNL A   1      40.488  29.811  32.135  1.00  0.00     0.167 HD
ATOM     26  C   UNL A   1      42.439  27.248  29.143  1.00  0.00     0.037 A 
ATOM     27  C   UNL A   1      40.245  31.120  34.589  1.00  0.00     0.037 A 
ATOM     28  C   UNL A   1      43.153  27.021  30.370  1.00  0.00     0.049 A 
ATOM     29  C   UNL A   1      41.434  30.204  34.687  1.00  0.00     0.074 A 
ATOM     30  C   UNL A   1      44.200  26.154  30.623  1.00  0.00     0.029 A 
ATOM     31  N   UNL A   1      42.901  27.703  31.553  1.00  0.00    -0.354 N 
ATOM     32  N   UNL A   1      41.959  29.432  33.767  1.00  0.00    -0.248 NA
ATOM     33  C   UNL A   1      42.095  30.119  35.995  1.00  0.00     0.031 C 
ATOM     34  C   UNL A   1      44.570  26.299  31.967  1.00  0.00     0.029 A 
ATOM     35  C   UNL A   1      43.774  27.280  32.539  1.00  0.00     0.049 A 
ATOM     36  H   UNL A   1      42.204  28.387  31.672  1.00  0.00     0.167 HD
ATOM     37  C   UNL A   1      42.998  28.755  34.387  1.00  0.00     0.074 A 
ATOM     38  C   UNL A   1      43.059  29.242  35.750  1.00  0.00     0.031 C 
ATOM     39  C   UNL A   1      43.811  27.794  33.884  1.00  0.00     0.037 A 
BRANCH  26  40
ATOM     40  C   UNL A   1      42.835  26.485  27.917  1.00  0.00     0.064 A 
ATOM     41  C   UNL A   1      43.782  26.966  27.003  1.00  0.00     0.173 A 
ATOM     42  C   UNL A   1      42.224  25.250  27.643  1.00  0.00     0.173 A 
ATOM     43  F   UNL A   1      44.372  28.154  27.206  1.00  0.00    -0.203 F 
ATOM     44  C   UNL A   1      44.083  26.252  25.845  1.00  0.00     0.198 A 
ATOM     45  C   UNL A   1      42.545  24.528  26.497  1.00  0.00     0.198 A 
ATOM     46  F   UNL A   1      41.308  24.748  28.484  1.00  0.00    -0.203 F 
ATOM     47  F   UNL A   1      44.953  26.756  24.957  1.00  0.00    -0.200 F 
ATOM     48  C   UNL A   1      43.468  25.034  25.594  1.00  0.00     0.200 A 
ATOM     49  F   UNL A   1      41.951  23.351  26.259  1.00  0.00    -0.200 F 
ATOM     50  F   UNL A   1      43.753  24.353  24.475  1.00  0.00    -0.200 F 
ENDBRANCH  26  40
BRANCH  27  51
ATOM     51  C   UNL A   1      39.842  31.986  35.729  1.00  0.00     0.064 A 
ATOM     52  C   UNL A   1      38.794  31.611  36.581  1.00  0.00     0.173 A 
ATOM     53  C   UNL A   1      40.490  33.203  35.995  1.00  0.00     0.173 A 
ATOM     54  F   UNL A   1      38.123  30.472  36.352  1.00  0.00    -0.203 F 
ATOM     55  C   UNL A   1      38.408  32.419  37.649  1.00  0.00     0.198 A 
ATOM     56  C   UNL A   1      40.128  33.992  37.084  1.00  0.00     0.198 A 
ATOM     57  F   UNL A   1      41.494  33.616  35.208  1.00  0.00    -0.203 F 
ATOM     58  F   UNL A   1      37.377  32.056  38.423  1.00  0.00    -0.200 F 
ATOM     59  C   UNL A   1      39.082  33.604  37.907  1.00  0.00     0.200 A 
ATOM     60  F   UNL A   1      40.793  35.128  37.336  1.00  0.00    -0.200 F 
ATOM     61  F   UNL A   1      38.719  34.374  38.941  1.00  0.00    -0.200 F 
ENDBRANCH  27  51
BRANCH  39  62
ATOM     62  C   UNL A   1      44.833  27.220  34.815  1.00  0.00     0.064 A 
ATOM     63  C   UNL A   1      46.119  27.769  34.908  1.00  0.00     0.173 A 
ATOM     64  C   UNL A   1      44.507  26.145  35.652  1.00  0.00     0.173 A 
ATOM     65  F   UNL A   1      46.478  28.788  34.113  1.00  0.00    -0.203 F 
ATOM     66  C   UNL A   1      47.053  27.248  35.798  1.00  0.00     0.198 A 
ATOM     67  C   UNL A   1      45.436  25.640  36.556  1.00  0.00     0.198 A 
ATOM     68  F   UNL A   1      43.287  25.590  35.598  1.00  0.00    -0.203 F 
ATOM     69  F   UNL A   1      48.289  27.763  35.849  1.00  0.00    -0.200 F 
ATOM     70  C   UNL A   1      46.709  26.189  36.626  1.00  0.00     0.200 A 
ATOM     71  F   UNL A   1      45.101  24.621  37.360  1.00  0.00    -0.200 F 
ATOM     72  F   UNL A   1      47.607  25.693  37.488  1.00  0.00    -0.200 F 
ENDBRANCH  39  62
ENDBRANCH  13  14
ENDBRANCH   6   8
ENDBRANCH   5   6
ENDBRANCH   4   5
ENDBRANCH   3   4
ENDBRANCH   2   3
ENDBRANCH   1   2
BRANCH   1  73
ATOM     73  C   UNL A   1      32.684  25.714  26.500  1.00  0.00     0.261 C 
BRANCH  73  74
ATOM     74  O   UNL A   1      33.800  24.810  26.595  1.00  0.00    -0.463 OA
BRANCH  74  75
ATOM     75  C   UNL A   1      33.548  23.501  26.326  1.00  0.00     0.310 C 
ATOM     76  O   UNL A   1      32.839  22.775  27.008  1.00  0.00    -0.252 OA
BRANCH  75  77
ATOM     77  C   UNL A   1      34.269  23.028  25.071  1.00  0.00     0.115 C 
ATOM     78  C   UNL A   1      35.800  23.128  25.291  1.00  0.00     0.043 C 
ATOM     79  C   UNL A   1      33.858  23.791  23.808  1.00  0.00     0.097 C 
ATOM     80  C   UNL A   1      36.604  22.905  24.048  1.00  0.00    -0.030 C 
ATOM     81  C   UNL A   1      34.632  23.278  22.572  1.00  0.00     0.041 C 
ATOM     82  C   UNL A   1      36.074  22.968  22.822  1.00  0.00    -0.030 C 
BRANCH  79  83
ATOM     83  C   UNL A   1      32.401  23.898  23.335  1.00  0.00     0.227 C 
ATOM     84  O   UNL A   1      31.779  22.840  23.160  1.00  0.00    -0.275 OA
ATOM     85  N   UNL A   1      31.717  25.100  23.419  1.00  0.00    -0.331 N 
ATOM     86  C   UNL A   1      30.292  25.011  23.733  1.00  0.00     0.181 C 
ATOM     87  C   UNL A   1      32.051  26.260  22.593  1.00  0.00     0.181 C 
ATOM     88  C   UNL A   1      29.728  26.327  24.297  1.00  0.00     0.284 C 
ATOM     89  C   UNL A   1      31.454  27.580  23.117  1.00  0.00     0.284 C 
ATOM     90  N   UNL A   1      30.052  27.538  23.540  1.00  0.00    -0.328 N 
ATOM     91  H   UNL A   1      29.964  28.294  24.219  1.00  0.00     0.348 HD
BRANCH  90  92
ATOM     92  C   UNL A   1      29.064  27.987  22.564  1.00  0.00     0.299 C 
BRANCH  92  93
ATOM     93  C   UNL A   1      28.770  29.466  22.483  1.00  0.00     0.010 A 
ATOM     94  C   UNL A   1      29.078  30.324  23.566  1.00  0.00     0.013 A 
ATOM     95  C   UNL A   1      28.235  30.018  21.305  1.00  0.00     0.060 A 
ATOM     96  C   UNL A   1      28.822  31.697  23.502  1.00  0.00     0.051 A 
ATOM     97  C   UNL A   1      28.023  31.381  21.260  1.00  0.00     0.166 A 
ATOM     98  C   UNL A   1      28.296  32.195  22.332  1.00  0.00     0.165 A 
ATOM     99  O   UNL A   1      27.551  32.073  20.189  1.00  0.00    -0.454 OA
ATOM    100  O   UNL A   1      28.004  33.500  22.082  1.00  0.00    -0.454 OA
ATOM    101  C   UNL A   1      27.599  33.423  20.699  1.00  0.00     0.468 C 
ENDBRANCH  92  93
ENDBRANCH  90  92
ENDBRANCH  79  83
ENDBRANCH  75  77
ENDBRANCH  74  75
ENDBRANCH  73  74
ENDBRANCH   1  73
TORSDOF 17
ENDMDL
MODEL 3
REMARK VINA RESULT:     -12.2      4.332      9.481
REMARK SMILES O=C(OCCOCCOC(=O)[C@@H]1CC=CC[C@H]1C(=O)N1CC[NH+](Cc2ccc3c(c2)OCO3)CC1)c1ccc(-c2c3nc(c(-c4c(F)c(F)c(F)c(F)c4F)c4ccc([nH]4)c(-c4c(F)c(F)c(F)c(F)c4F)c4nc(c(-c5c(F)c(F)c(F)c(F)c5F)c5ccc2[nH]5)C=C4)C=C3)cc1
REMARK SMILES IDX 7 1 6 2 5 3 4 4 3 5 2 6 1 7 36 8 37 9 98 10 38 11 97 12
REMARK SMILES IDX 39 13 40 14 41 15 91 16 42 17 96 18 90 19 92 20 43 21 95 22
REMARK SMILES IDX 89 23 88 24 44 26 76 27 56 28 75 29 57 30 60 31 74 32 93 33
REMARK SMILES IDX 58 34 59 35 73 37 94 38 61 39 45 40 46 41 54 42 47 43 48 44
REMARK SMILES IDX 52 45 55 46 49 47 50 48 53 49 51 50 77 51 78 52 86 53 79 54
REMARK SMILES IDX 80 55 84 56 87 57 81 58 82 59 85 60 83 61 62 62 63 63 71 64
REMARK SMILES IDX 64 65 65 66 69 67 72 68 66 69 67 70 70 71 68 72 8 73 9 74
REMARK SMILES IDX 10 75 11 76 12 77 13 78 17 79 14 80 16 81 15 82 18 83 19 84
REMARK SMILES IDX 20 85 21 86 35 87 22 88 34 89 23 90 24 92 25 93 26 94 30 95
REMARK SMILES IDX 27 96 29 97 28 98 31 99 33 100 32 101
REMARK H PARENT 92 25 60 36 23 91
REMARK Flexibility Score: inf
ROOT
ATOM      1  C   UNL A   1      37.691  21.991  25.053  1.00  0.00     0.202 C 
ENDROOT
BRANCH   1   2
ATOM      2  O   UNL A   1      37.215  20.698  24.676  1.00  0.00    -0.374 OA
BRANCH   2   3
ATOM      3  C   UNL A   1      38.100  19.625  24.988  1.00  0.00     0.202 C 
BRANCH   3   4
ATOM      4  C   UNL A   1      39.378  20.043  25.719  1.00  0.00     0.261 C 
BRANCH   4   5
ATOM      5  O   UNL A   1      40.401  19.023  25.628  1.00  0.00    -0.460 OA
BRANCH   5   6
ATOM      6  C   UNL A   1      41.696  19.177  26.016  1.00  0.00     0.338 C 
ATOM      7  O   UNL A   1      42.439  18.214  26.151  1.00  0.00    -0.246 OA
BRANCH   6   8
ATOM      8  C   UNL A   1      42.219  20.540  26.277  1.00  0.00     0.060 A 
ATOM      9  C   UNL A   1      42.373  21.000  27.578  1.00  0.00     0.016 A 
ATOM     10  C   UNL A   1      42.596  21.370  25.219  1.00  0.00     0.016 A 
ATOM     11  C   UNL A   1      42.681  22.321  27.835  1.00  0.00     0.010 A 
ATOM     12  C   UNL A   1      43.048  22.671  25.481  1.00  0.00     0.010 A 
ATOM     13  C   UNL A   1      43.057  23.170  26.795  1.00  0.00    -0.014 A 
BRANCH  13  14
ATOM     14  C   UNL A   1      43.403  24.575  27.118  1.00  0.00     0.031 A 
ATOM     15  C   UNL A   1      44.751  25.111  26.740  1.00  0.00     0.074 A 
ATOM     16  C   UNL A   1      42.470  25.405  27.628  1.00  0.00     0.049 A 
ATOM     17  N   UNL A   1      45.313  26.242  27.080  1.00  0.00    -0.248 NA
ATOM     18  C   UNL A   1      45.579  24.263  25.869  1.00  0.00     0.031 C 
ATOM     19  C   UNL A   1      41.080  25.043  27.915  1.00  0.00     0.029 A 
ATOM     20  N   UNL A   1      42.527  26.742  27.930  1.00  0.00    -0.354 N 
ATOM     21  C   UNL A   1      46.593  26.196  26.546  1.00  0.00     0.074 A 
ATOM     22  C   UNL A   1      46.709  24.952  25.817  1.00  0.00     0.031 C 
ATOM     23  C   UNL A   1      40.395  26.148  28.247  1.00  0.00     0.029 A 
ATOM     24  C   UNL A   1      41.324  27.266  28.336  1.00  0.00     0.049 A 
ATOM     25  H   UNL A   1      43.352  27.275  27.861  1.00  0.00     0.167 HD
ATOM     26  C   UNL A   1      47.586  27.105  26.690  1.00  0.00     0.037 A 
ATOM     27  C   UNL A   1      41.017  28.499  28.780  1.00  0.00     0.037 A 
ATOM     28  C   UNL A   1      47.424  28.361  27.370  1.00  0.00     0.049 A 
ATOM     29  C   UNL A   1      42.136  29.489  28.946  1.00  0.00     0.074 A 
ATOM     30  C   UNL A   1      48.373  29.322  27.666  1.00  0.00     0.029 A 
ATOM     31  N   UNL A   1      46.207  28.842  27.834  1.00  0.00    -0.354 N 
ATOM     32  N   UNL A   1      43.396  29.376  28.606  1.00  0.00    -0.248 NA
ATOM     33  C   UNL A   1      41.802  30.755  29.611  1.00  0.00     0.031 C 
ATOM     34  C   UNL A   1      47.731  30.378  28.327  1.00  0.00     0.029 A 
ATOM     35  C   UNL A   1      46.378  30.087  28.411  1.00  0.00     0.049 A 
ATOM     36  H   UNL A   1      45.348  28.367  27.762  1.00  0.00     0.167 HD
ATOM     37  C   UNL A   1      44.012  30.543  29.031  1.00  0.00     0.074 A 
ATOM     38  C   UNL A   1      42.976  31.372  29.614  1.00  0.00     0.031 C 
ATOM     39  C   UNL A   1      45.321  30.888  28.974  1.00  0.00     0.037 A 
BRANCH  26  40
ATOM     40  C   UNL A   1      48.943  26.716  26.191  1.00  0.00     0.064 A 
ATOM     41  C   UNL A   1      49.866  26.019  26.982  1.00  0.00     0.173 A 
ATOM     42  C   UNL A   1      49.334  27.082  24.892  1.00  0.00     0.173 A 
ATOM     43  F   UNL A   1      49.551  25.673  28.239  1.00  0.00    -0.203 F 
ATOM     44  C   UNL A   1      51.140  25.724  26.500  1.00  0.00     0.198 A 
ATOM     45  C   UNL A   1      50.599  26.764  24.406  1.00  0.00     0.198 A 
ATOM     46  F   UNL A   1      48.490  27.755  24.096  1.00  0.00    -0.203 F 
ATOM     47  F   UNL A   1      52.026  25.102  27.291  1.00  0.00    -0.200 F 
ATOM     48  C   UNL A   1      51.504  26.093  25.213  1.00  0.00     0.200 A 
ATOM     49  F   UNL A   1      50.946  27.121  23.161  1.00  0.00    -0.200 F 
ATOM     50  F   UNL A   1      52.733  25.816  24.756  1.00  0.00    -0.200 F 
ENDBRANCH  26  40
BRANCH  27  51
ATOM     51  C   UNL A   1      39.620  28.841  29.159  1.00  0.00     0.064 A 
ATOM     52  C   UNL A   1      38.721  29.347  28.209  1.00  0.00     0.173 A 
ATOM     53  C   UNL A   1      39.149  28.670  30.471  1.00  0.00     0.173 A 
ATOM     54  F   UNL A   1      39.129  29.556  26.949  1.00  0.00    -0.203 F 
ATOM     55  C   UNL A   1      37.411  29.671  28.557  1.00  0.00     0.198 A 
ATOM     56  C   UNL A   1      37.830  28.961  30.809  1.00  0.00     0.198 A 
ATOM     57  F   UNL A   1      39.968  28.198  31.422  1.00  0.00    -0.203 F 
ATOM     58  F   UNL A   1      36.585  30.191  27.640  1.00  0.00    -0.200 F 
ATOM     59  C   UNL A   1      36.963  29.468  29.855  1.00  0.00     0.200 A 
ATOM     60  F   UNL A   1      37.400  28.749  32.060  1.00  0.00    -0.200 F 
ATOM     61  F   UNL A   1      35.701  29.769  30.186  1.00  0.00    -0.200 F 
ENDBRANCH  27  51
BRANCH  39  62
ATOM     62  C   UNL A   1      45.694  32.218  29.550  1.00  0.00     0.064 A 
ATOM     63  C   UNL A   1      45.670  33.380  28.767  1.00  0.00     0.173 A 
ATOM     64  C   UNL A   1      46.032  32.336  30.905  1.00  0.00     0.173 A 
ATOM     65  F   UNL A   1      45.368  33.310  27.463  1.00  0.00    -0.203 F 
ATOM     66  C   UNL A   1      45.989  34.617  29.320  1.00  0.00     0.198 A 
ATOM     67  C   UNL A   1      46.331  33.577  31.458  1.00  0.00     0.198 A 
ATOM     68  F   UNL A   1      46.066  31.250  31.691  1.00  0.00    -0.203 F 
ATOM     69  F   UNL A   1      45.994  35.712  28.547  1.00  0.00    -0.200 F 
ATOM     70  C   UNL A   1      46.312  34.715  30.665  1.00  0.00     0.200 A 
ATOM     71  F   UNL A   1      46.636  33.672  32.760  1.00  0.00    -0.200 F 
ATOM     72  F   UNL A   1      46.613  35.908  31.197  1.00  0.00    -0.200 F 
ENDBRANCH  39  62
ENDBRANCH  13  14
ENDBRANCH   6   8
ENDBRANCH   5   6
ENDBRANCH   4   5
ENDBRANCH   3   4
ENDBRANCH   2   3
ENDBRANCH   1   2
BRANCH   1  73
ATOM     73  C   UNL A   1      36.562  22.999  24.902  1.00  0.00     0.261 C 
BRANCH  73  74
ATOM     74  O   UNL A   1      36.180  23.065  23.517  1.00  0.00    -0.463 OA
BRANCH  74  75
ATOM     75  C   UNL A   1      34.860  23.266  23.258  1.00  0.00     0.310 C 
ATOM     76  O   UNL A   1      34.426  23.919  22.318  1.00  0.00    -0.252 OA
BRANCH  75  77
ATOM     77  C   UNL A   1      33.967  22.592  24.291  1.00  0.00     0.115 C 
ATOM     78  C   UNL A   1      33.510  21.213  23.751  1.00  0.00     0.043 C 
ATOM     79  C   UNL A   1      32.756  23.439  24.694  1.00  0.00     0.097 C 
ATOM     80  C   UNL A   1      32.449  20.562  24.581  1.00  0.00    -0.030 C 
ATOM     81  C   UNL A   1      31.880  22.699  25.731  1.00  0.00     0.041 C 
ATOM     82  C   UNL A   1      31.717  21.232  25.478  1.00  0.00    -0.030 C 
BRANCH  79  83
ATOM     83  C   UNL A   1      32.882  24.868  25.243  1.00  0.00     0.227 C 
ATOM     84  O   UNL A   1      33.814  25.096  26.028  1.00  0.00    -0.275 OA
ATOM     85  N   UNL A   1      32.203  25.916  24.646  1.00  0.00    -0.331 N 
ATOM     86  C   UNL A   1      32.893  27.205  24.629  1.00  0.00     0.181 C 
ATOM     87  C   UNL A   1      30.747  26.048  24.693  1.00  0.00     0.181 C 
ATOM     88  C   UNL A   1      32.344  28.156  23.551  1.00  0.00     0.284 C 
ATOM     89  C   UNL A   1      30.184  27.032  23.652  1.00  0.00     0.284 C 
ATOM     90  N   UNL A   1      30.888  28.309  23.515  1.00  0.00    -0.328 N 
ATOM     91  H   UNL A   1      30.687  28.615  22.563  1.00  0.00     0.348 HD
BRANCH  90  92
ATOM     92  C   UNL A   1      30.329  29.443  24.246  1.00  0.00     0.299 C 
BRANCH  92  93
ATOM     93  C   UNL A   1      29.600  30.504  23.456  1.00  0.00     0.010 A 
ATOM     94  C   UNL A   1      29.419  31.803  23.988  1.00  0.00     0.013 A 
ATOM     95  C   UNL A   1      29.141  30.229  22.156  1.00  0.00     0.060 A 
ATOM     96  C   UNL A   1      28.756  32.800  23.265  1.00  0.00     0.051 A 
ATOM     97  C   UNL A   1      28.519  31.242  21.453  1.00  0.00     0.166 A 
ATOM     98  C   UNL A   1      28.320  32.487  21.998  1.00  0.00     0.165 A 
ATOM     99  O   UNL A   1      28.055  31.151  20.179  1.00  0.00    -0.454 OA
ATOM    100  O   UNL A   1      27.681  33.331  21.145  1.00  0.00    -0.454 OA
ATOM    101  C   UNL A   1      27.578  32.498  19.971  1.00  0.00     0.468 C 
ENDBRANCH  92  93
ENDBRANCH  90  92
ENDBRANCH  79  83
ENDBRANCH  75  77
ENDBRANCH  74  75
ENDBRANCH  73  74
ENDBRANCH   1  73
TORSDOF 17
ENDMDL
