MODEL 1
REMARK VINA RESULT:     -12.8      0.000      0.000
REMARK SMILES Cc1nc(-c2ccccc2Cl)sc1C(=O)NC[C@H]1CC[C@@H](C(=O)OCCOCCOC(=O)c2ccc(-c3c4nc(c(-c5c(F)c(F)c(F)c(F)c5F)c5ccc([nH]5)c(-c5c(F)c(F)c(F)c(F)c5F)c5nc(c(-c6c(F)c(F)c(F)c(F)c6F)c6ccc3[nH]6)C=C5)C=C4)cc2)CC1
REMARK SMILES IDX 26 1 25 2 24 3 22 4 23 5 21 6 18 7 19 8 97 9 20 10 96 11
REMARK SMILES IDX 17 12 16 13 14 14 15 15 13 17 1 18 2 19 3 20 4 21 12 22 5 23
REMARK SMILES IDX 6 24 10 25 7 26 9 27 11 28 8 29 27 30 28 31 29 32 30 33
REMARK SMILES IDX 31 34 32 35 33 36 34 37 95 38 35 39 94 40 36 41 37 42 38 43
REMARK SMILES IDX 88 44 39 45 93 46 87 47 89 48 40 49 92 50 86 51 85 52 41 54
REMARK SMILES IDX 73 55 53 56 72 57 54 58 57 59 71 60 90 61 55 62 56 63 70 65
REMARK SMILES IDX 91 66 58 67 42 68 43 69 51 70 44 71 45 72 49 73 52 74 46 75
REMARK SMILES IDX 47 76 50 77 48 78 74 79 75 80 83 81 76 82 77 83 81 84 84 85
REMARK SMILES IDX 78 86 79 87 82 88 80 89 59 90 60 91 68 92 61 93 62 94 66 95
REMARK SMILES IDX 69 96 63 97 64 98 67 99 65 100
REMARK H PARENT 16 16 89 53 57 64
REMARK Flexibility Score: inf
ROOT
ATOM      1  C   UNL A   1      41.065  20.268  26.402  1.00  0.00     0.202 C 
ENDROOT
BRANCH   1   2
ATOM      2  C   UNL A   1      40.019  21.385  26.492  1.00  0.00     0.261 C 
BRANCH   2   3
ATOM      3  O   UNL A   1      39.046  21.272  25.440  1.00  0.00    -0.463 OA
BRANCH   3   4
ATOM      4  C   UNL A   1      38.000  22.138  25.471  1.00  0.00     0.309 C 
ATOM      5  O   UNL A   1      37.974  23.176  26.122  1.00  0.00    -0.252 OA
BRANCH   4   6
ATOM      6  C   UNL A   1      36.809  21.660  24.643  1.00  0.00     0.099 C 
ATOM      7  C   UNL A   1      34.283  22.834  25.774  1.00  0.00     0.008 C 
ATOM      8  C   UNL A   1      35.307  23.669  24.978  1.00  0.00     0.006 C 
ATOM      9  C   UNL A   1      34.913  21.560  26.359  1.00  0.00     0.006 C 
ATOM     10  C   UNL A   1      36.117  22.848  23.978  1.00  0.00     0.015 C 
ATOM     11  C   UNL A   1      35.775  20.794  25.360  1.00  0.00     0.015 C 
BRANCH   7  12
ATOM     12  C   UNL A   1      33.652  23.703  26.886  1.00  0.00     0.119 C 
BRANCH  12  13
ATOM     13  N   UNL A   1      32.275  23.333  27.123  1.00  0.00    -0.351 N 
ATOM     14  C   UNL A   1      31.057  23.579  26.544  1.00  0.00     0.263 C 
ATOM     15  O   UNL A   1      30.144  23.012  27.161  1.00  0.00    -0.268 OA
ATOM     16  H   UNL A   1      32.187  22.748  27.911  1.00  0.00     0.163 HD
BRANCH  14  17
ATOM     17  C   UNL A   1      30.797  24.385  25.351  1.00  0.00     0.115 A 
ATOM     18  C   UNL A   1      31.753  23.370  23.131  1.00  0.00     0.068 C 
ATOM     19  C   UNL A   1      31.040  24.342  23.980  1.00  0.00     0.062 A 
ATOM     20  N   UNL A   1      30.563  25.418  23.248  1.00  0.00    -0.240 NA
ATOM     21  C   UNL A   1      30.041  26.330  24.027  1.00  0.00     0.125 A 
ATOM     22  S   UNL A   1      29.946  25.893  25.667  1.00  0.00    -0.108 S 
BRANCH  21  23
ATOM     23  C   UNL A   1      29.483  27.577  23.508  1.00  0.00     0.029 A 
ATOM     24  C   UNL A   1      28.081  27.699  23.499  1.00  0.00     0.013 A 
ATOM     25  C   UNL A   1      30.251  28.593  22.920  1.00  0.00     0.051 A 
ATOM     26  C   UNL A   1      27.459  28.811  22.931  1.00  0.00     0.001 A 
ATOM     27  C   UNL A   1      29.623  29.709  22.354  1.00  0.00     0.021 A 
ATOM     28  Cl  UNL A   1      31.974  28.509  22.788  1.00  0.00    -0.084 Cl
ATOM     29  C   UNL A   1      28.231  29.817  22.358  1.00  0.00     0.002 A 
ENDBRANCH  21  23
ENDBRANCH  14  17
ENDBRANCH  12  13
ENDBRANCH   7  12
ENDBRANCH   4   6
ENDBRANCH   3   4
ENDBRANCH   2   3
ENDBRANCH   1   2
BRANCH   1  30
ATOM     30  O   UNL A   1      42.417  20.659  26.635  1.00  0.00    -0.374 OA
BRANCH  30  31
ATOM     31  C   UNL A   1      43.326  20.558  25.539  1.00  0.00     0.202 C 
BRANCH  31  32
ATOM     32  C   UNL A   1      44.082  21.841  25.169  1.00  0.00     0.261 C 
BRANCH  32  33
ATOM     33  O   UNL A   1      43.201  22.948  24.888  1.00  0.00    -0.460 OA
BRANCH  33  34
ATOM     34  C   UNL A   1      43.783  24.166  24.992  1.00  0.00     0.338 C 
ATOM     35  O   UNL A   1      44.776  24.572  24.399  1.00  0.00    -0.246 OA
BRANCH  34  36
ATOM     36  C   UNL A   1      42.989  25.061  25.849  1.00  0.00     0.060 A 
ATOM     37  C   UNL A   1      43.428  26.384  25.984  1.00  0.00     0.016 A 
ATOM     38  C   UNL A   1      41.937  24.579  26.631  1.00  0.00     0.016 A 
ATOM     39  C   UNL A   1      42.854  27.214  26.945  1.00  0.00     0.010 A 
ATOM     40  C   UNL A   1      41.364  25.415  27.599  1.00  0.00     0.010 A 
ATOM     41  C   UNL A   1      41.848  26.722  27.788  1.00  0.00    -0.014 A 
BRANCH  41  42
ATOM     42  C   UNL A   1      41.418  27.535  28.955  1.00  0.00     0.031 A 
ATOM     43  C   UNL A   1      42.195  27.449  30.241  1.00  0.00     0.074 A 
ATOM     44  C   UNL A   1      40.377  28.381  28.857  1.00  0.00     0.049 A 
ATOM     45  N   UNL A   1      42.001  28.077  31.374  1.00  0.00    -0.248 NA
ATOM     46  C   UNL A   1      43.348  26.535  30.252  1.00  0.00     0.031 C 
ATOM     47  C   UNL A   1      39.567  28.585  27.658  1.00  0.00     0.029 A 
ATOM     48  N   UNL A   1      39.827  29.228  29.786  1.00  0.00    -0.354 N 
ATOM     49  C   UNL A   1      43.001  27.634  32.229  1.00  0.00     0.074 A 
ATOM     50  C   UNL A   1      43.785  26.664  31.496  1.00  0.00     0.031 C 
ATOM     51  C   UNL A   1      38.616  29.495  27.927  1.00  0.00     0.029 A 
ATOM     52  C   UNL A   1      38.737  29.920  29.321  1.00  0.00     0.049 A 
ATOM     53  H   UNL A   1      40.180  29.329  30.700  1.00  0.00     0.167 HD
ATOM     54  C   UNL A   1      43.252  28.010  33.507  1.00  0.00     0.037 A 
ATOM     55  C   UNL A   1      37.922  30.787  29.953  1.00  0.00     0.037 A 
ATOM     56  C   UNL A   1      42.480  28.979  34.239  1.00  0.00     0.049 A 
ATOM     57  C   UNL A   1      38.187  31.145  31.392  1.00  0.00     0.074 A 
ATOM     58  C   UNL A   1      42.671  29.439  35.531  1.00  0.00     0.029 A 
ATOM     59  N   UNL A   1      41.364  29.635  33.743  1.00  0.00    -0.354 N 
ATOM     60  N   UNL A   1      39.152  30.742  32.182  1.00  0.00    -0.248 NA
ATOM     61  C   UNL A   1      37.250  32.086  32.025  1.00  0.00     0.031 C 
ATOM     62  C   UNL A   1      41.644  30.342  35.831  1.00  0.00     0.029 A 
ATOM     63  C   UNL A   1      40.841  30.478  34.711  1.00  0.00     0.049 A 
ATOM     64  H   UNL A   1      40.996  29.519  32.837  1.00  0.00     0.167 HD
ATOM     65  C   UNL A   1      38.955  31.396  33.391  1.00  0.00     0.074 A 
ATOM     66  C   UNL A   1      37.784  32.233  33.229  1.00  0.00     0.031 C 
ATOM     67  C   UNL A   1      39.679  31.310  34.534  1.00  0.00     0.037 A 
BRANCH  54  68
ATOM     68  C   UNL A   1      44.404  27.354  34.207  1.00  0.00     0.064 A 
ATOM     69  C   UNL A   1      45.679  27.938  34.230  1.00  0.00     0.173 A 
ATOM     70  C   UNL A   1      44.221  26.148  34.899  1.00  0.00     0.173 A 
ATOM     71  F   UNL A   1      45.909  29.085  33.572  1.00  0.00    -0.203 F 
ATOM     72  C   UNL A   1      46.735  27.325  34.902  1.00  0.00     0.198 A 
ATOM     73  C   UNL A   1      45.271  25.551  35.591  1.00  0.00     0.198 A 
ATOM     74  F   UNL A   1      43.019  25.551  34.912  1.00  0.00    -0.203 F 
ATOM     75  F   UNL A   1      47.954  27.880  34.878  1.00  0.00    -0.200 F 
ATOM     76  C   UNL A   1      46.528  26.137  35.587  1.00  0.00     0.200 A 
ATOM     77  F   UNL A   1      45.068  24.409  36.261  1.00  0.00    -0.200 F 
ATOM     78  F   UNL A   1      47.543  25.553  36.240  1.00  0.00    -0.200 F 
ENDBRANCH  54  68
BRANCH  55  79
ATOM     79  C   UNL A   1      36.767  31.376  29.229  1.00  0.00     0.064 A 
ATOM     80  C   UNL A   1      36.763  32.724  28.846  1.00  0.00     0.173 A 
ATOM     81  C   UNL A   1      35.638  30.605  28.917  1.00  0.00     0.173 A 
ATOM     82  F   UNL A   1      37.810  33.507  29.144  1.00  0.00    -0.203 F 
ATOM     83  C   UNL A   1      35.667  33.283  28.191  1.00  0.00     0.198 A 
ATOM     84  C   UNL A   1      34.553  31.157  28.241  1.00  0.00     0.198 A 
ATOM     85  F   UNL A   1      35.594  29.310  29.265  1.00  0.00    -0.203 F 
ATOM     86  F   UNL A   1      35.671  34.584  27.872  1.00  0.00    -0.200 F 
ATOM     87  C   UNL A   1      34.565  32.497  27.884  1.00  0.00     0.200 A 
ATOM     88  F   UNL A   1      33.496  30.393  27.937  1.00  0.00    -0.200 F 
ATOM     89  F   UNL A   1      33.514  33.034  27.251  1.00  0.00    -0.200 F 
ENDBRANCH  55  79
BRANCH  67  90
ATOM     90  C   UNL A   1      39.248  32.165  35.690  1.00  0.00     0.064 A 
ATOM     91  C   UNL A   1      38.351  31.693  36.659  1.00  0.00     0.173 A 
ATOM     92  C   UNL A   1      39.768  33.458  35.850  1.00  0.00     0.173 A 
ATOM     93  F   UNL A   1      37.816  30.468  36.542  1.00  0.00    -0.203 F 
ATOM     94  C   UNL A   1      37.972  32.493  37.734  1.00  0.00     0.198 A 
ATOM     95  C   UNL A   1      39.407  34.246  36.940  1.00  0.00     0.198 A 
ATOM     96  F   UNL A   1      40.634  33.955  34.954  1.00  0.00    -0.203 F 
ATOM     97  F   UNL A   1      37.082  32.037  38.626  1.00  0.00    -0.200 F 
ATOM     98  C   UNL A   1      38.505  33.765  37.877  1.00  0.00     0.200 A 
ATOM     99  F   UNL A   1      39.931  35.471  37.082  1.00  0.00    -0.200 F 
ATOM    100  F   UNL A   1      38.144  34.531  38.915  1.00  0.00    -0.200 F 
ENDBRANCH  67  90
ENDBRANCH  41  42
ENDBRANCH  34  36
ENDBRANCH  33  34
ENDBRANCH  32  33
ENDBRANCH  31  32
ENDBRANCH  30  31
ENDBRANCH   1  30
TORSDOF 18
ENDMDL
MODEL 2
REMARK VINA RESULT:     -12.1      4.486      6.728
REMARK SMILES Cc1nc(-c2ccccc2Cl)sc1C(=O)NC[C@H]1CC[C@@H](C(=O)OCCOCCOC(=O)c2ccc(-c3c4nc(c(-c5c(F)c(F)c(F)c(F)c5F)c5ccc([nH]5)c(-c5c(F)c(F)c(F)c(F)c5F)c5nc(c(-c6c(F)c(F)c(F)c(F)c6F)c6ccc3[nH]6)C=C5)C=C4)cc2)CC1
REMARK SMILES IDX 26 1 25 2 24 3 22 4 23 5 21 6 18 7 19 8 97 9 20 10 96 11
REMARK SMILES IDX 17 12 16 13 14 14 15 15 13 17 1 18 2 19 3 20 4 21 12 22 5 23
REMARK SMILES IDX 6 24 10 25 7 26 9 27 11 28 8 29 27 30 28 31 29 32 30 33
REMARK SMILES IDX 31 34 32 35 33 36 34 37 95 38 35 39 94 40 36 41 37 42 38 43
REMARK SMILES IDX 88 44 39 45 93 46 87 47 89 48 40 49 92 50 86 51 85 52 41 54
REMARK SMILES IDX 73 55 53 56 72 57 54 58 57 59 71 60 90 61 55 62 56 63 70 65
REMARK SMILES IDX 91 66 58 67 42 68 43 69 51 70 44 71 45 72 49 73 52 74 46 75
REMARK SMILES IDX 47 76 50 77 48 78 74 79 75 80 83 81 76 82 77 83 81 84 84 85
REMARK SMILES IDX 78 86 79 87 82 88 80 89 59 90 60 91 68 92 61 93 62 94 66 95
REMARK SMILES IDX 69 96 63 97 64 98 67 99 65 100
REMARK H PARENT 16 16 89 53 57 64
REMARK Flexibility Score: inf
ROOT
ATOM      1  C   UNL A   1      37.132  22.244  24.633  1.00  0.00     0.202 C 
ENDROOT
BRANCH   1   2
ATOM      2  C   UNL A   1      35.679  22.315  24.150  1.00  0.00     0.261 C 
BRANCH   2   3
ATOM      3  O   UNL A   1      34.810  21.549  25.001  1.00  0.00    -0.463 OA
BRANCH   3   4
ATOM      4  C   UNL A   1      33.495  21.509  24.664  1.00  0.00     0.309 C 
ATOM      5  O   UNL A   1      33.071  21.460  23.516  1.00  0.00    -0.252 OA
BRANCH   4   6
ATOM      6  C   UNL A   1      32.569  21.584  25.877  1.00  0.00     0.099 C 
ATOM      7  C   UNL A   1      31.902  24.463  26.433  1.00  0.00     0.008 C 
ATOM      8  C   UNL A   1      31.311  23.686  25.239  1.00  0.00     0.006 C 
ATOM      9  C   UNL A   1      33.201  23.821  26.948  1.00  0.00     0.006 C 
ATOM     10  C   UNL A   1      31.221  22.180  25.476  1.00  0.00     0.015 C 
ATOM     11  C   UNL A   1      33.108  22.307  27.110  1.00  0.00     0.015 C 
BRANCH   7  12
ATOM     12  C   UNL A   1      32.132  25.938  26.033  1.00  0.00     0.119 C 
BRANCH  12  13
ATOM     13  N   UNL A   1      32.561  26.047  24.656  1.00  0.00    -0.351 N 
ATOM     14  C   UNL A   1      32.091  26.618  23.502  1.00  0.00     0.263 C 
ATOM     15  O   UNL A   1      32.860  26.408  22.553  1.00  0.00    -0.268 OA
ATOM     16  H   UNL A   1      33.420  25.589  24.508  1.00  0.00     0.163 HD
BRANCH  14  17
ATOM     17  C   UNL A   1      30.861  27.392  23.342  1.00  0.00     0.115 A 
ATOM     18  C   UNL A   1      28.677  26.108  24.018  1.00  0.00     0.068 C 
ATOM     19  C   UNL A   1      29.490  27.242  23.542  1.00  0.00     0.062 A 
ATOM     20  N   UNL A   1      28.707  28.337  23.208  1.00  0.00    -0.240 NA
ATOM     21  C   UNL A   1      29.425  29.290  22.675  1.00  0.00     0.125 A 
ATOM     22  S   UNL A   1      31.102  29.004  22.677  1.00  0.00    -0.108 S 
BRANCH  21  23
ATOM     23  C   UNL A   1      28.840  30.547  22.215  1.00  0.00     0.029 A 
ATOM     24  C   UNL A   1      28.324  30.575  20.905  1.00  0.00     0.013 A 
ATOM     25  C   UNL A   1      28.870  31.741  22.951  1.00  0.00     0.051 A 
ATOM     26  C   UNL A   1      27.838  31.757  20.347  1.00  0.00     0.001 A 
ATOM     27  C   UNL A   1      28.378  32.925  22.389  1.00  0.00     0.021 A 
ATOM     28  Cl  UNL A   1      29.564  31.851  24.531  1.00  0.00    -0.084 Cl
ATOM     29  C   UNL A   1      27.865  32.934  21.090  1.00  0.00     0.002 A 
ENDBRANCH  21  23
ENDBRANCH  14  17
ENDBRANCH  12  13
ENDBRANCH   7  12
ENDBRANCH   4   6
ENDBRANCH   3   4
ENDBRANCH   2   3
ENDBRANCH   1   2
BRANCH   1  30
ATOM     30  O   UNL A   1      37.446  21.164  25.512  1.00  0.00    -0.374 OA
BRANCH  30  31
ATOM     31  C   UNL A   1      38.044  20.004  24.936  1.00  0.00     0.202 C 
BRANCH  31  32
ATOM     32  C   UNL A   1      39.312  19.484  25.626  1.00  0.00     0.261 C 
BRANCH  32  33
ATOM     33  O   UNL A   1      40.324  20.501  25.778  1.00  0.00    -0.460 OA
BRANCH  33  34
ATOM     34  C   UNL A   1      40.907  20.532  26.999  1.00  0.00     0.338 C 
ATOM     35  O   UNL A   1      41.380  19.590  27.624  1.00  0.00    -0.246 OA
BRANCH  34  36
ATOM     36  C   UNL A   1      41.041  21.914  27.487  1.00  0.00     0.060 A 
ATOM     37  C   UNL A   1      40.444  22.928  26.728  1.00  0.00     0.016 A 
ATOM     38  C   UNL A   1      41.868  22.229  28.568  1.00  0.00     0.016 A 
ATOM     39  C   UNL A   1      40.718  24.264  27.012  1.00  0.00     0.010 A 
ATOM     40  C   UNL A   1      42.144  23.574  28.848  1.00  0.00     0.010 A 
ATOM     41  C   UNL A   1      41.605  24.595  28.046  1.00  0.00    -0.014 A 
BRANCH  41  42
ATOM     42  C   UNL A   1      42.070  26.000  28.180  1.00  0.00     0.031 A 
ATOM     43  C   UNL A   1      43.390  26.401  27.578  1.00  0.00     0.074 A 
ATOM     44  C   UNL A   1      41.304  26.923  28.787  1.00  0.00     0.049 A 
ATOM     45  N   UNL A   1      43.980  27.570  27.569  1.00  0.00    -0.248 NA
ATOM     46  C   UNL A   1      44.147  25.342  26.891  1.00  0.00     0.031 C 
ATOM     47  C   UNL A   1      39.991  26.672  29.376  1.00  0.00     0.029 A 
ATOM     48  N   UNL A   1      41.524  28.260  29.003  1.00  0.00    -0.354 N 
ATOM     49  C   UNL A   1      45.172  27.388  26.881  1.00  0.00     0.074 A 
ATOM     50  C   UNL A   1      45.238  25.990  26.511  1.00  0.00     0.031 C 
ATOM     51  C   UNL A   1      39.523  27.820  29.897  1.00  0.00     0.029 A 
ATOM     52  C   UNL A   1      40.512  28.878  29.696  1.00  0.00     0.049 A 
ATOM     53  H   UNL A   1      42.330  28.732  28.692  1.00  0.00     0.167 HD
ATOM     54  C   UNL A   1      46.123  28.304  26.574  1.00  0.00     0.037 A 
ATOM     55  C   UNL A   1      40.403  30.149  30.130  1.00  0.00     0.037 A 
ATOM     56  C   UNL A   1      46.059  29.697  26.934  1.00  0.00     0.049 A 
ATOM     57  C   UNL A   1      41.500  31.136  29.826  1.00  0.00     0.074 A 
ATOM     58  C   UNL A   1      46.965  30.704  26.649  1.00  0.00     0.029 A 
ATOM     59  N   UNL A   1      45.033  30.277  27.663  1.00  0.00    -0.354 N 
ATOM     60  N   UNL A   1      42.610  30.960  29.151  1.00  0.00    -0.248 NA
ATOM     61  C   UNL A   1      41.325  32.502  30.342  1.00  0.00     0.031 C 
ATOM     62  C   UNL A   1      46.507  31.886  27.243  1.00  0.00     0.029 A 
ATOM     63  C   UNL A   1      45.294  31.624  27.859  1.00  0.00     0.049 A 
ATOM     64  H   UNL A   1      44.236  29.802  27.994  1.00  0.00     0.167 HD
ATOM     65  C   UNL A   1      43.250  32.192  29.138  1.00  0.00     0.074 A 
ATOM     66  C   UNL A   1      42.400  33.113  29.864  1.00  0.00     0.031 C 
ATOM     67  C   UNL A   1      44.436  32.530  28.577  1.00  0.00     0.037 A 
BRANCH  54  68
ATOM     68  C   UNL A   1      47.330  27.825  25.824  1.00  0.00     0.064 A 
ATOM     69  C   UNL A   1      47.345  27.757  24.424  1.00  0.00     0.173 A 
ATOM     70  C   UNL A   1      48.498  27.469  26.513  1.00  0.00     0.173 A 
ATOM     71  F   UNL A   1      46.248  28.074  23.720  1.00  0.00    -0.203 F 
ATOM     72  C   UNL A   1      48.481  27.328  23.740  1.00  0.00     0.198 A 
ATOM     73  C   UNL A   1      49.640  27.066  25.827  1.00  0.00     0.198 A 
ATOM     74  F   UNL A   1      48.537  27.522  27.853  1.00  0.00    -0.203 F 
ATOM     75  F   UNL A   1      48.462  27.234  22.404  1.00  0.00    -0.200 F 
ATOM     76  C   UNL A   1      49.629  26.990  24.442  1.00  0.00     0.200 A 
ATOM     77  F   UNL A   1      50.751  26.749  26.505  1.00  0.00    -0.200 F 
ATOM     78  F   UNL A   1      50.724  26.585  23.783  1.00  0.00    -0.200 F 
ENDBRANCH  54  68
BRANCH  55  79
ATOM     79  C   UNL A   1      39.209  30.563  30.908  1.00  0.00     0.064 A 
ATOM     80  C   UNL A   1      39.150  30.383  32.297  1.00  0.00     0.173 A 
ATOM     81  C   UNL A   1      38.095  31.135  30.276  1.00  0.00     0.173 A 
ATOM     82  F   UNL A   1      40.181  29.817  32.942  1.00  0.00    -0.203 F 
ATOM     83  C   UNL A   1      38.017  30.747  33.022  1.00  0.00     0.198 A 
ATOM     84  C   UNL A   1      36.973  31.521  31.004  1.00  0.00     0.198 A 
ATOM     85  F   UNL A   1      38.103  31.326  28.948  1.00  0.00    -0.203 F 
ATOM     86  F   UNL A   1      37.970  30.527  34.342  1.00  0.00    -0.200 F 
ATOM     87  C   UNL A   1      36.932  31.321  32.376  1.00  0.00     0.200 A 
ATOM     88  F   UNL A   1      35.931  32.085  30.378  1.00  0.00    -0.200 F 
ATOM     89  F   UNL A   1      35.844  31.674  33.074  1.00  0.00    -0.200 F 
ENDBRANCH  55  79
BRANCH  67  90
ATOM     90  C   UNL A   1      44.872  33.962  28.695  1.00  0.00     0.064 A 
ATOM     91  C   UNL A   1      44.487  34.926  27.754  1.00  0.00     0.173 A 
ATOM     92  C   UNL A   1      45.653  34.379  29.784  1.00  0.00     0.173 A 
ATOM     93  F   UNL A   1      43.753  34.574  26.687  1.00  0.00    -0.203 F 
ATOM     94  C   UNL A   1      44.887  36.254  27.885  1.00  0.00     0.198 A 
ATOM     95  C   UNL A   1      46.029  35.712  29.926  1.00  0.00     0.198 A 
ATOM     96  F   UNL A   1      46.042  33.496  30.715  1.00  0.00    -0.203 F 
ATOM     97  F   UNL A   1      44.542  37.152  26.951  1.00  0.00    -0.200 F 
ATOM     98  C   UNL A   1      45.651  36.647  28.974  1.00  0.00     0.200 A 
ATOM     99  F   UNL A   1      46.759  36.092  30.984  1.00  0.00    -0.200 F 
ATOM    100  F   UNL A   1      46.030  37.926  29.101  1.00  0.00    -0.200 F 
ENDBRANCH  67  90
ENDBRANCH  41  42
ENDBRANCH  34  36
ENDBRANCH  33  34
ENDBRANCH  32  33
ENDBRANCH  31  32
ENDBRANCH  30  31
ENDBRANCH   1  30
TORSDOF 18
ENDMDL
MODEL 3
REMARK VINA RESULT:     -12.1      3.548      9.015
REMARK SMILES Cc1nc(-c2ccccc2Cl)sc1C(=O)NC[C@H]1CC[C@@H](C(=O)OCCOCCOC(=O)c2ccc(-c3c4nc(c(-c5c(F)c(F)c(F)c(F)c5F)c5ccc([nH]5)c(-c5c(F)c(F)c(F)c(F)c5F)c5nc(c(-c6c(F)c(F)c(F)c(F)c6F)c6ccc3[nH]6)C=C5)C=C4)cc2)CC1
REMARK SMILES IDX 26 1 25 2 24 3 22 4 23 5 21 6 18 7 19 8 97 9 20 10 96 11
REMARK SMILES IDX 17 12 16 13 14 14 15 15 13 17 1 18 2 19 3 20 4 21 12 22 5 23
REMARK SMILES IDX 6 24 10 25 7 26 9 27 11 28 8 29 27 30 28 31 29 32 30 33
REMARK SMILES IDX 31 34 32 35 33 36 34 37 95 38 35 39 94 40 36 41 37 42 38 43
REMARK SMILES IDX 88 44 39 45 93 46 87 47 89 48 40 49 92 50 86 51 85 52 41 54
REMARK SMILES IDX 73 55 53 56 72 57 54 58 57 59 71 60 90 61 55 62 56 63 70 65
REMARK SMILES IDX 91 66 58 67 42 68 43 69 51 70 44 71 45 72 49 73 52 74 46 75
REMARK SMILES IDX 47 76 50 77 48 78 74 79 75 80 83 81 76 82 77 83 81 84 84 85
REMARK SMILES IDX 78 86 79 87 82 88 80 89 59 90 60 91 68 92 61 93 62 94 66 95
REMARK SMILES IDX 69 96 63 97 64 98 67 99 65 100
REMARK H PARENT 16 16 89 53 57 64
REMARK Flexibility Score: inf
ROOT
ATOM      1  C   UNL A   1      31.751  29.526  25.973  1.00  0.00     0.202 C 
ENDROOT
BRANCH   1   2
ATOM      2  C   UNL A   1      31.087  29.700  24.603  1.00  0.00     0.261 C 
BRANCH   2   3
ATOM      3  O   UNL A   1      30.740  28.429  24.028  1.00  0.00    -0.463 OA
BRANCH   3   4
ATOM      4  C   UNL A   1      30.643  28.371  22.674  1.00  0.00     0.309 C 
ATOM      5  O   UNL A   1      29.890  29.062  21.999  1.00  0.00    -0.252 OA
BRANCH   4   6
ATOM      6  C   UNL A   1      31.543  27.300  22.061  1.00  0.00     0.099 C 
ATOM      7  C   UNL A   1      33.174  26.014  24.235  1.00  0.00     0.008 C 
ATOM      8  C   UNL A   1      31.665  25.745  24.054  1.00  0.00     0.006 C 
ATOM      9  C   UNL A   1      33.603  27.336  23.579  1.00  0.00     0.006 C 
ATOM     10  C   UNL A   1      31.183  25.924  22.617  1.00  0.00     0.015 C 
ATOM     11  C   UNL A   1      33.051  27.523  22.169  1.00  0.00     0.015 C 
BRANCH   7  12
ATOM     12  C   UNL A   1      33.530  25.998  25.739  1.00  0.00     0.119 C 
BRANCH  12  13
ATOM     13  N   UNL A   1      32.609  25.171  26.487  1.00  0.00    -0.351 N 
ATOM     14  C   UNL A   1      32.393  23.831  26.680  1.00  0.00     0.263 C 
ATOM     15  O   UNL A   1      31.432  23.636  27.437  1.00  0.00    -0.268 OA
ATOM     16  H   UNL A   1      31.963  25.716  26.993  1.00  0.00     0.163 HD
BRANCH  14  17
ATOM     17  C   UNL A   1      33.162  22.726  26.108  1.00  0.00     0.115 A 
ATOM     18  C   UNL A   1      35.749  23.144  26.012  1.00  0.00     0.068 C 
ATOM     19  C   UNL A   1      34.489  22.400  25.833  1.00  0.00     0.062 A 
ATOM     20  N   UNL A   1      34.697  21.161  25.248  1.00  0.00    -0.240 NA
ATOM     21  C   UNL A   1      33.565  20.563  24.984  1.00  0.00     0.125 A 
ATOM     22  S   UNL A   1      32.183  21.373  25.556  1.00  0.00    -0.108 S 
BRANCH  21  23
ATOM     23  C   UNL A   1      33.503  19.250  24.346  1.00  0.00     0.029 A 
ATOM     24  C   UNL A   1      34.278  18.221  24.915  1.00  0.00     0.013 A 
ATOM     25  C   UNL A   1      32.818  18.992  23.149  1.00  0.00     0.051 A 
ATOM     26  C   UNL A   1      34.359  16.965  24.315  1.00  0.00     0.001 A 
ATOM     27  C   UNL A   1      32.899  17.728  22.552  1.00  0.00     0.021 A 
ATOM     28  Cl  UNL A   1      31.912  20.202  22.308  1.00  0.00    -0.084 Cl
ATOM     29  C   UNL A   1      33.669  16.718  23.132  1.00  0.00     0.002 A 
ENDBRANCH  21  23
ENDBRANCH  14  17
ENDBRANCH  12  13
ENDBRANCH   7  12
ENDBRANCH   4   6
ENDBRANCH   3   4
ENDBRANCH   2   3
ENDBRANCH   1   2
BRANCH   1  30
ATOM     30  O   UNL A   1      32.069  30.730  26.671  1.00  0.00    -0.374 OA
BRANCH  30  31
ATOM     31  C   UNL A   1      31.216  31.854  26.460  1.00  0.00     0.202 C 
BRANCH  31  32
ATOM     32  C   UNL A   1      31.780  33.218  26.881  1.00  0.00     0.261 C 
BRANCH  32  33
ATOM     33  O   UNL A   1      33.222  33.250  26.884  1.00  0.00    -0.460 OA
BRANCH  33  34
ATOM     34  C   UNL A   1      33.771  33.610  28.068  1.00  0.00     0.338 C 
ATOM     35  O   UNL A   1      33.307  34.380  28.901  1.00  0.00    -0.246 OA
BRANCH  34  36
ATOM     36  C   UNL A   1      34.999  32.846  28.336  1.00  0.00     0.060 A 
ATOM     37  C   UNL A   1      34.855  31.533  28.801  1.00  0.00     0.016 A 
ATOM     38  C   UNL A   1      36.258  33.449  28.293  1.00  0.00     0.016 A 
ATOM     39  C   UNL A   1      35.963  30.837  29.279  1.00  0.00     0.010 A 
ATOM     40  C   UNL A   1      37.370  32.748  28.779  1.00  0.00     0.010 A 
ATOM     41  C   UNL A   1      37.221  31.456  29.313  1.00  0.00    -0.014 A 
BRANCH  41  42
ATOM     42  C   UNL A   1      38.335  30.795  30.041  1.00  0.00     0.031 A 
ATOM     43  C   UNL A   1      38.576  31.136  31.487  1.00  0.00     0.074 A 
ATOM     44  C   UNL A   1      39.093  29.863  29.438  1.00  0.00     0.049 A 
ATOM     45  N   UNL A   1      39.481  30.672  32.311  1.00  0.00    -0.248 NA
ATOM     46  C   UNL A   1      37.672  32.131  32.086  1.00  0.00     0.031 C 
ATOM     47  C   UNL A   1      38.938  29.417  28.055  1.00  0.00     0.029 A 
ATOM     48  N   UNL A   1      40.146  29.125  29.917  1.00  0.00    -0.354 N 
ATOM     49  C   UNL A   1      39.260  31.318  33.520  1.00  0.00     0.074 A 
ATOM     50  C   UNL A   1      38.152  32.227  33.318  1.00  0.00     0.031 C 
ATOM     51  C   UNL A   1      39.870  28.484  27.794  1.00  0.00     0.029 A 
ATOM     52  C   UNL A   1      40.698  28.285  28.983  1.00  0.00     0.049 A 
ATOM     53  H   UNL A   1      40.474  29.191  30.843  1.00  0.00     0.167 HD
ATOM     54  C   UNL A   1      39.912  31.160  34.698  1.00  0.00     0.037 A 
ATOM     55  C   UNL A   1      41.760  27.460  29.073  1.00  0.00     0.037 A 
ATOM     56  C   UNL A   1      41.010  30.253  34.907  1.00  0.00     0.049 A 
ATOM     57  C   UNL A   1      42.505  27.345  30.377  1.00  0.00     0.074 A 
ATOM     58  C   UNL A   1      41.720  30.010  36.071  1.00  0.00     0.029 A 
ATOM     59  N   UNL A   1      41.560  29.443  33.927  1.00  0.00    -0.354 N 
ATOM     60  N   UNL A   1      42.269  27.939  31.521  1.00  0.00    -0.248 NA
ATOM     61  C   UNL A   1      43.662  26.437  30.402  1.00  0.00     0.031 C 
ATOM     62  C   UNL A   1      42.728  29.084  35.783  1.00  0.00     0.029 A 
ATOM     63  C   UNL A   1      42.617  28.716  34.452  1.00  0.00     0.049 A 
ATOM     64  H   UNL A   1      41.248  29.391  32.995  1.00  0.00     0.167 HD
ATOM     65  C   UNL A   1      43.228  27.460  32.405  1.00  0.00     0.074 A 
ATOM     66  C   UNL A   1      44.043  26.517  31.669  1.00  0.00     0.031 C 
ATOM     67  C   UNL A   1      43.416  27.776  33.710  1.00  0.00     0.037 A 
BRANCH  54  68
ATOM     68  C   UNL A   1      39.466  32.005  35.854  1.00  0.00     0.064 A 
ATOM     69  C   UNL A   1      40.051  33.251  36.122  1.00  0.00     0.173 A 
ATOM     70  C   UNL A   1      38.414  31.582  36.679  1.00  0.00     0.173 A 
ATOM     71  F   UNL A   1      41.070  33.695  35.370  1.00  0.00    -0.203 F 
ATOM     72  C   UNL A   1      39.612  34.034  37.188  1.00  0.00     0.198 A 
ATOM     73  C   UNL A   1      37.961  32.377  37.728  1.00  0.00     0.198 A 
ATOM     74  F   UNL A   1      37.817  30.400  36.461  1.00  0.00    -0.203 F 
ATOM     75  F   UNL A   1      40.211  35.203  37.450  1.00  0.00    -0.200 F 
ATOM     76  C   UNL A   1      38.564  33.599  37.986  1.00  0.00     0.200 A 
ATOM     77  F   UNL A   1      36.941  31.961  38.491  1.00  0.00    -0.200 F 
ATOM     78  F   UNL A   1      38.138  34.356  39.006  1.00  0.00    -0.200 F 
ENDBRANCH  54  68
BRANCH  55  79
ATOM     79  C   UNL A   1      42.189  26.677  27.886  1.00  0.00     0.064 A 
ATOM     80  C   UNL A   1      43.147  27.180  26.995  1.00  0.00     0.173 A 
ATOM     81  C   UNL A   1      41.639  25.417  27.612  1.00  0.00     0.173 A 
ATOM     82  F   UNL A   1      43.682  28.392  27.202  1.00  0.00    -0.203 F 
ATOM     83  C   UNL A   1      43.528  26.458  25.866  1.00  0.00     0.198 A 
ATOM     84  C   UNL A   1      42.039  24.684  26.497  1.00  0.00     0.198 A 
ATOM     85  F   UNL A   1      40.717  24.894  28.435  1.00  0.00    -0.203 F 
ATOM     86  F   UNL A   1      44.415  26.978  25.008  1.00  0.00    -0.200 F 
ATOM     87  C   UNL A   1      42.978  25.207  25.621  1.00  0.00     0.200 A 
ATOM     88  F   UNL A   1      41.513  23.473  26.270  1.00  0.00    -0.200 F 
ATOM     89  F   UNL A   1      43.348  24.511  24.538  1.00  0.00    -0.200 F 
ENDBRANCH  55  79
BRANCH  67  90
ATOM     90  C   UNL A   1      44.525  27.073  34.436  1.00  0.00     0.064 A 
ATOM     91  C   UNL A   1      45.809  27.627  34.530  1.00  0.00     0.173 A 
ATOM     92  C   UNL A   1      44.289  25.847  35.079  1.00  0.00     0.173 A 
ATOM     93  F   UNL A   1      46.088  28.789  33.920  1.00  0.00    -0.203 F 
ATOM     94  C   UNL A   1      46.825  26.969  35.221  1.00  0.00     0.198 A 
ATOM     95  C   UNL A   1      45.299  25.205  35.791  1.00  0.00     0.198 A 
ATOM     96  F   UNL A   1      43.076  25.278  35.025  1.00  0.00    -0.203 F 
ATOM     97  F   UNL A   1      48.056  27.497  35.262  1.00  0.00    -0.200 F 
ATOM     98  C   UNL A   1      46.567  25.764  35.855  1.00  0.00     0.200 A 
ATOM     99  F   UNL A   1      45.045  24.045  36.412  1.00  0.00    -0.200 F 
ATOM    100  F   UNL A   1      47.544  25.135  36.524  1.00  0.00    -0.200 F 
ENDBRANCH  67  90
ENDBRANCH  41  42
ENDBRANCH  34  36
ENDBRANCH  33  34
ENDBRANCH  32  33
ENDBRANCH  31  32
ENDBRANCH  30  31
ENDBRANCH   1  30
TORSDOF 18
ENDMDL
