MODEL 1
REMARK VINA RESULT:     -12.9      0.000      0.000
REMARK SMILES Cc1ccc(NC(=O)C[C@@H](C(=O)OCCOCCOC(=O)c2ccc(-c3c4nc(c(-c5c(F)c(F)c(F)c(F)c5F)c5ccc([nH]5)c(-c5c(F)c(F)c(F)c(F)c5F)c5nc(c(-c6c(F)c(F)c(F)c(F)c6F)c6ccc3[nH]6)C=C5)C=C4)cc2)[C@@H](C)c2ccccc2)cc1Br
REMARK SMILES IDX 15 1 14 2 13 3 11 4 12 5 10 6 9 7 7 8 6 9 8 11 5 12 1 13
REMARK SMILES IDX 2 14 3 15 94 16 4 17 93 18 95 19 85 20 86 21 87 22 88 23
REMARK SMILES IDX 92 24 89 25 91 26 90 27 16 28 17 29 18 30 19 31 20 32 21 33
REMARK SMILES IDX 22 34 23 35 84 36 24 37 83 38 25 39 26 40 27 41 77 42 28 43
REMARK SMILES IDX 82 44 76 45 78 46 29 47 81 48 75 49 74 50 30 52 62 53 42 54
REMARK SMILES IDX 61 55 43 56 46 57 60 58 79 59 44 60 45 61 59 63 80 64 47 65
REMARK SMILES IDX 31 66 32 67 40 68 33 69 34 70 38 71 41 72 35 73 36 74 39 75
REMARK SMILES IDX 37 76 63 77 64 78 72 79 65 80 66 81 70 82 73 83 67 84 68 85
REMARK SMILES IDX 71 86 69 87 48 88 49 89 57 90 50 91 51 92 55 93 58 94 52 95
REMARK SMILES IDX 53 96 56 97 54 98
REMARK H PARENT 6 10 78 51 46 62
REMARK Flexibility Score: inf
ROOT
ATOM      1  C   UNL A   1      34.525  18.047  24.612  1.00  0.00     0.202 C 
ENDROOT
BRANCH   1   2
ATOM      2  C   UNL A   1      32.557  18.969  24.844  1.00  0.00     0.261 C 
BRANCH   2   3
ATOM      3  O   UNL A   1      32.246  20.319  25.762  1.00  0.00    -0.463 OA
BRANCH   3   4
ATOM      4  C   UNL A   1      33.099  21.265  26.184  1.00  0.00     0.310 C 
ATOM      5  O   UNL A   1      33.673  21.144  27.261  1.00  0.00    -0.252 OA
BRANCH   4   6
ATOM      6  C   UNL A   1      33.166  22.567  25.323  1.00  0.00     0.116 C 
BRANCH   6   7
ATOM      7  C   UNL A   1      33.436  22.520  23.789  1.00  0.00     0.116 C 
BRANCH   7   8
ATOM      8  C   UNL A   1      32.348  22.301  22.766  1.00  0.00     0.225 C 
ATOM      9  N   UNL A   1      31.437  23.259  22.464  1.00  0.00    -0.326 N 
ATOM     10  H   UNL A   1      30.684  22.961  21.904  1.00  0.00     0.169 HD
ATOM     11  O   UNL A   1      32.231  21.204  22.213  1.00  0.00    -0.275 OA
BRANCH   9  12
ATOM     12  C   UNL A   1      31.413  24.605  22.832  1.00  0.00     0.042 A 
ATOM     13  C   UNL A   1      30.731  29.495  24.032  1.00  0.00     0.045 C 
ATOM     14  C   UNL A   1      30.843  28.126  23.423  1.00  0.00    -0.037 A 
ATOM     15  C   UNL A   1      29.530  26.936  23.733  1.00  0.00     0.007 A 
ATOM     16  C   UNL A   1      32.436  27.588  22.798  1.00  0.00     0.022 A 
ATOM     17  C   UNL A   1      29.812  25.190  23.434  1.00  0.00     0.026 A 
ATOM     18  C   UNL A   1      32.713  25.823  22.481  1.00  0.00     0.042 A 
ATOM     19  Br  UNL A   1      33.874  28.832  22.716  1.00  0.00    -0.050 Br
ENDBRANCH   9  12
ENDBRANCH   7   8
ENDBRANCH   6   7
BRANCH   6  20
ATOM     20  C   UNL A   1      34.089  23.691  25.951  1.00  0.00     0.031 C 
ATOM     21  C   UNL A   1      35.466  23.773  25.262  1.00  0.00     0.013 C 
BRANCH  20  22
ATOM     22  C   UNL A   1      33.418  25.044  26.097  1.00  0.00    -0.044 A 
ATOM     23  C   UNL A   1      32.083  25.227  26.454  1.00  0.00     0.004 A 
ATOM     24  C   UNL A   1      34.217  26.185  25.941  1.00  0.00     0.004 A 
ATOM     25  C   UNL A   1      31.592  26.517  26.688  1.00  0.00     0.000 A 
ATOM     26  C   UNL A   1      33.744  27.467  26.192  1.00  0.00     0.000 A 
ATOM     27  C   UNL A   1      32.424  27.632  26.577  1.00  0.00     0.000 A 
ENDBRANCH  20  22
ENDBRANCH   6  20
ENDBRANCH   4   6
ENDBRANCH   3   4
ENDBRANCH   2   3
ENDBRANCH   1   2
BRANCH   1  28
ATOM     28  O   UNL A   1      35.966  18.650  24.550  1.00  0.00    -0.374 OA
BRANCH  28  29
ATOM     29  C   UNL A   1      36.341  19.967  24.959  1.00  0.00     0.202 C 
BRANCH  29  30
ATOM     30  C   UNL A   1      37.757  20.527  24.771  1.00  0.00     0.261 C 
BRANCH  30  31
ATOM     31  O   UNL A   1      38.190  21.504  25.706  1.00  0.00    -0.460 OA
BRANCH  31  32
ATOM     32  C   UNL A   1      39.416  21.272  26.233  1.00  0.00     0.338 C 
ATOM     33  O   UNL A   1      40.089  20.263  26.136  1.00  0.00    -0.246 OA
BRANCH  32  34
ATOM     34  C   UNL A   1      39.887  22.537  26.835  1.00  0.00     0.060 A 
ATOM     35  C   UNL A   1      39.271  23.736  26.453  1.00  0.00     0.016 A 
ATOM     36  C   UNL A   1      40.927  22.535  27.770  1.00  0.00     0.016 A 
ATOM     37  C   UNL A   1      39.739  24.948  26.962  1.00  0.00     0.010 A 
ATOM     38  C   UNL A   1      41.406  23.747  28.262  1.00  0.00     0.010 A 
ATOM     39  C   UNL A   1      40.847  24.958  27.820  1.00  0.00    -0.014 A 
BRANCH  39  40
ATOM     40  C   UNL A   1      41.604  26.212  28.033  1.00  0.00     0.031 A 
ATOM     41  C   UNL A   1      40.902  27.333  28.748  1.00  0.00     0.074 A 
ATOM     42  C   UNL A   1      42.862  26.369  27.590  1.00  0.00     0.049 A 
ATOM     43  N   UNL A   1      41.314  28.547  29.006  1.00  0.00    -0.248 NA
ATOM     44  C   UNL A   1      39.541  27.044  29.229  1.00  0.00     0.031 C 
ATOM     45  C   UNL A   1      43.658  25.350  26.913  1.00  0.00     0.029 A 
ATOM     46  N   UNL A   1      43.684  27.468  27.636  1.00  0.00    -0.354 N 
ATOM     47  C   UNL A   1      40.264  29.164  29.675  1.00  0.00     0.074 A 
ATOM     48  C   UNL A   1      39.184  28.205  29.750  1.00  0.00     0.031 C 
ATOM     49  C   UNL A   1      44.853  25.876  26.594  1.00  0.00     0.029 A 
ATOM     50  C   UNL A   1      44.893  27.277  27.014  1.00  0.00     0.049 A 
ATOM     51  H   UNL A   1      43.431  28.313  28.073  1.00  0.00     0.167 HD
ATOM     52  C   UNL A   1      40.208  30.415  30.188  1.00  0.00     0.037 A 
ATOM     53  C   UNL A   1      45.900  28.146  26.795  1.00  0.00     0.037 A 
ATOM     54  C   UNL A   1      41.274  31.373  30.087  1.00  0.00     0.049 A 
ATOM     55  C   UNL A   1      45.777  29.566  27.295  1.00  0.00     0.074 A 
ATOM     56  C   UNL A   1      41.323  32.663  30.587  1.00  0.00     0.029 A 
ATOM     57  N   UNL A   1      42.471  31.155  29.420  1.00  0.00    -0.354 N 
ATOM     58  N   UNL A   1      44.805  30.129  27.972  1.00  0.00    -0.248 NA
ATOM     59  C   UNL A   1      46.898  30.471  27.002  1.00  0.00     0.031 C 
ATOM     60  C   UNL A   1      42.517  33.250  30.156  1.00  0.00     0.029 A 
ATOM     61  C   UNL A   1      43.250  32.300  29.461  1.00  0.00     0.049 A 
ATOM     62  H   UNL A   1      42.728  30.313  28.981  1.00  0.00     0.167 HD
ATOM     63  C   UNL A   1      45.214  31.435  28.218  1.00  0.00     0.074 A 
ATOM     64  C   UNL A   1      46.527  31.578  27.627  1.00  0.00     0.031 C 
ATOM     65  C   UNL A   1      44.562  32.427  28.877  1.00  0.00     0.037 A 
BRANCH  52  66
ATOM     66  C   UNL A   1      38.930  30.826  30.861  1.00  0.00     0.064 A 
ATOM     67  C   UNL A   1      37.855  31.373  30.143  1.00  0.00     0.173 A 
ATOM     68  C   UNL A   1      38.776  30.662  32.247  1.00  0.00     0.173 A 
ATOM     69  F   UNL A   1      37.955  31.567  28.820  1.00  0.00    -0.203 F 
ATOM     70  C   UNL A   1      36.690  31.775  30.792  1.00  0.00     0.198 A 
ATOM     71  C   UNL A   1      37.596  31.030  32.886  1.00  0.00     0.198 A 
ATOM     72  F   UNL A   1      39.770  30.143  32.982  1.00  0.00    -0.203 F 
ATOM     73  F   UNL A   1      35.704  32.356  30.095  1.00  0.00    -0.200 F 
ATOM     74  C   UNL A   1      36.558  31.596  32.161  1.00  0.00     0.200 A 
ATOM     75  F   UNL A   1      37.465  30.841  34.206  1.00  0.00    -0.200 F 
ATOM     76  F   UNL A   1      35.436  31.980  32.784  1.00  0.00    -0.200 F 
ENDBRANCH  52  66
BRANCH  53  77
ATOM     77  C   UNL A   1      47.120  27.706  26.064  1.00  0.00     0.064 A 
ATOM     78  C   UNL A   1      47.170  27.729  24.663  1.00  0.00     0.173 A 
ATOM     79  C   UNL A   1      48.247  27.222  26.745  1.00  0.00     0.173 A 
ATOM     80  F   UNL A   1      46.108  28.156  23.963  1.00  0.00    -0.203 F 
ATOM     81  C   UNL A   1      48.287  27.264  23.973  1.00  0.00     0.198 A 
ATOM     82  C   UNL A   1      49.376  26.788  26.056  1.00  0.00     0.198 A 
ATOM     83  F   UNL A   1      48.251  27.173  28.086  1.00  0.00    -0.203 F 
ATOM     84  F   UNL A   1      48.283  27.243  22.632  1.00  0.00    -0.200 F 
ATOM     85  C   UNL A   1      49.392  26.799  24.669  1.00  0.00     0.200 A 
ATOM     86  F   UNL A   1      50.446  26.351  26.733  1.00  0.00    -0.200 F 
ATOM     87  F   UNL A   1      50.467  26.353  24.005  1.00  0.00    -0.200 F 
ENDBRANCH  53  77
BRANCH  65  88
ATOM     88  C   UNL A   1      45.275  33.741  29.048  1.00  0.00     0.064 A 
ATOM     89  C   UNL A   1      46.164  33.976  30.107  1.00  0.00     0.173 A 
ATOM     90  C   UNL A   1      45.106  34.764  28.099  1.00  0.00     0.173 A 
ATOM     91  F   UNL A   1      46.358  33.038  31.046  1.00  0.00    -0.203 F 
ATOM     92  C   UNL A   1      46.829  35.195  30.230  1.00  0.00     0.198 A 
ATOM     93  C   UNL A   1      45.801  35.965  28.203  1.00  0.00     0.198 A 
ATOM     94  F   UNL A   1      44.278  34.592  27.058  1.00  0.00    -0.203 F 
ATOM     95  F   UNL A   1      47.630  35.415  31.281  1.00  0.00    -0.200 F 
ATOM     96  C   UNL A   1      46.655  36.184  29.273  1.00  0.00     0.200 A 
ATOM     97  F   UNL A   1      45.649  36.910  27.264  1.00  0.00    -0.200 F 
ATOM     98  F   UNL A   1      47.306  37.349  29.386  1.00  0.00    -0.200 F 
ENDBRANCH  65  88
ENDBRANCH  39  40
ENDBRANCH  32  34
ENDBRANCH  31  32
ENDBRANCH  30  31
ENDBRANCH  29  30
ENDBRANCH  28  29
ENDBRANCH   1  28
TORSDOF 19
ENDMDL
MODEL 2
REMARK VINA RESULT:     -12.5      2.050      3.786
REMARK SMILES Cc1ccc(NC(=O)C[C@@H](C(=O)OCCOCCOC(=O)c2ccc(-c3c4nc(c(-c5c(F)c(F)c(F)c(F)c5F)c5ccc([nH]5)c(-c5c(F)c(F)c(F)c(F)c5F)c5nc(c(-c6c(F)c(F)c(F)c(F)c6F)c6ccc3[nH]6)C=C5)C=C4)cc2)[C@@H](C)c2ccccc2)cc1Br
REMARK SMILES IDX 15 1 14 2 13 3 11 4 12 5 10 6 9 7 7 8 6 9 8 11 5 12 1 13
REMARK SMILES IDX 2 14 3 15 94 16 4 17 93 18 95 19 85 20 86 21 87 22 88 23
REMARK SMILES IDX 92 24 89 25 91 26 90 27 16 28 17 29 18 30 19 31 20 32 21 33
REMARK SMILES IDX 22 34 23 35 84 36 24 37 83 38 25 39 26 40 27 41 77 42 28 43
REMARK SMILES IDX 82 44 76 45 78 46 29 47 81 48 75 49 74 50 30 52 62 53 42 54
REMARK SMILES IDX 61 55 43 56 46 57 60 58 79 59 44 60 45 61 59 63 80 64 47 65
REMARK SMILES IDX 31 66 32 67 40 68 33 69 34 70 38 71 41 72 35 73 36 74 39 75
REMARK SMILES IDX 37 76 63 77 64 78 72 79 65 80 66 81 70 82 73 83 67 84 68 85
REMARK SMILES IDX 71 86 69 87 48 88 49 89 57 90 50 91 51 92 55 93 58 94 52 95
REMARK SMILES IDX 53 96 56 97 54 98
REMARK H PARENT 6 10 78 51 46 62
REMARK Flexibility Score: inf
ROOT
ATOM      1  C   UNL A   1      36.637  22.893  23.950  1.00  0.00     0.202 C 
ENDROOT
BRANCH   1   2
ATOM      2  C   UNL A   1      35.078  24.346  24.438  1.00  0.00     0.261 C 
BRANCH   2   3
ATOM      3  O   UNL A   1      33.463  24.154  24.092  1.00  0.00    -0.463 OA
BRANCH   3   4
ATOM      4  C   UNL A   1      32.805  23.040  23.739  1.00  0.00     0.310 C 
ATOM      5  O   UNL A   1      32.414  22.892  22.586  1.00  0.00    -0.252 OA
BRANCH   4   6
ATOM      6  C   UNL A   1      32.427  22.065  24.900  1.00  0.00     0.116 C 
BRANCH   6   7
ATOM      7  C   UNL A   1      31.776  22.578  26.219  1.00  0.00     0.116 C 
BRANCH   7   8
ATOM      8  C   UNL A   1      30.317  22.950  26.328  1.00  0.00     0.225 C 
ATOM      9  N   UNL A   1      29.878  24.217  26.122  1.00  0.00    -0.326 N 
ATOM     10  H   UNL A   1      28.939  24.381  26.369  1.00  0.00     0.169 HD
ATOM     11  O   UNL A   1      29.486  22.103  26.666  1.00  0.00    -0.275 OA
BRANCH   9  12
ATOM     12  C   UNL A   1      30.564  25.320  25.611  1.00  0.00     0.042 A 
ATOM     13  C   UNL A   1      33.042  29.050  23.211  1.00  0.00     0.045 C 
ATOM     14  C   UNL A   1      32.522  27.786  23.835  1.00  0.00    -0.037 A 
ATOM     15  C   UNL A   1      31.237  26.867  22.976  1.00  0.00     0.007 A 
ATOM     16  C   UNL A   1      32.864  27.477  25.569  1.00  0.00     0.022 A 
ATOM     17  C   UNL A   1      30.270  25.639  23.857  1.00  0.00     0.026 A 
ATOM     18  C   UNL A   1      31.895  26.223  26.453  1.00  0.00     0.042 A 
ATOM     19  Br  UNL A   1      34.053  28.631  26.505  1.00  0.00    -0.050 Br
ENDBRANCH   9  12
ENDBRANCH   7   8
ENDBRANCH   6   7
BRANCH   6  20
ATOM     20  C   UNL A   1      33.592  21.062  25.284  1.00  0.00     0.031 C 
ATOM     21  C   UNL A   1      33.705  20.847  26.807  1.00  0.00     0.013 C 
BRANCH  20  22
ATOM     22  C   UNL A   1      33.583  19.762  24.502  1.00  0.00    -0.044 A 
ATOM     23  C   UNL A   1      34.527  18.747  24.648  1.00  0.00     0.004 A 
ATOM     24  C   UNL A   1      32.506  19.535  23.633  1.00  0.00     0.004 A 
ATOM     25  C   UNL A   1      34.359  17.532  23.973  1.00  0.00     0.000 A 
ATOM     26  C   UNL A   1      32.319  18.325  22.976  1.00  0.00     0.000 A 
ATOM     27  C   UNL A   1      33.248  17.314  23.155  1.00  0.00     0.000 A 
ENDBRANCH  20  22
ENDBRANCH   6  20
ENDBRANCH   4   6
ENDBRANCH   3   4
ENDBRANCH   2   3
ENDBRANCH   1   2
BRANCH   1  28
ATOM     28  O   UNL A   1      37.572  22.017  24.845  1.00  0.00    -0.374 OA
BRANCH  28  29
ATOM     29  C   UNL A   1      37.651  20.590  24.829  1.00  0.00     0.202 C 
BRANCH  29  30
ATOM     30  C   UNL A   1      38.898  19.818  25.277  1.00  0.00     0.261 C 
BRANCH  30  31
ATOM     31  O   UNL A   1      39.785  20.488  26.161  1.00  0.00    -0.460 OA
BRANCH  31  32
ATOM     32  C   UNL A   1      41.057  20.023  26.140  1.00  0.00     0.338 C 
ATOM     33  O   UNL A   1      41.446  18.938  25.747  1.00  0.00    -0.246 OA
BRANCH  32  34
ATOM     34  C   UNL A   1      41.944  21.134  26.541  1.00  0.00     0.060 A 
ATOM     35  C   UNL A   1      42.142  21.380  27.905  1.00  0.00     0.016 A 
ATOM     36  C   UNL A   1      42.575  21.923  25.574  1.00  0.00     0.016 A 
ATOM     37  C   UNL A   1      42.927  22.462  28.308  1.00  0.00     0.010 A 
ATOM     38  C   UNL A   1      43.342  23.014  25.976  1.00  0.00     0.010 A 
ATOM     39  C   UNL A   1      43.478  23.315  27.343  1.00  0.00    -0.014 A 
BRANCH  39  40
ATOM     40  C   UNL A   1      43.944  24.665  27.731  1.00  0.00     0.031 A 
ATOM     41  C   UNL A   1      42.897  25.689  28.071  1.00  0.00     0.074 A 
ATOM     42  C   UNL A   1      45.247  24.989  27.763  1.00  0.00     0.049 A 
ATOM     43  N   UNL A   1      43.032  26.952  28.381  1.00  0.00    -0.248 NA
ATOM     44  C   UNL A   1      41.501  25.222  28.047  1.00  0.00     0.031 C 
ATOM     45  C   UNL A   1      46.355  24.078  27.486  1.00  0.00     0.029 A 
ATOM     46  N   UNL A   1      45.853  26.191  28.030  1.00  0.00    -0.354 N 
ATOM     47  C   UNL A   1      41.743  27.428  28.585  1.00  0.00     0.074 A 
ATOM     48  C   UNL A   1      40.838  26.330  28.327  1.00  0.00     0.031 C 
ATOM     49  C   UNL A   1      47.510  24.760  27.586  1.00  0.00     0.029 A 
ATOM     50  C   UNL A   1      47.220  26.160  27.900  1.00  0.00     0.049 A 
ATOM     51  H   UNL A   1      45.356  26.999  28.291  1.00  0.00     0.167 HD
ATOM     52  C   UNL A   1      41.349  28.667  28.960  1.00  0.00     0.037 A 
ATOM     53  C   UNL A   1      48.121  27.156  28.003  1.00  0.00     0.037 A 
ATOM     54  C   UNL A   1      42.251  29.762  29.188  1.00  0.00     0.049 A 
ATOM     55  C   UNL A   1      47.650  28.553  28.331  1.00  0.00     0.074 A 
ATOM     56  C   UNL A   1      41.955  31.054  29.587  1.00  0.00     0.029 A 
ATOM     57  N   UNL A   1      43.626  29.702  29.013  1.00  0.00    -0.354 N 
ATOM     58  N   UNL A   1      46.436  28.986  28.574  1.00  0.00    -0.248 NA
ATOM     59  C   UNL A   1      48.680  29.600  28.403  1.00  0.00     0.031 C 
ATOM     60  C   UNL A   1      43.141  31.794  29.578  1.00  0.00     0.029 A 
ATOM     61  C   UNL A   1      44.189  30.944  29.258  1.00  0.00     0.049 A 
ATOM     62  H   UNL A   1      44.128  28.896  28.752  1.00  0.00     0.167 HD
ATOM     63  C   UNL A   1      46.561  30.341  28.865  1.00  0.00     0.074 A 
ATOM     64  C   UNL A   1      47.971  30.654  28.780  1.00  0.00     0.031 C 
ATOM     65  C   UNL A   1      45.597  31.243  29.179  1.00  0.00     0.037 A 
BRANCH  52  66
ATOM     66  C   UNL A   1      39.873  28.907  29.099  1.00  0.00     0.064 A 
ATOM     67  C   UNL A   1      39.205  28.737  30.322  1.00  0.00     0.173 A 
ATOM     68  C   UNL A   1      39.117  29.323  27.992  1.00  0.00     0.173 A 
ATOM     69  F   UNL A   1      39.876  28.325  31.407  1.00  0.00    -0.203 F 
ATOM     70  C   UNL A   1      37.830  28.937  30.421  1.00  0.00     0.198 A 
ATOM     71  C   UNL A   1      37.750  29.558  28.105  1.00  0.00     0.198 A 
ATOM     72  F   UNL A   1      39.704  29.502  26.800  1.00  0.00    -0.203 F 
ATOM     73  F   UNL A   1      37.204  28.703  31.583  1.00  0.00    -0.200 F 
ATOM     74  C   UNL A   1      37.106  29.354  29.315  1.00  0.00     0.200 A 
ATOM     75  F   UNL A   1      37.055  29.977  27.038  1.00  0.00    -0.200 F 
ATOM     76  F   UNL A   1      35.783  29.550  29.413  1.00  0.00    -0.200 F 
ENDBRANCH  52  66
BRANCH  53  77
ATOM     77  C   UNL A   1      49.569  26.879  27.791  1.00  0.00     0.064 A 
ATOM     78  C   UNL A   1      50.119  26.859  26.501  1.00  0.00     0.173 A 
ATOM     79  C   UNL A   1      50.424  26.593  28.865  1.00  0.00     0.173 A 
ATOM     80  F   UNL A   1      49.338  27.097  25.437  1.00  0.00    -0.203 F 
ATOM     81  C   UNL A   1      51.459  26.542  26.293  1.00  0.00     0.198 A 
ATOM     82  C   UNL A   1      51.772  26.309  28.660  1.00  0.00     0.198 A 
ATOM     83  F   UNL A   1      49.948  26.593  30.120  1.00  0.00    -0.203 F 
ATOM     84  F   UNL A   1      51.943  26.473  25.045  1.00  0.00    -0.200 F 
ATOM     85  C   UNL A   1      52.286  26.273  27.373  1.00  0.00     0.200 A 
ATOM     86  F   UNL A   1      52.570  26.061  29.707  1.00  0.00    -0.200 F 
ATOM     87  F   UNL A   1      53.576  25.969  27.173  1.00  0.00    -0.200 F 
ENDBRANCH  53  77
BRANCH  65  88
ATOM     88  C   UNL A   1      46.030  32.646  29.509  1.00  0.00     0.064 A 
ATOM     89  C   UNL A   1      46.396  33.027  30.808  1.00  0.00     0.173 A 
ATOM     90  C   UNL A   1      46.133  33.610  28.493  1.00  0.00     0.173 A 
ATOM     91  F   UNL A   1      46.310  32.150  31.819  1.00  0.00    -0.203 F 
ATOM     92  C   UNL A   1      46.816  34.327  31.084  1.00  0.00     0.198 A 
ATOM     93  C   UNL A   1      46.589  34.896  28.763  1.00  0.00     0.198 A 
ATOM     94  F   UNL A   1      45.808  33.299  27.229  1.00  0.00    -0.203 F 
ATOM     95  F   UNL A   1      47.107  34.682  32.342  1.00  0.00    -0.200 F 
ATOM     96  C   UNL A   1      46.921  35.258  30.060  1.00  0.00     0.200 A 
ATOM     97  F   UNL A   1      46.713  35.786  27.768  1.00  0.00    -0.200 F 
ATOM     98  F   UNL A   1      47.338  36.503  30.325  1.00  0.00    -0.200 F 
ENDBRANCH  65  88
ENDBRANCH  39  40
ENDBRANCH  32  34
ENDBRANCH  31  32
ENDBRANCH  30  31
ENDBRANCH  29  30
ENDBRANCH  28  29
ENDBRANCH   1  28
TORSDOF 19
ENDMDL
MODEL 3
REMARK VINA RESULT:     -12.5      1.688      7.660
REMARK SMILES Cc1ccc(NC(=O)C[C@@H](C(=O)OCCOCCOC(=O)c2ccc(-c3c4nc(c(-c5c(F)c(F)c(F)c(F)c5F)c5ccc([nH]5)c(-c5c(F)c(F)c(F)c(F)c5F)c5nc(c(-c6c(F)c(F)c(F)c(F)c6F)c6ccc3[nH]6)C=C5)C=C4)cc2)[C@@H](C)c2ccccc2)cc1Br
REMARK SMILES IDX 15 1 14 2 13 3 11 4 12 5 10 6 9 7 7 8 6 9 8 11 5 12 1 13
REMARK SMILES IDX 2 14 3 15 94 16 4 17 93 18 95 19 85 20 86 21 87 22 88 23
REMARK SMILES IDX 92 24 89 25 91 26 90 27 16 28 17 29 18 30 19 31 20 32 21 33
REMARK SMILES IDX 22 34 23 35 84 36 24 37 83 38 25 39 26 40 27 41 77 42 28 43
REMARK SMILES IDX 82 44 76 45 78 46 29 47 81 48 75 49 74 50 30 52 62 53 42 54
REMARK SMILES IDX 61 55 43 56 46 57 60 58 79 59 44 60 45 61 59 63 80 64 47 65
REMARK SMILES IDX 31 66 32 67 40 68 33 69 34 70 38 71 41 72 35 73 36 74 39 75
REMARK SMILES IDX 37 76 63 77 64 78 72 79 65 80 66 81 70 82 73 83 67 84 68 85
REMARK SMILES IDX 71 86 69 87 48 88 49 89 57 90 50 91 51 92 55 93 58 94 52 95
REMARK SMILES IDX 53 96 56 97 54 98
REMARK H PARENT 6 10 78 51 46 62
REMARK Flexibility Score: inf
ROOT
ATOM      1  C   UNL A   1      36.696  22.587  23.841  1.00  0.00     0.202 C 
ENDROOT
BRANCH   1   2
ATOM      2  C   UNL A   1      35.158  24.109  24.151  1.00  0.00     0.261 C 
BRANCH   2   3
ATOM      3  O   UNL A   1      34.018  24.547  23.023  1.00  0.00    -0.463 OA
BRANCH   3   4
ATOM      4  C   UNL A   1      33.514  25.763  22.764  1.00  0.00     0.310 C 
ATOM      5  O   UNL A   1      33.713  26.296  21.678  1.00  0.00    -0.252 OA
BRANCH   4   6
ATOM      6  C   UNL A   1      32.838  26.499  23.966  1.00  0.00     0.116 C 
BRANCH   6   7
ATOM      7  C   UNL A   1      31.501  25.994  24.586  1.00  0.00     0.116 C 
BRANCH   7   8
ATOM      8  C   UNL A   1      31.290  25.834  26.072  1.00  0.00     0.225 C 
ATOM      9  N   UNL A   1      31.436  24.639  26.697  1.00  0.00    -0.326 N 
ATOM     10  H   UNL A   1      31.125  24.613  27.631  1.00  0.00     0.169 HD
ATOM     11  O   UNL A   1      30.920  26.796  26.752  1.00  0.00    -0.275 OA
BRANCH   9  12
ATOM     12  C   UNL A   1      31.962  23.442  26.208  1.00  0.00     0.042 A 
ATOM     13  C   UNL A   1      34.398  19.244  24.706  1.00  0.00     0.045 C 
ATOM     14  C   UNL A   1      33.880  20.621  25.011  1.00  0.00    -0.037 A 
ATOM     15  C   UNL A   1      34.244  21.341  26.619  1.00  0.00     0.007 A 
ATOM     16  C   UNL A   1      32.583  21.303  23.976  1.00  0.00     0.022 A 
ATOM     17  C   UNL A   1      33.296  22.745  27.209  1.00  0.00     0.026 A 
ATOM     18  C   UNL A   1      31.636  22.733  24.569  1.00  0.00     0.042 A 
ATOM     19  Br  UNL A   1      32.060  20.372  22.401  1.00  0.00    -0.050 Br
ENDBRANCH   9  12
ENDBRANCH   7   8
ENDBRANCH   6   7
BRANCH   6  20
ATOM     20  C   UNL A   1      32.725  28.067  23.761  1.00  0.00     0.031 C 
ATOM     21  C   UNL A   1      31.413  28.474  23.062  1.00  0.00     0.013 C 
BRANCH  20  22
ATOM     22  C   UNL A   1      33.011  28.883  25.007  1.00  0.00    -0.044 A 
ATOM     23  C   UNL A   1      32.204  29.920  25.473  1.00  0.00     0.004 A 
ATOM     24  C   UNL A   1      34.119  28.517  25.784  1.00  0.00     0.004 A 
ATOM     25  C   UNL A   1      32.484  30.527  26.702  1.00  0.00     0.000 A 
ATOM     26  C   UNL A   1      34.393  29.098  27.015  1.00  0.00     0.000 A 
ATOM     27  C   UNL A   1      33.564  30.105  27.480  1.00  0.00     0.000 A 
ENDBRANCH  20  22
ENDBRANCH   6  20
ENDBRANCH   4   6
ENDBRANCH   3   4
ENDBRANCH   2   3
ENDBRANCH   1   2
BRANCH   1  28
ATOM     28  O   UNL A   1      37.703  21.898  24.818  1.00  0.00    -0.374 OA
BRANCH  28  29
ATOM     29  C   UNL A   1      37.834  20.491  25.032  1.00  0.00     0.202 C 
BRANCH  29  30
ATOM     30  C   UNL A   1      39.150  19.832  25.463  1.00  0.00     0.261 C 
BRANCH  30  31
ATOM     31  O   UNL A   1      40.234  20.698  25.763  1.00  0.00    -0.460 OA
BRANCH  31  32
ATOM     32  C   UNL A   1      40.649  20.654  27.051  1.00  0.00     0.338 C 
ATOM     33  O   UNL A   1      40.980  19.675  27.694  1.00  0.00    -0.246 OA
BRANCH  32  34
ATOM     34  C   UNL A   1      40.786  22.048  27.522  1.00  0.00     0.060 A 
ATOM     35  C   UNL A   1      39.895  23.014  27.038  1.00  0.00     0.016 A 
ATOM     36  C   UNL A   1      41.786  22.394  28.436  1.00  0.00     0.016 A 
ATOM     37  C   UNL A   1      40.042  24.347  27.421  1.00  0.00     0.010 A 
ATOM     38  C   UNL A   1      41.945  23.728  28.803  1.00  0.00     0.010 A 
ATOM     39  C   UNL A   1      41.106  24.715  28.257  1.00  0.00    -0.014 A 
BRANCH  39  40
ATOM     40  C   UNL A   1      41.526  26.131  28.337  1.00  0.00     0.031 A 
ATOM     41  C   UNL A   1      42.875  26.487  27.774  1.00  0.00     0.074 A 
ATOM     42  C   UNL A   1      40.757  27.073  28.907  1.00  0.00     0.049 A 
ATOM     43  N   UNL A   1      43.503  27.633  27.772  1.00  0.00    -0.248 NA
ATOM     44  C   UNL A   1      43.620  25.390  27.134  1.00  0.00     0.031 C 
ATOM     45  C   UNL A   1      39.422  26.860  29.458  1.00  0.00     0.029 A 
ATOM     46  N   UNL A   1      41.008  28.404  29.127  1.00  0.00    -0.354 N 
ATOM     47  C   UNL A   1      44.714  27.394  27.135  1.00  0.00     0.074 A 
ATOM     48  C   UNL A   1      44.750  25.988  26.798  1.00  0.00     0.031 C 
ATOM     49  C   UNL A   1      38.975  28.022  29.967  1.00  0.00     0.029 A 
ATOM     50  C   UNL A   1      40.004  29.049  29.807  1.00  0.00     0.049 A 
ATOM     51  H   UNL A   1      41.830  28.855  28.827  1.00  0.00     0.167 HD
ATOM     52  C   UNL A   1      45.706  28.269  26.849  1.00  0.00     0.037 A 
ATOM     53  C   UNL A   1      39.942  30.316  30.262  1.00  0.00     0.037 A 
ATOM     54  C   UNL A   1      45.679  29.660  27.210  1.00  0.00     0.049 A 
ATOM     55  C   UNL A   1      41.102  31.251  30.014  1.00  0.00     0.074 A 
ATOM     56  C   UNL A   1      46.626  30.636  26.953  1.00  0.00     0.029 A 
ATOM     57  N   UNL A   1      44.660  30.269  27.928  1.00  0.00    -0.354 N 
ATOM     58  N   UNL A   1      42.222  31.035  29.366  1.00  0.00    -0.248 NA
ATOM     59  C   UNL A   1      40.984  32.612  30.558  1.00  0.00     0.031 C 
ATOM     60  C   UNL A   1      46.216  31.816  27.582  1.00  0.00     0.029 A 
ATOM     61  C   UNL A   1      44.974  31.599  28.158  1.00  0.00     0.049 A 
ATOM     62  H   UNL A   1      43.837  29.823  28.231  1.00  0.00     0.167 HD
ATOM     63  C   UNL A   1      42.920  32.238  29.392  1.00  0.00     0.074 A 
ATOM     64  C   UNL A   1      42.092  33.183  30.109  1.00  0.00     0.031 C 
ATOM     65  C   UNL A   1      44.136  32.535  28.865  1.00  0.00     0.037 A 
BRANCH  52  66
ATOM     66  C   UNL A   1      46.922  27.729  26.152  1.00  0.00     0.064 A 
ATOM     67  C   UNL A   1      47.015  27.681  24.752  1.00  0.00     0.173 A 
ATOM     68  C   UNL A   1      48.015  27.260  26.898  1.00  0.00     0.173 A 
ATOM     69  F   UNL A   1      45.993  28.101  23.992  1.00  0.00    -0.203 F 
ATOM     70  C   UNL A   1      48.140  27.148  24.127  1.00  0.00     0.198 A 
ATOM     71  C   UNL A   1      49.152  26.763  26.268  1.00  0.00     0.198 A 
ATOM     72  F   UNL A   1      47.980  27.283  28.238  1.00  0.00    -0.203 F 
ATOM     73  F   UNL A   1      48.178  27.051  22.791  1.00  0.00    -0.200 F 
ATOM     74  C   UNL A   1      49.210  26.697  24.885  1.00  0.00     0.200 A 
ATOM     75  F   UNL A   1      50.191  26.343  27.003  1.00  0.00    -0.200 F 
ATOM     76  F   UNL A   1      50.293  26.188  24.282  1.00  0.00    -0.200 F 
ENDBRANCH  52  66
BRANCH  53  77
ATOM     77  C   UNL A   1      38.741  30.785  31.006  1.00  0.00     0.064 A 
ATOM     78  C   UNL A   1      37.639  31.328  30.329  1.00  0.00     0.173 A 
ATOM     79  C   UNL A   1      38.681  30.734  32.406  1.00  0.00     0.173 A 
ATOM     80  F   UNL A   1      37.658  31.426  28.991  1.00  0.00    -0.203 F 
ATOM     81  C   UNL A   1      36.538  31.823  31.024  1.00  0.00     0.198 A 
ATOM     82  C   UNL A   1      37.565  31.197  33.099  1.00  0.00     0.198 A 
ATOM     83  F   UNL A   1      39.710  30.229  33.104  1.00  0.00    -0.203 F 
ATOM     84  F   UNL A   1      35.525  32.390  30.353  1.00  0.00    -0.200 F 
ATOM     85  C   UNL A   1      36.498  31.752  32.408  1.00  0.00     0.200 A 
ATOM     86  F   UNL A   1      37.526  31.116  34.435  1.00  0.00    -0.200 F 
ATOM     87  F   UNL A   1      35.438  32.226  33.076  1.00  0.00    -0.200 F 
ENDBRANCH  53  77
BRANCH  65  88
ATOM     88  C   UNL A   1      44.627  33.951  28.993  1.00  0.00     0.064 A 
ATOM     89  C   UNL A   1      45.442  34.365  30.056  1.00  0.00     0.173 A 
ATOM     90  C   UNL A   1      44.321  34.896  28.000  1.00  0.00     0.173 A 
ATOM     91  F   UNL A   1      45.760  33.507  31.037  1.00  0.00    -0.203 F 
ATOM     92  C   UNL A   1      45.902  35.678  30.140  1.00  0.00     0.198 A 
ATOM     93  C   UNL A   1      44.814  36.196  28.065  1.00  0.00     0.198 A 
ATOM     94  F   UNL A   1      43.555  34.554  26.952  1.00  0.00    -0.203 F 
ATOM     95  F   UNL A   1      46.633  36.064  31.194  1.00  0.00    -0.200 F 
ATOM     96  C   UNL A   1      45.597  36.589  29.139  1.00  0.00     0.200 A 
ATOM     97  F   UNL A   1      44.536  37.067  27.084  1.00  0.00    -0.200 F 
ATOM     98  F   UNL A   1      46.052  37.847  29.214  1.00  0.00    -0.200 F 
ENDBRANCH  65  88
ENDBRANCH  39  40
ENDBRANCH  32  34
ENDBRANCH  31  32
ENDBRANCH  30  31
ENDBRANCH  29  30
ENDBRANCH  28  29
ENDBRANCH   1  28
TORSDOF 19
ENDMDL
