MODEL 1
REMARK VINA RESULT:     -12.5      0.000      0.000
REMARK SMILES O=C(CC[C@@H]1CN(c2ccncc2)CC[C@@H]1[NH+]1CCOCC1)OCCOCCOC(=O)c1ccc(-c2c3nc(c(-c4c(F)c(F)c(F)c(F)c4F)c4ccc([nH]4)c(-c4c(F)c(F)c(F)c(F)c4F)c4nc(c(-c5c(F)c(F)c(F)c(F)c5F)c5ccc2[nH]5)C=C4)C=C3)cc1
REMARK SMILES IDX 25 1 24 2 23 3 2 4 1 5 3 6 4 7 5 8 6 9 16 10 7 11 15 12
REMARK SMILES IDX 14 13 17 14 18 15 22 16 19 18 21 19 20 20 8 21 9 22 13 23
REMARK SMILES IDX 10 24 12 25 11 26 26 27 27 28 28 29 29 30 30 31 31 32 32 33
REMARK SMILES IDX 33 34 94 35 34 36 93 37 35 38 36 39 37 40 87 41 38 42 92 43
REMARK SMILES IDX 86 44 88 45 39 46 91 47 85 48 84 49 40 51 72 52 52 53 71 54
REMARK SMILES IDX 53 55 56 56 70 57 89 58 54 59 55 60 69 62 90 63 57 64 41 65
REMARK SMILES IDX 42 66 50 67 43 68 44 69 48 70 51 71 45 72 46 73 49 74 47 75
REMARK SMILES IDX 73 76 74 77 82 78 75 79 76 80 80 81 83 82 77 83 78 84 81 85
REMARK SMILES IDX 79 86 58 87 59 88 67 89 60 90 61 91 65 92 68 93 62 94 63 95
REMARK SMILES IDX 66 96 64 97
REMARK H PARENT 17 17 88 50 56 61
REMARK Flexibility Score: inf
ROOT
ATOM      1  C   UNL A   1      41.029  20.532  26.568  1.00  0.00     0.202 C 
ENDROOT
BRANCH   1   2
ATOM      2  C   UNL A   1      39.729  21.039  25.946  1.00  0.00     0.261 C 
BRANCH   2   3
ATOM      3  O   UNL A   1      39.298  22.388  26.226  1.00  0.00    -0.463 OA
BRANCH   3   4
ATOM      4  C   UNL A   1      38.113  23.009  26.112  1.00  0.00     0.305 C 
ATOM      5  O   UNL A   1      38.017  24.172  26.507  1.00  0.00    -0.252 OA
BRANCH   4   6
ATOM      6  C   UNL A   1      36.894  22.300  25.571  1.00  0.00     0.123 C 
BRANCH   6   7
ATOM      7  C   UNL A   1      35.596  22.567  26.349  1.00  0.00     0.023 C 
BRANCH   7   8
ATOM      8  C   UNL A   1      34.389  21.900  25.671  1.00  0.00     0.067 C 
ATOM      9  C   UNL A   1      34.683  20.555  25.001  1.00  0.00     0.126 C 
ATOM     10  C   UNL A   1      33.393  22.848  24.927  1.00  0.00     0.190 C 
ATOM     11  N   UNL A   1      33.393  19.923  24.682  1.00  0.00    -0.371 N 
ATOM     12  C   UNL A   1      32.179  22.037  24.428  1.00  0.00     0.087 C 
ATOM     13  C   UNL A   1      32.518  20.692  23.801  1.00  0.00     0.122 C 
BRANCH  10  14
ATOM     14  N   UNL A   1      34.002  23.808  23.998  1.00  0.00    -0.328 N 
ATOM     15  C   UNL A   1      34.149  25.182  24.533  1.00  0.00     0.291 C 
ATOM     16  C   UNL A   1      33.532  23.854  22.613  1.00  0.00     0.291 C 
ATOM     17  H   UNL A   1      34.919  23.368  23.932  1.00  0.00     0.348 HD
ATOM     18  C   UNL A   1      33.011  26.162  24.192  1.00  0.00     0.221 C 
ATOM     19  C   UNL A   1      32.383  24.840  22.351  1.00  0.00     0.221 C 
ATOM     20  O   UNL A   1      32.714  26.160  22.792  1.00  0.00    -0.370 OA
ENDBRANCH  10  14
BRANCH  11  21
ATOM     21  C   UNL A   1      33.308  18.534  24.648  1.00  0.00     0.040 A 
ATOM     22  C   UNL A   1      32.812  17.795  25.724  1.00  0.00     0.046 A 
ATOM     23  C   UNL A   1      33.777  17.806  23.551  1.00  0.00     0.046 A 
ATOM     24  C   UNL A   1      32.836  16.408  25.678  1.00  0.00     0.113 A 
ATOM     25  C   UNL A   1      33.774  16.417  23.596  1.00  0.00     0.113 A 
ATOM     26  N   UNL A   1      33.319  15.699  24.641  1.00  0.00    -0.265 NA
ENDBRANCH  11  21
ENDBRANCH   7   8
ENDBRANCH   6   7
ENDBRANCH   4   6
ENDBRANCH   3   4
ENDBRANCH   2   3
ENDBRANCH   1   2
BRANCH   1  27
ATOM     27  O   UNL A   1      42.193  20.532  25.768  1.00  0.00    -0.374 OA
BRANCH  27  28
ATOM     28  C   UNL A   1      43.217  21.450  26.121  1.00  0.00     0.202 C 
BRANCH  28  29
ATOM     29  C   UNL A   1      43.858  22.165  24.933  1.00  0.00     0.261 C 
BRANCH  29  30
ATOM     30  O   UNL A   1      43.196  23.413  24.650  1.00  0.00    -0.460 OA
BRANCH  30  31
ATOM     31  C   UNL A   1      43.872  24.528  25.018  1.00  0.00     0.338 C 
ATOM     32  O   UNL A   1      44.997  24.861  24.668  1.00  0.00    -0.246 OA
BRANCH  31  33
ATOM     33  C   UNL A   1      42.971  25.440  25.754  1.00  0.00     0.060 A 
ATOM     34  C   UNL A   1      43.316  26.798  25.823  1.00  0.00     0.016 A 
ATOM     35  C   UNL A   1      41.840  24.964  26.420  1.00  0.00     0.016 A 
ATOM     36  C   UNL A   1      42.595  27.666  26.641  1.00  0.00     0.010 A 
ATOM     37  C   UNL A   1      41.123  25.832  27.250  1.00  0.00     0.010 A 
ATOM     38  C   UNL A   1      41.546  27.163  27.417  1.00  0.00    -0.014 A 
BRANCH  38  39
ATOM     39  C   UNL A   1      41.106  27.926  28.613  1.00  0.00     0.031 A 
ATOM     40  C   UNL A   1      41.898  27.754  29.882  1.00  0.00     0.074 A 
ATOM     41  C   UNL A   1      40.065  28.773  28.576  1.00  0.00     0.049 A 
ATOM     42  N   UNL A   1      41.703  28.273  31.067  1.00  0.00    -0.248 NA
ATOM     43  C   UNL A   1      43.070  26.866  29.801  1.00  0.00     0.031 C 
ATOM     44  C   UNL A   1      39.262  29.069  27.396  1.00  0.00     0.029 A 
ATOM     45  N   UNL A   1      39.507  29.541  29.568  1.00  0.00    -0.354 N 
ATOM     46  C   UNL A   1      42.713  27.757  31.871  1.00  0.00     0.074 A 
ATOM     47  C   UNL A   1      43.495  26.859  31.053  1.00  0.00     0.031 C 
ATOM     48  C   UNL A   1      38.303  29.950  27.731  1.00  0.00     0.029 A 
ATOM     49  C   UNL A   1      38.412  30.258  29.156  1.00  0.00     0.049 A 
ATOM     50  H   UNL A   1      39.859  29.573  30.487  1.00  0.00     0.167 HD
ATOM     51  C   UNL A   1      42.972  28.021  33.173  1.00  0.00     0.037 A 
ATOM     52  C   UNL A   1      37.590  31.063  29.858  1.00  0.00     0.037 A 
ATOM     53  C   UNL A   1      42.196  28.923  33.980  1.00  0.00     0.049 A 
ATOM     54  C   UNL A   1      37.862  31.293  31.323  1.00  0.00     0.074 A 
ATOM     55  C   UNL A   1      42.382  29.275  35.304  1.00  0.00     0.029 A 
ATOM     56  N   UNL A   1      41.076  29.612  33.535  1.00  0.00    -0.354 N 
ATOM     57  N   UNL A   1      38.830  30.822  32.074  1.00  0.00    -0.248 NA
ATOM     58  C   UNL A   1      36.933  32.180  32.037  1.00  0.00     0.031 C 
ATOM     59  C   UNL A   1      41.339  30.128  35.679  1.00  0.00     0.029 A 
ATOM     60  C   UNL A   1      40.547  30.369  34.568  1.00  0.00     0.049 A 
ATOM     61  H   UNL A   1      40.712  29.569  32.621  1.00  0.00     0.167 HD
ATOM     62  C   UNL A   1      38.655  31.392  33.329  1.00  0.00     0.074 A 
ATOM     63  C   UNL A   1      37.490  32.247  33.236  1.00  0.00     0.031 C 
ATOM     64  C   UNL A   1      39.396  31.230  34.454  1.00  0.00     0.037 A 
BRANCH  51  65
ATOM     65  C   UNL A   1      44.117  27.286  33.809  1.00  0.00     0.064 A 
ATOM     66  C   UNL A   1      45.436  27.767  33.753  1.00  0.00     0.173 A 
ATOM     67  C   UNL A   1      43.891  26.080  34.489  1.00  0.00     0.173 A 
ATOM     68  F   UNL A   1      45.713  28.905  33.098  1.00  0.00    -0.203 F 
ATOM     69  C   UNL A   1      46.486  27.049  34.320  1.00  0.00     0.198 A 
ATOM     70  C   UNL A   1      44.938  25.383  35.087  1.00  0.00     0.198 A 
ATOM     71  F   UNL A   1      42.652  25.573  34.573  1.00  0.00    -0.203 F 
ATOM     72  F   UNL A   1      47.743  27.495  34.196  1.00  0.00    -0.200 F 
ATOM     73  C   UNL A   1      46.235  25.862  34.992  1.00  0.00     0.200 A 
ATOM     74  F   UNL A   1      44.692  24.243  35.746  1.00  0.00    -0.200 F 
ATOM     75  F   UNL A   1      47.246  25.174  35.540  1.00  0.00    -0.200 F 
ENDBRANCH  51  65
BRANCH  52  76
ATOM     76  C   UNL A   1      36.442  31.727  29.185  1.00  0.00     0.064 A 
ATOM     77  C   UNL A   1      36.435  33.112  28.967  1.00  0.00     0.173 A 
ATOM     78  C   UNL A   1      35.316  30.998  28.771  1.00  0.00     0.173 A 
ATOM     79  F   UNL A   1      37.473  33.858  29.371  1.00  0.00    -0.203 F 
ATOM     80  C   UNL A   1      35.337  33.746  28.387  1.00  0.00     0.198 A 
ATOM     81  C   UNL A   1      34.232  31.629  28.163  1.00  0.00     0.198 A 
ATOM     82  F   UNL A   1      35.265  29.672  28.964  1.00  0.00    -0.203 F 
ATOM     83  F   UNL A   1      35.334  35.079  28.249  1.00  0.00    -0.200 F 
ATOM     84  C   UNL A   1      34.239  33.003  27.980  1.00  0.00     0.200 A 
ATOM     85  F   UNL A   1      33.173  30.908  27.769  1.00  0.00    -0.200 F 
ATOM     86  F   UNL A   1      33.183  33.615  27.429  1.00  0.00    -0.200 F 
ENDBRANCH  52  76
BRANCH  64  87
ATOM     87  C   UNL A   1      39.017  32.050  35.657  1.00  0.00     0.064 A 
ATOM     88  C   UNL A   1      39.407  33.388  35.804  1.00  0.00     0.173 A 
ATOM     89  C   UNL A   1      38.225  31.484  36.669  1.00  0.00     0.173 A 
ATOM     90  F   UNL A   1      40.172  33.975  34.869  1.00  0.00    -0.203 F 
ATOM     91  C   UNL A   1      39.057  34.117  36.938  1.00  0.00     0.198 A 
ATOM     92  C   UNL A   1      37.844  32.227  37.783  1.00  0.00     0.198 A 
ATOM     93  F   UNL A   1      37.812  30.211  36.575  1.00  0.00    -0.203 F 
ATOM     94  F   UNL A   1      39.498  35.373  37.087  1.00  0.00    -0.200 F 
ATOM     95  C   UNL A   1      38.271  33.538  37.923  1.00  0.00     0.200 A 
ATOM     96  F   UNL A   1      37.067  31.671  38.723  1.00  0.00    -0.200 F 
ATOM     97  F   UNL A   1      37.932  34.241  39.012  1.00  0.00    -0.200 F 
ENDBRANCH  64  87
ENDBRANCH  38  39
ENDBRANCH  31  33
ENDBRANCH  30  31
ENDBRANCH  29  30
ENDBRANCH  28  29
ENDBRANCH  27  28
ENDBRANCH   1  27
TORSDOF 18
ENDMDL
MODEL 2
REMARK VINA RESULT:     -12.1      5.330     10.341
REMARK SMILES O=C(CC[C@@H]1CN(c2ccncc2)CC[C@@H]1[NH+]1CCOCC1)OCCOCCOC(=O)c1ccc(-c2c3nc(c(-c4c(F)c(F)c(F)c(F)c4F)c4ccc([nH]4)c(-c4c(F)c(F)c(F)c(F)c4F)c4nc(c(-c5c(F)c(F)c(F)c(F)c5F)c5ccc2[nH]5)C=C4)C=C3)cc1
REMARK SMILES IDX 25 1 24 2 23 3 2 4 1 5 3 6 4 7 5 8 6 9 16 10 7 11 15 12
REMARK SMILES IDX 14 13 17 14 18 15 22 16 19 18 21 19 20 20 8 21 9 22 13 23
REMARK SMILES IDX 10 24 12 25 11 26 26 27 27 28 28 29 29 30 30 31 31 32 32 33
REMARK SMILES IDX 33 34 94 35 34 36 93 37 35 38 36 39 37 40 87 41 38 42 92 43
REMARK SMILES IDX 86 44 88 45 39 46 91 47 85 48 84 49 40 51 72 52 52 53 71 54
REMARK SMILES IDX 53 55 56 56 70 57 89 58 54 59 55 60 69 62 90 63 57 64 41 65
REMARK SMILES IDX 42 66 50 67 43 68 44 69 48 70 51 71 45 72 46 73 49 74 47 75
REMARK SMILES IDX 73 76 74 77 82 78 75 79 76 80 80 81 83 82 77 83 78 84 81 85
REMARK SMILES IDX 79 86 58 87 59 88 67 89 60 90 61 91 65 92 68 93 62 94 63 95
REMARK SMILES IDX 66 96 64 97
REMARK H PARENT 17 17 88 50 56 61
REMARK Flexibility Score: inf
ROOT
ATOM      1  C   UNL A   1      35.627  33.709  28.311  1.00  0.00     0.202 C 
ENDROOT
BRANCH   1   2
ATOM      2  C   UNL A   1      35.293  32.385  27.625  1.00  0.00     0.261 C 
BRANCH   2   3
ATOM      3  O   UNL A   1      33.974  31.824  27.794  1.00  0.00    -0.463 OA
BRANCH   3   4
ATOM      4  C   UNL A   1      33.389  30.711  27.319  1.00  0.00     0.305 C 
ATOM      5  O   UNL A   1      32.328  30.822  26.702  1.00  0.00    -0.252 OA
BRANCH   4   6
ATOM      6  C   UNL A   1      33.966  29.339  27.575  1.00  0.00     0.123 C 
BRANCH   6   7
ATOM      7  C   UNL A   1      34.311  28.540  26.310  1.00  0.00     0.023 C 
BRANCH   7   8
ATOM      8  C   UNL A   1      33.365  27.342  26.129  1.00  0.00     0.067 C 
ATOM      9  C   UNL A   1      34.022  26.075  25.573  1.00  0.00     0.126 C 
ATOM     10  C   UNL A   1      31.921  27.660  25.622  1.00  0.00     0.190 C 
ATOM     11  N   UNL A   1      33.074  24.964  25.754  1.00  0.00    -0.371 N 
ATOM     12  C   UNL A   1      31.071  26.372  25.630  1.00  0.00     0.087 C 
ATOM     13  C   UNL A   1      31.778  25.133  25.101  1.00  0.00     0.122 C 
BRANCH  10  14
ATOM     14  N   UNL A   1      31.839  28.525  24.438  1.00  0.00    -0.328 N 
ATOM     15  C   UNL A   1      30.505  29.123  24.196  1.00  0.00     0.291 C 
ATOM     16  C   UNL A   1      32.421  28.063  23.178  1.00  0.00     0.291 C 
ATOM     17  H   UNL A   1      32.484  29.248  24.756  1.00  0.00     0.348 HD
ATOM     18  C   UNL A   1      29.592  28.355  23.221  1.00  0.00     0.221 C 
ATOM     19  C   UNL A   1      31.457  27.289  22.265  1.00  0.00     0.221 C 
ATOM     20  O   UNL A   1      30.269  28.040  22.001  1.00  0.00    -0.370 OA
ENDBRANCH  10  14
BRANCH  11  21
ATOM     21  C   UNL A   1      33.566  23.672  25.920  1.00  0.00     0.040 A 
ATOM     22  C   UNL A   1      33.372  22.952  27.101  1.00  0.00     0.046 A 
ATOM     23  C   UNL A   1      34.336  23.057  24.929  1.00  0.00     0.046 A 
ATOM     24  C   UNL A   1      33.963  21.706  27.253  1.00  0.00     0.113 A 
ATOM     25  C   UNL A   1      34.900  21.810  25.173  1.00  0.00     0.113 A 
ATOM     26  N   UNL A   1      34.736  21.121  26.319  1.00  0.00    -0.265 NA
ENDBRANCH  11  21
ENDBRANCH   7   8
ENDBRANCH   6   7
ENDBRANCH   4   6
ENDBRANCH   3   4
ENDBRANCH   2   3
ENDBRANCH   1   2
BRANCH   1  27
ATOM     27  O   UNL A   1      34.558  34.561  28.668  1.00  0.00    -0.374 OA
BRANCH  27  28
ATOM     28  C   UNL A   1      33.879  34.267  29.881  1.00  0.00     0.202 C 
BRANCH  28  29
ATOM     29  C   UNL A   1      34.800  33.926  31.051  1.00  0.00     0.261 C 
BRANCH  29  30
ATOM     30  O   UNL A   1      34.664  32.546  31.443  1.00  0.00    -0.460 OA
BRANCH  30  31
ATOM     31  C   UNL A   1      35.554  32.112  32.367  1.00  0.00     0.338 C 
ATOM     32  O   UNL A   1      35.537  32.331  33.572  1.00  0.00    -0.246 OA
BRANCH  31  33
ATOM     33  C   UNL A   1      36.470  31.125  31.756  1.00  0.00     0.060 A 
ATOM     34  C   UNL A   1      37.536  30.643  32.532  1.00  0.00     0.016 A 
ATOM     35  C   UNL A   1      36.327  30.725  30.427  1.00  0.00     0.016 A 
ATOM     36  C   UNL A   1      38.520  29.845  31.954  1.00  0.00     0.010 A 
ATOM     37  C   UNL A   1      37.320  29.933  29.843  1.00  0.00     0.010 A 
ATOM     38  C   UNL A   1      38.454  29.555  30.587  1.00  0.00    -0.014 A 
BRANCH  38  39
ATOM     39  C   UNL A   1      39.691  29.145  29.876  1.00  0.00     0.031 A 
ATOM     40  C   UNL A   1      40.788  30.167  29.736  1.00  0.00     0.074 A 
ATOM     41  C   UNL A   1      39.863  27.901  29.402  1.00  0.00     0.049 A 
ATOM     42  N   UNL A   1      41.945  30.076  29.133  1.00  0.00    -0.248 NA
ATOM     43  C   UNL A   1      40.539  31.478  30.360  1.00  0.00     0.031 C 
ATOM     44  C   UNL A   1      38.903  26.811  29.530  1.00  0.00     0.029 A 
ATOM     45  N   UNL A   1      40.915  27.349  28.714  1.00  0.00    -0.354 N 
ATOM     46  C   UNL A   1      42.546  31.319  29.288  1.00  0.00     0.074 A 
ATOM     47  C   UNL A   1      41.616  32.158  30.007  1.00  0.00     0.031 C 
ATOM     48  C   UNL A   1      39.403  25.717  28.929  1.00  0.00     0.029 A 
ATOM     49  C   UNL A   1      40.707  26.040  28.353  1.00  0.00     0.049 A 
ATOM     50  H   UNL A   1      41.737  27.844  28.498  1.00  0.00     0.167 HD
ATOM     51  C   UNL A   1      43.772  31.721  28.877  1.00  0.00     0.037 A 
ATOM     52  C   UNL A   1      41.483  25.207  27.633  1.00  0.00     0.037 A 
ATOM     53  C   UNL A   1      44.698  30.879  28.170  1.00  0.00     0.049 A 
ATOM     54  C   UNL A   1      42.819  25.697  27.133  1.00  0.00     0.074 A 
ATOM     55  C   UNL A   1      45.971  31.180  27.723  1.00  0.00     0.029 A 
ATOM     56  N   UNL A   1      44.442  29.566  27.799  1.00  0.00    -0.354 N 
ATOM     57  N   UNL A   1      43.394  26.865  27.300  1.00  0.00    -0.248 NA
ATOM     58  C   UNL A   1      43.622  24.745  26.353  1.00  0.00     0.031 C 
ATOM     59  C   UNL A   1      46.463  30.071  27.027  1.00  0.00     0.029 A 
ATOM     60  C   UNL A   1      45.527  29.052  27.106  1.00  0.00     0.049 A 
ATOM     61  H   UNL A   1      43.614  29.073  27.998  1.00  0.00     0.167 HD
ATOM     62  C   UNL A   1      44.640  26.771  26.692  1.00  0.00     0.074 A 
ATOM     63  C   UNL A   1      44.739  25.430  26.156  1.00  0.00     0.031 C 
ATOM     64  C   UNL A   1      45.617  27.707  26.594  1.00  0.00     0.037 A 
BRANCH  51  65
ATOM     65  C   UNL A   1      44.156  33.148  29.149  1.00  0.00     0.064 A 
ATOM     66  C   UNL A   1      44.728  33.548  30.367  1.00  0.00     0.173 A 
ATOM     67  C   UNL A   1      43.948  34.132  28.170  1.00  0.00     0.173 A 
ATOM     68  F   UNL A   1      44.929  32.652  31.346  1.00  0.00    -0.203 F 
ATOM     69  C   UNL A   1      45.042  34.883  30.607  1.00  0.00     0.198 A 
ATOM     70  C   UNL A   1      44.296  35.460  28.401  1.00  0.00     0.198 A 
ATOM     71  F   UNL A   1      43.403  33.807  26.989  1.00  0.00    -0.203 F 
ATOM     72  F   UNL A   1      45.525  35.251  31.802  1.00  0.00    -0.200 F 
ATOM     73  C   UNL A   1      44.832  35.836  29.622  1.00  0.00     0.200 A 
ATOM     74  F   UNL A   1      44.105  36.377  27.443  1.00  0.00    -0.200 F 
ATOM     75  F   UNL A   1      45.138  37.121  29.854  1.00  0.00    -0.200 F 
ENDBRANCH  51  65
BRANCH  52  76
ATOM     76  C   UNL A   1      41.030  23.818  27.354  1.00  0.00     0.064 A 
ATOM     77  C   UNL A   1      41.680  22.717  27.931  1.00  0.00     0.173 A 
ATOM     78  C   UNL A   1      39.959  23.559  26.486  1.00  0.00     0.173 A 
ATOM     79  F   UNL A   1      42.729  22.909  28.745  1.00  0.00    -0.203 F 
ATOM     80  C   UNL A   1      41.294  21.413  27.629  1.00  0.00     0.198 A 
ATOM     81  C   UNL A   1      39.554  22.254  26.209  1.00  0.00     0.198 A 
ATOM     82  F   UNL A   1      39.309  24.575  25.899  1.00  0.00    -0.203 F 
ATOM     83  F   UNL A   1      41.974  20.380  28.146  1.00  0.00    -0.200 F 
ATOM     84  C   UNL A   1      40.228  21.182  26.773  1.00  0.00     0.200 A 
ATOM     85  F   UNL A   1      38.522  22.036  25.383  1.00  0.00    -0.200 F 
ATOM     86  F   UNL A   1      39.863  19.927  26.479  1.00  0.00    -0.200 F 
ENDBRANCH  52  76
BRANCH  64  87
ATOM     87  C   UNL A   1      46.910  27.293  25.947  1.00  0.00     0.064 A 
ATOM     88  C   UNL A   1      47.175  27.521  24.590  1.00  0.00     0.173 A 
ATOM     89  C   UNL A   1      47.912  26.676  26.715  1.00  0.00     0.173 A 
ATOM     90  F   UNL A   1      46.249  28.099  23.809  1.00  0.00    -0.203 F 
ATOM     91  C   UNL A   1      48.374  27.109  24.014  1.00  0.00     0.198 A 
ATOM     92  C   UNL A   1      49.125  26.300  26.144  1.00  0.00     0.198 A 
ATOM     93  F   UNL A   1      47.718  26.444  28.022  1.00  0.00    -0.203 F 
ATOM     94  F   UNL A   1      48.577  27.278  22.701  1.00  0.00    -0.200 F 
ATOM     95  C   UNL A   1      49.350  26.505  24.792  1.00  0.00     0.200 A 
ATOM     96  F   UNL A   1      50.074  25.736  26.904  1.00  0.00    -0.200 F 
ATOM     97  F   UNL A   1      50.505  26.112  24.238  1.00  0.00    -0.200 F 
ENDBRANCH  64  87
ENDBRANCH  38  39
ENDBRANCH  31  33
ENDBRANCH  30  31
ENDBRANCH  29  30
ENDBRANCH  28  29
ENDBRANCH  27  28
ENDBRANCH   1  27
TORSDOF 18
ENDMDL
MODEL 3
REMARK VINA RESULT:     -11.9      3.358      7.605
REMARK SMILES O=C(CC[C@@H]1CN(c2ccncc2)CC[C@@H]1[NH+]1CCOCC1)OCCOCCOC(=O)c1ccc(-c2c3nc(c(-c4c(F)c(F)c(F)c(F)c4F)c4ccc([nH]4)c(-c4c(F)c(F)c(F)c(F)c4F)c4nc(c(-c5c(F)c(F)c(F)c(F)c5F)c5ccc2[nH]5)C=C4)C=C3)cc1
REMARK SMILES IDX 25 1 24 2 23 3 2 4 1 5 3 6 4 7 5 8 6 9 16 10 7 11 15 12
REMARK SMILES IDX 14 13 17 14 18 15 22 16 19 18 21 19 20 20 8 21 9 22 13 23
REMARK SMILES IDX 10 24 12 25 11 26 26 27 27 28 28 29 29 30 30 31 31 32 32 33
REMARK SMILES IDX 33 34 94 35 34 36 93 37 35 38 36 39 37 40 87 41 38 42 92 43
REMARK SMILES IDX 86 44 88 45 39 46 91 47 85 48 84 49 40 51 72 52 52 53 71 54
REMARK SMILES IDX 53 55 56 56 70 57 89 58 54 59 55 60 69 62 90 63 57 64 41 65
REMARK SMILES IDX 42 66 50 67 43 68 44 69 48 70 51 71 45 72 46 73 49 74 47 75
REMARK SMILES IDX 73 76 74 77 82 78 75 79 76 80 80 81 83 82 77 83 78 84 81 85
REMARK SMILES IDX 79 86 58 87 59 88 67 89 60 90 61 91 65 92 68 93 62 94 63 95
REMARK SMILES IDX 66 96 64 97
REMARK H PARENT 17 17 88 50 56 61
REMARK Flexibility Score: inf
ROOT
ATOM      1  C   UNL A   1      32.503  27.680  23.166  1.00  0.00     0.202 C 
ENDROOT
BRANCH   1   2
ATOM      2  C   UNL A   1      31.426  26.619  22.947  1.00  0.00     0.261 C 
BRANCH   2   3
ATOM      3  O   UNL A   1      31.795  25.362  22.341  1.00  0.00    -0.463 OA
BRANCH   3   4
ATOM      4  C   UNL A   1      32.775  25.011  21.492  1.00  0.00     0.305 C 
ATOM      5  O   UNL A   1      33.005  25.739  20.525  1.00  0.00    -0.252 OA
BRANCH   4   6
ATOM      6  C   UNL A   1      33.553  23.727  21.664  1.00  0.00     0.123 C 
BRANCH   6   7
ATOM      7  C   UNL A   1      32.697  22.497  22.001  1.00  0.00     0.023 C 
BRANCH   7   8
ATOM      8  C   UNL A   1      33.184  21.811  23.286  1.00  0.00     0.067 C 
ATOM      9  C   UNL A   1      32.534  20.457  23.585  1.00  0.00     0.126 C 
ATOM     10  C   UNL A   1      33.462  22.738  24.514  1.00  0.00     0.190 C 
ATOM     11  N   UNL A   1      33.317  19.810  24.650  1.00  0.00    -0.371 N 
ATOM     12  C   UNL A   1      34.071  21.911  25.664  1.00  0.00     0.087 C 
ATOM     13  C   UNL A   1      33.414  20.558  25.901  1.00  0.00     0.122 C 
BRANCH  10  14
ATOM     14  N   UNL A   1      32.393  23.688  24.847  1.00  0.00    -0.328 N 
ATOM     15  C   UNL A   1      32.679  24.564  26.008  1.00  0.00     0.291 C 
ATOM     16  C   UNL A   1      31.010  23.213  24.903  1.00  0.00     0.291 C 
ATOM     17  H   UNL A   1      32.429  24.238  23.989  1.00  0.00     0.348 HD
ATOM     18  C   UNL A   1      32.141  24.077  27.366  1.00  0.00     0.221 C 
ATOM     19  C   UNL A   1      30.549  22.725  26.286  1.00  0.00     0.221 C 
ATOM     20  O   UNL A   1      30.757  23.722  27.290  1.00  0.00    -0.370 OA
ENDBRANCH  10  14
BRANCH  11  21
ATOM     21  C   UNL A   1      33.366  18.420  24.707  1.00  0.00     0.040 A 
ATOM     22  C   UNL A   1      34.113  17.667  23.798  1.00  0.00     0.046 A 
ATOM     23  C   UNL A   1      32.615  17.706  25.645  1.00  0.00     0.046 A 
ATOM     24  C   UNL A   1      34.054  16.281  23.838  1.00  0.00     0.113 A 
ATOM     25  C   UNL A   1      32.606  16.317  25.603  1.00  0.00     0.113 A 
ATOM     26  N   UNL A   1      33.305  15.586  24.714  1.00  0.00    -0.265 NA
ENDBRANCH  11  21
ENDBRANCH   7   8
ENDBRANCH   6   7
ENDBRANCH   4   6
ENDBRANCH   3   4
ENDBRANCH   2   3
ENDBRANCH   1   2
BRANCH   1  27
ATOM     27  O   UNL A   1      32.773  28.089  24.491  1.00  0.00    -0.374 OA
BRANCH  27  28
ATOM     28  C   UNL A   1      31.705  28.688  25.210  1.00  0.00     0.202 C 
BRANCH  28  29
ATOM     29  C   UNL A   1      31.989  30.112  25.687  1.00  0.00     0.261 C 
BRANCH  29  30
ATOM     30  O   UNL A   1      32.647  30.117  26.969  1.00  0.00    -0.460 OA
BRANCH  30  31
ATOM     31  C   UNL A   1      33.290  31.265  27.289  1.00  0.00     0.338 C 
ATOM     32  O   UNL A   1      32.789  32.368  27.470  1.00  0.00    -0.246 OA
BRANCH  31  33
ATOM     33  C   UNL A   1      34.702  30.975  27.616  1.00  0.00     0.060 A 
ATOM     34  C   UNL A   1      35.101  29.632  27.692  1.00  0.00     0.016 A 
ATOM     35  C   UNL A   1      35.607  31.998  27.906  1.00  0.00     0.016 A 
ATOM     36  C   UNL A   1      36.372  29.302  28.158  1.00  0.00     0.010 A 
ATOM     37  C   UNL A   1      36.878  31.667  28.385  1.00  0.00     0.010 A 
ATOM     38  C   UNL A   1      37.233  30.320  28.581  1.00  0.00    -0.014 A 
BRANCH  38  39
ATOM     39  C   UNL A   1      38.347  29.983  29.503  1.00  0.00     0.031 A 
ATOM     40  C   UNL A   1      39.395  29.020  29.010  1.00  0.00     0.074 A 
ATOM     41  C   UNL A   1      38.456  30.535  30.722  1.00  0.00     0.049 A 
ATOM     42  N   UNL A   1      40.443  28.537  29.626  1.00  0.00    -0.248 NA
ATOM     43  C   UNL A   1      39.232  28.532  27.630  1.00  0.00     0.031 C 
ATOM     44  C   UNL A   1      37.542  31.522  31.284  1.00  0.00     0.029 A 
ATOM     45  N   UNL A   1      39.392  30.338  31.707  1.00  0.00    -0.354 N 
ATOM     46  C   UNL A   1      41.046  27.675  28.718  1.00  0.00     0.074 A 
ATOM     47  C   UNL A   1      40.231  27.672  27.525  1.00  0.00     0.031 C 
ATOM     48  C   UNL A   1      37.954  31.841  32.524  1.00  0.00     0.029 A 
ATOM     49  C   UNL A   1      39.146  31.059  32.849  1.00  0.00     0.049 A 
ATOM     50  H   UNL A   1      40.164  29.736  31.605  1.00  0.00     0.167 HD
ATOM     51  C   UNL A   1      42.186  26.960  28.862  1.00  0.00     0.037 A 
ATOM     52  C   UNL A   1      39.808  31.075  34.022  1.00  0.00     0.037 A 
ATOM     53  C   UNL A   1      42.998  26.973  30.048  1.00  0.00     0.049 A 
ATOM     54  C   UNL A   1      41.042  30.222  34.181  1.00  0.00     0.074 A 
ATOM     55  C   UNL A   1      44.180  26.300  30.293  1.00  0.00     0.029 A 
ATOM     56  N   UNL A   1      42.702  27.696  31.196  1.00  0.00    -0.354 N 
ATOM     57  N   UNL A   1      41.621  29.426  33.313  1.00  0.00    -0.248 NA
ATOM     58  C   UNL A   1      41.722  30.280  35.482  1.00  0.00     0.031 C 
ATOM     59  C   UNL A   1      44.569  26.565  31.610  1.00  0.00     0.029 A 
ATOM     60  C   UNL A   1      43.670  27.464  32.161  1.00  0.00     0.049 A 
ATOM     61  H   UNL A   1      41.922  28.286  31.307  1.00  0.00     0.167 HD
ATOM     62  C   UNL A   1      42.756  28.931  33.943  1.00  0.00     0.074 A 
ATOM     63  C   UNL A   1      42.785  29.519  35.266  1.00  0.00     0.031 C 
ATOM     64  C   UNL A   1      43.694  28.073  33.468  1.00  0.00     0.037 A 
BRANCH  51  65
ATOM     65  C   UNL A   1      42.590  26.071  27.720  1.00  0.00     0.064 A 
ATOM     66  C   UNL A   1      43.536  26.471  26.762  1.00  0.00     0.173 A 
ATOM     67  C   UNL A   1      42.021  24.796  27.584  1.00  0.00     0.173 A 
ATOM     68  F   UNL A   1      44.096  27.689  26.833  1.00  0.00    -0.203 F 
ATOM     69  C   UNL A   1      43.867  25.643  25.693  1.00  0.00     0.198 A 
ATOM     70  C   UNL A   1      42.382  23.956  26.533  1.00  0.00     0.198 A 
ATOM     71  F   UNL A   1      41.111  24.362  28.469  1.00  0.00    -0.203 F 
ATOM     72  F   UNL A   1      44.722  26.073  24.755  1.00  0.00    -0.200 F 
ATOM     73  C   UNL A   1      43.296  24.384  25.583  1.00  0.00     0.200 A 
ATOM     74  F   UNL A   1      41.838  22.735  26.437  1.00  0.00    -0.200 F 
ATOM     75  F   UNL A   1      43.618  23.587  24.555  1.00  0.00    -0.200 F 
ENDBRANCH  51  65
BRANCH  52  76
ATOM     76  C   UNL A   1      39.334  31.940  35.135  1.00  0.00     0.064 A 
ATOM     77  C   UNL A   1      38.515  31.425  36.151  1.00  0.00     0.173 A 
ATOM     78  C   UNL A   1      39.664  33.302  35.194  1.00  0.00     0.173 A 
ATOM     79  F   UNL A   1      38.146  30.136  36.124  1.00  0.00    -0.203 F 
ATOM     80  C   UNL A   1      38.023  32.244  37.165  1.00  0.00     0.198 A 
ATOM     81  C   UNL A   1      39.196  34.114  36.227  1.00  0.00     0.198 A 
ATOM     82  F   UNL A   1      40.436  33.849  34.243  1.00  0.00    -0.203 F 
ATOM     83  F   UNL A   1      37.192  31.738  38.086  1.00  0.00    -0.200 F 
ATOM     84  C   UNL A   1      38.369  33.587  37.206  1.00  0.00     0.200 A 
ATOM     85  F   UNL A   1      39.534  35.410  36.264  1.00  0.00    -0.200 F 
ATOM     86  F   UNL A   1      37.889  34.374  38.178  1.00  0.00    -0.200 F 
ENDBRANCH  52  76
BRANCH  64  87
ATOM     87  C   UNL A   1      44.873  27.776  34.354  1.00  0.00     0.064 A 
ATOM     88  C   UNL A   1      46.033  28.563  34.345  1.00  0.00     0.173 A 
ATOM     89  C   UNL A   1      44.823  26.693  35.246  1.00  0.00     0.173 A 
ATOM     90  F   UNL A   1      46.136  29.605  33.505  1.00  0.00    -0.203 F 
ATOM     91  C   UNL A   1      47.116  28.253  35.163  1.00  0.00     0.198 A 
ATOM     92  C   UNL A   1      45.893  26.409  36.090  1.00  0.00     0.198 A 
ATOM     93  F   UNL A   1      43.734  25.913  35.306  1.00  0.00    -0.203 F 
ATOM     94  F   UNL A   1      48.239  28.979  35.089  1.00  0.00    -0.200 F 
ATOM     95  C   UNL A   1      47.043  27.180  36.039  1.00  0.00     0.200 A 
ATOM     96  F   UNL A   1      45.811  25.384  36.951  1.00  0.00    -0.200 F 
ATOM     97  F   UNL A   1      48.085  26.884  36.828  1.00  0.00    -0.200 F 
ENDBRANCH  64  87
ENDBRANCH  38  39
ENDBRANCH  31  33
ENDBRANCH  30  31
ENDBRANCH  29  30
ENDBRANCH  28  29
ENDBRANCH  27  28
ENDBRANCH   1  27
TORSDOF 18
ENDMDL
