MODEL 1
REMARK VINA RESULT:     -12.7      0.000      0.000
REMARK SMILES O=C(OCCOCCOC(=O)[C@]12C[NH2+]C[C@H]1CN(C(=O)c1ccccc1-n1cncn1)C2)c1ccc(-c2c3nc(c(-c4c(F)c(F)c(F)c(F)c4F)c4ccc([nH]4)c(-c4c(F)c(F)c(F)c(F)c4F)c4nc(c(-c5c(F)c(F)c(F)c(F)c5F)c5ccc2[nH]5)C=C4)C=C3)cc1
REMARK SMILES IDX 7 1 6 2 5 3 4 4 3 5 2 6 1 7 33 8 34 9 95 10 35 11 94 12
REMARK SMILES IDX 36 13 37 14 38 15 88 16 39 17 93 18 87 19 89 20 40 21 92 22
REMARK SMILES IDX 86 23 85 24 41 26 73 27 53 28 72 29 54 30 57 31 71 32 90 33
REMARK SMILES IDX 55 34 56 35 70 37 91 38 58 39 42 40 43 41 51 42 44 43 45 44
REMARK SMILES IDX 49 45 52 46 46 47 47 48 50 49 48 50 74 51 75 52 83 53 76 54
REMARK SMILES IDX 77 55 81 56 84 57 78 58 79 59 82 60 80 61 59 62 60 63 68 64
REMARK SMILES IDX 61 65 62 66 66 67 69 68 63 69 64 70 67 71 65 72 8 73 9 74
REMARK SMILES IDX 10 75 11 76 12 77 13 78 16 79 32 80 14 81 15 82 17 83 18 84
REMARK SMILES IDX 19 87 20 88 21 89 22 90 26 91 23 92 25 93 24 94 27 95 28 96
REMARK SMILES IDX 31 97 29 98 30 99
REMARK H PARENT 89 25 57 36 14 85 14 86
REMARK Flexibility Score: inf
ROOT
ATOM      1  C   UNL A   1      31.978  29.282  27.179  1.00  0.00     0.202 C 
ENDROOT
BRANCH   1   2
ATOM      2  O   UNL A   1      32.941  29.558  26.164  1.00  0.00    -0.374 OA
BRANCH   2   3
ATOM      3  C   UNL A   1      34.254  29.037  26.295  1.00  0.00     0.202 C 
BRANCH   3   4
ATOM      4  C   UNL A   1      35.081  29.400  27.546  1.00  0.00     0.261 C 
BRANCH   4   5
ATOM      5  O   UNL A   1      36.119  30.346  27.322  1.00  0.00    -0.460 OA
BRANCH   5   6
ATOM      6  C   UNL A   1      37.297  30.408  27.981  1.00  0.00     0.338 C 
ATOM      7  O   UNL A   1      37.518  31.393  28.684  1.00  0.00    -0.246 OA
BRANCH   6   8
ATOM      8  C   UNL A   1      38.360  29.364  27.876  1.00  0.00     0.060 A 
ATOM      9  C   UNL A   1      38.357  28.111  28.495  1.00  0.00     0.016 A 
ATOM     10  C   UNL A   1      39.485  29.722  27.119  1.00  0.00     0.016 A 
ATOM     11  C   UNL A   1      39.511  27.378  28.617  1.00  0.00     0.010 A 
ATOM     12  C   UNL A   1      40.621  28.936  27.138  1.00  0.00     0.010 A 
ATOM     13  C   UNL A   1      40.652  27.832  27.984  1.00  0.00    -0.014 A 
BRANCH  13  14
ATOM     14  C   UNL A   1      41.852  27.057  28.221  1.00  0.00     0.031 A 
ATOM     15  C   UNL A   1      42.499  27.300  29.544  1.00  0.00     0.074 A 
ATOM     16  C   UNL A   1      42.251  26.174  27.288  1.00  0.00     0.049 A 
ATOM     17  N   UNL A   1      43.739  27.562  29.809  1.00  0.00    -0.248 NA
ATOM     18  C   UNL A   1      41.606  27.404  30.716  1.00  0.00     0.031 C 
ATOM     19  C   UNL A   1      41.543  25.770  26.067  1.00  0.00     0.029 A 
ATOM     20  N   UNL A   1      43.318  25.342  27.306  1.00  0.00    -0.354 N 
ATOM     21  C   UNL A   1      43.811  27.686  31.197  1.00  0.00     0.074 A 
ATOM     22  C   UNL A   1      42.460  27.732  31.681  1.00  0.00     0.031 C 
ATOM     23  C   UNL A   1      42.046  24.595  25.635  1.00  0.00     0.029 A 
ATOM     24  C   UNL A   1      43.180  24.248  26.469  1.00  0.00     0.049 A 
ATOM     25  H   UNL A   1      44.116  25.500  27.861  1.00  0.00     0.167 HD
ATOM     26  C   UNL A   1      44.978  27.490  31.870  1.00  0.00     0.037 A 
ATOM     27  C   UNL A   1      43.866  23.088  26.583  1.00  0.00     0.037 A 
ATOM     28  C   UNL A   1      46.114  27.773  31.034  1.00  0.00     0.049 A 
ATOM     29  C   UNL A   1      45.066  23.365  27.418  1.00  0.00     0.074 A 
ATOM     30  C   UNL A   1      46.579  28.904  30.390  1.00  0.00     0.029 A 
ATOM     31  N   UNL A   1      46.798  26.724  30.471  1.00  0.00    -0.354 N 
ATOM     32  N   UNL A   1      46.052  24.131  27.037  1.00  0.00    -0.248 NA
ATOM     33  C   UNL A   1      44.946  23.176  28.858  1.00  0.00     0.031 C 
ATOM     34  C   UNL A   1      47.129  28.432  29.162  1.00  0.00     0.029 A 
ATOM     35  C   UNL A   1      47.011  27.043  29.155  1.00  0.00     0.049 A 
ATOM     36  H   UNL A   1      47.084  25.900  30.928  1.00  0.00     0.167 HD
ATOM     37  C   UNL A   1      46.423  24.834  28.176  1.00  0.00     0.074 A 
ATOM     38  C   UNL A   1      45.757  24.150  29.282  1.00  0.00     0.031 C 
ATOM     39  C   UNL A   1      46.996  26.071  28.090  1.00  0.00     0.037 A 
BRANCH  26  40
ATOM     40  C   UNL A   1      45.068  26.652  33.128  1.00  0.00     0.064 A 
ATOM     41  C   UNL A   1      44.522  25.352  33.119  1.00  0.00     0.173 A 
ATOM     42  C   UNL A   1      45.365  27.172  34.409  1.00  0.00     0.173 A 
ATOM     43  F   UNL A   1      44.211  24.748  31.962  1.00  0.00    -0.203 F 
ATOM     44  C   UNL A   1      44.183  24.685  34.300  1.00  0.00     0.198 A 
ATOM     45  C   UNL A   1      45.067  26.484  35.582  1.00  0.00     0.198 A 
ATOM     46  F   UNL A   1      45.855  28.401  34.593  1.00  0.00    -0.203 F 
ATOM     47  F   UNL A   1      43.535  23.515  34.239  1.00  0.00    -0.200 F 
ATOM     48  C   UNL A   1      44.439  25.260  35.531  1.00  0.00     0.200 A 
ATOM     49  F   UNL A   1      45.320  27.064  36.764  1.00  0.00    -0.200 F 
ATOM     50  F   UNL A   1      44.042  24.662  36.660  1.00  0.00    -0.200 F 
ENDBRANCH  26  40
BRANCH  27  51
ATOM     51  C   UNL A   1      43.309  21.733  26.365  1.00  0.00     0.064 A 
ATOM     52  C   UNL A   1      43.898  20.852  25.449  1.00  0.00     0.173 A 
ATOM     53  C   UNL A   1      42.323  21.189  27.215  1.00  0.00     0.173 A 
ATOM     54  F   UNL A   1      44.883  21.278  24.645  1.00  0.00    -0.203 F 
ATOM     55  C   UNL A   1      43.521  19.505  25.387  1.00  0.00     0.198 A 
ATOM     56  C   UNL A   1      41.938  19.852  27.142  1.00  0.00     0.198 A 
ATOM     57  F   UNL A   1      41.773  21.920  28.196  1.00  0.00    -0.203 F 
ATOM     58  F   UNL A   1      44.140  18.679  24.532  1.00  0.00    -0.200 F 
ATOM     59  C   UNL A   1      42.544  19.008  26.234  1.00  0.00     0.200 A 
ATOM     60  F   UNL A   1      41.016  19.377  27.993  1.00  0.00    -0.200 F 
ATOM     61  F   UNL A   1      42.216  17.708  26.203  1.00  0.00    -0.200 F 
ENDBRANCH  27  51
BRANCH  39  62
ATOM     62  C   UNL A   1      47.403  26.558  26.728  1.00  0.00     0.064 A 
ATOM     63  C   UNL A   1      48.641  26.250  26.137  1.00  0.00     0.173 A 
ATOM     64  C   UNL A   1      46.456  27.214  25.934  1.00  0.00     0.173 A 
ATOM     65  F   UNL A   1      49.551  25.521  26.791  1.00  0.00    -0.203 F 
ATOM     66  C   UNL A   1      48.934  26.628  24.828  1.00  0.00     0.198 A 
ATOM     67  C   UNL A   1      46.736  27.560  24.615  1.00  0.00     0.198 A 
ATOM     68  F   UNL A   1      45.233  27.472  26.424  1.00  0.00    -0.203 F 
ATOM     69  F   UNL A   1      50.126  26.328  24.292  1.00  0.00    -0.200 F 
ATOM     70  C   UNL A   1      47.978  27.277  24.066  1.00  0.00     0.200 A 
ATOM     71  F   UNL A   1      45.790  28.136  23.862  1.00  0.00    -0.200 F 
ATOM     72  F   UNL A   1      48.241  27.602  22.792  1.00  0.00    -0.200 F 
ENDBRANCH  39  62
ENDBRANCH  13  14
ENDBRANCH   6   8
ENDBRANCH   5   6
ENDBRANCH   4   5
ENDBRANCH   3   4
ENDBRANCH   2   3
ENDBRANCH   1   2
BRANCH   1  73
ATOM     73  C   UNL A   1      31.677  27.846  27.635  1.00  0.00     0.261 C 
BRANCH  73  74
ATOM     74  O   UNL A   1      30.784  27.073  26.803  1.00  0.00    -0.463 OA
BRANCH  74  75
ATOM     75  C   UNL A   1      31.362  26.020  26.137  1.00  0.00     0.320 C 
ATOM     76  O   UNL A   1      31.697  24.973  26.690  1.00  0.00    -0.251 OA
BRANCH  75  77
ATOM     77  C   UNL A   1      31.595  26.206  24.603  1.00  0.00     0.144 C 
ATOM     78  C   UNL A   1      30.312  27.141  24.674  1.00  0.00     0.281 C 
ATOM     79  C   UNL A   1      31.192  25.925  23.102  1.00  0.00     0.088 C 
ATOM     80  C   UNL A   1      32.146  24.707  24.659  1.00  0.00     0.145 C 
ATOM     81  N   UNL A   1      30.381  28.060  23.528  1.00  0.00    -0.345 N 
ATOM     82  C   UNL A   1      30.807  27.223  22.426  1.00  0.00     0.267 C 
ATOM     83  C   UNL A   1      32.397  25.299  22.419  1.00  0.00     0.130 C 
ATOM     84  N   UNL A   1      32.857  24.407  23.432  1.00  0.00    -0.337 N 
ATOM     85  H   UNL A   1      31.058  28.803  23.701  1.00  0.00     0.346 HD
ATOM     86  H   UNL A   1      29.491  28.525  23.345  1.00  0.00     0.346 HD
BRANCH  84  87
ATOM     87  C   UNL A   1      33.828  23.455  23.174  1.00  0.00     0.256 C 
ATOM     88  O   UNL A   1      34.764  23.636  22.415  1.00  0.00    -0.269 OA
BRANCH  87  89
ATOM     89  C   UNL A   1      33.698  22.110  23.782  1.00  0.00     0.065 A 
ATOM     90  C   UNL A   1      32.541  21.383  23.461  1.00  0.00     0.016 A 
ATOM     91  C   UNL A   1      34.642  21.566  24.669  1.00  0.00     0.079 A 
ATOM     92  C   UNL A   1      32.336  20.107  23.993  1.00  0.00     0.001 A 
ATOM     93  C   UNL A   1      34.438  20.261  25.169  1.00  0.00     0.029 A 
ATOM     94  C   UNL A   1      33.288  19.542  24.837  1.00  0.00     0.002 A 
BRANCH  91  95
ATOM     95  N   UNL A   1      35.817  22.250  25.080  1.00  0.00    -0.220 N 
ATOM     96  C   UNL A   1      37.144  21.989  24.850  1.00  0.00     0.225 A 
ATOM     97  N   UNL A   1      35.725  23.330  25.904  1.00  0.00    -0.155 NA
ATOM     98  N   UNL A   1      37.903  22.752  25.603  1.00  0.00    -0.223 NA
ATOM     99  C   UNL A   1      36.999  23.547  26.232  1.00  0.00     0.246 A 
ENDBRANCH  91  95
ENDBRANCH  87  89
ENDBRANCH  84  87
ENDBRANCH  75  77
ENDBRANCH  74  75
ENDBRANCH  73  74
ENDBRANCH   1  73
TORSDOF 17
ENDMDL
MODEL 2
REMARK VINA RESULT:     -12.5      3.552      8.601
REMARK SMILES O=C(OCCOCCOC(=O)[C@]12C[NH2+]C[C@H]1CN(C(=O)c1ccccc1-n1cncn1)C2)c1ccc(-c2c3nc(c(-c4c(F)c(F)c(F)c(F)c4F)c4ccc([nH]4)c(-c4c(F)c(F)c(F)c(F)c4F)c4nc(c(-c5c(F)c(F)c(F)c(F)c5F)c5ccc2[nH]5)C=C4)C=C3)cc1
REMARK SMILES IDX 7 1 6 2 5 3 4 4 3 5 2 6 1 7 33 8 34 9 95 10 35 11 94 12
REMARK SMILES IDX 36 13 37 14 38 15 88 16 39 17 93 18 87 19 89 20 40 21 92 22
REMARK SMILES IDX 86 23 85 24 41 26 73 27 53 28 72 29 54 30 57 31 71 32 90 33
REMARK SMILES IDX 55 34 56 35 70 37 91 38 58 39 42 40 43 41 51 42 44 43 45 44
REMARK SMILES IDX 49 45 52 46 46 47 47 48 50 49 48 50 74 51 75 52 83 53 76 54
REMARK SMILES IDX 77 55 81 56 84 57 78 58 79 59 82 60 80 61 59 62 60 63 68 64
REMARK SMILES IDX 61 65 62 66 66 67 69 68 63 69 64 70 67 71 65 72 8 73 9 74
REMARK SMILES IDX 10 75 11 76 12 77 13 78 16 79 32 80 14 81 15 82 17 83 18 84
REMARK SMILES IDX 19 87 20 88 21 89 22 90 26 91 23 92 25 93 24 94 27 95 28 96
REMARK SMILES IDX 31 97 29 98 30 99
REMARK H PARENT 89 25 57 36 14 85 14 86
REMARK Flexibility Score: inf
ROOT
ATOM      1  C   UNL A   1      40.116  22.102  26.831  1.00  0.00     0.202 C 
ENDROOT
BRANCH   1   2
ATOM      2  O   UNL A   1      40.367  20.845  26.204  1.00  0.00    -0.374 OA
BRANCH   2   3
ATOM      3  C   UNL A   1      41.172  19.886  26.871  1.00  0.00     0.202 C 
BRANCH   3   4
ATOM      4  C   UNL A   1      42.675  19.807  26.534  1.00  0.00     0.261 C 
BRANCH   4   5
ATOM      5  O   UNL A   1      43.002  20.113  25.184  1.00  0.00    -0.460 OA
BRANCH   5   6
ATOM      6  C   UNL A   1      43.977  20.952  24.771  1.00  0.00     0.338 C 
ATOM      7  O   UNL A   1      44.792  20.535  23.949  1.00  0.00    -0.246 OA
BRANCH   6   8
ATOM      8  C   UNL A   1      44.141  22.346  25.280  1.00  0.00     0.060 A 
ATOM      9  C   UNL A   1      45.127  22.799  26.161  1.00  0.00     0.016 A 
ATOM     10  C   UNL A   1      43.163  23.261  24.860  1.00  0.00     0.016 A 
ATOM     11  C   UNL A   1      44.990  23.991  26.827  1.00  0.00     0.010 A 
ATOM     12  C   UNL A   1      43.078  24.512  25.441  1.00  0.00     0.010 A 
ATOM     13  C   UNL A   1      43.927  24.811  26.502  1.00  0.00    -0.014 A 
BRANCH  13  14
ATOM     14  C   UNL A   1      43.794  26.013  27.299  1.00  0.00     0.031 A 
ATOM     15  C   UNL A   1      44.829  27.054  27.031  1.00  0.00     0.074 A 
ATOM     16  C   UNL A   1      42.761  26.115  28.154  1.00  0.00     0.049 A 
ATOM     17  N   UNL A   1      45.573  27.700  27.871  1.00  0.00    -0.248 NA
ATOM     18  C   UNL A   1      45.176  27.303  25.617  1.00  0.00     0.031 C 
ATOM     19  C   UNL A   1      41.623  25.201  28.308  1.00  0.00     0.029 A 
ATOM     20  N   UNL A   1      42.436  27.141  28.975  1.00  0.00    -0.354 N 
ATOM     21  C   UNL A   1      46.353  28.563  27.101  1.00  0.00     0.074 A 
ATOM     22  C   UNL A   1      46.179  28.170  25.731  1.00  0.00     0.031 C 
ATOM     23  C   UNL A   1      40.621  25.848  28.938  1.00  0.00     0.029 A 
ATOM     24  C   UNL A   1      41.100  27.157  29.337  1.00  0.00     0.049 A 
ATOM     25  H   UNL A   1      43.088  27.811  29.285  1.00  0.00     0.167 HD
ATOM     26  C   UNL A   1      46.891  29.697  27.626  1.00  0.00     0.037 A 
ATOM     27  C   UNL A   1      40.427  28.241  29.787  1.00  0.00     0.037 A 
ATOM     28  C   UNL A   1      47.098  29.566  29.044  1.00  0.00     0.049 A 
ATOM     29  C   UNL A   1      41.439  29.226  30.254  1.00  0.00     0.074 A 
ATOM     30  C   UNL A   1      47.872  28.736  29.832  1.00  0.00     0.029 A 
ATOM     31  N   UNL A   1      46.197  30.148  29.900  1.00  0.00    -0.354 N 
ATOM     32  N   UNL A   1      42.209  29.037  31.291  1.00  0.00    -0.248 NA
ATOM     33  C   UNL A   1      41.925  30.206  29.290  1.00  0.00     0.031 C 
ATOM     34  C   UNL A   1      47.086  28.489  30.995  1.00  0.00     0.029 A 
ATOM     35  C   UNL A   1      45.906  29.221  30.867  1.00  0.00     0.049 A 
ATOM     36  H   UNL A   1      45.830  31.059  29.833  1.00  0.00     0.167 HD
ATOM     37  C   UNL A   1      43.443  29.557  30.925  1.00  0.00     0.074 A 
ATOM     38  C   UNL A   1      43.188  30.330  29.711  1.00  0.00     0.031 C 
ATOM     39  C   UNL A   1      44.602  29.081  31.468  1.00  0.00     0.037 A 
BRANCH  26  40
ATOM     40  C   UNL A   1      46.827  31.036  26.922  1.00  0.00     0.064 A 
ATOM     41  C   UNL A   1      47.988  31.836  26.875  1.00  0.00     0.173 A 
ATOM     42  C   UNL A   1      45.625  31.701  26.587  1.00  0.00     0.173 A 
ATOM     43  F   UNL A   1      49.191  31.314  27.160  1.00  0.00    -0.203 F 
ATOM     44  C   UNL A   1      47.928  33.212  26.639  1.00  0.00     0.198 A 
ATOM     45  C   UNL A   1      45.576  33.064  26.308  1.00  0.00     0.198 A 
ATOM     46  F   UNL A   1      44.433  31.096  26.616  1.00  0.00    -0.203 F 
ATOM     47  F   UNL A   1      49.038  33.952  26.747  1.00  0.00    -0.200 F 
ATOM     48  C   UNL A   1      46.719  33.828  26.374  1.00  0.00     0.200 A 
ATOM     49  F   UNL A   1      44.392  33.641  26.059  1.00  0.00    -0.200 F 
ATOM     50  F   UNL A   1      46.647  35.157  26.228  1.00  0.00    -0.200 F 
ENDBRANCH  26  40
BRANCH  27  51
ATOM     51  C   UNL A   1      39.033  28.596  29.435  1.00  0.00     0.064 A 
ATOM     52  C   UNL A   1      38.063  28.774  30.431  1.00  0.00     0.173 A 
ATOM     53  C   UNL A   1      38.673  28.993  28.130  1.00  0.00     0.173 A 
ATOM     54  F   UNL A   1      38.347  28.474  31.706  1.00  0.00    -0.203 F 
ATOM     55  C   UNL A   1      36.806  29.315  30.136  1.00  0.00     0.198 A 
ATOM     56  C   UNL A   1      37.416  29.516  27.835  1.00  0.00     0.198 A 
ATOM     57  F   UNL A   1      39.562  28.962  27.126  1.00  0.00    -0.203 F 
ATOM     58  F   UNL A   1      35.920  29.516  31.121  1.00  0.00    -0.200 F 
ATOM     59  C   UNL A   1      36.486  29.687  28.840  1.00  0.00     0.200 A 
ATOM     60  F   UNL A   1      37.134  29.905  26.582  1.00  0.00    -0.200 F 
ATOM     61  F   UNL A   1      35.298  30.246  28.568  1.00  0.00    -0.200 F 
ENDBRANCH  27  51
BRANCH  39  62
ATOM     62  C   UNL A   1      44.491  28.127  32.623  1.00  0.00     0.064 A 
ATOM     63  C   UNL A   1      44.349  26.737  32.464  1.00  0.00     0.173 A 
ATOM     64  C   UNL A   1      44.698  28.610  33.919  1.00  0.00     0.173 A 
ATOM     65  F   UNL A   1      44.267  26.190  31.247  1.00  0.00    -0.203 F 
ATOM     66  C   UNL A   1      44.361  25.878  33.561  1.00  0.00     0.198 A 
ATOM     67  C   UNL A   1      44.747  27.746  35.011  1.00  0.00     0.198 A 
ATOM     68  F   UNL A   1      44.910  29.919  34.123  1.00  0.00    -0.203 F 
ATOM     69  F   UNL A   1      44.215  24.556  33.382  1.00  0.00    -0.200 F 
ATOM     70  C   UNL A   1      44.567  26.383  34.834  1.00  0.00     0.200 A 
ATOM     71  F   UNL A   1      45.003  28.231  36.233  1.00  0.00    -0.200 F 
ATOM     72  F   UNL A   1      44.625  25.553  35.885  1.00  0.00    -0.200 F 
ENDBRANCH  39  62
ENDBRANCH  13  14
ENDBRANCH   6   8
ENDBRANCH   5   6
ENDBRANCH   4   5
ENDBRANCH   3   4
ENDBRANCH   2   3
ENDBRANCH   1   2
BRANCH   1  73
ATOM     73  C   UNL A   1      38.935  22.990  26.409  1.00  0.00     0.261 C 
BRANCH  73  74
ATOM     74  O   UNL A   1      37.755  22.314  25.919  1.00  0.00    -0.463 OA
BRANCH  74  75
ATOM     75  C   UNL A   1      36.667  23.120  25.690  1.00  0.00     0.320 C 
ATOM     76  O   UNL A   1      36.728  24.348  25.670  1.00  0.00    -0.251 OA
BRANCH  75  77
ATOM     77  C   UNL A   1      35.301  22.398  25.455  1.00  0.00     0.144 C 
ATOM     78  C   UNL A   1      36.200  21.146  25.065  1.00  0.00     0.281 C 
ATOM     79  C   UNL A   1      34.207  21.795  24.489  1.00  0.00     0.088 C 
ATOM     80  C   UNL A   1      34.784  23.845  25.018  1.00  0.00     0.145 C 
ATOM     81  N   UNL A   1      35.378  19.943  25.262  1.00  0.00    -0.345 N 
ATOM     82  C   UNL A   1      34.083  20.305  24.725  1.00  0.00     0.267 C 
ATOM     83  C   UNL A   1      32.895  22.499  24.794  1.00  0.00     0.130 C 
ATOM     84  N   UNL A   1      33.335  23.845  24.961  1.00  0.00    -0.337 N 
ATOM     85  H   UNL A   1      35.308  19.712  26.253  1.00  0.00     0.346 HD
ATOM     86  H   UNL A   1      35.775  19.120  24.806  1.00  0.00     0.346 HD
BRANCH  84  87
ATOM     87  C   UNL A   1      32.440  24.897  25.047  1.00  0.00     0.256 C 
ATOM     88  O   UNL A   1      31.230  24.754  25.030  1.00  0.00    -0.269 OA
BRANCH  87  89
ATOM     89  C   UNL A   1      32.959  26.283  25.082  1.00  0.00     0.065 A 
ATOM     90  C   UNL A   1      33.315  26.791  26.341  1.00  0.00     0.016 A 
ATOM     91  C   UNL A   1      33.071  27.098  23.943  1.00  0.00     0.079 A 
ATOM     92  C   UNL A   1      33.811  28.092  26.466  1.00  0.00     0.001 A 
ATOM     93  C   UNL A   1      33.607  28.397  24.081  1.00  0.00     0.029 A 
ATOM     94  C   UNL A   1      33.966  28.890  25.336  1.00  0.00     0.002 A 
BRANCH  91  95
ATOM     95  N   UNL A   1      32.693  26.679  22.639  1.00  0.00    -0.220 N 
ATOM     96  C   UNL A   1      31.493  26.750  21.978  1.00  0.00     0.225 A 
ATOM     97  N   UNL A   1      33.586  26.024  21.847  1.00  0.00    -0.155 NA
ATOM     98  N   UNL A   1      31.532  26.042  20.872  1.00  0.00    -0.223 NA
ATOM     99  C   UNL A   1      32.820  25.614  20.835  1.00  0.00     0.246 A 
ENDBRANCH  91  95
ENDBRANCH  87  89
ENDBRANCH  84  87
ENDBRANCH  75  77
ENDBRANCH  74  75
ENDBRANCH  73  74
ENDBRANCH   1  73
TORSDOF 17
ENDMDL
MODEL 3
REMARK VINA RESULT:     -12.1      1.297      1.856
REMARK SMILES O=C(OCCOCCOC(=O)[C@]12C[NH2+]C[C@H]1CN(C(=O)c1ccccc1-n1cncn1)C2)c1ccc(-c2c3nc(c(-c4c(F)c(F)c(F)c(F)c4F)c4ccc([nH]4)c(-c4c(F)c(F)c(F)c(F)c4F)c4nc(c(-c5c(F)c(F)c(F)c(F)c5F)c5ccc2[nH]5)C=C4)C=C3)cc1
REMARK SMILES IDX 7 1 6 2 5 3 4 4 3 5 2 6 1 7 33 8 34 9 95 10 35 11 94 12
REMARK SMILES IDX 36 13 37 14 38 15 88 16 39 17 93 18 87 19 89 20 40 21 92 22
REMARK SMILES IDX 86 23 85 24 41 26 73 27 53 28 72 29 54 30 57 31 71 32 90 33
REMARK SMILES IDX 55 34 56 35 70 37 91 38 58 39 42 40 43 41 51 42 44 43 45 44
REMARK SMILES IDX 49 45 52 46 46 47 47 48 50 49 48 50 74 51 75 52 83 53 76 54
REMARK SMILES IDX 77 55 81 56 84 57 78 58 79 59 82 60 80 61 59 62 60 63 68 64
REMARK SMILES IDX 61 65 62 66 66 67 69 68 63 69 64 70 67 71 65 72 8 73 9 74
REMARK SMILES IDX 10 75 11 76 12 77 13 78 16 79 32 80 14 81 15 82 17 83 18 84
REMARK SMILES IDX 19 87 20 88 21 89 22 90 26 91 23 92 25 93 24 94 27 95 28 96
REMARK SMILES IDX 31 97 29 98 30 99
REMARK H PARENT 89 25 57 36 14 85 14 86
REMARK Flexibility Score: inf
ROOT
ATOM      1  C   UNL A   1      34.248  28.730  26.833  1.00  0.00     0.202 C 
ENDROOT
BRANCH   1   2
ATOM      2  O   UNL A   1      34.077  29.720  27.846  1.00  0.00    -0.374 OA
BRANCH   2   3
ATOM      3  C   UNL A   1      34.178  31.092  27.498  1.00  0.00     0.202 C 
BRANCH   3   4
ATOM      4  C   UNL A   1      35.450  31.871  27.889  1.00  0.00     0.261 C 
BRANCH   4   5
ATOM      5  O   UNL A   1      36.664  31.143  27.747  1.00  0.00    -0.460 OA
BRANCH   5   6
ATOM      6  C   UNL A   1      37.265  30.402  28.703  1.00  0.00     0.338 C 
ATOM      7  O   UNL A   1      36.879  30.526  29.864  1.00  0.00    -0.246 OA
BRANCH   6   8
ATOM      8  C   UNL A   1      38.396  29.463  28.433  1.00  0.00     0.060 A 
ATOM      9  C   UNL A   1      38.371  28.073  28.566  1.00  0.00     0.016 A 
ATOM     10  C   UNL A   1      39.606  30.068  28.063  1.00  0.00     0.016 A 
ATOM     11  C   UNL A   1      39.533  27.345  28.628  1.00  0.00     0.010 A 
ATOM     12  C   UNL A   1      40.772  29.328  28.010  1.00  0.00     0.010 A 
ATOM     13  C   UNL A   1      40.732  27.996  28.409  1.00  0.00    -0.014 A 
BRANCH  13  14
ATOM     14  C   UNL A   1      41.923  27.188  28.572  1.00  0.00     0.031 A 
ATOM     15  C   UNL A   1      42.626  27.371  29.876  1.00  0.00     0.074 A 
ATOM     16  C   UNL A   1      42.267  26.332  27.593  1.00  0.00     0.049 A 
ATOM     17  N   UNL A   1      43.881  27.598  30.102  1.00  0.00    -0.248 NA
ATOM     18  C   UNL A   1      41.781  27.451  31.085  1.00  0.00     0.031 C 
ATOM     19  C   UNL A   1      41.504  25.986  26.388  1.00  0.00     0.029 A 
ATOM     20  N   UNL A   1      43.316  25.478  27.541  1.00  0.00    -0.354 N 
ATOM     21  C   UNL A   1      44.008  27.670  31.489  1.00  0.00     0.074 A 
ATOM     22  C   UNL A   1      42.678  27.727  32.027  1.00  0.00     0.031 C 
ATOM     23  C   UNL A   1      41.964  24.818  25.896  1.00  0.00     0.029 A 
ATOM     24  C   UNL A   1      43.122  24.418  26.671  1.00  0.00     0.049 A 
ATOM     25  H   UNL A   1      44.138  25.600  28.069  1.00  0.00     0.167 HD
ATOM     26  C   UNL A   1      45.195  27.428  32.108  1.00  0.00     0.037 A 
ATOM     27  C   UNL A   1      43.787  23.241  26.718  1.00  0.00     0.037 A 
ATOM     28  C   UNL A   1      46.304  27.717  31.239  1.00  0.00     0.049 A 
ATOM     29  C   UNL A   1      45.024  23.463  27.515  1.00  0.00     0.074 A 
ATOM     30  C   UNL A   1      46.769  28.860  30.617  1.00  0.00     0.029 A 
ATOM     31  N   UNL A   1      46.944  26.675  30.614  1.00  0.00    -0.354 N 
ATOM     32  N   UNL A   1      46.011  24.223  27.123  1.00  0.00    -0.248 NA
ATOM     33  C   UNL A   1      44.955  23.225  28.951  1.00  0.00     0.031 C 
ATOM     34  C   UNL A   1      47.261  28.422  29.353  1.00  0.00     0.029 A 
ATOM     35  C   UNL A   1      47.113  27.037  29.302  1.00  0.00     0.049 A 
ATOM     36  H   UNL A   1      47.229  25.830  31.029  1.00  0.00     0.167 HD
ATOM     37  C   UNL A   1      46.440  24.877  28.270  1.00  0.00     0.074 A 
ATOM     38  C   UNL A   1      45.803  24.167  29.376  1.00  0.00     0.031 C 
ATOM     39  C   UNL A   1      47.036  26.104  28.205  1.00  0.00     0.037 A 
BRANCH  26  40
ATOM     40  C   UNL A   1      45.316  26.543  33.331  1.00  0.00     0.064 A 
ATOM     41  C   UNL A   1      44.719  25.266  33.308  1.00  0.00     0.173 A 
ATOM     42  C   UNL A   1      45.697  27.006  34.612  1.00  0.00     0.173 A 
ATOM     43  F   UNL A   1      44.327  24.714  32.150  1.00  0.00    -0.203 F 
ATOM     44  C   UNL A   1      44.414  24.571  34.482  1.00  0.00     0.198 A 
ATOM     45  C   UNL A   1      45.431  26.290  35.776  1.00  0.00     0.198 A 
ATOM     46  F   UNL A   1      46.244  28.209  34.812  1.00  0.00    -0.203 F 
ATOM     47  F   UNL A   1      43.719  23.429  34.416  1.00  0.00    -0.200 F 
ATOM     48  C   UNL A   1      44.754  25.093  35.717  1.00  0.00     0.200 A 
ATOM     49  F   UNL A   1      45.765  26.818  36.962  1.00  0.00    -0.200 F 
ATOM     50  F   UNL A   1      44.391  24.471  36.845  1.00  0.00    -0.200 F 
ENDBRANCH  26  40
BRANCH  27  51
ATOM     51  C   UNL A   1      43.193  21.907  26.475  1.00  0.00     0.064 A 
ATOM     52  C   UNL A   1      43.729  21.046  25.508  1.00  0.00     0.173 A 
ATOM     53  C   UNL A   1      42.227  21.353  27.342  1.00  0.00     0.173 A 
ATOM     54  F   UNL A   1      44.692  21.480  24.682  1.00  0.00    -0.203 F 
ATOM     55  C   UNL A   1      43.320  19.710  25.413  1.00  0.00     0.198 A 
ATOM     56  C   UNL A   1      41.810  20.028  27.237  1.00  0.00     0.198 A 
ATOM     57  F   UNL A   1      41.729  22.061  28.367  1.00  0.00    -0.203 F 
ATOM     58  F   UNL A   1      43.889  18.902  24.508  1.00  0.00    -0.200 F 
ATOM     59  C   UNL A   1      42.364  19.203  26.279  1.00  0.00     0.200 A 
ATOM     60  F   UNL A   1      40.910  19.542  28.105  1.00  0.00    -0.200 F 
ATOM     61  F   UNL A   1      42.006  17.913  26.216  1.00  0.00    -0.200 F 
ENDBRANCH  27  51
BRANCH  39  62
ATOM     62  C   UNL A   1      47.401  26.631  26.846  1.00  0.00     0.064 A 
ATOM     63  C   UNL A   1      48.639  26.379  26.228  1.00  0.00     0.173 A 
ATOM     64  C   UNL A   1      46.417  27.268  26.082  1.00  0.00     0.173 A 
ATOM     65  F   UNL A   1      49.585  25.670  26.851  1.00  0.00    -0.203 F 
ATOM     66  C   UNL A   1      48.894  26.792  24.922  1.00  0.00     0.198 A 
ATOM     67  C   UNL A   1      46.661  27.648  24.765  1.00  0.00     0.198 A 
ATOM     68  F   UNL A   1      45.195  27.473  26.597  1.00  0.00    -0.203 F 
ATOM     69  F   UNL A   1      50.086  26.546  24.359  1.00  0.00    -0.200 F 
ATOM     70  C   UNL A   1      47.902  27.421  24.189  1.00  0.00     0.200 A 
ATOM     71  F   UNL A   1      45.682  28.205  24.040  1.00  0.00    -0.200 F 
ATOM     72  F   UNL A   1      48.130  27.779  22.917  1.00  0.00    -0.200 F 
ENDBRANCH  39  62
ENDBRANCH  13  14
ENDBRANCH   6   8
ENDBRANCH   5   6
ENDBRANCH   4   5
ENDBRANCH   3   4
ENDBRANCH   2   3
ENDBRANCH   1   2
BRANCH   1  73
ATOM     73  C   UNL A   1      33.825  28.986  25.378  1.00  0.00     0.261 C 
BRANCH  73  74
ATOM     74  O   UNL A   1      33.523  27.823  24.575  1.00  0.00    -0.463 OA
BRANCH  74  75
ATOM     75  C   UNL A   1      32.651  28.035  23.536  1.00  0.00     0.320 C 
ATOM     76  O   UNL A   1      32.689  29.031  22.814  1.00  0.00    -0.251 OA
BRANCH  75  77
ATOM     77  C   UNL A   1      31.568  26.934  23.298  1.00  0.00     0.144 C 
ATOM     78  C   UNL A   1      30.565  27.998  23.921  1.00  0.00     0.281 C 
ATOM     79  C   UNL A   1      30.583  25.826  23.843  1.00  0.00     0.088 C 
ATOM     80  C   UNL A   1      32.761  25.911  23.588  1.00  0.00     0.145 C 
ATOM     81  N   UNL A   1      29.218  27.662  23.435  1.00  0.00    -0.345 N 
ATOM     82  C   UNL A   1      29.154  26.219  23.537  1.00  0.00     0.267 C 
ATOM     83  C   UNL A   1      30.943  24.521  23.153  1.00  0.00     0.130 C 
ATOM     84  N   UNL A   1      32.367  24.579  23.175  1.00  0.00    -0.337 N 
ATOM     85  H   UNL A   1      29.098  27.962  22.468  1.00  0.00     0.346 HD
ATOM     86  H   UNL A   1      28.483  28.125  23.970  1.00  0.00     0.346 HD
BRANCH  84  87
ATOM     87  C   UNL A   1      33.144  23.484  22.836  1.00  0.00     0.256 C 
ATOM     88  O   UNL A   1      32.941  22.794  21.853  1.00  0.00    -0.269 OA
BRANCH  87  89
ATOM     89  C   UNL A   1      34.235  23.066  23.745  1.00  0.00     0.065 A 
ATOM     90  C   UNL A   1      35.524  22.999  23.193  1.00  0.00     0.016 A 
ATOM     91  C   UNL A   1      34.031  22.709  25.089  1.00  0.00     0.079 A 
ATOM     92  C   UNL A   1      36.612  22.611  23.980  1.00  0.00     0.001 A 
ATOM     93  C   UNL A   1      35.145  22.354  25.879  1.00  0.00     0.029 A 
ATOM     94  C   UNL A   1      36.425  22.298  25.324  1.00  0.00     0.002 A 
BRANCH  91  95
ATOM     95  N   UNL A   1      32.755  22.707  25.714  1.00  0.00    -0.220 N 
ATOM     96  C   UNL A   1      31.682  21.864  25.578  1.00  0.00     0.225 A 
ATOM     97  N   UNL A   1      32.412  23.711  26.568  1.00  0.00    -0.155 NA
ATOM     98  N   UNL A   1      30.625  22.360  26.180  1.00  0.00    -0.223 NA
ATOM     99  C   UNL A   1      31.112  23.485  26.764  1.00  0.00     0.246 A 
ENDBRANCH  91  95
ENDBRANCH  87  89
ENDBRANCH  84  87
ENDBRANCH  75  77
ENDBRANCH  74  75
ENDBRANCH  73  74
ENDBRANCH   1  73
TORSDOF 17
ENDMDL
