MODEL 1
REMARK VINA RESULT:     -12.5      0.000      0.000
REMARK SMILES CCc1cc(N2CCC[C@H](C(=O)OCCOCCOC(=O)c3ccc(-c4c5nc(c(-c6c(F)c(F)c(F)c(F)c6F)c6ccc([nH]6)c(-c6c(F)c(F)c(F)c(F)c6F)c6nc(c(-c7c(F)c(F)c(F)c(F)c7F)c7ccc4[nH]7)C=C6)C=C5)cc3)C2)nc(-c2ccc(Cl)cc2)n1
REMARK SMILES IDX 16 1 15 2 14 3 13 4 11 5 12 6 10 7 6 8 7 9 85 10 8 11 9 12
REMARK SMILES IDX 5 13 3 14 4 15 95 16 87 17 86 18 2 19 1 20 88 21 89 22 94 23
REMARK SMILES IDX 90 24 93 25 91 26 92 27 17 28 18 29 19 30 20 31 21 32 22 33
REMARK SMILES IDX 23 34 84 35 24 36 83 37 25 38 26 39 27 40 77 41 28 42 82 43
REMARK SMILES IDX 76 44 78 45 29 46 81 47 75 48 74 49 30 51 62 52 42 53 61 54
REMARK SMILES IDX 43 55 46 56 60 57 79 58 44 59 45 60 59 62 80 63 47 64 31 65
REMARK SMILES IDX 32 66 40 67 33 68 34 69 38 70 41 71 35 72 36 73 39 74 37 75
REMARK SMILES IDX 63 76 64 77 72 78 65 79 66 80 70 81 73 82 67 83 68 84 71 85
REMARK SMILES IDX 69 86 48 87 49 88 57 89 50 90 51 91 55 92 58 93 52 94 53 95
REMARK SMILES IDX 56 96 54 97
REMARK H PARENT 78 50 46 61
REMARK Flexibility Score: inf
ROOT
ATOM      1  O   UNL A   1      35.503  22.251  24.129  1.00  0.00    -0.374 OA
ENDROOT
BRANCH   1   2
ATOM      2  C   UNL A   1      35.541  23.608  24.557  1.00  0.00     0.202 C 
BRANCH   2   3
ATOM      3  C   UNL A   1      34.697  24.593  23.749  1.00  0.00     0.261 C 
BRANCH   3   4
ATOM      4  O   UNL A   1      33.785  23.940  22.857  1.00  0.00    -0.463 OA
BRANCH   4   5
ATOM      5  C   UNL A   1      32.584  24.544  22.680  1.00  0.00     0.310 C 
ATOM      6  O   UNL A   1      32.422  25.650  22.173  1.00  0.00    -0.252 OA
BRANCH   5   7
ATOM      7  C   UNL A   1      31.415  23.721  23.188  1.00  0.00     0.118 C 
ATOM      8  N   UNL A   1      30.572  25.278  24.876  1.00  0.00    -0.356 N 
ATOM      9  C   UNL A   1      30.804  24.391  26.006  1.00  0.00     0.118 C 
ATOM     10  C   UNL A   1      30.293  24.684  23.573  1.00  0.00     0.133 C 
ATOM     11  C   UNL A   1      31.891  23.370  25.686  1.00  0.00     0.022 C 
ATOM     12  C   UNL A   1      31.699  22.718  24.315  1.00  0.00     0.019 C 
BRANCH   8  13
ATOM     13  C   UNL A   1      30.816  26.634  24.989  1.00  0.00     0.132 A 
ATOM     14  C   UNL A   1      31.921  28.434  26.064  1.00  0.00     0.046 A 
ATOM     15  C   UNL A   1      31.649  27.084  26.001  1.00  0.00     0.070 A 
ATOM     16  N   UNL A   1      31.401  29.300  25.183  1.00  0.00    -0.233 NA
ATOM     17  C   UNL A   1      30.566  28.796  24.259  1.00  0.00     0.161 A 
ATOM     18  N   UNL A   1      30.258  27.490  24.110  1.00  0.00    -0.211 NA
BRANCH  14  19
ATOM     19  C   UNL A   1      32.856  28.987  27.105  1.00  0.00     0.053 C 
ATOM     20  C   UNL A   1      32.742  30.500  27.228  1.00  0.00     0.011 C 
ENDBRANCH  14  19
BRANCH  17  21
ATOM     21  C   UNL A   1      29.909  29.793  23.401  1.00  0.00     0.019 A 
ATOM     22  C   UNL A   1      29.435  31.003  23.936  1.00  0.00     0.013 A 
ATOM     23  C   UNL A   1      29.643  29.533  22.048  1.00  0.00     0.013 A 
ATOM     24  C   UNL A   1      28.733  31.919  23.146  1.00  0.00     0.021 A 
ATOM     25  C   UNL A   1      28.944  30.446  21.249  1.00  0.00     0.021 A 
ATOM     26  C   UNL A   1      28.500  31.641  21.802  1.00  0.00     0.041 A 
ATOM     27  Cl  UNL A   1      27.654  32.777  20.827  1.00  0.00    -0.084 Cl
ENDBRANCH  17  21
ENDBRANCH   8  13
ENDBRANCH   5   7
ENDBRANCH   4   5
ENDBRANCH   3   4
ENDBRANCH   2   3
ENDBRANCH   1   2
BRANCH   1  28
ATOM     28  C   UNL A   1      35.671  21.246  25.128  1.00  0.00     0.202 C 
BRANCH  28  29
ATOM     29  C   UNL A   1      37.003  20.484  25.116  1.00  0.00     0.261 C 
BRANCH  29  30
ATOM     30  O   UNL A   1      38.159  21.344  24.998  1.00  0.00    -0.460 OA
BRANCH  30  31
ATOM     31  C   UNL A   1      39.166  21.057  25.858  1.00  0.00     0.338 C 
ATOM     32  O   UNL A   1      39.750  19.988  25.983  1.00  0.00    -0.246 OA
BRANCH  31  33
ATOM     33  C   UNL A   1      39.601  22.250  26.607  1.00  0.00     0.060 A 
ATOM     34  C   UNL A   1      38.889  23.440  26.411  1.00  0.00     0.016 A 
ATOM     35  C   UNL A   1      40.792  22.253  27.335  1.00  0.00     0.016 A 
ATOM     36  C   UNL A   1      39.395  24.647  26.898  1.00  0.00     0.010 A 
ATOM     37  C   UNL A   1      41.304  23.467  27.815  1.00  0.00     0.010 A 
ATOM     38  C   UNL A   1      40.629  24.676  27.564  1.00  0.00    -0.014 A 
BRANCH  38  39
ATOM     39  C   UNL A   1      41.263  25.983  27.875  1.00  0.00     0.031 A 
ATOM     40  C   UNL A   1      42.653  26.274  27.380  1.00  0.00     0.074 A 
ATOM     41  C   UNL A   1      40.596  26.921  28.570  1.00  0.00     0.049 A 
ATOM     42  N   UNL A   1      43.386  27.348  27.545  1.00  0.00    -0.248 NA
ATOM     43  C   UNL A   1      43.311  25.211  26.606  1.00  0.00     0.031 C 
ATOM     44  C   UNL A   1      39.251  26.762  29.114  1.00  0.00     0.029 A 
ATOM     45  N   UNL A   1      40.963  28.194  28.937  1.00  0.00    -0.354 N 
ATOM     46  C   UNL A   1      44.592  27.085  26.909  1.00  0.00     0.074 A 
ATOM     47  C   UNL A   1      44.500  25.746  26.366  1.00  0.00     0.031 C 
ATOM     48  C   UNL A   1      38.902  27.900  29.737  1.00  0.00     0.029 A 
ATOM     49  C   UNL A   1      39.989  28.867  29.634  1.00  0.00     0.049 A 
ATOM     50  H   UNL A   1      41.839  28.586  28.721  1.00  0.00     0.167 HD
ATOM     51  C   UNL A   1      45.678  27.887  26.789  1.00  0.00     0.037 A 
ATOM     52  C   UNL A   1      39.973  30.120  30.128  1.00  0.00     0.037 A 
ATOM     53  C   UNL A   1      45.776  29.219  27.328  1.00  0.00     0.049 A 
ATOM     54  C   UNL A   1      41.187  30.998  29.961  1.00  0.00     0.074 A 
ATOM     55  C   UNL A   1      46.850  30.093  27.283  1.00  0.00     0.029 A 
ATOM     56  N   UNL A   1      44.760  29.874  28.006  1.00  0.00    -0.354 N 
ATOM     57  N   UNL A   1      42.320  30.737  29.360  1.00  0.00    -0.248 NA
ATOM     58  C   UNL A   1      41.121  32.340  30.557  1.00  0.00     0.031 C 
ATOM     59  C   UNL A   1      46.492  31.266  27.956  1.00  0.00     0.029 A 
ATOM     60  C   UNL A   1      45.183  31.137  28.387  1.00  0.00     0.049 A 
ATOM     61  H   UNL A   1      43.869  29.496  28.190  1.00  0.00     0.167 HD
ATOM     62  C   UNL A   1      43.098  31.878  29.498  1.00  0.00     0.074 A 
ATOM     63  C   UNL A   1      42.295  32.849  30.211  1.00  0.00     0.031 C 
ATOM     64  C   UNL A   1      44.371  32.095  29.091  1.00  0.00     0.037 A 
BRANCH  51  65
ATOM     65  C   UNL A   1      46.867  27.338  26.060  1.00  0.00     0.064 A 
ATOM     66  C   UNL A   1      47.043  27.550  24.686  1.00  0.00     0.173 A 
ATOM     67  C   UNL A   1      47.868  26.642  26.754  1.00  0.00     0.173 A 
ATOM     68  F   UNL A   1      46.107  28.200  23.977  1.00  0.00    -0.203 F 
ATOM     69  C   UNL A   1      48.174  27.073  24.028  1.00  0.00     0.198 A 
ATOM     70  C   UNL A   1      49.008  26.186  26.098  1.00  0.00     0.198 A 
ATOM     71  F   UNL A   1      47.747  26.418  28.071  1.00  0.00    -0.203 F 
ATOM     72  F   UNL A   1      48.309  27.260  22.708  1.00  0.00    -0.200 F 
ATOM     73  C   UNL A   1      49.158  26.399  24.735  1.00  0.00     0.200 A 
ATOM     74  F   UNL A   1      49.963  25.545  26.785  1.00  0.00    -0.200 F 
ATOM     75  F   UNL A   1      50.251  25.951  24.103  1.00  0.00    -0.200 F 
ENDBRANCH  51  65
BRANCH  52  76
ATOM     76  C   UNL A   1      38.762  30.639  30.818  1.00  0.00     0.064 A 
ATOM     77  C   UNL A   1      37.702  31.194  30.086  1.00  0.00     0.173 A 
ATOM     78  C   UNL A   1      38.650  30.622  32.215  1.00  0.00     0.173 A 
ATOM     79  F   UNL A   1      37.772  31.259  28.748  1.00  0.00    -0.203 F 
ATOM     80  C   UNL A   1      36.587  31.732  30.727  1.00  0.00     0.198 A 
ATOM     81  C   UNL A   1      37.522  31.132  32.853  1.00  0.00     0.198 A 
ATOM     82  F   UNL A   1      39.637  30.104  32.961  1.00  0.00    -0.203 F 
ATOM     83  F   UNL A   1      35.615  32.307  30.006  1.00  0.00    -0.200 F 
ATOM     84  C   UNL A   1      36.496  31.697  32.109  1.00  0.00     0.200 A 
ATOM     85  F   UNL A   1      37.431  31.085  34.189  1.00  0.00    -0.200 F 
ATOM     86  F   UNL A   1      35.426  32.216  32.726  1.00  0.00    -0.200 F 
ENDBRANCH  52  76
BRANCH  64  87
ATOM     87  C   UNL A   1      44.973  33.434  29.397  1.00  0.00     0.064 A 
ATOM     88  C   UNL A   1      45.624  33.680  30.615  1.00  0.00     0.173 A 
ATOM     89  C   UNL A   1      44.929  34.471  28.454  1.00  0.00     0.173 A 
ATOM     90  F   UNL A   1      45.682  32.724  31.555  1.00  0.00    -0.203 F 
ATOM     91  C   UNL A   1      46.190  34.923  30.886  1.00  0.00     0.198 A 
ATOM     92  C   UNL A   1      45.517  35.706  28.719  1.00  0.00     0.198 A 
ATOM     93  F   UNL A   1      44.322  34.285  27.272  1.00  0.00    -0.203 F 
ATOM     94  F   UNL A   1      46.772  35.148  32.073  1.00  0.00    -0.200 F 
ATOM     95  C   UNL A   1      46.141  35.932  29.936  1.00  0.00     0.200 A 
ATOM     96  F   UNL A   1      45.476  36.677  27.797  1.00  0.00    -0.200 F 
ATOM     97  F   UNL A   1      46.688  37.127  30.198  1.00  0.00    -0.200 F 
ENDBRANCH  64  87
ENDBRANCH  38  39
ENDBRANCH  31  33
ENDBRANCH  30  31
ENDBRANCH  29  30
ENDBRANCH  28  29
ENDBRANCH   1  28
TORSDOF 17
ENDMDL
MODEL 2
REMARK VINA RESULT:     -12.4      1.372      2.295
REMARK SMILES CCc1cc(N2CCC[C@H](C(=O)OCCOCCOC(=O)c3ccc(-c4c5nc(c(-c6c(F)c(F)c(F)c(F)c6F)c6ccc([nH]6)c(-c6c(F)c(F)c(F)c(F)c6F)c6nc(c(-c7c(F)c(F)c(F)c(F)c7F)c7ccc4[nH]7)C=C6)C=C5)cc3)C2)nc(-c2ccc(Cl)cc2)n1
REMARK SMILES IDX 16 1 15 2 14 3 13 4 11 5 12 6 10 7 6 8 7 9 85 10 8 11 9 12
REMARK SMILES IDX 5 13 3 14 4 15 95 16 87 17 86 18 2 19 1 20 88 21 89 22 94 23
REMARK SMILES IDX 90 24 93 25 91 26 92 27 17 28 18 29 19 30 20 31 21 32 22 33
REMARK SMILES IDX 23 34 84 35 24 36 83 37 25 38 26 39 27 40 77 41 28 42 82 43
REMARK SMILES IDX 76 44 78 45 29 46 81 47 75 48 74 49 30 51 62 52 42 53 61 54
REMARK SMILES IDX 43 55 46 56 60 57 79 58 44 59 45 60 59 62 80 63 47 64 31 65
REMARK SMILES IDX 32 66 40 67 33 68 34 69 38 70 41 71 35 72 36 73 39 74 37 75
REMARK SMILES IDX 63 76 64 77 72 78 65 79 66 80 70 81 73 82 67 83 68 84 71 85
REMARK SMILES IDX 69 86 48 87 49 88 57 89 50 90 51 91 55 92 58 93 52 94 53 95
REMARK SMILES IDX 56 96 54 97
REMARK H PARENT 78 50 46 61
REMARK Flexibility Score: inf
ROOT
ATOM      1  O   UNL A   1      35.547  22.207  26.367  1.00  0.00    -0.374 OA
ENDROOT
BRANCH   1   2
ATOM      2  C   UNL A   1      35.316  23.588  26.109  1.00  0.00     0.202 C 
BRANCH   2   3
ATOM      3  C   UNL A   1      35.070  23.968  24.649  1.00  0.00     0.261 C 
BRANCH   3   4
ATOM      4  O   UNL A   1      33.758  24.496  24.428  1.00  0.00    -0.463 OA
BRANCH   4   5
ATOM      5  C   UNL A   1      33.113  24.054  23.320  1.00  0.00     0.310 C 
ATOM      6  O   UNL A   1      33.449  24.303  22.166  1.00  0.00    -0.252 OA
BRANCH   5   7
ATOM      7  C   UNL A   1      31.894  23.206  23.630  1.00  0.00     0.118 C 
ATOM      8  N   UNL A   1      30.471  24.943  24.600  1.00  0.00    -0.356 N 
ATOM      9  C   UNL A   1      30.386  24.330  25.916  1.00  0.00     0.118 C 
ATOM     10  C   UNL A   1      30.653  24.077  23.440  1.00  0.00     0.133 C 
ATOM     11  C   UNL A   1      31.576  23.411  26.169  1.00  0.00     0.022 C 
ATOM     12  C   UNL A   1      31.866  22.485  24.986  1.00  0.00     0.019 C 
BRANCH   8  13
ATOM     13  C   UNL A   1      30.587  26.315  24.472  1.00  0.00     0.132 A 
ATOM     14  C   UNL A   1      29.895  28.343  23.457  1.00  0.00     0.046 A 
ATOM     15  C   UNL A   1      29.804  26.969  23.533  1.00  0.00     0.070 A 
ATOM     16  N   UNL A   1      30.715  29.040  24.258  1.00  0.00    -0.233 NA
ATOM     17  C   UNL A   1      31.476  28.333  25.110  1.00  0.00     0.161 A 
ATOM     18  N   UNL A   1      31.439  26.993  25.266  1.00  0.00    -0.211 NA
BRANCH  14  19
ATOM     19  C   UNL A   1      29.040  29.123  22.497  1.00  0.00     0.053 C 
ATOM     20  C   UNL A   1      28.517  30.412  23.117  1.00  0.00     0.011 C 
ENDBRANCH  14  19
BRANCH  17  21
ATOM     21  C   UNL A   1      32.458  29.120  25.869  1.00  0.00     0.019 A 
ATOM     22  C   UNL A   1      33.747  28.618  26.117  1.00  0.00     0.013 A 
ATOM     23  C   UNL A   1      32.115  30.347  26.457  1.00  0.00     0.013 A 
ATOM     24  C   UNL A   1      34.659  29.321  26.912  1.00  0.00     0.021 A 
ATOM     25  C   UNL A   1      33.023  31.059  27.251  1.00  0.00     0.021 A 
ATOM     26  C   UNL A   1      34.296  30.544  27.467  1.00  0.00     0.041 A 
ATOM     27  Cl  UNL A   1      35.423  31.417  28.427  1.00  0.00    -0.084 Cl
ENDBRANCH  17  21
ENDBRANCH   8  13
ENDBRANCH   5   7
ENDBRANCH   4   5
ENDBRANCH   3   4
ENDBRANCH   2   3
ENDBRANCH   1   2
BRANCH   1  28
ATOM     28  C   UNL A   1      35.692  21.346  25.238  1.00  0.00     0.202 C 
BRANCH  28  29
ATOM     29  C   UNL A   1      37.088  20.755  25.001  1.00  0.00     0.261 C 
BRANCH  29  30
ATOM     30  O   UNL A   1      38.149  21.733  25.076  1.00  0.00    -0.460 OA
BRANCH  30  31
ATOM     31  C   UNL A   1      39.119  21.448  25.978  1.00  0.00     0.338 C 
ATOM     32  O   UNL A   1      39.676  20.371  26.148  1.00  0.00    -0.246 OA
BRANCH  31  33
ATOM     33  C   UNL A   1      39.549  22.649  26.716  1.00  0.00     0.060 A 
ATOM     34  C   UNL A   1      38.977  23.877  26.357  1.00  0.00     0.016 A 
ATOM     35  C   UNL A   1      40.625  22.606  27.605  1.00  0.00     0.016 A 
ATOM     36  C   UNL A   1      39.515  25.069  26.844  1.00  0.00     0.010 A 
ATOM     37  C   UNL A   1      41.170  23.805  28.086  1.00  0.00     0.010 A 
ATOM     38  C   UNL A   1      40.644  25.044  27.676  1.00  0.00    -0.014 A 
BRANCH  38  39
ATOM     39  C   UNL A   1      41.341  26.314  28.004  1.00  0.00     0.031 A 
ATOM     40  C   UNL A   1      42.711  26.580  27.442  1.00  0.00     0.074 A 
ATOM     41  C   UNL A   1      40.748  27.244  28.774  1.00  0.00     0.049 A 
ATOM     42  N   UNL A   1      43.490  27.620  27.608  1.00  0.00    -0.248 NA
ATOM     43  C   UNL A   1      43.286  25.529  26.588  1.00  0.00     0.031 C 
ATOM     44  C   UNL A   1      39.431  27.108  29.387  1.00  0.00     0.029 A 
ATOM     45  N   UNL A   1      41.180  28.487  29.170  1.00  0.00    -0.354 N 
ATOM     46  C   UNL A   1      44.649  27.345  26.894  1.00  0.00     0.074 A 
ATOM     47  C   UNL A   1      44.478  26.034  26.302  1.00  0.00     0.031 C 
ATOM     48  C   UNL A   1      39.159  28.228  30.075  1.00  0.00     0.029 A 
ATOM     49  C   UNL A   1      40.272  29.162  29.949  1.00  0.00     0.049 A 
ATOM     50  H   UNL A   1      42.057  28.859  28.921  1.00  0.00     0.167 HD
ATOM     51  C   UNL A   1      45.754  28.114  26.745  1.00  0.00     0.037 A 
ATOM     52  C   UNL A   1      40.329  30.393  30.493  1.00  0.00     0.037 A 
ATOM     53  C   UNL A   1      45.930  29.418  27.331  1.00  0.00     0.049 A 
ATOM     54  C   UNL A   1      41.562  31.235  30.293  1.00  0.00     0.074 A 
ATOM     55  C   UNL A   1      47.030  30.256  27.259  1.00  0.00     0.029 A 
ATOM     56  N   UNL A   1      44.977  30.077  28.092  1.00  0.00    -0.354 N 
ATOM     57  N   UNL A   1      42.650  30.963  29.617  1.00  0.00    -0.248 NA
ATOM     58  C   UNL A   1      41.578  32.553  30.946  1.00  0.00     0.031 C 
ATOM     59  C   UNL A   1      46.753  31.411  27.999  1.00  0.00     0.029 A 
ATOM     60  C   UNL A   1      45.466  31.308  28.499  1.00  0.00     0.049 A 
ATOM     61  H   UNL A   1      44.085  29.722  28.311  1.00  0.00     0.167 HD
ATOM     62  C   UNL A   1      43.475  32.070  29.758  1.00  0.00     0.074 A 
ATOM     63  C   UNL A   1      42.748  33.036  30.554  1.00  0.00     0.031 C 
ATOM     64  C   UNL A   1      44.730  32.262  29.286  1.00  0.00     0.037 A 
BRANCH  51  65
ATOM     65  C   UNL A   1      46.879  27.558  25.927  1.00  0.00     0.064 A 
ATOM     66  C   UNL A   1      46.983  27.817  24.553  1.00  0.00     0.173 A 
ATOM     67  C   UNL A   1      47.896  26.804  26.534  1.00  0.00     0.173 A 
ATOM     68  F   UNL A   1      46.029  28.522  23.925  1.00  0.00    -0.203 F 
ATOM     69  C   UNL A   1      48.057  27.330  23.812  1.00  0.00     0.198 A 
ATOM     70  C   UNL A   1      48.980  26.339  25.795  1.00  0.00     0.198 A 
ATOM     71  F   UNL A   1      47.844  26.534  27.846  1.00  0.00    -0.203 F 
ATOM     72  F   UNL A   1      48.121  27.565  22.494  1.00  0.00    -0.200 F 
ATOM     73  C   UNL A   1      49.058  26.600  24.435  1.00  0.00     0.200 A 
ATOM     74  F   UNL A   1      49.951  25.642  26.400  1.00  0.00    -0.200 F 
ATOM     75  F   UNL A   1      50.097  26.143  23.723  1.00  0.00    -0.200 F 
ENDBRANCH  51  65
BRANCH  52  76
ATOM     76  C   UNL A   1      39.178  30.922  31.272  1.00  0.00     0.064 A 
ATOM     77  C   UNL A   1      38.244  31.783  30.677  1.00  0.00     0.173 A 
ATOM     78  C   UNL A   1      39.003  30.608  32.627  1.00  0.00     0.173 A 
ATOM     79  F   UNL A   1      38.382  32.136  29.391  1.00  0.00    -0.203 F 
ATOM     80  C   UNL A   1      37.193  32.327  31.414  1.00  0.00     0.198 A 
ATOM     81  C   UNL A   1      37.934  31.128  33.355  1.00  0.00     0.198 A 
ATOM     82  F   UNL A   1      39.869  29.791  33.244  1.00  0.00    -0.203 F 
ATOM     83  F   UNL A   1      36.349  33.191  30.835  1.00  0.00    -0.200 F 
ATOM     84  C   UNL A   1      37.037  31.996  32.750  1.00  0.00     0.200 A 
ATOM     85  F   UNL A   1      37.779  30.795  34.643  1.00  0.00    -0.200 F 
ATOM     86  F   UNL A   1      36.028  32.520  33.459  1.00  0.00    -0.200 F 
ENDBRANCH  52  76
BRANCH  64  87
ATOM     87  C   UNL A   1      45.395  33.566  29.612  1.00  0.00     0.064 A 
ATOM     88  C   UNL A   1      46.182  33.716  30.764  1.00  0.00     0.173 A 
ATOM     89  C   UNL A   1      45.276  34.665  28.749  1.00  0.00     0.173 A 
ATOM     90  F   UNL A   1      46.316  32.697  31.627  1.00  0.00    -0.203 F 
ATOM     91  C   UNL A   1      46.805  34.927  31.053  1.00  0.00     0.198 A 
ATOM     92  C   UNL A   1      45.921  35.868  29.028  1.00  0.00     0.198 A 
ATOM     93  F   UNL A   1      44.540  34.571  27.632  1.00  0.00    -0.203 F 
ATOM     94  F   UNL A   1      47.518  35.060  32.180  1.00  0.00    -0.200 F 
ATOM     95  C   UNL A   1      46.679  35.999  30.182  1.00  0.00     0.200 A 
ATOM     96  F   UNL A   1      45.805  36.900  28.183  1.00  0.00    -0.200 F 
ATOM     97  F   UNL A   1      47.281  37.163  30.460  1.00  0.00    -0.200 F 
ENDBRANCH  64  87
ENDBRANCH  38  39
ENDBRANCH  31  33
ENDBRANCH  30  31
ENDBRANCH  29  30
ENDBRANCH  28  29
ENDBRANCH   1  28
TORSDOF 17
ENDMDL
MODEL 3
REMARK VINA RESULT:     -12.3      0.598      7.000
REMARK SMILES CCc1cc(N2CCC[C@H](C(=O)OCCOCCOC(=O)c3ccc(-c4c5nc(c(-c6c(F)c(F)c(F)c(F)c6F)c6ccc([nH]6)c(-c6c(F)c(F)c(F)c(F)c6F)c6nc(c(-c7c(F)c(F)c(F)c(F)c7F)c7ccc4[nH]7)C=C6)C=C5)cc3)C2)nc(-c2ccc(Cl)cc2)n1
REMARK SMILES IDX 16 1 15 2 14 3 13 4 11 5 12 6 10 7 6 8 7 9 85 10 8 11 9 12
REMARK SMILES IDX 5 13 3 14 4 15 95 16 87 17 86 18 2 19 1 20 88 21 89 22 94 23
REMARK SMILES IDX 90 24 93 25 91 26 92 27 17 28 18 29 19 30 20 31 21 32 22 33
REMARK SMILES IDX 23 34 84 35 24 36 83 37 25 38 26 39 27 40 77 41 28 42 82 43
REMARK SMILES IDX 76 44 78 45 29 46 81 47 75 48 74 49 30 51 62 52 42 53 61 54
REMARK SMILES IDX 43 55 46 56 60 57 79 58 44 59 45 60 59 62 80 63 47 64 31 65
REMARK SMILES IDX 32 66 40 67 33 68 34 69 38 70 41 71 35 72 36 73 39 74 37 75
REMARK SMILES IDX 63 76 64 77 72 78 65 79 66 80 70 81 73 82 67 83 68 84 71 85
REMARK SMILES IDX 69 86 48 87 49 88 57 89 50 90 51 91 55 92 58 93 52 94 53 95
REMARK SMILES IDX 56 96 54 97
REMARK H PARENT 78 50 46 61
REMARK Flexibility Score: inf
ROOT
ATOM      1  O   UNL A   1      35.678  22.498  25.046  1.00  0.00    -0.374 OA
ENDROOT
BRANCH   1   2
ATOM      2  C   UNL A   1      35.608  23.895  25.311  1.00  0.00     0.202 C 
BRANCH   2   3
ATOM      3  C   UNL A   1      34.747  24.720  24.355  1.00  0.00     0.261 C 
BRANCH   3   4
ATOM      4  O   UNL A   1      33.974  23.906  23.464  1.00  0.00    -0.463 OA
BRANCH   4   5
ATOM      5  C   UNL A   1      32.824  24.454  22.999  1.00  0.00     0.310 C 
ATOM      6  O   UNL A   1      32.754  25.492  22.346  1.00  0.00    -0.252 OA
BRANCH   5   7
ATOM      7  C   UNL A   1      31.585  23.662  23.372  1.00  0.00     0.118 C 
ATOM      8  N   UNL A   1      30.556  25.279  24.893  1.00  0.00    -0.356 N 
ATOM      9  C   UNL A   1      30.625  24.423  26.067  1.00  0.00     0.118 C 
ATOM     10  C   UNL A   1      30.439  24.651  23.581  1.00  0.00     0.133 C 
ATOM     11  C   UNL A   1      31.726  23.379  25.920  1.00  0.00     0.022 C 
ATOM     12  C   UNL A   1      31.703  22.689  24.554  1.00  0.00     0.019 C 
BRANCH   8  13
ATOM     13  C   UNL A   1      30.806  26.635  24.998  1.00  0.00     0.132 A 
ATOM     14  C   UNL A   1      31.923  28.434  26.064  1.00  0.00     0.046 A 
ATOM     15  C   UNL A   1      31.644  27.085  26.007  1.00  0.00     0.070 A 
ATOM     16  N   UNL A   1      31.404  29.298  25.179  1.00  0.00    -0.233 NA
ATOM     17  C   UNL A   1      30.565  28.794  24.259  1.00  0.00     0.161 A 
ATOM     18  N   UNL A   1      30.251  27.490  24.117  1.00  0.00    -0.211 NA
BRANCH  14  19
ATOM     19  C   UNL A   1      32.863  28.988  27.100  1.00  0.00     0.053 C 
ATOM     20  C   UNL A   1      34.315  28.908  26.652  1.00  0.00     0.011 C 
ENDBRANCH  14  19
BRANCH  17  21
ATOM     21  C   UNL A   1      29.911  29.790  23.399  1.00  0.00     0.019 A 
ATOM     22  C   UNL A   1      29.276  30.916  23.953  1.00  0.00     0.013 A 
ATOM     23  C   UNL A   1      29.809  29.606  22.012  1.00  0.00     0.013 A 
ATOM     24  C   UNL A   1      28.577  31.823  23.150  1.00  0.00     0.021 A 
ATOM     25  C   UNL A   1      29.115  30.511  21.200  1.00  0.00     0.021 A 
ATOM     26  C   UNL A   1      28.509  31.622  21.774  1.00  0.00     0.041 A 
ATOM     27  Cl  UNL A   1      27.667  32.748  20.785  1.00  0.00    -0.084 Cl
ENDBRANCH  17  21
ENDBRANCH   8  13
ENDBRANCH   5   7
ENDBRANCH   4   5
ENDBRANCH   3   4
ENDBRANCH   2   3
ENDBRANCH   1   2
BRANCH   1  28
ATOM     28  C   UNL A   1      36.726  22.047  24.189  1.00  0.00     0.202 C 
BRANCH  28  29
ATOM     29  C   UNL A   1      37.621  20.926  24.734  1.00  0.00     0.261 C 
BRANCH  29  30
ATOM     30  O   UNL A   1      38.030  21.127  26.105  1.00  0.00    -0.460 OA
BRANCH  30  31
ATOM     31  C   UNL A   1      39.371  21.173  26.293  1.00  0.00     0.338 C 
ATOM     32  O   UNL A   1      40.194  20.329  25.963  1.00  0.00    -0.246 OA
BRANCH  31  33
ATOM     33  C   UNL A   1      39.796  22.460  26.874  1.00  0.00     0.060 A 
ATOM     34  C   UNL A   1      39.229  23.631  26.356  1.00  0.00     0.016 A 
ATOM     35  C   UNL A   1      40.866  22.531  27.770  1.00  0.00     0.016 A 
ATOM     36  C   UNL A   1      39.764  24.876  26.690  1.00  0.00     0.010 A 
ATOM     37  C   UNL A   1      41.407  23.783  28.097  1.00  0.00     0.010 A 
ATOM     38  C   UNL A   1      40.886  24.959  27.528  1.00  0.00    -0.014 A 
BRANCH  38  39
ATOM     39  C   UNL A   1      41.581  26.261  27.695  1.00  0.00     0.031 A 
ATOM     40  C   UNL A   1      40.926  27.360  28.487  1.00  0.00     0.074 A 
ATOM     41  C   UNL A   1      42.804  26.459  27.171  1.00  0.00     0.049 A 
ATOM     42  N   UNL A   1      41.361  28.568  28.747  1.00  0.00    -0.248 NA
ATOM     43  C   UNL A   1      39.601  27.063  29.051  1.00  0.00     0.031 C 
ATOM     44  C   UNL A   1      43.542  25.483  26.377  1.00  0.00     0.029 A 
ATOM     45  N   UNL A   1      43.638  27.550  27.230  1.00  0.00    -0.354 N 
ATOM     46  C   UNL A   1      40.359  29.179  29.492  1.00  0.00     0.074 A 
ATOM     47  C   UNL A   1      39.289  28.213  29.631  1.00  0.00     0.031 C 
ATOM     48  C   UNL A   1      44.725  26.016  26.030  1.00  0.00     0.029 A 
ATOM     49  C   UNL A   1      44.833  27.364  26.579  1.00  0.00     0.049 A 
ATOM     50  H   UNL A   1      43.401  28.385  27.694  1.00  0.00     0.167 HD
ATOM     51  C   UNL A   1      40.335  30.430  30.011  1.00  0.00     0.037 A 
ATOM     52  C   UNL A   1      45.894  28.183  26.445  1.00  0.00     0.037 A 
ATOM     53  C   UNL A   1      41.395  31.395  29.876  1.00  0.00     0.049 A 
ATOM     54  C   UNL A   1      45.848  29.561  27.051  1.00  0.00     0.074 A 
ATOM     55  C   UNL A   1      41.443  32.697  30.342  1.00  0.00     0.029 A 
ATOM     56  N   UNL A   1      42.599  31.159  29.231  1.00  0.00    -0.354 N 
ATOM     57  N   UNL A   1      44.895  30.126  27.751  1.00  0.00    -0.248 NA
ATOM     58  C   UNL A   1      47.021  30.420  26.836  1.00  0.00     0.031 C 
ATOM     59  C   UNL A   1      42.665  33.259  29.956  1.00  0.00     0.029 A 
ATOM     60  C   UNL A   1      43.394  32.293  29.283  1.00  0.00     0.049 A 
ATOM     61  H   UNL A   1      42.852  30.311  28.798  1.00  0.00     0.167 HD
ATOM     62  C   UNL A   1      45.353  31.398  28.062  1.00  0.00     0.074 A 
ATOM     63  C   UNL A   1      46.685  31.513  27.507  1.00  0.00     0.031 C 
ATOM     64  C   UNL A   1      44.719  32.391  28.731  1.00  0.00     0.037 A 
BRANCH  51  65
ATOM     65  C   UNL A   1      39.106  30.842  30.764  1.00  0.00     0.064 A 
ATOM     66  C   UNL A   1      37.995  31.390  30.107  1.00  0.00     0.173 A 
ATOM     67  C   UNL A   1      39.017  30.636  32.149  1.00  0.00     0.173 A 
ATOM     68  F   UNL A   1      38.038  31.617  28.785  1.00  0.00    -0.203 F 
ATOM     69  C   UNL A   1      36.843  31.728  30.811  1.00  0.00     0.198 A 
ATOM     70  C   UNL A   1      37.855  30.954  32.846  1.00  0.00     0.198 A 
ATOM     71  F   UNL A   1      40.052  30.111  32.822  1.00  0.00    -0.203 F 
ATOM     72  F   UNL A   1      35.804  32.277  30.168  1.00  0.00    -0.200 F 
ATOM     73  C   UNL A   1      36.770  31.503  32.177  1.00  0.00     0.200 A 
ATOM     74  F   UNL A   1      37.783  30.726  34.165  1.00  0.00    -0.200 F 
ATOM     75  F   UNL A   1      35.657  31.818  32.852  1.00  0.00    -0.200 F 
ENDBRANCH  51  65
BRANCH  52  76
ATOM     76  C   UNL A   1      47.108  27.724  25.717  1.00  0.00     0.064 A 
ATOM     77  C   UNL A   1      47.178  27.802  24.319  1.00  0.00     0.173 A 
ATOM     78  C   UNL A   1      48.204  27.173  26.395  1.00  0.00     0.173 A 
ATOM     79  F   UNL A   1      46.145  28.296  23.622  1.00  0.00    -0.203 F 
ATOM     80  C   UNL A   1      48.289  27.325  23.625  1.00  0.00     0.198 A 
ATOM     81  C   UNL A   1      49.327  26.725  25.703  1.00  0.00     0.198 A 
ATOM     82  F   UNL A   1      48.187  27.074  27.732  1.00  0.00    -0.203 F 
ATOM     83  F   UNL A   1      48.306  27.359  22.286  1.00  0.00    -0.200 F 
ATOM     84  C   UNL A   1      49.364  26.791  24.318  1.00  0.00     0.200 A 
ATOM     85  F   UNL A   1      50.370  26.221  26.377  1.00  0.00    -0.200 F 
ATOM     86  F   UNL A   1      50.431  26.330  23.652  1.00  0.00    -0.200 F 
ENDBRANCH  52  76
BRANCH  64  87
ATOM     87  C   UNL A   1      45.459  33.684  28.906  1.00  0.00     0.064 A 
ATOM     88  C   UNL A   1      46.288  33.907  30.016  1.00  0.00     0.173 A 
ATOM     89  C   UNL A   1      45.368  34.696  27.939  1.00  0.00     0.173 A 
ATOM     90  F   UNL A   1      46.398  32.973  30.974  1.00  0.00    -0.203 F 
ATOM     91  C   UNL A   1      46.980  35.106  30.164  1.00  0.00     0.198 A 
ATOM     92  C   UNL A   1      46.080  35.885  28.078  1.00  0.00     0.198 A 
ATOM     93  F   UNL A   1      44.593  34.530  26.857  1.00  0.00    -0.203 F 
ATOM     94  F   UNL A   1      47.733  35.313  31.253  1.00  0.00    -0.200 F 
ATOM     95  C   UNL A   1      46.880  36.091  29.193  1.00  0.00     0.200 A 
ATOM     96  F   UNL A   1      45.990  36.832  27.135  1.00  0.00    -0.200 F 
ATOM     97  F   UNL A   1      47.548  37.243  29.335  1.00  0.00    -0.200 F 
ENDBRANCH  64  87
ENDBRANCH  38  39
ENDBRANCH  31  33
ENDBRANCH  30  31
ENDBRANCH  29  30
ENDBRANCH  28  29
ENDBRANCH   1  28
TORSDOF 17
ENDMDL
