MODEL 1
REMARK VINA RESULT:     -10.4      0.000      0.000
REMARK SMILES CC(C)(C[S@](=O)c1cccc(Cl)c1)C(=O)OCCOCCOC(=O)c1ccc(-c2c3nc(c(-c4c(F)c(F)c(F)c(F)c4F)c4ccc([nH]4)c(-c4c(F)c(F)c(F)c(F)c4F)c4nc(c(-c5c(F)c(F)c(F)c(F)c5F)c5ccc2[nH]5)C=C4)C=C3)cc1
REMARK SMILES IDX 18 1 17 2 16 3 14 4 15 5 2 6 1 7 3 8 4 9 5 10 6 11 7 12 8 13
REMARK SMILES IDX 13 14 9 15 11 16 10 17 12 18 19 19 20 20 21 21 22 22 23 23
REMARK SMILES IDX 24 24 25 25 26 26 87 27 27 28 86 29 28 30 29 31 30 32 80 33
REMARK SMILES IDX 31 34 85 35 79 36 81 37 32 38 84 39 78 40 77 41 33 43 65 44
REMARK SMILES IDX 45 45 64 46 46 47 49 48 63 49 82 50 47 51 48 52 62 54 83 55
REMARK SMILES IDX 50 56 34 57 35 58 43 59 36 60 37 61 41 62 44 63 38 64 39 65
REMARK SMILES IDX 42 66 40 67 66 68 67 69 75 70 68 71 69 72 73 73 76 74 70 75
REMARK SMILES IDX 71 76 74 77 72 78 51 79 52 80 60 81 53 82 54 83 58 84 61 85
REMARK SMILES IDX 55 86 56 87 59 88 57 89
REMARK H PARENT 81 42 49 53
REMARK Flexibility Score: inf
ROOT
ATOM      1  C   UNL A   1      31.786  28.487  23.046  1.00  0.00     0.202 C 
ENDROOT
BRANCH   1   2
ATOM      2  C   UNL A   1      30.905  27.256  23.289  1.00  0.00     0.261 C 
BRANCH   2   3
ATOM      3  O   UNL A   1      31.649  26.018  23.370  1.00  0.00    -0.463 OA
BRANCH   3   4
ATOM      4  C   UNL A   1      31.673  25.400  24.589  1.00  0.00     0.312 C 
ATOM      5  O   UNL A   1      30.669  25.019  25.174  1.00  0.00    -0.252 OA
BRANCH   4   6
ATOM      6  C   UNL A   1      33.097  25.299  25.176  1.00  0.00     0.074 C 
ATOM      7  C   UNL A   1      33.493  26.594  25.920  1.00  0.00     0.024 C 
ATOM      8  C   UNL A   1      33.997  25.267  23.910  1.00  0.00     0.024 C 
BRANCH   6   9
ATOM      9  C   UNL A   1      33.295  23.985  25.961  1.00  0.00     0.128 C 
BRANCH   9  10
ATOM     10  S   UNL A   1      33.760  22.407  25.206  1.00  0.00     0.054 S 
ATOM     11  O   UNL A   1      33.220  21.320  26.089  1.00  0.00    -0.254 OA
BRANCH  10  12
ATOM     12  C   UNL A   1      35.538  22.155  25.235  1.00  0.00     0.040 A 
ATOM     13  C   UNL A   1      36.194  20.971  24.914  1.00  0.00     0.018 A 
ATOM     14  C   UNL A   1      36.316  23.229  25.690  1.00  0.00     0.038 A 
ATOM     15  C   UNL A   1      37.566  20.812  25.120  1.00  0.00     0.003 A 
ATOM     16  C   UNL A   1      37.689  23.079  25.894  1.00  0.00     0.042 A 
ATOM     17  C   UNL A   1      38.315  21.865  25.628  1.00  0.00     0.020 A 
ATOM     18  Cl  UNL A   1      38.609  24.391  26.519  1.00  0.00    -0.084 Cl
ENDBRANCH  10  12
ENDBRANCH   9  10
ENDBRANCH   6   9
ENDBRANCH   4   6
ENDBRANCH   3   4
ENDBRANCH   2   3
ENDBRANCH   1   2
BRANCH   1  19
ATOM     19  O   UNL A   1      32.285  29.217  24.165  1.00  0.00    -0.374 OA
BRANCH  19  20
ATOM     20  C   UNL A   1      31.356  29.617  25.161  1.00  0.00     0.202 C 
BRANCH  20  21
ATOM     21  C   UNL A   1      31.780  30.687  26.181  1.00  0.00     0.261 C 
BRANCH  21  22
ATOM     22  O   UNL A   1      33.163  30.652  26.530  1.00  0.00    -0.460 OA
BRANCH  22  23
ATOM     23  C   UNL A   1      33.572  31.730  27.248  1.00  0.00     0.338 C 
ATOM     24  O   UNL A   1      32.981  32.771  27.446  1.00  0.00    -0.246 OA
BRANCH  23  25
ATOM     25  C   UNL A   1      34.821  31.358  27.927  1.00  0.00     0.060 A 
ATOM     26  C   UNL A   1      34.933  30.050  28.414  1.00  0.00     0.016 A 
ATOM     27  C   UNL A   1      35.867  32.272  28.060  1.00  0.00     0.016 A 
ATOM     28  C   UNL A   1      36.106  29.648  29.041  1.00  0.00     0.010 A 
ATOM     29  C   UNL A   1      37.036  31.872  28.709  1.00  0.00     0.010 A 
ATOM     30  C   UNL A   1      37.153  30.563  29.211  1.00  0.00    -0.014 A 
BRANCH  30  31
ATOM     31  C   UNL A   1      38.330  30.188  30.023  1.00  0.00     0.031 A 
ATOM     32  C   UNL A   1      39.324  29.228  29.447  1.00  0.00     0.074 A 
ATOM     33  C   UNL A   1      38.506  30.712  31.248  1.00  0.00     0.049 A 
ATOM     34  N   UNL A   1      40.394  28.710  29.994  1.00  0.00    -0.248 NA
ATOM     35  C   UNL A   1      39.079  28.789  28.065  1.00  0.00     0.031 C 
ATOM     36  C   UNL A   1      37.628  31.697  31.877  1.00  0.00     0.029 A 
ATOM     37  N   UNL A   1      39.482  30.483  32.183  1.00  0.00    -0.354 N 
ATOM     38  C   UNL A   1      40.948  27.886  29.023  1.00  0.00     0.074 A 
ATOM     39  C   UNL A   1      40.078  27.943  27.869  1.00  0.00     0.031 C 
ATOM     40  C   UNL A   1      38.102  31.983  33.102  1.00  0.00     0.029 A 
ATOM     41  C   UNL A   1      39.290  31.170  33.355  1.00  0.00     0.049 A 
ATOM     42  H   UNL A   1      40.248  29.884  32.028  1.00  0.00     0.167 HD
ATOM     43  C   UNL A   1      42.086  27.156  29.093  1.00  0.00     0.037 A 
ATOM     44  C   UNL A   1      39.982  31.120  34.509  1.00  0.00     0.037 A 
ATOM     45  C   UNL A   1      42.928  27.096  30.258  1.00  0.00     0.049 A 
ATOM     46  C   UNL A   1      41.177  30.206  34.603  1.00  0.00     0.074 A 
ATOM     47  C   UNL A   1      44.106  26.393  30.437  1.00  0.00     0.029 A 
ATOM     48  N   UNL A   1      42.669  27.755  31.452  1.00  0.00    -0.354 N 
ATOM     49  N   UNL A   1      41.714  29.447  33.678  1.00  0.00    -0.248 NA
ATOM     50  C   UNL A   1      41.859  30.137  35.904  1.00  0.00     0.031 C 
ATOM     51  C   UNL A   1      44.523  26.575  31.760  1.00  0.00     0.029 A 
ATOM     52  C   UNL A   1      43.643  27.443  32.387  1.00  0.00     0.049 A 
ATOM     53  H   UNL A   1      41.906  28.357  31.610  1.00  0.00     0.167 HD
ATOM     54  C   UNL A   1      42.807  28.831  34.272  1.00  0.00     0.074 A 
ATOM     55  C   UNL A   1      42.866  29.318  35.636  1.00  0.00     0.031 C 
ATOM     56  C   UNL A   1      43.682  27.943  33.740  1.00  0.00     0.037 A 
BRANCH  43  57
ATOM     57  C   UNL A   1      42.454  26.337  27.889  1.00  0.00     0.064 A 
ATOM     58  C   UNL A   1      41.926  25.054  27.678  1.00  0.00     0.173 A 
ATOM     59  C   UNL A   1      43.346  26.843  26.932  1.00  0.00     0.173 A 
ATOM     60  F   UNL A   1      41.080  24.516  28.569  1.00  0.00    -0.203 F 
ATOM     61  C   UNL A   1      42.307  24.294  26.574  1.00  0.00     0.198 A 
ATOM     62  C   UNL A   1      43.697  26.095  25.811  1.00  0.00     0.198 A 
ATOM     63  F   UNL A   1      43.879  28.065  27.082  1.00  0.00    -0.203 F 
ATOM     64  F   UNL A   1      41.837  23.047  26.425  1.00  0.00    -0.200 F 
ATOM     65  C   UNL A   1      43.187  24.818  25.638  1.00  0.00     0.200 A 
ATOM     66  F   UNL A   1      44.537  26.609  24.901  1.00  0.00    -0.200 F 
ATOM     67  F   UNL A   1      43.551  24.087  24.576  1.00  0.00    -0.200 F 
ENDBRANCH  43  57
BRANCH  44  68
ATOM     68  C   UNL A   1      39.554  31.945  35.671  1.00  0.00     0.064 A 
ATOM     69  C   UNL A   1      38.585  31.477  36.569  1.00  0.00     0.173 A 
ATOM     70  C   UNL A   1      40.099  33.217  35.905  1.00  0.00     0.173 A 
ATOM     71  F   UNL A   1      38.018  30.278  36.377  1.00  0.00    -0.203 F 
ATOM     72  C   UNL A   1      38.170  32.253  37.649  1.00  0.00     0.198 A 
ATOM     73  C   UNL A   1      39.704  33.980  37.001  1.00  0.00     0.198 A 
ATOM     74  F   UNL A   1      41.027  33.714  35.074  1.00  0.00    -0.203 F 
ATOM     75  F   UNL A   1      37.213  31.799  38.469  1.00  0.00    -0.200 F 
ATOM     76  C   UNL A   1      38.735  33.501  37.869  1.00  0.00     0.200 A 
ATOM     77  F   UNL A   1      40.264  35.178  37.218  1.00  0.00    -0.200 F 
ATOM     78  F   UNL A   1      38.341  34.244  38.912  1.00  0.00    -0.200 F 
ENDBRANCH  44  68
BRANCH  56  79
ATOM     79  C   UNL A   1      44.797  27.456  34.621  1.00  0.00     0.064 A 
ATOM     80  C   UNL A   1      44.666  26.296  35.399  1.00  0.00     0.173 A 
ATOM     81  C   UNL A   1      46.033  28.122  34.637  1.00  0.00     0.173 A 
ATOM     82  F   UNL A   1      43.501  25.633  35.432  1.00  0.00    -0.203 F 
ATOM     83  C   UNL A   1      45.727  25.830  36.172  1.00  0.00     0.198 A 
ATOM     84  C   UNL A   1      47.100  27.634  35.385  1.00  0.00     0.198 A 
ATOM     85  F   UNL A   1      46.212  29.232  33.906  1.00  0.00    -0.203 F 
ATOM     86  F   UNL A   1      45.567  24.743  36.940  1.00  0.00    -0.200 F 
ATOM     87  C   UNL A   1      46.945  26.493  36.156  1.00  0.00     0.200 A 
ATOM     88  F   UNL A   1      48.282  28.266  35.353  1.00  0.00    -0.200 F 
ATOM     89  F   UNL A   1      47.969  26.032  36.886  1.00  0.00    -0.200 F 
ENDBRANCH  56  79
ENDBRANCH  30  31
ENDBRANCH  23  25
ENDBRANCH  22  23
ENDBRANCH  21  22
ENDBRANCH  20  21
ENDBRANCH  19  20
ENDBRANCH   1  19
TORSDOF 17
ENDMDL
MODEL 2
REMARK VINA RESULT:     -10.3      5.068      9.966
REMARK SMILES CC(C)(C[S@](=O)c1cccc(Cl)c1)C(=O)OCCOCCOC(=O)c1ccc(-c2c3nc(c(-c4c(F)c(F)c(F)c(F)c4F)c4ccc([nH]4)c(-c4c(F)c(F)c(F)c(F)c4F)c4nc(c(-c5c(F)c(F)c(F)c(F)c5F)c5ccc2[nH]5)C=C4)C=C3)cc1
REMARK SMILES IDX 18 1 17 2 16 3 14 4 15 5 2 6 1 7 3 8 4 9 5 10 6 11 7 12 8 13
REMARK SMILES IDX 13 14 9 15 11 16 10 17 12 18 19 19 20 20 21 21 22 22 23 23
REMARK SMILES IDX 24 24 25 25 26 26 87 27 27 28 86 29 28 30 29 31 30 32 80 33
REMARK SMILES IDX 31 34 85 35 79 36 81 37 32 38 84 39 78 40 77 41 33 43 65 44
REMARK SMILES IDX 45 45 64 46 46 47 49 48 63 49 82 50 47 51 48 52 62 54 83 55
REMARK SMILES IDX 50 56 34 57 35 58 43 59 36 60 37 61 41 62 44 63 38 64 39 65
REMARK SMILES IDX 42 66 40 67 66 68 67 69 75 70 68 71 69 72 73 73 76 74 70 75
REMARK SMILES IDX 71 76 74 77 72 78 51 79 52 80 60 81 53 82 54 83 58 84 61 85
REMARK SMILES IDX 55 86 56 87 59 88 57 89
REMARK H PARENT 81 42 49 53
REMARK Flexibility Score: inf
ROOT
ATOM      1  C   UNL A   1      38.631  23.391  26.269  1.00  0.00     0.202 C 
ENDROOT
BRANCH   1   2
ATOM      2  C   UNL A   1      37.331  23.668  25.505  1.00  0.00     0.261 C 
BRANCH   2   3
ATOM      3  O   UNL A   1      36.157  23.108  26.137  1.00  0.00    -0.463 OA
BRANCH   3   4
ATOM      4  C   UNL A   1      34.962  23.701  25.839  1.00  0.00     0.312 C 
ATOM      5  O   UNL A   1      34.842  24.893  25.593  1.00  0.00    -0.252 OA
BRANCH   4   6
ATOM      6  C   UNL A   1      33.774  22.718  25.915  1.00  0.00     0.074 C 
ATOM      7  C   UNL A   1      32.500  23.416  26.441  1.00  0.00     0.024 C 
ATOM      8  C   UNL A   1      34.199  21.743  27.047  1.00  0.00     0.024 C 
BRANCH   6   9
ATOM      9  C   UNL A   1      33.613  21.920  24.604  1.00  0.00     0.128 C 
BRANCH   9  10
ATOM     10  S   UNL A   1      32.508  20.501  24.404  1.00  0.00     0.054 S 
ATOM     11  O   UNL A   1      31.484  20.583  25.499  1.00  0.00    -0.254 OA
BRANCH  10  12
ATOM     12  C   UNL A   1      33.357  18.949  24.709  1.00  0.00     0.040 A 
ATOM     13  C   UNL A   1      34.705  18.703  24.477  1.00  0.00     0.018 A 
ATOM     14  C   UNL A   1      32.566  17.879  25.152  1.00  0.00     0.038 A 
ATOM     15  C   UNL A   1      35.249  17.421  24.587  1.00  0.00     0.003 A 
ATOM     16  C   UNL A   1      33.103  16.595  25.270  1.00  0.00     0.042 A 
ATOM     17  C   UNL A   1      34.441  16.358  24.969  1.00  0.00     0.020 A 
ATOM     18  Cl  UNL A   1      32.094  15.288  25.749  1.00  0.00    -0.084 Cl
ENDBRANCH  10  12
ENDBRANCH   9  10
ENDBRANCH   6   9
ENDBRANCH   4   6
ENDBRANCH   3   4
ENDBRANCH   2   3
ENDBRANCH   1   2
BRANCH   1  19
ATOM     19  O   UNL A   1      39.044  22.041  26.474  1.00  0.00    -0.374 OA
BRANCH  19  20
ATOM     20  C   UNL A   1      38.781  21.105  25.439  1.00  0.00     0.202 C 
BRANCH  20  21
ATOM     21  C   UNL A   1      39.484  19.738  25.483  1.00  0.00     0.261 C 
BRANCH  21  22
ATOM     22  O   UNL A   1      40.391  19.577  26.571  1.00  0.00    -0.460 OA
BRANCH  22  23
ATOM     23  C   UNL A   1      41.696  19.559  26.197  1.00  0.00     0.338 C 
ATOM     24  O   UNL A   1      42.286  18.707  25.564  1.00  0.00    -0.246 OA
BRANCH  23  25
ATOM     25  C   UNL A   1      42.270  20.869  26.535  1.00  0.00     0.060 A 
ATOM     26  C   UNL A   1      42.343  21.218  27.889  1.00  0.00     0.016 A 
ATOM     27  C   UNL A   1      42.748  21.723  25.540  1.00  0.00     0.016 A 
ATOM     28  C   UNL A   1      42.901  22.436  28.256  1.00  0.00     0.010 A 
ATOM     29  C   UNL A   1      43.289  22.955  25.911  1.00  0.00     0.010 A 
ATOM     30  C   UNL A   1      43.356  23.319  27.268  1.00  0.00    -0.014 A 
BRANCH  30  31
ATOM     31  C   UNL A   1      43.793  24.679  27.646  1.00  0.00     0.031 A 
ATOM     32  C   UNL A   1      42.751  25.701  27.985  1.00  0.00     0.074 A 
ATOM     33  C   UNL A   1      45.101  24.984  27.697  1.00  0.00     0.049 A 
ATOM     34  N   UNL A   1      42.894  26.966  28.284  1.00  0.00    -0.248 NA
ATOM     35  C   UNL A   1      41.357  25.232  27.985  1.00  0.00     0.031 C 
ATOM     36  C   UNL A   1      46.194  24.048  27.442  1.00  0.00     0.029 A 
ATOM     37  N   UNL A   1      45.729  26.170  27.976  1.00  0.00    -0.354 N 
ATOM     38  C   UNL A   1      41.609  27.443  28.508  1.00  0.00     0.074 A 
ATOM     39  C   UNL A   1      40.699  26.344  28.274  1.00  0.00     0.031 C 
ATOM     40  C   UNL A   1      47.363  24.700  27.569  1.00  0.00     0.029 A 
ATOM     41  C   UNL A   1      47.095  26.104  27.871  1.00  0.00     0.049 A 
ATOM     42  H   UNL A   1      45.245  26.990  28.229  1.00  0.00     0.167 HD
ATOM     43  C   UNL A   1      41.230  28.688  28.884  1.00  0.00     0.037 A 
ATOM     44  C   UNL A   1      48.018  27.080  27.980  1.00  0.00     0.037 A 
ATOM     45  C   UNL A   1      42.149  29.776  29.092  1.00  0.00     0.049 A 
ATOM     46  C   UNL A   1      47.561  28.485  28.279  1.00  0.00     0.074 A 
ATOM     47  C   UNL A   1      41.876  31.075  29.478  1.00  0.00     0.029 A 
ATOM     48  N   UNL A   1      43.523  29.690  28.915  1.00  0.00    -0.354 N 
ATOM     49  N   UNL A   1      46.350  28.930  28.514  1.00  0.00    -0.248 NA
ATOM     50  C   UNL A   1      48.599  29.525  28.321  1.00  0.00     0.031 C 
ATOM     51  C   UNL A   1      43.078  31.793  29.469  1.00  0.00     0.029 A 
ATOM     52  C   UNL A   1      44.108  30.925  29.143  1.00  0.00     0.049 A 
ATOM     53  H   UNL A   1      44.011  28.872  28.664  1.00  0.00     0.167 HD
ATOM     54  C   UNL A   1      46.481  30.290  28.757  1.00  0.00     0.074 A 
ATOM     55  C   UNL A   1      47.894  30.596  28.655  1.00  0.00     0.031 C 
ATOM     56  C   UNL A   1      45.520  31.205  29.038  1.00  0.00     0.037 A 
BRANCH  43  57
ATOM     57  C   UNL A   1      39.759  28.941  29.049  1.00  0.00     0.064 A 
ATOM     58  C   UNL A   1      39.116  28.788  30.288  1.00  0.00     0.173 A 
ATOM     59  C   UNL A   1      38.980  29.344  27.954  1.00  0.00     0.173 A 
ATOM     60  F   UNL A   1      39.811  28.390  31.365  1.00  0.00    -0.203 F 
ATOM     61  C   UNL A   1      37.744  28.992  30.414  1.00  0.00     0.198 A 
ATOM     62  C   UNL A   1      37.615  29.582  28.092  1.00  0.00     0.198 A 
ATOM     63  F   UNL A   1      39.543  29.509  26.747  1.00  0.00    -0.203 F 
ATOM     64  F   UNL A   1      37.142  28.780  31.593  1.00  0.00    -0.200 F 
ATOM     65  C   UNL A   1      36.996  29.395  29.318  1.00  0.00     0.200 A 
ATOM     66  F   UNL A   1      36.897  29.984  27.033  1.00  0.00    -0.200 F 
ATOM     67  F   UNL A   1      35.677  29.592  29.441  1.00  0.00    -0.200 F 
ENDBRANCH  43  57
BRANCH  44  68
ATOM     68  C   UNL A   1      49.459  26.766  27.788  1.00  0.00     0.064 A 
ATOM     69  C   UNL A   1      50.022  26.719  26.505  1.00  0.00     0.173 A 
ATOM     70  C   UNL A   1      50.302  26.501  28.879  1.00  0.00     0.173 A 
ATOM     71  F   UNL A   1      49.254  26.941  25.429  1.00  0.00    -0.203 F 
ATOM     72  C   UNL A   1      51.368  26.409  26.320  1.00  0.00     0.198 A 
ATOM     73  C   UNL A   1      51.653  26.220  28.694  1.00  0.00     0.198 A 
ATOM     74  F   UNL A   1      49.814  26.530  30.128  1.00  0.00    -0.203 F 
ATOM     75  F   UNL A   1      51.871  26.331  25.081  1.00  0.00    -0.200 F 
ATOM     76  C   UNL A   1      52.185  26.168  27.415  1.00  0.00     0.200 A 
ATOM     77  F   UNL A   1      52.442  26.004  29.756  1.00  0.00    -0.200 F 
ATOM     78  F   UNL A   1      53.480  25.878  27.237  1.00  0.00    -0.200 F 
ENDBRANCH  44  68
BRANCH  56  79
ATOM     79  C   UNL A   1      45.961  32.620  29.282  1.00  0.00     0.064 A 
ATOM     80  C   UNL A   1      46.070  33.547  28.234  1.00  0.00     0.173 A 
ATOM     81  C   UNL A   1      46.215  33.070  30.587  1.00  0.00     0.173 A 
ATOM     82  F   UNL A   1      45.854  33.164  26.968  1.00  0.00    -0.203 F 
ATOM     83  C   UNL A   1      46.432  34.869  28.484  1.00  0.00     0.198 A 
ATOM     84  C   UNL A   1      46.544  34.399  30.836  1.00  0.00     0.198 A 
ATOM     85  F   UNL A   1      46.120  32.225  31.624  1.00  0.00    -0.203 F 
ATOM     86  F   UNL A   1      46.570  35.728  27.465  1.00  0.00    -0.200 F 
ATOM     87  C   UNL A   1      46.657  35.296  29.784  1.00  0.00     0.200 A 
ATOM     88  F   UNL A   1      46.744  34.813  32.094  1.00  0.00    -0.200 F 
ATOM     89  F   UNL A   1      46.988  36.572  30.024  1.00  0.00    -0.200 F 
ENDBRANCH  56  79
ENDBRANCH  30  31
ENDBRANCH  23  25
ENDBRANCH  22  23
ENDBRANCH  21  22
ENDBRANCH  20  21
ENDBRANCH  19  20
ENDBRANCH   1  19
TORSDOF 17
ENDMDL
MODEL 3
REMARK VINA RESULT:     -10.3      2.814      4.664
REMARK SMILES CC(C)(C[S@](=O)c1cccc(Cl)c1)C(=O)OCCOCCOC(=O)c1ccc(-c2c3nc(c(-c4c(F)c(F)c(F)c(F)c4F)c4ccc([nH]4)c(-c4c(F)c(F)c(F)c(F)c4F)c4nc(c(-c5c(F)c(F)c(F)c(F)c5F)c5ccc2[nH]5)C=C4)C=C3)cc1
REMARK SMILES IDX 18 1 17 2 16 3 14 4 15 5 2 6 1 7 3 8 4 9 5 10 6 11 7 12 8 13
REMARK SMILES IDX 13 14 9 15 11 16 10 17 12 18 19 19 20 20 21 21 22 22 23 23
REMARK SMILES IDX 24 24 25 25 26 26 87 27 27 28 86 29 28 30 29 31 30 32 80 33
REMARK SMILES IDX 31 34 85 35 79 36 81 37 32 38 84 39 78 40 77 41 33 43 65 44
REMARK SMILES IDX 45 45 64 46 46 47 49 48 63 49 82 50 47 51 48 52 62 54 83 55
REMARK SMILES IDX 50 56 34 57 35 58 43 59 36 60 37 61 41 62 44 63 38 64 39 65
REMARK SMILES IDX 42 66 40 67 66 68 67 69 75 70 68 71 69 72 73 73 76 74 70 75
REMARK SMILES IDX 71 76 74 77 72 78 51 79 52 80 60 81 53 82 54 83 58 84 61 85
REMARK SMILES IDX 55 86 56 87 59 88 57 89
REMARK H PARENT 81 42 49 53
REMARK Flexibility Score: inf
ROOT
ATOM      1  C   UNL A   1      33.444  29.558  26.360  1.00  0.00     0.202 C 
ENDROOT
BRANCH   1   2
ATOM      2  C   UNL A   1      32.878  29.323  24.955  1.00  0.00     0.261 C 
BRANCH   2   3
ATOM      3  O   UNL A   1      33.280  28.062  24.372  1.00  0.00    -0.463 OA
BRANCH   3   4
ATOM      4  C   UNL A   1      32.335  27.076  24.339  1.00  0.00     0.312 C 
ATOM      5  O   UNL A   1      31.920  26.502  25.337  1.00  0.00    -0.252 OA
BRANCH   4   6
ATOM      6  C   UNL A   1      31.899  26.716  22.902  1.00  0.00     0.074 C 
ATOM      7  C   UNL A   1      31.611  25.205  22.763  1.00  0.00     0.024 C 
ATOM      8  C   UNL A   1      33.190  26.961  22.074  1.00  0.00     0.024 C 
BRANCH   6   9
ATOM      9  C   UNL A   1      30.792  27.663  22.392  1.00  0.00     0.128 C 
BRANCH   9  10
ATOM     10  S   UNL A   1      29.519  28.403  23.444  1.00  0.00     0.054 S 
ATOM     11  O   UNL A   1      28.227  27.707  23.125  1.00  0.00    -0.254 OA
BRANCH  10  12
ATOM     12  C   UNL A   1      29.213  30.119  23.012  1.00  0.00     0.040 A 
ATOM     13  C   UNL A   1      29.342  31.205  23.870  1.00  0.00     0.018 A 
ATOM     14  C   UNL A   1      28.736  30.364  21.717  1.00  0.00     0.038 A 
ATOM     15  C   UNL A   1      28.928  32.487  23.501  1.00  0.00     0.003 A 
ATOM     16  C   UNL A   1      28.324  31.643  21.338  1.00  0.00     0.042 A 
ATOM     17  C   UNL A   1      28.401  32.705  22.235  1.00  0.00     0.020 A 
ATOM     18  Cl  UNL A   1      27.678  31.903  19.766  1.00  0.00    -0.084 Cl
ENDBRANCH  10  12
ENDBRANCH   9  10
ENDBRANCH   6   9
ENDBRANCH   4   6
ENDBRANCH   3   4
ENDBRANCH   2   3
ENDBRANCH   1   2
BRANCH   1  19
ATOM     19  O   UNL A   1      32.792  30.483  27.227  1.00  0.00    -0.374 OA
BRANCH  19  20
ATOM     20  C   UNL A   1      31.786  31.316  26.670  1.00  0.00     0.202 C 
BRANCH  20  21
ATOM     21  C   UNL A   1      31.777  32.810  27.034  1.00  0.00     0.261 C 
BRANCH  21  22
ATOM     22  O   UNL A   1      33.070  33.405  27.109  1.00  0.00    -0.460 OA
BRANCH  22  23
ATOM     23  C   UNL A   1      33.232  34.228  28.177  1.00  0.00     0.338 C 
ATOM     24  O   UNL A   1      32.528  35.153  28.529  1.00  0.00    -0.246 OA
BRANCH  23  25
ATOM     25  C   UNL A   1      34.341  33.695  28.981  1.00  0.00     0.060 A 
ATOM     26  C   UNL A   1      35.620  34.213  28.749  1.00  0.00     0.016 A 
ATOM     27  C   UNL A   1      34.119  32.722  29.956  1.00  0.00     0.016 A 
ATOM     28  C   UNL A   1      36.694  33.756  29.503  1.00  0.00     0.010 A 
ATOM     29  C   UNL A   1      35.203  32.250  30.697  1.00  0.00     0.010 A 
ATOM     30  C   UNL A   1      36.494  32.756  30.465  1.00  0.00    -0.014 A 
BRANCH  30  31
ATOM     31  C   UNL A   1      37.657  32.152  31.147  1.00  0.00     0.031 A 
ATOM     32  C   UNL A   1      38.422  31.073  30.443  1.00  0.00     0.074 A 
ATOM     33  C   UNL A   1      38.026  32.576  32.367  1.00  0.00     0.049 A 
ATOM     34  N   UNL A   1      39.434  30.360  30.866  1.00  0.00    -0.248 NA
ATOM     35  C   UNL A   1      37.986  30.753  29.075  1.00  0.00     0.031 C 
ATOM     36  C   UNL A   1      37.385  33.657  33.113  1.00  0.00     0.029 A 
ATOM     37  N   UNL A   1      39.029  32.142  33.196  1.00  0.00    -0.354 N 
ATOM     38  C   UNL A   1      39.754  29.508  29.817  1.00  0.00     0.074 A 
ATOM     39  C   UNL A   1      38.808  29.767  28.754  1.00  0.00     0.031 C 
ATOM     40  C   UNL A   1      38.006  33.798  34.296  1.00  0.00     0.029 A 
ATOM     41  C   UNL A   1      39.058  32.789  34.406  1.00  0.00     0.049 A 
ATOM     42  H   UNL A   1      39.667  31.434  32.946  1.00  0.00     0.167 HD
ATOM     43  C   UNL A   1      40.756  28.599  29.751  1.00  0.00     0.037 A 
ATOM     44  C   UNL A   1      39.831  32.566  35.486  1.00  0.00     0.037 A 
ATOM     45  C   UNL A   1      41.675  28.341  30.827  1.00  0.00     0.049 A 
ATOM     46  C   UNL A   1      40.860  31.465  35.431  1.00  0.00     0.074 A 
ATOM     47  C   UNL A   1      42.729  27.448  30.867  1.00  0.00     0.029 A 
ATOM     48  N   UNL A   1      41.636  28.971  32.063  1.00  0.00    -0.354 N 
ATOM     49  N   UNL A   1      41.178  30.678  34.432  1.00  0.00    -0.248 NA
ATOM     50  C   UNL A   1      41.632  31.218  36.657  1.00  0.00     0.031 C 
ATOM     51  C   UNL A   1      43.286  27.489  32.150  1.00  0.00     0.029 A 
ATOM     52  C   UNL A   1      42.623  28.456  32.889  1.00  0.00     0.049 A 
ATOM     53  H   UNL A   1      41.002  29.681  32.316  1.00  0.00     0.167 HD
ATOM     54  C   UNL A   1      42.200  29.861  34.896  1.00  0.00     0.074 A 
ATOM     55  C   UNL A   1      42.460  30.260  36.265  1.00  0.00     0.031 C 
ATOM     56  C   UNL A   1      42.864  28.871  34.250  1.00  0.00     0.037 A 
BRANCH  43  57
ATOM     57  C   UNL A   1      40.874  27.795  28.488  1.00  0.00     0.064 A 
ATOM     58  C   UNL A   1      40.201  26.574  28.323  1.00  0.00     0.173 A 
ATOM     59  C   UNL A   1      41.669  28.251  27.427  1.00  0.00     0.173 A 
ATOM     60  F   UNL A   1      39.438  26.083  29.312  1.00  0.00    -0.203 F 
ATOM     61  C   UNL A   1      40.350  25.824  27.159  1.00  0.00     0.198 A 
ATOM     62  C   UNL A   1      41.789  27.516  26.250  1.00  0.00     0.198 A 
ATOM     63  F   UNL A   1      42.332  29.413  27.529  1.00  0.00    -0.203 F 
ATOM     64  F   UNL A   1      39.747  24.632  27.048  1.00  0.00    -0.200 F 
ATOM     65  C   UNL A   1      41.139  26.299  26.121  1.00  0.00     0.200 A 
ATOM     66  F   UNL A   1      42.541  27.984  25.244  1.00  0.00    -0.200 F 
ATOM     67  F   UNL A   1      41.282  25.577  25.001  1.00  0.00    -0.200 F 
ENDBRANCH  43  57
BRANCH  44  68
ATOM     68  C   UNL A   1      39.652  33.388  36.712  1.00  0.00     0.064 A 
ATOM     69  C   UNL A   1      38.727  33.019  37.698  1.00  0.00     0.173 A 
ATOM     70  C   UNL A   1      40.395  34.560  36.923  1.00  0.00     0.173 A 
ATOM     71  F   UNL A   1      37.976  31.921  37.534  1.00  0.00    -0.203 F 
ATOM     72  C   UNL A   1      38.544  33.795  38.841  1.00  0.00     0.198 A 
ATOM     73  C   UNL A   1      40.232  35.319  38.079  1.00  0.00     0.198 A 
ATOM     74  F   UNL A   1      41.292  34.960  36.009  1.00  0.00    -0.203 F 
ATOM     75  F   UNL A   1      37.624  33.442  39.748  1.00  0.00    -0.200 F 
ATOM     76  C   UNL A   1      39.302  34.941  39.035  1.00  0.00     0.200 A 
ATOM     77  F   UNL A   1      40.978  36.416  38.269  1.00  0.00    -0.200 F 
ATOM     78  F   UNL A   1      39.131  35.682  40.137  1.00  0.00    -0.200 F 
ENDBRANCH  44  68
BRANCH  56  79
ATOM     79  C   UNL A   1      43.955  28.163  35.002  1.00  0.00     0.064 A 
ATOM     80  C   UNL A   1      45.262  28.670  35.053  1.00  0.00     0.173 A 
ATOM     81  C   UNL A   1      43.672  26.998  35.733  1.00  0.00     0.173 A 
ATOM     82  F   UNL A   1      45.587  29.770  34.359  1.00  0.00    -0.203 F 
ATOM     83  C   UNL A   1      46.249  28.028  35.797  1.00  0.00     0.198 A 
ATOM     84  C   UNL A   1      44.654  26.379  36.502  1.00  0.00     0.198 A 
ATOM     85  F   UNL A   1      42.437  26.475  35.722  1.00  0.00    -0.203 F 
ATOM     86  F   UNL A   1      47.501  28.507  35.799  1.00  0.00    -0.200 F 
ATOM     87  C   UNL A   1      45.941  26.891  36.529  1.00  0.00     0.200 A 
ATOM     88  F   UNL A   1      44.350  25.291  37.222  1.00  0.00    -0.200 F 
ATOM     89  F   UNL A   1      46.889  26.286  37.258  1.00  0.00    -0.200 F 
ENDBRANCH  56  79
ENDBRANCH  30  31
ENDBRANCH  23  25
ENDBRANCH  22  23
ENDBRANCH  21  22
ENDBRANCH  20  21
ENDBRANCH  19  20
ENDBRANCH   1  19
TORSDOF 17
ENDMDL
