MODEL 1
REMARK VINA RESULT:     -10.3      0.000      0.000
REMARK SMILES Cc1nsc(NC(=O)CC[C@H](C)CC[NH3+])c1C(=O)OCCOCCOC(=O)c1ccc(-c2c3nc(c(-c4c(F)c(F)c(F)c(F)c4F)c4ccc([nH]4)c(-c4c(F)c(F)c(F)c(F)c4F)c4nc(c(-c5c(F)c(F)c(F)c(F)c5F)c5ccc2[nH]5)C=C4)C=C3)cc1
REMARK SMILES IDX 20 1 19 2 17 3 18 4 16 5 1 6 2 7 3 8 4 9 5 10 6 11 7 12 8 14
REMARK SMILES IDX 9 15 10 16 11 17 12 18 13 19 14 20 15 21 21 25 22 26 23 27
REMARK SMILES IDX 24 28 25 29 26 30 27 31 28 32 29 33 90 34 30 35 89 36 31 37
REMARK SMILES IDX 32 38 33 39 83 40 34 41 88 42 82 43 84 44 35 45 87 46 81 47
REMARK SMILES IDX 80 48 36 50 68 51 48 52 67 53 49 54 52 55 66 56 85 57 50 58
REMARK SMILES IDX 51 59 65 61 86 62 53 63 37 64 38 65 46 66 39 67 40 68 44 69
REMARK SMILES IDX 47 70 41 71 42 72 45 73 43 74 69 75 70 76 78 77 71 78 72 79
REMARK SMILES IDX 76 80 79 81 73 82 74 83 77 84 75 85 54 86 55 87 63 88 56 89
REMARK SMILES IDX 57 90 61 91 64 92 58 93 59 94 62 95 60 96
REMARK H PARENT 6 13 15 22 15 23 15 24 84 49 52 60
REMARK Flexibility Score: inf
ROOT
ATOM      1  C   UNL A   1      35.782  24.115  25.720  1.00  0.00     0.261 C 
ENDROOT
BRANCH   1   2
ATOM      2  O   UNL A   1      34.825  24.459  24.702  1.00  0.00    -0.460 OA
BRANCH   2   3
ATOM      3  C   UNL A   1      33.884  25.367  25.086  1.00  0.00     0.343 C 
ATOM      4  O   UNL A   1      33.967  26.077  26.079  1.00  0.00    -0.246 OA
BRANCH   3   5
ATOM      5  C   UNL A   1      32.755  25.459  24.177  1.00  0.00     0.117 A 
ATOM      6  C   UNL A   1      33.637  27.066  22.285  1.00  0.00     0.069 C 
ATOM      7  C   UNL A   1      32.660  26.116  22.893  1.00  0.00     0.068 A 
ATOM      8  N   UNL A   1      31.544  25.870  22.202  1.00  0.00    -0.195 NA
ATOM      9  S   UNL A   1      30.558  24.918  23.123  1.00  0.00    -0.017 S 
ATOM     10  C   UNL A   1      31.478  25.038  24.535  1.00  0.00     0.130 A 
BRANCH  10  11
ATOM     11  N   UNL A   1      31.015  24.742  25.804  1.00  0.00    -0.316 N 
ATOM     12  C   UNL A   1      30.668  23.544  26.368  1.00  0.00     0.225 C 
ATOM     13  H   UNL A   1      30.919  25.520  26.399  1.00  0.00     0.170 HD
ATOM     14  O   UNL A   1      30.005  23.602  27.413  1.00  0.00    -0.275 OA
BRANCH  12  15
ATOM     15  C   UNL A   1      30.978  22.171  25.784  1.00  0.00     0.101 C 
BRANCH  15  16
ATOM     16  C   UNL A   1      32.461  21.744  25.816  1.00  0.00     0.013 C 
BRANCH  16  17
ATOM     17  C   UNL A   1      33.044  20.955  24.609  1.00  0.00    -0.008 C 
ATOM     18  C   UNL A   1      33.058  21.805  23.335  1.00  0.00     0.008 C 
BRANCH  17  19
ATOM     19  C   UNL A   1      32.387  19.570  24.478  1.00  0.00     0.064 C 
BRANCH  19  20
ATOM     20  C   UNL A   1      33.215  18.329  24.811  1.00  0.00     0.259 C 
BRANCH  20  21
ATOM     21  N   UNL A   1      32.911  17.797  26.128  1.00  0.00    -0.358 N 
ATOM     22  H   UNL A   1      33.447  16.943  26.281  1.00  0.00     0.344 HD
ATOM     23  H   UNL A   1      31.914  17.589  26.188  1.00  0.00     0.344 HD
ATOM     24  H   UNL A   1      33.158  18.485  26.839  1.00  0.00     0.344 HD
ENDBRANCH  20  21
ENDBRANCH  19  20
ENDBRANCH  17  19
ENDBRANCH  16  17
ENDBRANCH  15  16
ENDBRANCH  12  15
ENDBRANCH  10  11
ENDBRANCH   3   5
ENDBRANCH   2   3
ENDBRANCH   1   2
BRANCH   1  25
ATOM     25  C   UNL A   1      36.110  22.623  25.726  1.00  0.00     0.202 C 
BRANCH  25  26
ATOM     26  O   UNL A   1      37.311  22.266  25.047  1.00  0.00    -0.374 OA
BRANCH  26  27
ATOM     27  C   UNL A   1      37.666  20.883  25.020  1.00  0.00     0.202 C 
BRANCH  27  28
ATOM     28  C   UNL A   1      39.066  20.566  25.522  1.00  0.00     0.261 C 
BRANCH  28  29
ATOM     29  O   UNL A   1      39.406  21.448  26.587  1.00  0.00    -0.460 OA
BRANCH  29  30
ATOM     30  C   UNL A   1      40.570  22.122  26.452  1.00  0.00     0.338 C 
ATOM     31  O   UNL A   1      41.539  21.809  25.799  1.00  0.00    -0.246 OA
BRANCH  30  32
ATOM     32  C   UNL A   1      40.500  23.299  27.331  1.00  0.00     0.060 A 
ATOM     33  C   UNL A   1      39.488  24.221  27.063  1.00  0.00     0.016 A 
ATOM     34  C   UNL A   1      41.539  23.579  28.234  1.00  0.00     0.016 A 
ATOM     35  C   UNL A   1      39.637  25.505  27.536  1.00  0.00     0.010 A 
ATOM     36  C   UNL A   1      41.689  24.860  28.704  1.00  0.00     0.010 A 
ATOM     37  C   UNL A   1      40.784  25.823  28.274  1.00  0.00    -0.014 A 
BRANCH  37  38
ATOM     38  C   UNL A   1      40.980  27.204  28.656  1.00  0.00     0.031 A 
ATOM     39  C   UNL A   1      42.207  27.777  28.074  1.00  0.00     0.074 A 
ATOM     40  C   UNL A   1      40.087  27.876  29.405  1.00  0.00     0.049 A 
ATOM     41  N   UNL A   1      43.286  28.104  28.703  1.00  0.00    -0.248 NA
ATOM     42  C   UNL A   1      42.326  27.821  26.609  1.00  0.00     0.031 C 
ATOM     43  C   UNL A   1      38.744  27.439  29.804  1.00  0.00     0.029 A 
ATOM     44  N   UNL A   1      40.161  29.141  29.903  1.00  0.00    -0.354 N 
ATOM     45  C   UNL A   1      44.141  28.606  27.730  1.00  0.00     0.074 A 
ATOM     46  C   UNL A   1      43.587  28.227  26.458  1.00  0.00     0.031 C 
ATOM     47  C   UNL A   1      38.055  28.497  30.287  1.00  0.00     0.029 A 
ATOM     48  C   UNL A   1      38.949  29.640  30.364  1.00  0.00     0.049 A 
ATOM     49  H   UNL A   1      40.999  29.657  29.936  1.00  0.00     0.167 HD
ATOM     50  C   UNL A   1      45.046  29.566  28.058  1.00  0.00     0.037 A 
ATOM     51  C   UNL A   1      38.698  30.916  30.741  1.00  0.00     0.037 A 
ATOM     52  C   UNL A   1      45.225  29.636  29.485  1.00  0.00     0.049 A 
ATOM     53  C   UNL A   1      39.992  31.536  31.103  1.00  0.00     0.074 A 
ATOM     54  C   UNL A   1      45.867  28.892  30.449  1.00  0.00     0.029 A 
ATOM     55  N   UNL A   1      44.303  30.425  30.121  1.00  0.00    -0.354 N 
ATOM     56  N   UNL A   1      40.694  31.163  32.138  1.00  0.00    -0.248 NA
ATOM     57  C   UNL A   1      40.717  32.323  30.111  1.00  0.00     0.031 C 
ATOM     58  C   UNL A   1      45.169  29.135  31.670  1.00  0.00     0.029 A 
ATOM     59  C   UNL A   1      44.142  30.045  31.426  1.00  0.00     0.049 A 
ATOM     60  H   UNL A   1      43.819  31.168  29.696  1.00  0.00     0.167 HD
ATOM     61  C   UNL A   1      42.007  31.286  31.725  1.00  0.00     0.074 A 
ATOM     62  C   UNL A   1      41.965  32.164  30.563  1.00  0.00     0.031 C 
ATOM     63  C   UNL A   1      42.955  30.410  32.164  1.00  0.00     0.037 A 
BRANCH  50  64
ATOM     64  C   UNL A   1      45.347  30.762  27.183  1.00  0.00     0.064 A 
ATOM     65  C   UNL A   1      46.689  31.157  27.011  1.00  0.00     0.173 A 
ATOM     66  C   UNL A   1      44.380  31.715  26.794  1.00  0.00     0.173 A 
ATOM     67  F   UNL A   1      47.690  30.341  27.377  1.00  0.00    -0.203 F 
ATOM     68  C   UNL A   1      47.029  32.432  26.551  1.00  0.00     0.198 A 
ATOM     69  C   UNL A   1      44.723  32.965  26.284  1.00  0.00     0.198 A 
ATOM     70  F   UNL A   1      43.071  31.534  26.999  1.00  0.00    -0.203 F 
ATOM     71  F   UNL A   1      48.316  32.807  26.520  1.00  0.00    -0.200 F 
ATOM     72  C   UNL A   1      46.047  33.336  26.192  1.00  0.00     0.200 A 
ATOM     73  F   UNL A   1      43.754  33.835  25.970  1.00  0.00    -0.200 F 
ATOM     74  F   UNL A   1      46.368  34.578  25.807  1.00  0.00    -0.200 F 
ENDBRANCH  50  64
BRANCH  51  75
ATOM     75  C   UNL A   1      37.453  31.695  30.556  1.00  0.00     0.064 A 
ATOM     76  C   UNL A   1      36.857  32.395  31.617  1.00  0.00     0.173 A 
ATOM     77  C   UNL A   1      36.976  31.987  29.264  1.00  0.00     0.173 A 
ATOM     78  F   UNL A   1      37.287  32.211  32.872  1.00  0.00    -0.203 F 
ATOM     79  C   UNL A   1      35.854  33.347  31.393  1.00  0.00     0.198 A 
ATOM     80  C   UNL A   1      35.975  32.934  29.042  1.00  0.00     0.198 A 
ATOM     81  F   UNL A   1      37.541  31.430  28.182  1.00  0.00    -0.203 F 
ATOM     82  F   UNL A   1      35.348  34.040  32.423  1.00  0.00    -0.200 F 
ATOM     83  C   UNL A   1      35.422  33.623  30.106  1.00  0.00     0.200 A 
ATOM     84  F   UNL A   1      35.598  33.221  27.788  1.00  0.00    -0.200 F 
ATOM     85  F   UNL A   1      34.509  34.578  29.885  1.00  0.00    -0.200 F 
ENDBRANCH  51  75
BRANCH  63  86
ATOM     86  C   UNL A   1      42.647  29.653  33.418  1.00  0.00     0.064 A 
ATOM     87  C   UNL A   1      42.820  30.166  34.713  1.00  0.00     0.173 A 
ATOM     88  C   UNL A   1      42.080  28.378  33.295  1.00  0.00     0.173 A 
ATOM     89  F   UNL A   1      43.281  31.408  34.905  1.00  0.00    -0.203 F 
ATOM     90  C   UNL A   1      42.478  29.415  35.836  1.00  0.00     0.198 A 
ATOM     91  C   UNL A   1      41.707  27.644  34.415  1.00  0.00     0.198 A 
ATOM     92  F   UNL A   1      41.852  27.861  32.077  1.00  0.00    -0.203 F 
ATOM     93  F   UNL A   1      42.669  29.917  37.065  1.00  0.00    -0.200 F 
ATOM     94  C   UNL A   1      41.917  28.157  35.686  1.00  0.00     0.200 A 
ATOM     95  F   UNL A   1      41.126  26.448  34.263  1.00  0.00    -0.200 F 
ATOM     96  F   UNL A   1      41.557  27.447  36.764  1.00  0.00    -0.200 F 
ENDBRANCH  63  86
ENDBRANCH  37  38
ENDBRANCH  30  32
ENDBRANCH  29  30
ENDBRANCH  28  29
ENDBRANCH  27  28
ENDBRANCH  26  27
ENDBRANCH  25  26
ENDBRANCH   1  25
TORSDOF 21
ENDMDL
MODEL 2
REMARK VINA RESULT:     -10.2      3.013      8.679
REMARK SMILES Cc1nsc(NC(=O)CC[C@H](C)CC[NH3+])c1C(=O)OCCOCCOC(=O)c1ccc(-c2c3nc(c(-c4c(F)c(F)c(F)c(F)c4F)c4ccc([nH]4)c(-c4c(F)c(F)c(F)c(F)c4F)c4nc(c(-c5c(F)c(F)c(F)c(F)c5F)c5ccc2[nH]5)C=C4)C=C3)cc1
REMARK SMILES IDX 20 1 19 2 17 3 18 4 16 5 1 6 2 7 3 8 4 9 5 10 6 11 7 12 8 14
REMARK SMILES IDX 9 15 10 16 11 17 12 18 13 19 14 20 15 21 21 25 22 26 23 27
REMARK SMILES IDX 24 28 25 29 26 30 27 31 28 32 29 33 90 34 30 35 89 36 31 37
REMARK SMILES IDX 32 38 33 39 83 40 34 41 88 42 82 43 84 44 35 45 87 46 81 47
REMARK SMILES IDX 80 48 36 50 68 51 48 52 67 53 49 54 52 55 66 56 85 57 50 58
REMARK SMILES IDX 51 59 65 61 86 62 53 63 37 64 38 65 46 66 39 67 40 68 44 69
REMARK SMILES IDX 47 70 41 71 42 72 45 73 43 74 69 75 70 76 78 77 71 78 72 79
REMARK SMILES IDX 76 80 79 81 73 82 74 83 77 84 75 85 54 86 55 87 63 88 56 89
REMARK SMILES IDX 57 90 61 91 64 92 58 93 59 94 62 95 60 96
REMARK H PARENT 6 13 15 22 15 23 15 24 84 49 52 60
REMARK Flexibility Score: inf
ROOT
ATOM      1  C   UNL A   1      34.123  26.815  25.363  1.00  0.00     0.261 C 
ENDROOT
BRANCH   1   2
ATOM      2  O   UNL A   1      33.488  25.527  25.438  1.00  0.00    -0.460 OA
BRANCH   2   3
ATOM      3  C   UNL A   1      34.305  24.469  25.167  1.00  0.00     0.343 C 
ATOM      4  O   UNL A   1      35.504  24.439  25.408  1.00  0.00    -0.246 OA
BRANCH   3   5
ATOM      5  C   UNL A   1      33.615  23.330  24.588  1.00  0.00     0.117 A 
ATOM      6  C   UNL A   1      34.098  21.397  26.310  1.00  0.00     0.069 C 
ATOM      7  C   UNL A   1      33.427  22.000  25.123  1.00  0.00     0.068 A 
ATOM      8  N   UNL A   1      32.587  21.220  24.439  1.00  0.00    -0.195 NA
ATOM      9  S   UNL A   1      32.081  22.042  23.099  1.00  0.00    -0.017 S 
ATOM     10  C   UNL A   1      33.163  23.328  23.272  1.00  0.00     0.130 A 
BRANCH  10  11
ATOM     11  N   UNL A   1      33.499  24.214  22.265  1.00  0.00    -0.316 N 
ATOM     12  C   UNL A   1      32.777  25.224  21.689  1.00  0.00     0.225 C 
ATOM     13  H   UNL A   1      34.407  24.099  21.902  1.00  0.00     0.170 HD
ATOM     14  O   UNL A   1      33.207  25.660  20.613  1.00  0.00    -0.275 OA
BRANCH  12  15
ATOM     15  C   UNL A   1      31.475  25.798  22.234  1.00  0.00     0.101 C 
BRANCH  15  16
ATOM     16  C   UNL A   1      31.597  27.122  23.018  1.00  0.00     0.013 C 
BRANCH  16  17
ATOM     17  C   UNL A   1      30.429  27.557  23.949  1.00  0.00    -0.008 C 
ATOM     18  C   UNL A   1      30.102  26.477  24.983  1.00  0.00     0.008 C 
BRANCH  17  19
ATOM     19  C   UNL A   1      29.234  28.084  23.135  1.00  0.00     0.064 C 
BRANCH  19  20
ATOM     20  C   UNL A   1      29.155  29.579  22.829  1.00  0.00     0.259 C 
BRANCH  20  21
ATOM     21  N   UNL A   1      29.937  30.376  23.759  1.00  0.00    -0.358 N 
ATOM     22  H   UNL A   1      30.128  31.289  23.345  1.00  0.00     0.344 HD
ATOM     23  H   UNL A   1      30.817  29.900  23.957  1.00  0.00     0.344 HD
ATOM     24  H   UNL A   1      29.414  30.499  24.625  1.00  0.00     0.344 HD
ENDBRANCH  20  21
ENDBRANCH  19  20
ENDBRANCH  17  19
ENDBRANCH  16  17
ENDBRANCH  15  16
ENDBRANCH  12  15
ENDBRANCH  10  11
ENDBRANCH   3   5
ENDBRANCH   2   3
ENDBRANCH   1   2
BRANCH   1  25
ATOM     25  C   UNL A   1      33.690  27.741  26.499  1.00  0.00     0.202 C 
BRANCH  25  26
ATOM     26  O   UNL A   1      33.977  29.122  26.294  1.00  0.00    -0.374 OA
BRANCH  26  27
ATOM     27  C   UNL A   1      32.969  30.066  26.660  1.00  0.00     0.202 C 
BRANCH  27  28
ATOM     28  C   UNL A   1      33.487  31.356  27.278  1.00  0.00     0.261 C 
BRANCH  28  29
ATOM     29  O   UNL A   1      34.501  31.059  28.233  1.00  0.00    -0.460 OA
BRANCH  29  30
ATOM     30  C   UNL A   1      35.634  31.791  28.143  1.00  0.00     0.338 C 
ATOM     31  O   UNL A   1      35.796  32.841  27.566  1.00  0.00    -0.246 OA
BRANCH  30  32
ATOM     32  C   UNL A   1      36.700  31.032  28.812  1.00  0.00     0.060 A 
ATOM     33  C   UNL A   1      37.801  31.762  29.262  1.00  0.00     0.016 A 
ATOM     34  C   UNL A   1      36.703  29.627  28.785  1.00  0.00     0.016 A 
ATOM     35  C   UNL A   1      38.982  31.090  29.480  1.00  0.00     0.010 A 
ATOM     36  C   UNL A   1      37.882  28.957  29.000  1.00  0.00     0.010 A 
ATOM     37  C   UNL A   1      39.023  29.708  29.256  1.00  0.00    -0.014 A 
BRANCH  37  38
ATOM     38  C   UNL A   1      40.300  29.041  29.372  1.00  0.00     0.031 A 
ATOM     39  C   UNL A   1      40.735  28.903  30.773  1.00  0.00     0.074 A 
ATOM     40  C   UNL A   1      40.957  28.556  28.302  1.00  0.00     0.049 A 
ATOM     41  N   UNL A   1      41.711  29.520  31.349  1.00  0.00    -0.248 NA
ATOM     42  C   UNL A   1      39.881  28.137  31.693  1.00  0.00     0.031 C 
ATOM     43  C   UNL A   1      40.466  28.446  26.924  1.00  0.00     0.029 A 
ATOM     44  N   UNL A   1      42.188  27.976  28.239  1.00  0.00    -0.354 N 
ATOM     45  C   UNL A   1      41.729  29.045  32.655  1.00  0.00     0.074 A 
ATOM     46  C   UNL A   1      40.480  28.364  32.863  1.00  0.00     0.031 C 
ATOM     47  C   UNL A   1      41.293  27.644  26.217  1.00  0.00     0.029 A 
ATOM     48  C   UNL A   1      42.437  27.307  27.047  1.00  0.00     0.049 A 
ATOM     49  H   UNL A   1      42.843  28.026  28.971  1.00  0.00     0.167 HD
ATOM     50  C   UNL A   1      42.906  28.976  33.331  1.00  0.00     0.037 A 
ATOM     51  C   UNL A   1      43.493  26.500  26.785  1.00  0.00     0.037 A 
ATOM     52  C   UNL A   1      43.914  29.781  32.691  1.00  0.00     0.049 A 
ATOM     53  C   UNL A   1      44.577  26.870  27.721  1.00  0.00     0.074 A 
ATOM     54  C   UNL A   1      44.205  31.123  32.591  1.00  0.00     0.029 A 
ATOM     55  N   UNL A   1      44.572  29.140  31.675  1.00  0.00    -0.354 N 
ATOM     56  N   UNL A   1      45.195  28.019  27.676  1.00  0.00    -0.248 NA
ATOM     57  C   UNL A   1      44.742  26.125  28.966  1.00  0.00     0.031 C 
ATOM     58  C   UNL A   1      44.921  31.284  31.367  1.00  0.00     0.029 A 
ATOM     59  C   UNL A   1      45.075  30.034  30.770  1.00  0.00     0.049 A 
ATOM     60  H   UNL A   1      44.671  28.164  31.605  1.00  0.00     0.167 HD
ATOM     61  C   UNL A   1      45.447  28.326  29.000  1.00  0.00     0.074 A 
ATOM     62  C   UNL A   1      45.319  27.066  29.720  1.00  0.00     0.031 C 
ATOM     63  C   UNL A   1      45.414  29.620  29.428  1.00  0.00     0.037 A 
BRANCH  50  64
ATOM     64  C   UNL A   1      43.294  27.810  34.212  1.00  0.00     0.064 A 
ATOM     65  C   UNL A   1      43.486  26.545  33.619  1.00  0.00     0.173 A 
ATOM     66  C   UNL A   1      43.156  27.807  35.618  1.00  0.00     0.173 A 
ATOM     67  F   UNL A   1      43.599  26.428  32.287  1.00  0.00    -0.203 F 
ATOM     68  C   UNL A   1      43.471  25.368  34.373  1.00  0.00     0.198 A 
ATOM     69  C   UNL A   1      43.195  26.635  36.371  1.00  0.00     0.198 A 
ATOM     70  F   UNL A   1      42.856  28.910  36.312  1.00  0.00    -0.203 F 
ATOM     71  F   UNL A   1      43.534  24.181  33.754  1.00  0.00    -0.200 F 
ATOM     72  C   UNL A   1      43.322  25.414  35.747  1.00  0.00     0.200 A 
ATOM     73  F   UNL A   1      43.020  26.702  37.698  1.00  0.00    -0.200 F 
ATOM     74  F   UNL A   1      43.247  24.286  36.464  1.00  0.00    -0.200 F 
ENDBRANCH  50  64
BRANCH  51  75
ATOM     75  C   UNL A   1      43.522  25.272  25.960  1.00  0.00     0.064 A 
ATOM     76  C   UNL A   1      44.615  24.964  25.135  1.00  0.00     0.173 A 
ATOM     77  C   UNL A   1      42.589  24.240  26.180  1.00  0.00     0.173 A 
ATOM     78  F   UNL A   1      45.572  25.875  24.915  1.00  0.00    -0.203 F 
ATOM     79  C   UNL A   1      44.773  23.690  24.576  1.00  0.00     0.198 A 
ATOM     80  C   UNL A   1      42.747  22.971  25.621  1.00  0.00     0.198 A 
ATOM     81  F   UNL A   1      41.558  24.414  27.020  1.00  0.00    -0.203 F 
ATOM     82  F   UNL A   1      45.859  23.412  23.840  1.00  0.00    -0.200 F 
ATOM     83  C   UNL A   1      43.845  22.692  24.828  1.00  0.00     0.200 A 
ATOM     84  F   UNL A   1      41.864  22.004  25.909  1.00  0.00    -0.200 F 
ATOM     85  F   UNL A   1      44.029  21.455  24.347  1.00  0.00    -0.200 F 
ENDBRANCH  51  75
BRANCH  63  86
ATOM     86  C   UNL A   1      45.571  30.682  28.384  1.00  0.00     0.064 A 
ATOM     87  C   UNL A   1      44.502  31.281  27.699  1.00  0.00     0.173 A 
ATOM     88  C   UNL A   1      46.860  31.163  28.123  1.00  0.00     0.173 A 
ATOM     89  F   UNL A   1      43.236  30.927  27.956  1.00  0.00    -0.203 F 
ATOM     90  C   UNL A   1      44.721  32.290  26.764  1.00  0.00     0.198 A 
ATOM     91  C   UNL A   1      47.075  32.194  27.215  1.00  0.00     0.198 A 
ATOM     92  F   UNL A   1      47.912  30.655  28.785  1.00  0.00    -0.203 F 
ATOM     93  F   UNL A   1      43.687  32.836  26.107  1.00  0.00    -0.200 F 
ATOM     94  C   UNL A   1      46.007  32.749  26.527  1.00  0.00     0.200 A 
ATOM     95  F   UNL A   1      48.314  32.663  27.022  1.00  0.00    -0.200 F 
ATOM     96  F   UNL A   1      46.217  33.742  25.651  1.00  0.00    -0.200 F 
ENDBRANCH  63  86
ENDBRANCH  37  38
ENDBRANCH  30  32
ENDBRANCH  29  30
ENDBRANCH  28  29
ENDBRANCH  27  28
ENDBRANCH  26  27
ENDBRANCH  25  26
ENDBRANCH   1  25
TORSDOF 21
ENDMDL
MODEL 3
REMARK VINA RESULT:     -10.2      3.099      8.330
REMARK SMILES Cc1nsc(NC(=O)CC[C@H](C)CC[NH3+])c1C(=O)OCCOCCOC(=O)c1ccc(-c2c3nc(c(-c4c(F)c(F)c(F)c(F)c4F)c4ccc([nH]4)c(-c4c(F)c(F)c(F)c(F)c4F)c4nc(c(-c5c(F)c(F)c(F)c(F)c5F)c5ccc2[nH]5)C=C4)C=C3)cc1
REMARK SMILES IDX 20 1 19 2 17 3 18 4 16 5 1 6 2 7 3 8 4 9 5 10 6 11 7 12 8 14
REMARK SMILES IDX 9 15 10 16 11 17 12 18 13 19 14 20 15 21 21 25 22 26 23 27
REMARK SMILES IDX 24 28 25 29 26 30 27 31 28 32 29 33 90 34 30 35 89 36 31 37
REMARK SMILES IDX 32 38 33 39 83 40 34 41 88 42 82 43 84 44 35 45 87 46 81 47
REMARK SMILES IDX 80 48 36 50 68 51 48 52 67 53 49 54 52 55 66 56 85 57 50 58
REMARK SMILES IDX 51 59 65 61 86 62 53 63 37 64 38 65 46 66 39 67 40 68 44 69
REMARK SMILES IDX 47 70 41 71 42 72 45 73 43 74 69 75 70 76 78 77 71 78 72 79
REMARK SMILES IDX 76 80 79 81 73 82 74 83 77 84 75 85 54 86 55 87 63 88 56 89
REMARK SMILES IDX 57 90 61 91 64 92 58 93 59 94 62 95 60 96
REMARK H PARENT 6 13 15 22 15 23 15 24 84 49 52 60
REMARK Flexibility Score: inf
ROOT
ATOM      1  C   UNL A   1      33.598  26.767  25.804  1.00  0.00     0.261 C 
ENDROOT
BRANCH   1   2
ATOM      2  O   UNL A   1      32.732  25.632  25.984  1.00  0.00    -0.460 OA
BRANCH   2   3
ATOM      3  C   UNL A   1      31.482  25.777  25.461  1.00  0.00     0.343 C 
ATOM      4  O   UNL A   1      30.444  25.668  26.100  1.00  0.00    -0.246 OA
BRANCH   3   5
ATOM      5  C   UNL A   1      31.475  26.118  24.049  1.00  0.00     0.117 A 
ATOM      6  C   UNL A   1      30.572  28.593  24.036  1.00  0.00     0.069 C 
ATOM      7  C   UNL A   1      31.176  27.381  23.411  1.00  0.00     0.068 A 
ATOM      8  N   UNL A   1      31.434  27.438  22.102  1.00  0.00    -0.195 NA
ATOM      9  S   UNL A   1      31.956  25.952  21.606  1.00  0.00    -0.017 S 
ATOM     10  C   UNL A   1      31.598  25.155  23.052  1.00  0.00     0.130 A 
BRANCH  10  11
ATOM     11  N   UNL A   1      31.478  23.785  23.187  1.00  0.00    -0.316 N 
ATOM     12  C   UNL A   1      32.426  22.799  23.150  1.00  0.00     0.225 C 
ATOM     13  H   UNL A   1      30.558  23.465  23.333  1.00  0.00     0.170 HD
ATOM     14  O   UNL A   1      32.009  21.642  22.998  1.00  0.00    -0.275 OA
BRANCH  12  15
ATOM     15  C   UNL A   1      33.932  23.022  23.219  1.00  0.00     0.101 C 
BRANCH  15  16
ATOM     16  C   UNL A   1      34.563  22.943  24.626  1.00  0.00     0.013 C 
BRANCH  16  17
ATOM     17  C   UNL A   1      34.801  21.547  25.268  1.00  0.00    -0.008 C 
ATOM     18  C   UNL A   1      34.373  21.524  26.738  1.00  0.00     0.008 C 
BRANCH  17  19
ATOM     19  C   UNL A   1      36.223  21.036  24.980  1.00  0.00     0.064 C 
BRANCH  19  20
ATOM     20  C   UNL A   1      37.269  22.025  24.467  1.00  0.00     0.259 C 
BRANCH  20  21
ATOM     21  N   UNL A   1      38.366  22.204  25.403  1.00  0.00    -0.358 N 
ATOM     22  H   UNL A   1      38.728  21.292  25.681  1.00  0.00     0.344 HD
ATOM     23  H   UNL A   1      38.031  22.704  26.227  1.00  0.00     0.344 HD
ATOM     24  H   UNL A   1      39.109  22.743  24.957  1.00  0.00     0.344 HD
ENDBRANCH  20  21
ENDBRANCH  19  20
ENDBRANCH  17  19
ENDBRANCH  16  17
ENDBRANCH  15  16
ENDBRANCH  12  15
ENDBRANCH  10  11
ENDBRANCH   3   5
ENDBRANCH   2   3
ENDBRANCH   1   2
BRANCH   1  25
ATOM     25  C   UNL A   1      33.295  27.889  26.797  1.00  0.00     0.202 C 
BRANCH  25  26
ATOM     26  O   UNL A   1      33.655  29.196  26.357  1.00  0.00    -0.374 OA
BRANCH  26  27
ATOM     27  C   UNL A   1      32.750  30.261  26.648  1.00  0.00     0.202 C 
BRANCH  27  28
ATOM     28  C   UNL A   1      33.374  31.474  27.320  1.00  0.00     0.261 C 
BRANCH  28  29
ATOM     29  O   UNL A   1      34.428  31.057  28.182  1.00  0.00    -0.460 OA
BRANCH  29  30
ATOM     30  C   UNL A   1      35.560  31.794  28.136  1.00  0.00     0.338 C 
ATOM     31  O   UNL A   1      35.733  32.858  27.589  1.00  0.00    -0.246 OA
BRANCH  30  32
ATOM     32  C   UNL A   1      36.615  31.020  28.809  1.00  0.00     0.060 A 
ATOM     33  C   UNL A   1      37.708  31.740  29.293  1.00  0.00     0.016 A 
ATOM     34  C   UNL A   1      36.617  29.617  28.754  1.00  0.00     0.016 A 
ATOM     35  C   UNL A   1      38.883  31.063  29.519  1.00  0.00     0.010 A 
ATOM     36  C   UNL A   1      37.791  28.941  28.977  1.00  0.00     0.010 A 
ATOM     37  C   UNL A   1      38.928  29.685  29.268  1.00  0.00    -0.014 A 
BRANCH  37  38
ATOM     38  C   UNL A   1      40.202  29.016  29.394  1.00  0.00     0.031 A 
ATOM     39  C   UNL A   1      40.636  28.895  30.798  1.00  0.00     0.074 A 
ATOM     40  C   UNL A   1      40.858  28.514  28.331  1.00  0.00     0.049 A 
ATOM     41  N   UNL A   1      41.614  29.516  31.365  1.00  0.00    -0.248 NA
ATOM     42  C   UNL A   1      39.778  28.145  31.727  1.00  0.00     0.031 C 
ATOM     43  C   UNL A   1      40.367  28.387  26.954  1.00  0.00     0.029 A 
ATOM     44  N   UNL A   1      42.086  27.928  28.277  1.00  0.00    -0.354 N 
ATOM     45  C   UNL A   1      41.630  29.059  32.677  1.00  0.00     0.074 A 
ATOM     46  C   UNL A   1      40.377  28.385  32.894  1.00  0.00     0.031 C 
ATOM     47  C   UNL A   1      41.191  27.572  26.259  1.00  0.00     0.029 A 
ATOM     48  C   UNL A   1      42.334  27.242  27.095  1.00  0.00     0.049 A 
ATOM     49  H   UNL A   1      42.741  27.985  29.009  1.00  0.00     0.167 HD
ATOM     50  C   UNL A   1      42.805  28.994  33.355  1.00  0.00     0.037 A 
ATOM     51  C   UNL A   1      43.387  26.427  26.844  1.00  0.00     0.037 A 
ATOM     52  C   UNL A   1      43.817  29.786  32.705  1.00  0.00     0.049 A 
ATOM     53  C   UNL A   1      44.472  26.806  27.776  1.00  0.00     0.074 A 
ATOM     54  C   UNL A   1      44.114  31.126  32.588  1.00  0.00     0.029 A 
ATOM     55  N   UNL A   1      44.474  29.130  31.698  1.00  0.00    -0.354 N 
ATOM     56  N   UNL A   1      45.094  27.952  27.715  1.00  0.00    -0.248 NA
ATOM     57  C   UNL A   1      44.633  26.077  29.030  1.00  0.00     0.031 C 
ATOM     58  C   UNL A   1      44.831  31.267  31.361  1.00  0.00     0.029 A 
ATOM     59  C   UNL A   1      44.981  30.009  30.781  1.00  0.00     0.049 A 
ATOM     60  H   UNL A   1      44.568  28.152  31.641  1.00  0.00     0.167 HD
ATOM     61  C   UNL A   1      45.347  28.276  29.035  1.00  0.00     0.074 A 
ATOM     62  C   UNL A   1      45.213  27.026  29.772  1.00  0.00     0.031 C 
ATOM     63  C   UNL A   1      45.318  29.576  29.445  1.00  0.00     0.037 A 
BRANCH  50  64
ATOM     64  C   UNL A   1      43.189  27.838  34.252  1.00  0.00     0.064 A 
ATOM     65  C   UNL A   1      43.391  26.569  33.675  1.00  0.00     0.173 A 
ATOM     66  C   UNL A   1      43.037  27.850  35.657  1.00  0.00     0.173 A 
ATOM     67  F   UNL A   1      43.517  26.438  32.345  1.00  0.00    -0.203 F 
ATOM     68  C   UNL A   1      43.372  25.400  34.441  1.00  0.00     0.198 A 
ATOM     69  C   UNL A   1      43.072  26.687  36.423  1.00  0.00     0.198 A 
ATOM     70  F   UNL A   1      42.727  28.959  36.336  1.00  0.00    -0.203 F 
ATOM     71  F   UNL A   1      43.444  24.206  33.835  1.00  0.00    -0.200 F 
ATOM     72  C   UNL A   1      43.209  25.459  35.812  1.00  0.00     0.200 A 
ATOM     73  F   UNL A   1      42.884  26.766  37.747  1.00  0.00    -0.200 F 
ATOM     74  F   UNL A   1      43.131  24.338  36.541  1.00  0.00    -0.200 F 
ENDBRANCH  50  64
BRANCH  51  75
ATOM     75  C   UNL A   1      43.411  25.188  26.036  1.00  0.00     0.064 A 
ATOM     76  C   UNL A   1      44.478  24.892  25.173  1.00  0.00     0.173 A 
ATOM     77  C   UNL A   1      42.511  24.140  26.306  1.00  0.00     0.173 A 
ATOM     78  F   UNL A   1      45.406  25.820  24.904  1.00  0.00    -0.203 F 
ATOM     79  C   UNL A   1      44.643  23.613  24.627  1.00  0.00     0.198 A 
ATOM     80  C   UNL A   1      42.675  22.866  25.759  1.00  0.00     0.198 A 
ATOM     81  F   UNL A   1      41.510  24.304  27.183  1.00  0.00    -0.203 F 
ATOM     82  F   UNL A   1      45.706  23.348  23.853  1.00  0.00    -0.200 F 
ATOM     83  C   UNL A   1      43.748  22.599  24.929  1.00  0.00     0.200 A 
ATOM     84  F   UNL A   1      41.826  21.884  26.095  1.00  0.00    -0.200 F 
ATOM     85  F   UNL A   1      43.941  21.360  24.458  1.00  0.00    -0.200 F 
ENDBRANCH  51  75
BRANCH  63  86
ATOM     86  C   UNL A   1      45.480  30.622  28.387  1.00  0.00     0.064 A 
ATOM     87  C   UNL A   1      44.413  31.222  27.700  1.00  0.00     0.173 A 
ATOM     88  C   UNL A   1      46.772  31.089  28.115  1.00  0.00     0.173 A 
ATOM     89  F   UNL A   1      43.146  30.883  27.966  1.00  0.00    -0.203 F 
ATOM     90  C   UNL A   1      44.638  32.217  26.750  1.00  0.00     0.198 A 
ATOM     91  C   UNL A   1      46.992  32.106  27.193  1.00  0.00     0.198 A 
ATOM     92  F   UNL A   1      47.822  30.580  28.778  1.00  0.00    -0.203 F 
ATOM     93  F   UNL A   1      43.605  32.763  26.091  1.00  0.00    -0.200 F 
ATOM     94  C   UNL A   1      45.926  32.661  26.502  1.00  0.00     0.200 A 
ATOM     95  F   UNL A   1      48.234  32.561  26.988  1.00  0.00    -0.200 F 
ATOM     96  F   UNL A   1      46.141  33.642  25.613  1.00  0.00    -0.200 F 
ENDBRANCH  63  86
ENDBRANCH  37  38
ENDBRANCH  30  32
ENDBRANCH  29  30
ENDBRANCH  28  29
ENDBRANCH  27  28
ENDBRANCH  26  27
ENDBRANCH  25  26
ENDBRANCH   1  25
TORSDOF 21
ENDMDL
