MODEL 1
REMARK VINA RESULT:     -11.7      0.000      0.000
REMARK SMILES O=C(OCCOCCOC(=O)[C@@H]1C=C[C@@H](Nc2ccc3ccccc3n2)C1)c1ccc(-c2c3nc(c(-c4c(F)c(F)c(F)c(F)c4F)c4ccc([nH]4)c(-c4c(F)c(F)c(F)c(F)c4F)c4nc(c(-c5c(F)c(F)c(F)c(F)c5F)c5ccc2[nH]5)C=C4)C=C3)cc1
REMARK SMILES IDX 6 1 5 2 4 3 3 4 2 5 1 6 28 7 29 8 90 9 30 10 89 11 31 12
REMARK SMILES IDX 32 13 33 14 83 15 34 16 88 17 82 18 84 19 35 20 87 21 81 22
REMARK SMILES IDX 80 23 36 25 68 26 48 27 67 28 49 29 52 30 66 31 85 32 50 33
REMARK SMILES IDX 51 34 65 36 86 37 53 38 37 39 38 40 46 41 39 42 40 43 44 44
REMARK SMILES IDX 47 45 41 46 42 47 45 48 43 49 69 50 70 51 78 52 71 53 72 54
REMARK SMILES IDX 76 55 79 56 73 57 74 58 77 59 75 60 54 61 55 62 63 63 56 64
REMARK SMILES IDX 57 65 61 66 64 67 58 68 59 69 62 70 60 71 7 72 8 73 9 74
REMARK SMILES IDX 10 75 11 76 12 77 13 78 27 79 14 80 15 81 16 82 17 84 18 85
REMARK SMILES IDX 26 86 19 87 25 88 20 89 24 90 21 91 23 92 22 93
REMARK H PARENT 84 24 52 35 16 83
REMARK Flexibility Score: inf
ROOT
ATOM      1  O   UNL A   1      33.057  30.510  26.197  1.00  0.00    -0.374 OA
ENDROOT
BRANCH   1   2
ATOM      2  C   UNL A   1      31.676  30.875  26.301  1.00  0.00     0.202 C 
BRANCH   2   3
ATOM      3  C   UNL A   1      31.397  32.271  26.866  1.00  0.00     0.261 C 
BRANCH   3   4
ATOM      4  O   UNL A   1      32.602  33.056  26.880  1.00  0.00    -0.460 OA
BRANCH   4   5
ATOM      5  C   UNL A   1      33.241  33.604  27.939  1.00  0.00     0.338 C 
ATOM      6  O   UNL A   1      32.798  34.646  28.418  1.00  0.00    -0.246 OA
BRANCH   5   7
ATOM      7  C   UNL A   1      34.463  33.014  28.563  1.00  0.00     0.060 A 
ATOM      8  C   UNL A   1      34.510  31.776  29.202  1.00  0.00     0.016 A 
ATOM      9  C   UNL A   1      35.670  33.723  28.419  1.00  0.00     0.016 A 
ATOM     10  C   UNL A   1      35.679  31.289  29.756  1.00  0.00     0.010 A 
ATOM     11  C   UNL A   1      36.872  33.211  28.920  1.00  0.00     0.010 A 
ATOM     12  C   UNL A   1      36.870  31.995  29.608  1.00  0.00    -0.014 A 
BRANCH  12  13
ATOM     13  C   UNL A   1      38.062  31.424  30.256  1.00  0.00     0.031 A 
ATOM     14  C   UNL A   1      38.291  31.702  31.708  1.00  0.00     0.074 A 
ATOM     15  C   UNL A   1      38.782  30.507  29.585  1.00  0.00     0.049 A 
ATOM     16  N   UNL A   1      39.213  31.230  32.503  1.00  0.00    -0.248 NA
ATOM     17  C   UNL A   1      37.337  32.614  32.361  1.00  0.00     0.031 C 
ATOM     18  C   UNL A   1      38.536  30.098  28.198  1.00  0.00     0.029 A 
ATOM     19  N   UNL A   1      39.821  29.713  29.987  1.00  0.00    -0.354 N 
ATOM     20  C   UNL A   1      38.952  31.786  33.746  1.00  0.00     0.074 A 
ATOM     21  C   UNL A   1      37.799  32.645  33.602  1.00  0.00     0.031 C 
ATOM     22  C   UNL A   1      39.372  29.099  27.880  1.00  0.00     0.029 A 
ATOM     23  C   UNL A   1      40.253  28.844  29.014  1.00  0.00     0.049 A 
ATOM     24  H   UNL A   1      40.220  29.760  30.885  1.00  0.00     0.167 HD
ATOM     25  C   UNL A   1      39.627  31.590  34.902  1.00  0.00     0.037 A 
ATOM     26  C   UNL A   1      41.266  27.959  29.040  1.00  0.00     0.037 A 
ATOM     27  C   UNL A   1      40.784  30.744  35.008  1.00  0.00     0.049 A 
ATOM     28  C   UNL A   1      42.057  27.837  30.314  1.00  0.00     0.074 A 
ATOM     29  C   UNL A   1      41.621  30.548  36.090  1.00  0.00     0.029 A 
ATOM     30  N   UNL A   1      41.263  29.944  33.977  1.00  0.00    -0.354 N 
ATOM     31  N   UNL A   1      41.861  28.431  31.469  1.00  0.00    -0.248 NA
ATOM     32  C   UNL A   1      43.215  26.938  30.291  1.00  0.00     0.031 C 
ATOM     33  C   UNL A   1      42.627  29.654  35.702  1.00  0.00     0.029 A 
ATOM     34  C   UNL A   1      42.390  29.259  34.394  1.00  0.00     0.049 A 
ATOM     35  H   UNL A   1      40.858  29.875  33.082  1.00  0.00     0.167 HD
ATOM     36  C   UNL A   1      42.867  27.979  32.308  1.00  0.00     0.074 A 
ATOM     37  C   UNL A   1      43.648  27.028  31.540  1.00  0.00     0.031 C 
ATOM     38  C   UNL A   1      43.137  28.324  33.590  1.00  0.00     0.037 A 
BRANCH  25  39
ATOM     39  C   UNL A   1      39.158  32.354  36.101  1.00  0.00     0.064 A 
ATOM     40  C   UNL A   1      39.625  33.647  36.382  1.00  0.00     0.173 A 
ATOM     41  C   UNL A   1      38.250  31.774  37.000  1.00  0.00     0.173 A 
ATOM     42  F   UNL A   1      40.519  34.232  35.571  1.00  0.00    -0.203 F 
ATOM     43  C   UNL A   1      39.217  34.322  37.531  1.00  0.00     0.198 A 
ATOM     44  C   UNL A   1      37.827  32.461  38.136  1.00  0.00     0.198 A 
ATOM     45  F   UNL A   1      37.783  30.536  36.783  1.00  0.00    -0.203 F 
ATOM     46  F   UNL A   1      39.717  35.535  37.807  1.00  0.00    -0.200 F 
ATOM     47  C   UNL A   1      38.316  33.730  38.404  1.00  0.00     0.200 A 
ATOM     48  F   UNL A   1      36.957  31.887  38.978  1.00  0.00    -0.200 F 
ATOM     49  F   UNL A   1      37.930  34.378  39.512  1.00  0.00    -0.200 F 
ENDBRANCH  25  39
BRANCH  26  50
ATOM     50  C   UNL A   1      41.621  27.180  27.823  1.00  0.00     0.064 A 
ATOM     51  C   UNL A   1      41.106  25.897  27.592  1.00  0.00     0.173 A 
ATOM     52  C   UNL A   1      42.516  27.697  26.872  1.00  0.00     0.173 A 
ATOM     53  F   UNL A   1      40.264  25.343  28.477  1.00  0.00    -0.203 F 
ATOM     54  C   UNL A   1      41.490  25.156  26.474  1.00  0.00     0.198 A 
ATOM     55  C   UNL A   1      42.873  26.971  25.738  1.00  0.00     0.198 A 
ATOM     56  F   UNL A   1      43.046  28.919  27.042  1.00  0.00    -0.203 F 
ATOM     57  F   UNL A   1      41.028  23.909  26.310  1.00  0.00    -0.200 F 
ATOM     58  C   UNL A   1      42.368  25.695  25.547  1.00  0.00     0.200 A 
ATOM     59  F   UNL A   1      43.711  27.504  24.841  1.00  0.00    -0.200 F 
ATOM     60  F   UNL A   1      42.740  24.981  24.475  1.00  0.00    -0.200 F 
ENDBRANCH  26  50
BRANCH  38  61
ATOM     61  C   UNL A   1      44.320  27.661  34.227  1.00  0.00     0.064 A 
ATOM     62  C   UNL A   1      44.200  26.428  34.883  1.00  0.00     0.173 A 
ATOM     63  C   UNL A   1      45.589  28.254  34.157  1.00  0.00     0.173 A 
ATOM     64  F   UNL A   1      43.001  25.833  34.988  1.00  0.00    -0.203 F 
ATOM     65  C   UNL A   1      45.304  25.826  35.476  1.00  0.00     0.198 A 
ATOM     66  C   UNL A   1      46.696  27.633  34.725  1.00  0.00     0.198 A 
ATOM     67  F   UNL A   1      45.753  29.430  33.533  1.00  0.00    -0.203 F 
ATOM     68  F   UNL A   1      45.158  24.673  36.144  1.00  0.00    -0.200 F 
ATOM     69  C   UNL A   1      46.553  26.425  35.391  1.00  0.00     0.200 A 
ATOM     70  F   UNL A   1      47.904  28.208  34.633  1.00  0.00    -0.200 F 
ATOM     71  F   UNL A   1      47.616  25.843  35.960  1.00  0.00    -0.200 F 
ENDBRANCH  38  61
ENDBRANCH  12  13
ENDBRANCH   5   7
ENDBRANCH   4   5
ENDBRANCH   3   4
ENDBRANCH   2   3
ENDBRANCH   1   2
BRANCH   1  72
ATOM     72  C   UNL A   1      33.323  29.259  25.543  1.00  0.00     0.202 C 
BRANCH  72  73
ATOM     73  C   UNL A   1      33.829  28.238  26.568  1.00  0.00     0.261 C 
BRANCH  73  74
ATOM     74  O   UNL A   1      33.174  26.993  26.298  1.00  0.00    -0.463 OA
BRANCH  74  75
ATOM     75  C   UNL A   1      31.863  26.940  26.665  1.00  0.00     0.312 C 
ATOM     76  O   UNL A   1      31.401  27.451  27.680  1.00  0.00    -0.252 OA
BRANCH  75  77
ATOM     77  C   UNL A   1      31.015  26.248  25.600  1.00  0.00     0.124 C 
ATOM     78  C   UNL A   1      30.174  25.143  26.164  1.00  0.00    -0.014 C 
ATOM     79  C   UNL A   1      31.814  25.505  24.523  1.00  0.00     0.048 C 
ATOM     80  C   UNL A   1      30.663  23.942  25.825  1.00  0.00    -0.006 C 
ATOM     81  C   UNL A   1      31.929  24.074  25.045  1.00  0.00     0.104 C 
BRANCH  81  82
ATOM     82  N   UNL A   1      31.982  23.177  23.926  1.00  0.00    -0.364 N 
ATOM     83  H   UNL A   1      31.522  23.397  23.083  1.00  0.00     0.162 HD
BRANCH  82  84
ATOM     84  C   UNL A   1      32.690  22.000  24.052  1.00  0.00     0.127 A 
ATOM     85  C   UNL A   1      33.833  21.982  24.840  1.00  0.00     0.047 A 
ATOM     86  N   UNL A   1      32.209  20.883  23.474  1.00  0.00    -0.231 NA
ATOM     87  C   UNL A   1      34.495  20.775  25.049  1.00  0.00     0.014 A 
ATOM     88  C   UNL A   1      32.861  19.723  23.642  1.00  0.00     0.073 A 
ATOM     89  C   UNL A   1      34.016  19.613  24.439  1.00  0.00     0.000 A 
ATOM     90  C   UNL A   1      32.384  18.583  23.010  1.00  0.00     0.029 A 
ATOM     91  C   UNL A   1      34.648  18.369  24.599  1.00  0.00     0.010 A 
ATOM     92  C   UNL A   1      33.017  17.347  23.152  1.00  0.00     0.002 A 
ATOM     93  C   UNL A   1      34.149  17.239  23.953  1.00  0.00     0.001 A 
ENDBRANCH  82  84
ENDBRANCH  81  82
ENDBRANCH  75  77
ENDBRANCH  74  75
ENDBRANCH  73  74
ENDBRANCH  72  73
ENDBRANCH   1  72
TORSDOF 16
ENDMDL
MODEL 2
REMARK VINA RESULT:     -11.5      1.683      2.574
REMARK SMILES O=C(OCCOCCOC(=O)[C@@H]1C=C[C@@H](Nc2ccc3ccccc3n2)C1)c1ccc(-c2c3nc(c(-c4c(F)c(F)c(F)c(F)c4F)c4ccc([nH]4)c(-c4c(F)c(F)c(F)c(F)c4F)c4nc(c(-c5c(F)c(F)c(F)c(F)c5F)c5ccc2[nH]5)C=C4)C=C3)cc1
REMARK SMILES IDX 6 1 5 2 4 3 3 4 2 5 1 6 28 7 29 8 90 9 30 10 89 11 31 12
REMARK SMILES IDX 32 13 33 14 83 15 34 16 88 17 82 18 84 19 35 20 87 21 81 22
REMARK SMILES IDX 80 23 36 25 68 26 48 27 67 28 49 29 52 30 66 31 85 32 50 33
REMARK SMILES IDX 51 34 65 36 86 37 53 38 37 39 38 40 46 41 39 42 40 43 44 44
REMARK SMILES IDX 47 45 41 46 42 47 45 48 43 49 69 50 70 51 78 52 71 53 72 54
REMARK SMILES IDX 76 55 79 56 73 57 74 58 77 59 75 60 54 61 55 62 63 63 56 64
REMARK SMILES IDX 57 65 61 66 64 67 58 68 59 69 62 70 60 71 7 72 8 73 9 74
REMARK SMILES IDX 10 75 11 76 12 77 13 78 27 79 14 80 15 81 16 82 17 84 18 85
REMARK SMILES IDX 26 86 19 87 25 88 20 89 24 90 21 91 23 92 22 93
REMARK H PARENT 84 24 52 35 16 83
REMARK Flexibility Score: inf
ROOT
ATOM      1  O   UNL A   1      30.561  30.243  24.497  1.00  0.00    -0.374 OA
ENDROOT
BRANCH   1   2
ATOM      2  C   UNL A   1      31.494  29.340  25.100  1.00  0.00     0.202 C 
BRANCH   2   3
ATOM      3  C   UNL A   1      32.801  29.966  25.596  1.00  0.00     0.261 C 
BRANCH   3   4
ATOM      4  O   UNL A   1      32.562  30.759  26.772  1.00  0.00    -0.460 OA
BRANCH   4   5
ATOM      5  C   UNL A   1      33.392  31.638  27.382  1.00  0.00     0.338 C 
ATOM      6  O   UNL A   1      33.064  32.822  27.424  1.00  0.00    -0.246 OA
BRANCH   5   7
ATOM      7  C   UNL A   1      34.690  31.249  28.009  1.00  0.00     0.060 A 
ATOM      8  C   UNL A   1      35.003  29.967  28.458  1.00  0.00     0.016 A 
ATOM      9  C   UNL A   1      35.697  32.229  28.072  1.00  0.00     0.016 A 
ATOM     10  C   UNL A   1      36.229  29.677  29.028  1.00  0.00     0.010 A 
ATOM     11  C   UNL A   1      36.962  31.932  28.589  1.00  0.00     0.010 A 
ATOM     12  C   UNL A   1      37.221  30.652  29.085  1.00  0.00    -0.014 A 
BRANCH  12  13
ATOM     13  C   UNL A   1      38.484  30.271  29.738  1.00  0.00     0.031 A 
ATOM     14  C   UNL A   1      38.745  30.747  31.131  1.00  0.00     0.074 A 
ATOM     15  C   UNL A   1      39.259  29.342  29.147  1.00  0.00     0.049 A 
ATOM     16  N   UNL A   1      39.737  30.459  31.930  1.00  0.00    -0.248 NA
ATOM     17  C   UNL A   1      37.738  31.649  31.716  1.00  0.00     0.031 C 
ATOM     18  C   UNL A   1      38.996  28.742  27.835  1.00  0.00     0.029 A 
ATOM     19  N   UNL A   1      40.381  28.696  29.589  1.00  0.00    -0.354 N 
ATOM     20  C   UNL A   1      39.475  31.143  33.108  1.00  0.00     0.074 A 
ATOM     21  C   UNL A   1      38.244  31.875  32.919  1.00  0.00     0.031 C 
ATOM     22  C   UNL A   1      39.906  27.786  27.599  1.00  0.00     0.029 A 
ATOM     23  C   UNL A   1      40.851  27.752  28.709  1.00  0.00     0.049 A 
ATOM     24  H   UNL A   1      40.809  28.889  30.454  1.00  0.00     0.167 HD
ATOM     25  C   UNL A   1      40.210  31.151  34.243  1.00  0.00     0.037 A 
ATOM     26  C   UNL A   1      41.941  26.967  28.791  1.00  0.00     0.037 A 
ATOM     27  C   UNL A   1      41.443  30.428  34.393  1.00  0.00     0.049 A 
ATOM     28  C   UNL A   1      42.789  27.075  30.029  1.00  0.00     0.074 A 
ATOM     29  C   UNL A   1      42.336  30.441  35.448  1.00  0.00     0.029 A 
ATOM     30  N   UNL A   1      41.952  29.548  33.444  1.00  0.00    -0.354 N 
ATOM     31  N   UNL A   1      42.586  27.790  31.111  1.00  0.00    -0.248 NA
ATOM     32  C   UNL A   1      44.023  26.281  30.057  1.00  0.00     0.031 C 
ATOM     33  C   UNL A   1      43.404  29.595  35.120  1.00  0.00     0.029 A 
ATOM     34  C   UNL A   1      43.152  29.021  33.884  1.00  0.00     0.049 A 
ATOM     35  H   UNL A   1      41.519  29.334  32.586  1.00  0.00     0.167 HD
ATOM     36  C   UNL A   1      43.661  27.534  31.947  1.00  0.00     0.074 A 
ATOM     37  C   UNL A   1      44.495  26.565  31.262  1.00  0.00     0.031 C 
ATOM     38  C   UNL A   1      43.949  28.059  33.163  1.00  0.00     0.037 A 
BRANCH  25  39
ATOM     39  C   UNL A   1      39.721  32.017  35.364  1.00  0.00     0.064 A 
ATOM     40  C   UNL A   1      38.837  31.532  36.339  1.00  0.00     0.173 A 
ATOM     41  C   UNL A   1      40.119  33.359  35.447  1.00  0.00     0.173 A 
ATOM     42  F   UNL A   1      38.401  30.265  36.285  1.00  0.00    -0.203 F 
ATOM     43  C   UNL A   1      38.352  32.367  37.345  1.00  0.00     0.198 A 
ATOM     44  C   UNL A   1      39.650  34.185  36.466  1.00  0.00     0.198 A 
ATOM     45  F   UNL A   1      40.953  33.874  34.532  1.00  0.00    -0.203 F 
ATOM     46  F   UNL A   1      37.467  31.896  38.235  1.00  0.00    -0.200 F 
ATOM     47  C   UNL A   1      38.761  33.690  37.409  1.00  0.00     0.200 A 
ATOM     48  F   UNL A   1      40.046  35.463  36.526  1.00  0.00    -0.200 F 
ATOM     49  F   UNL A   1      38.288  34.493  38.373  1.00  0.00    -0.200 F 
ENDBRANCH  25  39
BRANCH  26  50
ATOM     50  C   UNL A   1      42.317  26.075  27.661  1.00  0.00     0.064 A 
ATOM     51  C   UNL A   1      41.759  24.797  27.514  1.00  0.00     0.173 A 
ATOM     52  C   UNL A   1      43.274  26.476  26.715  1.00  0.00     0.173 A 
ATOM     53  F   UNL A   1      40.857  24.353  28.400  1.00  0.00    -0.203 F 
ATOM     54  C   UNL A   1      42.162  23.950  26.481  1.00  0.00     0.198 A 
ATOM     55  C   UNL A   1      43.650  25.643  25.664  1.00  0.00     0.198 A 
ATOM     56  F   UNL A   1      43.846  27.686  26.808  1.00  0.00    -0.203 F 
ATOM     57  F   UNL A   1      41.656  22.712  26.399  1.00  0.00    -0.200 F 
ATOM     58  C   UNL A   1      43.102  24.375  25.555  1.00  0.00     0.200 A 
ATOM     59  F   UNL A   1      44.549  26.065  24.766  1.00  0.00    -0.200 F 
ATOM     60  F   UNL A   1      43.491  23.558  24.566  1.00  0.00    -0.200 F 
ENDBRANCH  26  50
BRANCH  38  61
ATOM     61  C   UNL A   1      45.212  27.585  33.815  1.00  0.00     0.064 A 
ATOM     62  C   UNL A   1      45.226  26.450  34.639  1.00  0.00     0.173 A 
ATOM     63  C   UNL A   1      46.421  28.258  33.593  1.00  0.00     0.173 A 
ATOM     64  F   UNL A   1      44.088  25.785  34.892  1.00  0.00    -0.203 F 
ATOM     65  C   UNL A   1      46.403  26.024  35.243  1.00  0.00     0.198 A 
ATOM     66  C   UNL A   1      47.602  27.810  34.175  1.00  0.00     0.198 A 
ATOM     67  F   UNL A   1      46.457  29.345  32.807  1.00  0.00    -0.203 F 
ATOM     68  F   UNL A   1      46.386  24.968  36.069  1.00  0.00    -0.200 F 
ATOM     69  C   UNL A   1      47.592  26.700  35.006  1.00  0.00     0.200 A 
ATOM     70  F   UNL A   1      48.752  28.458  33.938  1.00  0.00    -0.200 F 
ATOM     71  F   UNL A   1      48.725  26.286  35.587  1.00  0.00    -0.200 F 
ENDBRANCH  38  61
ENDBRANCH  12  13
ENDBRANCH   5   7
ENDBRANCH   4   5
ENDBRANCH   3   4
ENDBRANCH   2   3
ENDBRANCH   1   2
BRANCH   1  72
ATOM     72  C   UNL A   1      29.761  29.696  23.436  1.00  0.00     0.202 C 
BRANCH  72  73
ATOM     73  C   UNL A   1      30.673  29.181  22.316  1.00  0.00     0.261 C 
BRANCH  73  74
ATOM     74  O   UNL A   1      30.308  27.821  22.053  1.00  0.00    -0.463 OA
BRANCH  74  75
ATOM     75  C   UNL A   1      31.163  26.888  22.556  1.00  0.00     0.312 C 
ATOM     76  O   UNL A   1      32.386  26.984  22.547  1.00  0.00    -0.252 OA
BRANCH  75  77
ATOM     77  C   UNL A   1      30.407  25.745  23.230  1.00  0.00     0.124 C 
ATOM     78  C   UNL A   1      30.038  26.058  24.649  1.00  0.00    -0.014 C 
ATOM     79  C   UNL A   1      31.211  24.451  23.401  1.00  0.00     0.048 C 
ATOM     80  C   UNL A   1      30.807  25.375  25.509  1.00  0.00    -0.006 C 
ATOM     81  C   UNL A   1      31.834  24.564  24.790  1.00  0.00     0.104 C 
BRANCH  81  82
ATOM     82  N   UNL A   1      31.977  23.245  25.341  1.00  0.00    -0.364 N 
ATOM     83  H   UNL A   1      31.198  22.765  25.701  1.00  0.00     0.162 HD
BRANCH  82  84
ATOM     84  C   UNL A   1      33.228  22.665  25.353  1.00  0.00     0.127 A 
ATOM     85  C   UNL A   1      33.354  21.325  25.015  1.00  0.00     0.047 A 
ATOM     86  N   UNL A   1      34.303  23.434  25.615  1.00  0.00    -0.231 NA
ATOM     87  C   UNL A   1      34.623  20.761  24.931  1.00  0.00     0.014 A 
ATOM     88  C   UNL A   1      35.527  22.889  25.572  1.00  0.00     0.073 A 
ATOM     89  C   UNL A   1      35.744  21.544  25.220  1.00  0.00     0.000 A 
ATOM     90  C   UNL A   1      36.627  23.676  25.884  1.00  0.00     0.029 A 
ATOM     91  C   UNL A   1      37.050  21.028  25.168  1.00  0.00     0.010 A 
ATOM     92  C   UNL A   1      37.926  23.165  25.850  1.00  0.00     0.002 A 
ATOM     93  C   UNL A   1      38.138  21.840  25.486  1.00  0.00     0.001 A 
ENDBRANCH  82  84
ENDBRANCH  81  82
ENDBRANCH  75  77
ENDBRANCH  74  75
ENDBRANCH  73  74
ENDBRANCH  72  73
ENDBRANCH   1  72
TORSDOF 16
ENDMDL
MODEL 3
REMARK VINA RESULT:     -11.5      1.413      2.044
REMARK SMILES O=C(OCCOCCOC(=O)[C@@H]1C=C[C@@H](Nc2ccc3ccccc3n2)C1)c1ccc(-c2c3nc(c(-c4c(F)c(F)c(F)c(F)c4F)c4ccc([nH]4)c(-c4c(F)c(F)c(F)c(F)c4F)c4nc(c(-c5c(F)c(F)c(F)c(F)c5F)c5ccc2[nH]5)C=C4)C=C3)cc1
REMARK SMILES IDX 6 1 5 2 4 3 3 4 2 5 1 6 28 7 29 8 90 9 30 10 89 11 31 12
REMARK SMILES IDX 32 13 33 14 83 15 34 16 88 17 82 18 84 19 35 20 87 21 81 22
REMARK SMILES IDX 80 23 36 25 68 26 48 27 67 28 49 29 52 30 66 31 85 32 50 33
REMARK SMILES IDX 51 34 65 36 86 37 53 38 37 39 38 40 46 41 39 42 40 43 44 44
REMARK SMILES IDX 47 45 41 46 42 47 45 48 43 49 69 50 70 51 78 52 71 53 72 54
REMARK SMILES IDX 76 55 79 56 73 57 74 58 77 59 75 60 54 61 55 62 63 63 56 64
REMARK SMILES IDX 57 65 61 66 64 67 58 68 59 69 62 70 60 71 7 72 8 73 9 74
REMARK SMILES IDX 10 75 11 76 12 77 13 78 27 79 14 80 15 81 16 82 17 84 18 85
REMARK SMILES IDX 26 86 19 87 25 88 20 89 24 90 21 91 23 92 22 93
REMARK H PARENT 84 24 52 35 16 83
REMARK Flexibility Score: inf
ROOT
ATOM      1  O   UNL A   1      30.978  29.435  24.908  1.00  0.00    -0.374 OA
ENDROOT
BRANCH   1   2
ATOM      2  C   UNL A   1      32.219  28.779  25.188  1.00  0.00     0.202 C 
BRANCH   2   3
ATOM      3  C   UNL A   1      33.358  29.685  25.665  1.00  0.00     0.261 C 
BRANCH   3   4
ATOM      4  O   UNL A   1      32.844  30.743  26.491  1.00  0.00    -0.460 OA
BRANCH   4   5
ATOM      5  C   UNL A   1      33.518  31.565  27.330  1.00  0.00     0.338 C 
ATOM      6  O   UNL A   1      33.061  32.685  27.548  1.00  0.00    -0.246 OA
BRANCH   5   7
ATOM      7  C   UNL A   1      34.793  31.186  28.009  1.00  0.00     0.060 A 
ATOM      8  C   UNL A   1      35.051  29.938  28.576  1.00  0.00     0.016 A 
ATOM      9  C   UNL A   1      35.835  32.130  28.001  1.00  0.00     0.016 A 
ATOM     10  C   UNL A   1      36.258  29.655  29.188  1.00  0.00     0.010 A 
ATOM     11  C   UNL A   1      37.082  31.834  28.562  1.00  0.00     0.010 A 
ATOM     12  C   UNL A   1      37.286  30.594  29.174  1.00  0.00    -0.014 A 
BRANCH  12  13
ATOM     13  C   UNL A   1      38.526  30.226  29.877  1.00  0.00     0.031 A 
ATOM     14  C   UNL A   1      38.716  30.689  31.287  1.00  0.00     0.074 A 
ATOM     15  C   UNL A   1      39.342  29.319  29.310  1.00  0.00     0.049 A 
ATOM     16  N   UNL A   1      39.676  30.407  32.125  1.00  0.00    -0.248 NA
ATOM     17  C   UNL A   1      37.668  31.565  31.837  1.00  0.00     0.031 C 
ATOM     18  C   UNL A   1      39.148  28.732  27.980  1.00  0.00     0.029 A 
ATOM     19  N   UNL A   1      40.454  28.687  29.794  1.00  0.00    -0.354 N 
ATOM     20  C   UNL A   1      39.350  31.071  33.299  1.00  0.00     0.074 A 
ATOM     21  C   UNL A   1      38.115  31.784  33.065  1.00  0.00     0.031 C 
ATOM     22  C   UNL A   1      40.085  27.795  27.773  1.00  0.00     0.029 A 
ATOM     23  C   UNL A   1      40.980  27.762  28.924  1.00  0.00     0.049 A 
ATOM     24  H   UNL A   1      40.840  28.876  30.679  1.00  0.00     0.167 HD
ATOM     25  C   UNL A   1      40.034  31.077  34.466  1.00  0.00     0.037 A 
ATOM     26  C   UNL A   1      42.079  26.996  29.045  1.00  0.00     0.037 A 
ATOM     27  C   UNL A   1      41.271  30.373  34.661  1.00  0.00     0.049 A 
ATOM     28  C   UNL A   1      42.870  27.101  30.321  1.00  0.00     0.074 A 
ATOM     29  C   UNL A   1      42.117  30.388  35.755  1.00  0.00     0.029 A 
ATOM     30  N   UNL A   1      41.837  29.515  33.725  1.00  0.00    -0.354 N 
ATOM     31  N   UNL A   1      42.605  27.799  31.402  1.00  0.00    -0.248 NA
ATOM     32  C   UNL A   1      44.114  26.329  30.393  1.00  0.00     0.031 C 
ATOM     33  C   UNL A   1      43.212  29.565  35.465  1.00  0.00     0.029 A 
ATOM     34  C   UNL A   1      43.026  29.002  34.212  1.00  0.00     0.049 A 
ATOM     35  H   UNL A   1      41.447  29.304  32.846  1.00  0.00     0.167 HD
ATOM     36  C   UNL A   1      43.647  27.550  32.281  1.00  0.00     0.074 A 
ATOM     37  C   UNL A   1      44.527  26.605  31.622  1.00  0.00     0.031 C 
ATOM     38  C   UNL A   1      43.871  28.064  33.515  1.00  0.00     0.037 A 
BRANCH  25  39
ATOM     39  C   UNL A   1      39.480  31.919  35.574  1.00  0.00     0.064 A 
ATOM     40  C   UNL A   1      39.879  33.252  35.758  1.00  0.00     0.173 A 
ATOM     41  C   UNL A   1      38.559  31.378  36.483  1.00  0.00     0.173 A 
ATOM     42  F   UNL A   1      40.782  33.806  34.935  1.00  0.00    -0.203 F 
ATOM     43  C   UNL A   1      39.392  34.004  36.826  1.00  0.00     0.198 A 
ATOM     44  C   UNL A   1      38.058  32.140  37.536  1.00  0.00     0.198 A 
ATOM     45  F   UNL A   1      38.155  30.106  36.358  1.00  0.00    -0.203 F 
ATOM     46  F   UNL A   1      39.827  35.258  37.013  1.00  0.00    -0.200 F 
ATOM     47  C   UNL A   1      38.480  33.449  37.711  1.00  0.00     0.200 A 
ATOM     48  F   UNL A   1      37.177  31.601  38.389  1.00  0.00    -0.200 F 
ATOM     49  F   UNL A   1      38.019  34.172  38.740  1.00  0.00    -0.200 F 
ENDBRANCH  25  39
BRANCH  26  50
ATOM     50  C   UNL A   1      42.520  26.125  27.922  1.00  0.00     0.064 A 
ATOM     51  C   UNL A   1      43.420  26.579  26.947  1.00  0.00     0.173 A 
ATOM     52  C   UNL A   1      42.022  24.820  27.784  1.00  0.00     0.173 A 
ATOM     53  F   UNL A   1      43.911  27.824  27.016  1.00  0.00    -0.203 F 
ATOM     54  C   UNL A   1      43.783  25.770  25.869  1.00  0.00     0.198 A 
ATOM     55  C   UNL A   1      42.411  24.001  26.726  1.00  0.00     0.198 A 
ATOM     56  F   UNL A   1      41.153  24.332  28.684  1.00  0.00    -0.203 F 
ATOM     57  F   UNL A   1      44.598  26.251  24.920  1.00  0.00    -0.200 F 
ATOM     58  C   UNL A   1      43.282  24.482  25.763  1.00  0.00     0.200 A 
ATOM     59  F   UNL A   1      41.934  22.753  26.638  1.00  0.00    -0.200 F 
ATOM     60  F   UNL A   1      43.628  23.708  24.724  1.00  0.00    -0.200 F 
ENDBRANCH  26  50
BRANCH  38  61
ATOM     61  C   UNL A   1      45.112  27.603  34.217  1.00  0.00     0.064 A 
ATOM     62  C   UNL A   1      45.115  26.448  35.011  1.00  0.00     0.173 A 
ATOM     63  C   UNL A   1      46.313  28.311  34.073  1.00  0.00     0.173 A 
ATOM     64  F   UNL A   1      43.983  25.749  35.190  1.00  0.00    -0.203 F 
ATOM     65  C   UNL A   1      46.271  26.034  35.663  1.00  0.00     0.198 A 
ATOM     66  C   UNL A   1      47.476  27.877  34.701  1.00  0.00     0.198 A 
ATOM     67  F   UNL A   1      46.360  29.419  33.317  1.00  0.00    -0.203 F 
ATOM     68  F   UNL A   1      46.240  24.956  36.459  1.00  0.00    -0.200 F 
ATOM     69  C   UNL A   1      47.452  26.745  35.502  1.00  0.00     0.200 A 
ATOM     70  F   UNL A   1      48.619  28.558  34.538  1.00  0.00    -0.200 F 
ATOM     71  F   UNL A   1      48.566  26.343  36.128  1.00  0.00    -0.200 F 
ENDBRANCH  38  61
ENDBRANCH  12  13
ENDBRANCH   5   7
ENDBRANCH   4   5
ENDBRANCH   3   4
ENDBRANCH   2   3
ENDBRANCH   1   2
BRANCH   1  72
ATOM     72  C   UNL A   1      30.306  29.015  23.710  1.00  0.00     0.202 C 
BRANCH  72  73
ATOM     73  C   UNL A   1      31.325  28.427  22.727  1.00  0.00     0.261 C 
BRANCH  73  74
ATOM     74  O   UNL A   1      30.771  27.214  22.204  1.00  0.00    -0.463 OA
BRANCH  74  75
ATOM     75  C   UNL A   1      31.372  26.071  22.638  1.00  0.00     0.312 C 
ATOM     76  O   UNL A   1      32.548  25.784  22.445  1.00  0.00    -0.252 OA
BRANCH  75  77
ATOM     77  C   UNL A   1      30.421  25.233  23.489  1.00  0.00     0.124 C 
ATOM     78  C   UNL A   1      30.515  25.561  24.949  1.00  0.00    -0.014 C 
ATOM     79  C   UNL A   1      30.718  23.728  23.494  1.00  0.00     0.048 C 
ATOM     80  C   UNL A   1      31.154  24.593  25.621  1.00  0.00    -0.006 C 
ATOM     81  C   UNL A   1      31.630  23.518  24.701  1.00  0.00     0.104 C 
BRANCH  81  82
ATOM     82  N   UNL A   1      31.404  22.202  25.228  1.00  0.00    -0.364 N 
ATOM     83  H   UNL A   1      30.587  21.999  25.738  1.00  0.00     0.162 HD
BRANCH  82  84
ATOM     84  C   UNL A   1      32.352  21.226  25.004  1.00  0.00     0.127 A 
ATOM     85  C   UNL A   1      33.680  21.599  24.847  1.00  0.00     0.047 A 
ATOM     86  N   UNL A   1      31.976  19.933  25.026  1.00  0.00    -0.231 NA
ATOM     87  C   UNL A   1      34.652  20.611  24.719  1.00  0.00     0.014 A 
ATOM     88  C   UNL A   1      32.903  18.976  24.867  1.00  0.00     0.073 A 
ATOM     89  C   UNL A   1      34.272  19.267  24.720  1.00  0.00     0.000 A 
ATOM     90  C   UNL A   1      32.504  17.647  24.849  1.00  0.00     0.029 A 
ATOM     91  C   UNL A   1      35.205  18.226  24.580  1.00  0.00     0.010 A 
ATOM     92  C   UNL A   1      33.424  16.609  24.693  1.00  0.00     0.002 A 
ATOM     93  C   UNL A   1      34.778  16.899  24.563  1.00  0.00     0.001 A 
ENDBRANCH  82  84
ENDBRANCH  81  82
ENDBRANCH  75  77
ENDBRANCH  74  75
ENDBRANCH  73  74
ENDBRANCH  72  73
ENDBRANCH   1  72
TORSDOF 16
ENDMDL
