MODEL 1
REMARK VINA RESULT:      -9.9      0.000      0.000
REMARK SMILES Cc1cc(C)cc(Oc2nc3ccccn3c(=O)c2/C=C2\SC(=S)N(CCC(=O)OCCOCCOC(=O)c3ccc(-c4c5nc(c(-c6c(F)c(F)c(F)c(F)c6F)c6ccc([nH]6)c(-c6c(F)c(F)c(F)c(F)c6F)c6nc(c(-c7c(F)c(F)c(F)c(F)c7F)c7ccc4[nH]7)C=C6)C=C5)cc3)C2=O)c1
REMARK SMILES IDX 31 1 30 2 28 3 29 4 27 5 26 6 25 7 20 8 21 9 22 10 102 11
REMARK SMILES IDX 23 12 103 13 24 14 19 15 9 16 10 17 11 18 17 19 12 20 16 21
REMARK SMILES IDX 18 22 13 23 15 24 14 25 8 26 7 27 1 28 2 29 3 30 104 31 4 32
REMARK SMILES IDX 5 33 6 34 32 35 33 36 34 37 35 38 36 39 37 40 38 41 39 42
REMARK SMILES IDX 40 43 101 44 41 45 100 46 42 47 43 48 44 49 94 50 45 51
REMARK SMILES IDX 99 52 93 53 95 54 46 55 98 56 92 57 91 58 47 60 79 61 59 62
REMARK SMILES IDX 78 63 60 64 63 65 77 66 96 67 61 68 62 69 76 71 97 72 64 73
REMARK SMILES IDX 48 74 49 75 57 76 50 77 51 78 55 79 58 80 52 81 53 82 56 83
REMARK SMILES IDX 54 84 80 85 81 86 89 87 82 88 83 89 87 90 90 91 84 92 85 93
REMARK SMILES IDX 88 94 86 95 65 96 66 97 74 98 67 99 68 100 72 101 75 102
REMARK SMILES IDX 69 103 70 104 73 105 71 106
REMARK H PARENT 95 59 63 70
REMARK Flexibility Score: inf
ROOT
ATOM      1  C   UNL A   1      38.767  30.009  28.990  1.00  0.00     0.261 C 
ENDROOT
BRANCH   1   2
ATOM      2  O   UNL A   1      40.026  29.302  28.985  1.00  0.00    -0.463 OA
BRANCH   2   3
ATOM      3  C   UNL A   1      40.226  28.382  29.957  1.00  0.00     0.307 C 
ATOM      4  O   UNL A   1      39.344  27.842  30.611  1.00  0.00    -0.252 OA
BRANCH   3   5
ATOM      5  C   UNL A   1      41.699  28.102  30.176  1.00  0.00     0.144 C 
BRANCH   5   6
ATOM      6  C   UNL A   1      42.623  28.429  28.996  1.00  0.00     0.139 C 
BRANCH   6   7
ATOM      7  N   UNL A   1      42.824  27.316  28.054  1.00  0.00    -0.292 N 
ATOM      8  C   UNL A   1      43.881  23.908  27.782  1.00  0.00     0.041 C 
ATOM      9  C   UNL A   1      43.534  25.158  27.446  1.00  0.00     0.081 C 
ATOM     10  S   UNL A   1      42.908  25.771  25.978  1.00  0.00    -0.054 SA
ATOM     11  C   UNL A   1      43.560  26.227  28.454  1.00  0.00     0.266 C 
ATOM     12  C   UNL A   1      42.432  27.297  26.731  1.00  0.00     0.148 C 
ATOM     13  O   UNL A   1      44.212  26.131  29.481  1.00  0.00    -0.268 OA
ATOM     14  S   UNL A   1      41.618  28.479  25.881  1.00  0.00    -0.052 S 
BRANCH   8  15
ATOM     15  C   UNL A   1      43.877  22.754  26.903  1.00  0.00     0.104 A 
ATOM     16  C   UNL A   1      42.856  21.879  26.779  1.00  0.00     0.234 A 
ATOM     17  N   UNL A   1      42.934  20.753  26.003  1.00  0.00    -0.194 NA
ATOM     18  C   UNL A   1      44.052  20.457  25.427  1.00  0.00     0.143 A 
ATOM     19  C   UNL A   1      45.151  22.434  26.183  1.00  0.00     0.269 A 
ATOM     20  C   UNL A   1      44.150  19.188  24.651  1.00  0.00     0.048 A 
ATOM     21  N   UNL A   1      45.183  21.247  25.479  1.00  0.00    -0.267 N 
ATOM     22  O   UNL A   1      46.126  23.183  26.299  1.00  0.00    -0.268 OA
ATOM     23  C   UNL A   1      45.300  18.858  24.052  1.00  0.00     0.005 A 
ATOM     24  C   UNL A   1      46.358  20.866  24.839  1.00  0.00     0.096 A 
ATOM     25  C   UNL A   1      46.444  19.726  24.145  1.00  0.00     0.019 A 
BRANCH  16  26
ATOM     26  O   UNL A   1      41.694  21.919  27.556  1.00  0.00    -0.438 OA
BRANCH  26  27
ATOM     27  C   UNL A   1      40.531  22.526  27.156  1.00  0.00     0.130 A 
ATOM     28  C   UNL A   1      37.398  21.939  25.114  1.00  0.00     0.044 C 
ATOM     29  C   UNL A   1      38.418  22.602  25.987  1.00  0.00    -0.047 A 
ATOM     30  C   UNL A   1      38.272  23.946  26.355  1.00  0.00     0.007 A 
ATOM     31  C   UNL A   1      39.522  21.883  26.449  1.00  0.00     0.050 A 
ATOM     32  C   UNL A   1      39.228  24.577  27.162  1.00  0.00    -0.047 A 
ATOM     33  C   UNL A   1      38.991  25.981  27.638  1.00  0.00     0.044 C 
ATOM     34  C   UNL A   1      40.371  23.862  27.539  1.00  0.00     0.050 A 
ENDBRANCH  26  27
ENDBRANCH  16  26
ENDBRANCH   8  15
ENDBRANCH   6   7
ENDBRANCH   5   6
ENDBRANCH   3   5
ENDBRANCH   2   3
ENDBRANCH   1   2
BRANCH   1  35
ATOM     35  C   UNL A   1      37.806  29.575  27.870  1.00  0.00     0.202 C 
BRANCH  35  36
ATOM     36  O   UNL A   1      36.714  30.458  27.601  1.00  0.00    -0.374 OA
BRANCH  36  37
ATOM     37  C   UNL A   1      35.901  30.801  28.720  1.00  0.00     0.202 C 
BRANCH  37  38
ATOM     38  C   UNL A   1      35.338  32.233  28.748  1.00  0.00     0.261 C 
BRANCH  38  39
ATOM     39  O   UNL A   1      35.989  33.084  29.710  1.00  0.00    -0.460 OA
BRANCH  39  40
ATOM     40  C   UNL A   1      35.601  32.908  30.993  1.00  0.00     0.338 C 
ATOM     41  O   UNL A   1      34.471  33.032  31.438  1.00  0.00    -0.246 OA
BRANCH  40  42
ATOM     42  C   UNL A   1      36.719  32.383  31.812  1.00  0.00     0.060 A 
ATOM     43  C   UNL A   1      36.394  31.721  33.004  1.00  0.00     0.016 A 
ATOM     44  C   UNL A   1      38.058  32.566  31.474  1.00  0.00     0.016 A 
ATOM     45  C   UNL A   1      37.394  31.285  33.882  1.00  0.00     0.010 A 
ATOM     46  C   UNL A   1      39.058  32.120  32.355  1.00  0.00     0.010 A 
ATOM     47  C   UNL A   1      38.745  31.496  33.584  1.00  0.00    -0.014 A 
BRANCH  47  48
ATOM     48  C   UNL A   1      39.825  31.198  34.582  1.00  0.00     0.031 A 
ATOM     49  C   UNL A   1      40.207  32.262  35.585  1.00  0.00     0.074 A 
ATOM     50  C   UNL A   1      40.474  30.015  34.633  1.00  0.00     0.049 A 
ATOM     51  N   UNL A   1      41.179  32.271  36.467  1.00  0.00    -0.248 NA
ATOM     52  C   UNL A   1      39.379  33.479  35.602  1.00  0.00     0.031 C 
ATOM     53  C   UNL A   1      40.196  28.847  33.802  1.00  0.00     0.029 A 
ATOM     54  N   UNL A   1      41.556  29.619  35.393  1.00  0.00    -0.354 N 
ATOM     55  C   UNL A   1      41.047  33.467  37.159  1.00  0.00     0.074 A 
ATOM     56  C   UNL A   1      39.988  34.214  36.518  1.00  0.00     0.031 C 
ATOM     57  C   UNL A   1      41.136  27.910  34.019  1.00  0.00     0.029 A 
ATOM     58  C   UNL A   1      42.084  28.405  35.010  1.00  0.00     0.049 A 
ATOM     59  H   UNL A   1      41.916  30.152  36.139  1.00  0.00     0.167 HD
ATOM     60  C   UNL A   1      41.692  33.885  38.274  1.00  0.00     0.037 A 
ATOM     61  C   UNL A   1      43.216  27.775  35.385  1.00  0.00     0.037 A 
ATOM     62  C   UNL A   1      42.732  33.151  38.943  1.00  0.00     0.049 A 
ATOM     63  C   UNL A   1      44.048  28.342  36.506  1.00  0.00     0.074 A 
ATOM     64  C   UNL A   1      43.405  33.475  40.108  1.00  0.00     0.029 A 
ATOM     65  N   UNL A   1      43.254  31.944  38.502  1.00  0.00    -0.354 N 
ATOM     66  N   UNL A   1      43.876  29.447  37.187  1.00  0.00    -0.248 NA
ATOM     67  C   UNL A   1      45.202  27.543  36.948  1.00  0.00     0.031 C 
ATOM     68  C   UNL A   1      44.373  32.495  40.343  1.00  0.00     0.029 A 
ATOM     69  C   UNL A   1      44.263  31.528  39.358  1.00  0.00     0.049 A 
ATOM     70  H   UNL A   1      42.955  31.457  37.702  1.00  0.00     0.167 HD
ATOM     71  C   UNL A   1      44.833  29.425  38.195  1.00  0.00     0.074 A 
ATOM     72  C   UNL A   1      45.607  28.218  38.013  1.00  0.00     0.031 C 
ATOM     73  C   UNL A   1      45.019  30.313  39.201  1.00  0.00     0.037 A 
BRANCH  60  74
ATOM     74  C   UNL A   1      41.252  35.188  38.875  1.00  0.00     0.064 A 
ATOM     75  C   UNL A   1      41.968  36.375  38.643  1.00  0.00     0.173 A 
ATOM     76  C   UNL A   1      40.089  35.266  39.653  1.00  0.00     0.173 A 
ATOM     77  F   UNL A   1      43.093  36.353  37.913  1.00  0.00    -0.203 F 
ATOM     78  C   UNL A   1      41.552  37.583  39.195  1.00  0.00     0.198 A 
ATOM     79  C   UNL A   1      39.657  36.482  40.174  1.00  0.00     0.198 A 
ATOM     80  F   UNL A   1      39.364  34.164  39.899  1.00  0.00    -0.203 F 
ATOM     81  F   UNL A   1      42.281  38.691  39.004  1.00  0.00    -0.200 F 
ATOM     82  C   UNL A   1      40.393  37.637  39.953  1.00  0.00     0.200 A 
ATOM     83  F   UNL A   1      38.527  36.537  40.893  1.00  0.00    -0.200 F 
ATOM     84  F   UNL A   1      39.987  38.803  40.475  1.00  0.00    -0.200 F 
ENDBRANCH  60  74
BRANCH  61  85
ATOM     85  C   UNL A   1      43.644  26.511  34.720  1.00  0.00     0.064 A 
ATOM     86  C   UNL A   1      44.595  26.519  33.692  1.00  0.00     0.173 A 
ATOM     87  C   UNL A   1      43.037  25.286  35.031  1.00  0.00     0.173 A 
ATOM     88  F   UNL A   1      45.167  27.673  33.320  1.00  0.00    -0.203 F 
ATOM     89  C   UNL A   1      44.900  25.358  32.981  1.00  0.00     0.198 A 
ATOM     90  C   UNL A   1      43.365  24.118  34.344  1.00  0.00     0.198 A 
ATOM     91  F   UNL A   1      42.078  25.226  35.964  1.00  0.00    -0.203 F 
ATOM     92  F   UNL A   1      45.752  25.412  31.949  1.00  0.00    -0.200 F 
ATOM     93  C   UNL A   1      44.288  24.158  33.311  1.00  0.00     0.200 A 
ATOM     94  F   UNL A   1      42.760  22.964  34.656  1.00  0.00    -0.200 F 
ATOM     95  F   UNL A   1      44.565  23.047  32.613  1.00  0.00    -0.200 F 
ENDBRANCH  61  85
BRANCH  73  96
ATOM     96  C   UNL A   1      46.043  29.979  40.250  1.00  0.00     0.064 A 
ATOM     97  C   UNL A   1      45.729  29.221  41.386  1.00  0.00     0.173 A 
ATOM     98  C   UNL A   1      47.374  30.398  40.090  1.00  0.00     0.173 A 
ATOM     99  F   UNL A   1      44.469  28.807  41.595  1.00  0.00    -0.203 F 
ATOM    100  C   UNL A   1      46.701  28.920  42.338  1.00  0.00     0.198 A 
ATOM    101  C   UNL A   1      48.351  30.065  41.025  1.00  0.00     0.198 A 
ATOM    102  F   UNL A   1      47.733  31.121  39.018  1.00  0.00    -0.203 F 
ATOM    103  F   UNL A   1      46.364  28.241  43.443  1.00  0.00    -0.200 F 
ATOM    104  C   UNL A   1      48.012  29.333  42.152  1.00  0.00     0.200 A 
ATOM    105  F   UNL A   1      49.620  30.450  40.832  1.00  0.00    -0.200 F 
ATOM    106  F   UNL A   1      48.947  29.034  43.063  1.00  0.00    -0.200 F 
ENDBRANCH  73  96
ENDBRANCH  47  48
ENDBRANCH  40  42
ENDBRANCH  39  40
ENDBRANCH  38  39
ENDBRANCH  37  38
ENDBRANCH  36  37
ENDBRANCH  35  36
ENDBRANCH   1  35
TORSDOF 19
ENDMDL
MODEL 2
REMARK VINA RESULT:      -9.8      7.098      9.352
REMARK SMILES Cc1cc(C)cc(Oc2nc3ccccn3c(=O)c2/C=C2\SC(=S)N(CCC(=O)OCCOCCOC(=O)c3ccc(-c4c5nc(c(-c6c(F)c(F)c(F)c(F)c6F)c6ccc([nH]6)c(-c6c(F)c(F)c(F)c(F)c6F)c6nc(c(-c7c(F)c(F)c(F)c(F)c7F)c7ccc4[nH]7)C=C6)C=C5)cc3)C2=O)c1
REMARK SMILES IDX 31 1 30 2 28 3 29 4 27 5 26 6 25 7 20 8 21 9 22 10 102 11
REMARK SMILES IDX 23 12 103 13 24 14 19 15 9 16 10 17 11 18 17 19 12 20 16 21
REMARK SMILES IDX 18 22 13 23 15 24 14 25 8 26 7 27 1 28 2 29 3 30 104 31 4 32
REMARK SMILES IDX 5 33 6 34 32 35 33 36 34 37 35 38 36 39 37 40 38 41 39 42
REMARK SMILES IDX 40 43 101 44 41 45 100 46 42 47 43 48 44 49 94 50 45 51
REMARK SMILES IDX 99 52 93 53 95 54 46 55 98 56 92 57 91 58 47 60 79 61 59 62
REMARK SMILES IDX 78 63 60 64 63 65 77 66 96 67 61 68 62 69 76 71 97 72 64 73
REMARK SMILES IDX 48 74 49 75 57 76 50 77 51 78 55 79 58 80 52 81 53 82 56 83
REMARK SMILES IDX 54 84 80 85 81 86 89 87 82 88 83 89 87 90 90 91 84 92 85 93
REMARK SMILES IDX 88 94 86 95 65 96 66 97 74 98 67 99 68 100 72 101 75 102
REMARK SMILES IDX 69 103 70 104 73 105 71 106
REMARK H PARENT 95 59 63 70
REMARK Flexibility Score: inf
ROOT
ATOM      1  C   UNL A   1      39.123  30.246  29.371  1.00  0.00     0.261 C 
ENDROOT
BRANCH   1   2
ATOM      2  O   UNL A   1      40.268  29.376  29.235  1.00  0.00    -0.463 OA
BRANCH   2   3
ATOM      3  C   UNL A   1      40.452  28.437  30.191  1.00  0.00     0.307 C 
ATOM      4  O   UNL A   1      39.574  27.978  30.909  1.00  0.00    -0.252 OA
BRANCH   3   5
ATOM      5  C   UNL A   1      41.905  28.019  30.301  1.00  0.00     0.144 C 
BRANCH   5   6
ATOM      6  C   UNL A   1      42.792  28.370  29.100  1.00  0.00     0.139 C 
BRANCH   6   7
ATOM      7  N   UNL A   1      42.979  27.270  28.139  1.00  0.00    -0.292 N 
ATOM      8  C   UNL A   1      43.949  23.842  27.815  1.00  0.00     0.041 C 
ATOM      9  C   UNL A   1      43.640  25.106  27.499  1.00  0.00     0.081 C 
ATOM     10  S   UNL A   1      43.053  25.764  26.034  1.00  0.00    -0.054 SA
ATOM     11  C   UNL A   1      43.679  26.154  28.528  1.00  0.00     0.266 C 
ATOM     12  C   UNL A   1      42.605  27.288  26.810  1.00  0.00     0.148 C 
ATOM     13  O   UNL A   1      44.314  26.022  29.562  1.00  0.00    -0.268 OA
ATOM     14  S   UNL A   1      41.835  28.506  25.972  1.00  0.00    -0.052 S 
BRANCH   8  15
ATOM     15  C   UNL A   1      43.929  22.706  26.913  1.00  0.00     0.104 A 
ATOM     16  C   UNL A   1      42.890  21.857  26.762  1.00  0.00     0.234 A 
ATOM     17  N   UNL A   1      42.950  20.744  25.965  1.00  0.00    -0.194 NA
ATOM     18  C   UNL A   1      44.066  20.434  25.395  1.00  0.00     0.143 A 
ATOM     19  C   UNL A   1      45.202  22.371  26.200  1.00  0.00     0.269 A 
ATOM     20  C   UNL A   1      44.144  19.179  24.595  1.00  0.00     0.048 A 
ATOM     21  N   UNL A   1      45.214  21.197  25.473  1.00  0.00    -0.267 N 
ATOM     22  O   UNL A   1      46.193  23.094  26.340  1.00  0.00    -0.268 OA
ATOM     23  C   UNL A   1      45.292  18.834  24.000  1.00  0.00     0.005 A 
ATOM     24  C   UNL A   1      46.386  20.801  24.837  1.00  0.00     0.096 A 
ATOM     25  C   UNL A   1      46.453  19.673  24.122  1.00  0.00     0.019 A 
BRANCH  16  26
ATOM     26  O   UNL A   1      41.720  21.908  27.528  1.00  0.00    -0.438 OA
BRANCH  26  27
ATOM     27  C   UNL A   1      40.626  22.666  27.198  1.00  0.00     0.130 A 
ATOM     28  C   UNL A   1      39.075  26.077  27.736  1.00  0.00     0.044 C 
ATOM     29  C   UNL A   1      39.284  24.674  27.254  1.00  0.00    -0.047 A 
ATOM     30  C   UNL A   1      38.291  24.022  26.512  1.00  0.00     0.007 A 
ATOM     31  C   UNL A   1      40.478  24.006  27.536  1.00  0.00     0.050 A 
ATOM     32  C   UNL A   1      38.475  22.707  26.068  1.00  0.00    -0.047 A 
ATOM     33  C   UNL A   1      37.448  22.070  25.178  1.00  0.00     0.044 C 
ATOM     34  C   UNL A   1      39.641  22.025  26.438  1.00  0.00     0.050 A 
ENDBRANCH  26  27
ENDBRANCH  16  26
ENDBRANCH   8  15
ENDBRANCH   6   7
ENDBRANCH   5   6
ENDBRANCH   3   5
ENDBRANCH   2   3
ENDBRANCH   1   2
BRANCH   1  35
ATOM     35  C   UNL A   1      37.972  29.915  28.404  1.00  0.00     0.202 C 
BRANCH  35  36
ATOM     36  O   UNL A   1      36.802  30.727  28.518  1.00  0.00    -0.374 OA
BRANCH  36  37
ATOM     37  C   UNL A   1      36.577  31.319  29.794  1.00  0.00     0.202 C 
BRANCH  37  38
ATOM     38  C   UNL A   1      35.682  32.571  29.823  1.00  0.00     0.261 C 
BRANCH  38  39
ATOM     39  O   UNL A   1      36.425  33.802  29.900  1.00  0.00    -0.460 OA
BRANCH  39  40
ATOM     40  C   UNL A   1      37.180  33.953  31.011  1.00  0.00     0.338 C 
ATOM     41  O   UNL A   1      36.836  33.741  32.163  1.00  0.00    -0.246 OA
BRANCH  40  42
ATOM     42  C   UNL A   1      38.581  34.279  30.653  1.00  0.00     0.060 A 
ATOM     43  C   UNL A   1      38.855  34.572  29.310  1.00  0.00     0.016 A 
ATOM     44  C   UNL A   1      39.626  34.252  31.575  1.00  0.00     0.016 A 
ATOM     45  C   UNL A   1      40.168  34.790  28.874  1.00  0.00     0.010 A 
ATOM     46  C   UNL A   1      40.940  34.479  31.132  1.00  0.00     0.010 A 
ATOM     47  C   UNL A   1      41.238  34.726  29.773  1.00  0.00    -0.014 A 
BRANCH  47  48
ATOM     48  C   UNL A   1      42.662  34.782  29.305  1.00  0.00     0.031 A 
ATOM     49  C   UNL A   1      43.248  36.117  28.904  1.00  0.00     0.074 A 
ATOM     50  C   UNL A   1      43.455  33.692  29.228  1.00  0.00     0.049 A 
ATOM     51  N   UNL A   1      44.413  36.393  28.369  1.00  0.00    -0.248 NA
ATOM     52  C   UNL A   1      42.410  37.303  29.145  1.00  0.00     0.031 C 
ATOM     53  C   UNL A   1      43.094  32.338  29.639  1.00  0.00     0.029 A 
ATOM     54  N   UNL A   1      44.728  33.545  28.714  1.00  0.00    -0.354 N 
ATOM     55  C   UNL A   1      44.455  37.776  28.251  1.00  0.00     0.074 A 
ATOM     56  C   UNL A   1      43.158  38.274  28.648  1.00  0.00     0.031 C 
ATOM     57  C   UNL A   1      44.069  31.486  29.273  1.00  0.00     0.029 A 
ATOM     58  C   UNL A   1      45.130  32.231  28.605  1.00  0.00     0.049 A 
ATOM     59  H   UNL A   1      45.296  34.306  28.453  1.00  0.00     0.167 HD
ATOM     60  C   UNL A   1      45.497  38.573  27.916  1.00  0.00     0.037 A 
ATOM     61  C   UNL A   1      46.208  31.682  28.009  1.00  0.00     0.037 A 
ATOM     62  C   UNL A   1      46.802  38.102  27.539  1.00  0.00     0.049 A 
ATOM     63  C   UNL A   1      47.288  32.575  27.458  1.00  0.00     0.074 A 
ATOM     64  C   UNL A   1      47.931  38.842  27.233  1.00  0.00     0.029 A 
ATOM     65  N   UNL A   1      47.153  36.767  27.412  1.00  0.00    -0.354 N 
ATOM     66  N   UNL A   1      47.336  33.883  27.406  1.00  0.00    -0.248 NA
ATOM     67  C   UNL A   1      48.493  31.914  26.932  1.00  0.00     0.031 C 
ATOM     68  C   UNL A   1      48.949  37.957  26.866  1.00  0.00     0.029 A 
ATOM     69  C   UNL A   1      48.473  36.665  27.002  1.00  0.00     0.049 A 
ATOM     70  H   UNL A   1      46.554  36.006  27.586  1.00  0.00     0.167 HD
ATOM     71  C   UNL A   1      48.606  34.199  26.938  1.00  0.00     0.074 A 
ATOM     72  C   UNL A   1      49.284  32.948  26.684  1.00  0.00     0.031 C 
ATOM     73  C   UNL A   1      49.165  35.422  26.774  1.00  0.00     0.037 A 
BRANCH  60  74
ATOM     74  C   UNL A   1      45.277  40.057  27.988  1.00  0.00     0.064 A 
ATOM     75  C   UNL A   1      44.809  40.779  26.878  1.00  0.00     0.173 A 
ATOM     76  C   UNL A   1      45.497  40.759  29.182  1.00  0.00     0.173 A 
ATOM     77  F   UNL A   1      44.592  40.155  25.710  1.00  0.00    -0.203 F 
ATOM     78  C   UNL A   1      44.598  42.152  26.952  1.00  0.00     0.198 A 
ATOM     79  C   UNL A   1      45.251  42.127  29.263  1.00  0.00     0.198 A 
ATOM     80  F   UNL A   1      45.936  40.116  30.275  1.00  0.00    -0.203 F 
ATOM     81  F   UNL A   1      44.202  42.827  25.865  1.00  0.00    -0.200 F 
ATOM     82  C   UNL A   1      44.812  42.824  28.146  1.00  0.00     0.200 A 
ATOM     83  F   UNL A   1      45.441  42.772  30.421  1.00  0.00    -0.200 F 
ATOM     84  F   UNL A   1      44.599  44.145  28.220  1.00  0.00    -0.200 F 
ENDBRANCH  60  74
BRANCH  61  85
ATOM     85  C   UNL A   1      46.356  30.203  27.910  1.00  0.00     0.064 A 
ATOM     86  C   UNL A   1      46.890  29.455  28.968  1.00  0.00     0.173 A 
ATOM     87  C   UNL A   1      46.061  29.522  26.720  1.00  0.00     0.173 A 
ATOM     88  F   UNL A   1      47.239  30.067  30.109  1.00  0.00    -0.203 F 
ATOM     89  C   UNL A   1      47.150  28.092  28.829  1.00  0.00     0.198 A 
ATOM     90  C   UNL A   1      46.289  28.152  26.592  1.00  0.00     0.198 A 
ATOM     91  F   UNL A   1      45.604  30.192  25.656  1.00  0.00    -0.203 F 
ATOM     92  F   UNL A   1      47.737  27.420  29.828  1.00  0.00    -0.200 F 
ATOM     93  C   UNL A   1      46.845  27.441  27.643  1.00  0.00     0.200 A 
ATOM     94  F   UNL A   1      46.007  27.530  25.439  1.00  0.00    -0.200 F 
ATOM     95  F   UNL A   1      47.117  26.135  27.503  1.00  0.00    -0.200 F 
ENDBRANCH  61  85
BRANCH  73  96
ATOM     96  C   UNL A   1      50.616  35.484  26.386  1.00  0.00     0.064 A 
ATOM     97  C   UNL A   1      51.028  35.652  25.057  1.00  0.00     0.173 A 
ATOM     98  C   UNL A   1      51.610  35.409  27.376  1.00  0.00     0.173 A 
ATOM     99  F   UNL A   1      50.120  35.715  24.071  1.00  0.00    -0.203 F 
ATOM    100  C   UNL A   1      52.381  35.714  24.729  1.00  0.00     0.198 A 
ATOM    101  C   UNL A   1      52.960  35.507  27.049  1.00  0.00     0.198 A 
ATOM    102  F   UNL A   1      51.273  35.254  28.665  1.00  0.00    -0.203 F 
ATOM    103  F   UNL A   1      52.751  35.819  23.446  1.00  0.00    -0.200 F 
ATOM    104  C   UNL A   1      53.344  35.651  25.725  1.00  0.00     0.200 A 
ATOM    105  F   UNL A   1      53.887  35.465  28.015  1.00  0.00    -0.200 F 
ATOM    106  F   UNL A   1      54.644  35.721  25.408  1.00  0.00    -0.200 F 
ENDBRANCH  73  96
ENDBRANCH  47  48
ENDBRANCH  40  42
ENDBRANCH  39  40
ENDBRANCH  38  39
ENDBRANCH  37  38
ENDBRANCH  36  37
ENDBRANCH  35  36
ENDBRANCH   1  35
TORSDOF 19
ENDMDL
MODEL 3
REMARK VINA RESULT:      -9.6      4.325     11.423
REMARK SMILES Cc1cc(C)cc(Oc2nc3ccccn3c(=O)c2/C=C2\SC(=S)N(CCC(=O)OCCOCCOC(=O)c3ccc(-c4c5nc(c(-c6c(F)c(F)c(F)c(F)c6F)c6ccc([nH]6)c(-c6c(F)c(F)c(F)c(F)c6F)c6nc(c(-c7c(F)c(F)c(F)c(F)c7F)c7ccc4[nH]7)C=C6)C=C5)cc3)C2=O)c1
REMARK SMILES IDX 31 1 30 2 28 3 29 4 27 5 26 6 25 7 20 8 21 9 22 10 102 11
REMARK SMILES IDX 23 12 103 13 24 14 19 15 9 16 10 17 11 18 17 19 12 20 16 21
REMARK SMILES IDX 18 22 13 23 15 24 14 25 8 26 7 27 1 28 2 29 3 30 104 31 4 32
REMARK SMILES IDX 5 33 6 34 32 35 33 36 34 37 35 38 36 39 37 40 38 41 39 42
REMARK SMILES IDX 40 43 101 44 41 45 100 46 42 47 43 48 44 49 94 50 45 51
REMARK SMILES IDX 99 52 93 53 95 54 46 55 98 56 92 57 91 58 47 60 79 61 59 62
REMARK SMILES IDX 78 63 60 64 63 65 77 66 96 67 61 68 62 69 76 71 97 72 64 73
REMARK SMILES IDX 48 74 49 75 57 76 50 77 51 78 55 79 58 80 52 81 53 82 56 83
REMARK SMILES IDX 54 84 80 85 81 86 89 87 82 88 83 89 87 90 90 91 84 92 85 93
REMARK SMILES IDX 88 94 86 95 65 96 66 97 74 98 67 99 68 100 72 101 75 102
REMARK SMILES IDX 69 103 70 104 73 105 71 106
REMARK H PARENT 95 59 63 70
REMARK Flexibility Score: inf
ROOT
ATOM      1  C   UNL A   1      41.533  25.115  28.328  1.00  0.00     0.261 C 
ENDROOT
BRANCH   1   2
ATOM      2  O   UNL A   1      40.384  25.982  28.208  1.00  0.00    -0.463 OA
BRANCH   2   3
ATOM      3  C   UNL A   1      40.427  27.164  28.865  1.00  0.00     0.307 C 
ATOM      4  O   UNL A   1      41.441  27.813  29.087  1.00  0.00    -0.252 OA
BRANCH   3   5
ATOM      5  C   UNL A   1      39.053  27.601  29.333  1.00  0.00     0.144 C 
BRANCH   5   6
ATOM      6  C   UNL A   1      38.983  28.170  30.755  1.00  0.00     0.139 C 
BRANCH   6   7
ATOM      7  N   UNL A   1      38.511  29.563  30.831  1.00  0.00    -0.292 N 
ATOM      8  C   UNL A   1      35.741  31.635  31.744  1.00  0.00     0.041 C 
ATOM      9  C   UNL A   1      36.902  31.235  31.211  1.00  0.00     0.081 C 
ATOM     10  S   UNL A   1      38.289  32.142  30.786  1.00  0.00    -0.054 SA
ATOM     11  C   UNL A   1      37.170  29.804  31.012  1.00  0.00     0.266 C 
ATOM     12  C   UNL A   1      39.282  30.689  30.624  1.00  0.00     0.148 C 
ATOM     13  O   UNL A   1      36.273  28.979  30.970  1.00  0.00    -0.268 OA
ATOM     14  S   UNL A   1      40.911  30.773  30.278  1.00  0.00    -0.052 S 
BRANCH   8  15
ATOM     15  C   UNL A   1      35.352  33.004  32.021  1.00  0.00     0.104 A 
ATOM     16  C   UNL A   1      35.308  33.563  33.250  1.00  0.00     0.234 A 
ATOM     17  N   UNL A   1      34.847  34.834  33.471  1.00  0.00    -0.194 NA
ATOM     18  C   UNL A   1      34.352  35.509  32.487  1.00  0.00     0.143 A 
ATOM     19  C   UNL A   1      34.831  33.816  30.875  1.00  0.00     0.269 A 
ATOM     20  C   UNL A   1      33.780  36.859  32.752  1.00  0.00     0.048 A 
ATOM     21  N   UNL A   1      34.316  35.060  31.181  1.00  0.00    -0.267 N 
ATOM     22  O   UNL A   1      34.813  33.333  29.739  1.00  0.00    -0.268 OA
ATOM     23  C   UNL A   1      33.256  37.572  31.748  1.00  0.00     0.005 A 
ATOM     24  C   UNL A   1      33.763  35.836  30.168  1.00  0.00     0.096 A 
ATOM     25  C   UNL A   1      33.249  37.047  30.410  1.00  0.00     0.019 A 
BRANCH  16  26
ATOM     26  O   UNL A   1      35.545  32.862  34.437  1.00  0.00    -0.438 OA
BRANCH  26  27
ATOM     27  C   UNL A   1      36.795  32.640  34.953  1.00  0.00     0.130 A 
ATOM     28  C   UNL A   1      39.872  30.477  34.519  1.00  0.00     0.044 C 
ATOM     29  C   UNL A   1      38.933  31.517  35.048  1.00  0.00    -0.047 A 
ATOM     30  C   UNL A   1      39.261  32.255  36.192  1.00  0.00     0.007 A 
ATOM     31  C   UNL A   1      37.722  31.765  34.398  1.00  0.00     0.050 A 
ATOM     32  C   UNL A   1      38.383  33.222  36.698  1.00  0.00    -0.047 A 
ATOM     33  C   UNL A   1      38.806  34.079  37.856  1.00  0.00     0.044 C 
ATOM     34  C   UNL A   1      37.136  33.391  36.083  1.00  0.00     0.050 A 
ENDBRANCH  26  27
ENDBRANCH  16  26
ENDBRANCH   8  15
ENDBRANCH   6   7
ENDBRANCH   5   6
ENDBRANCH   3   5
ENDBRANCH   2   3
ENDBRANCH   1   2
BRANCH   1  35
ATOM     35  C   UNL A   1      41.601  24.021  27.248  1.00  0.00     0.202 C 
BRANCH  35  36
ATOM     36  O   UNL A   1      42.821  23.279  27.180  1.00  0.00    -0.374 OA
BRANCH  36  37
ATOM     37  C   UNL A   1      43.420  23.183  25.891  1.00  0.00     0.202 C 
BRANCH  37  38
ATOM     38  C   UNL A   1      43.387  24.453  25.022  1.00  0.00     0.261 C 
BRANCH  38  39
ATOM     39  O   UNL A   1      44.692  24.884  24.592  1.00  0.00    -0.460 OA
BRANCH  39  40
ATOM     40  C   UNL A   1      45.624  24.969  25.567  1.00  0.00     0.338 C 
ATOM     41  O   UNL A   1      46.603  24.254  25.706  1.00  0.00    -0.246 OA
BRANCH  40  42
ATOM     42  C   UNL A   1      45.399  26.172  26.404  1.00  0.00     0.060 A 
ATOM     43  C   UNL A   1      46.427  26.555  27.277  1.00  0.00     0.016 A 
ATOM     44  C   UNL A   1      44.205  26.890  26.394  1.00  0.00     0.016 A 
ATOM     45  C   UNL A   1      46.252  27.618  28.172  1.00  0.00     0.010 A 
ATOM     46  C   UNL A   1      44.039  27.961  27.289  1.00  0.00     0.010 A 
ATOM     47  C   UNL A   1      45.047  28.328  28.209  1.00  0.00    -0.014 A 
BRANCH  47  48
ATOM     48  C   UNL A   1      44.771  29.351  29.271  1.00  0.00     0.031 A 
ATOM     49  C   UNL A   1      44.370  28.883  30.651  1.00  0.00     0.074 A 
ATOM     50  C   UNL A   1      44.869  30.681  29.056  1.00  0.00     0.049 A 
ATOM     51  N   UNL A   1      43.979  29.580  31.692  1.00  0.00    -0.248 NA
ATOM     52  C   UNL A   1      44.421  27.432  30.895  1.00  0.00     0.031 C 
ATOM     53  C   UNL A   1      45.312  31.319  27.819  1.00  0.00     0.029 A 
ATOM     54  N   UNL A   1      44.542  31.746  29.869  1.00  0.00    -0.354 N 
ATOM     55  C   UNL A   1      43.782  28.658  32.710  1.00  0.00     0.074 A 
ATOM     56  C   UNL A   1      43.970  27.345  32.136  1.00  0.00     0.031 C 
ATOM     57  C   UNL A   1      45.134  32.649  27.915  1.00  0.00     0.029 A 
ATOM     58  C   UNL A   1      44.570  32.963  29.222  1.00  0.00     0.049 A 
ATOM     59  H   UNL A   1      44.311  31.648  30.822  1.00  0.00     0.167 HD
ATOM     60  C   UNL A   1      43.540  28.876  34.025  1.00  0.00     0.037 A 
ATOM     61  C   UNL A   1      44.159  34.185  29.617  1.00  0.00     0.037 A 
ATOM     62  C   UNL A   1      43.372  30.172  34.624  1.00  0.00     0.049 A 
ATOM     63  C   UNL A   1      43.703  34.394  31.038  1.00  0.00     0.074 A 
ATOM     64  C   UNL A   1      43.175  30.488  35.957  1.00  0.00     0.029 A 
ATOM     65  N   UNL A   1      43.378  31.370  33.926  1.00  0.00    -0.354 N 
ATOM     66  N   UNL A   1      43.577  33.519  32.004  1.00  0.00    -0.248 NA
ATOM     67  C   UNL A   1      43.386  35.773  31.438  1.00  0.00     0.031 C 
ATOM     68  C   UNL A   1      43.004  31.871  36.060  1.00  0.00     0.029 A 
ATOM     69  C   UNL A   1      43.156  32.424  34.800  1.00  0.00     0.049 A 
ATOM     70  H   UNL A   1      43.517  31.459  32.956  1.00  0.00     0.167 HD
ATOM     71  C   UNL A   1      43.265  34.252  33.142  1.00  0.00     0.074 A 
ATOM     72  C   UNL A   1      43.182  35.638  32.740  1.00  0.00     0.031 C 
ATOM     73  C   UNL A   1      43.101  33.809  34.412  1.00  0.00     0.037 A 
BRANCH  60  74
ATOM     74  C   UNL A   1      43.490  27.673  34.922  1.00  0.00     0.064 A 
ATOM     75  C   UNL A   1      44.623  27.248  35.635  1.00  0.00     0.173 A 
ATOM     76  C   UNL A   1      42.295  26.963  35.106  1.00  0.00     0.173 A 
ATOM     77  F   UNL A   1      45.793  27.888  35.487  1.00  0.00    -0.203 F 
ATOM     78  C   UNL A   1      44.569  26.139  36.473  1.00  0.00     0.198 A 
ATOM     79  C   UNL A   1      42.236  25.875  35.972  1.00  0.00     0.198 A 
ATOM     80  F   UNL A   1      41.181  27.332  34.455  1.00  0.00    -0.203 F 
ATOM     81  F   UNL A   1      45.676  25.720  37.101  1.00  0.00    -0.200 F 
ATOM     82  C   UNL A   1      43.374  25.458  36.647  1.00  0.00     0.200 A 
ATOM     83  F   UNL A   1      41.077  25.227  36.153  1.00  0.00    -0.200 F 
ATOM     84  F   UNL A   1      43.320  24.395  37.462  1.00  0.00    -0.200 F 
ENDBRANCH  60  74
BRANCH  61  85
ATOM     85  C   UNL A   1      44.174  35.339  28.674  1.00  0.00     0.064 A 
ATOM     86  C   UNL A   1      45.332  36.103  28.481  1.00  0.00     0.173 A 
ATOM     87  C   UNL A   1      43.005  35.759  28.023  1.00  0.00     0.173 A 
ATOM     88  F   UNL A   1      46.463  35.775  29.122  1.00  0.00    -0.203 F 
ATOM     89  C   UNL A   1      45.312  37.259  27.701  1.00  0.00     0.198 A 
ATOM     90  C   UNL A   1      42.993  36.896  27.215  1.00  0.00     0.198 A 
ATOM     91  F   UNL A   1      41.854  35.104  28.215  1.00  0.00    -0.203 F 
ATOM     92  F   UNL A   1      46.414  38.016  27.602  1.00  0.00    -0.200 F 
ATOM     93  C   UNL A   1      44.144  37.652  27.065  1.00  0.00     0.200 A 
ATOM     94  F   UNL A   1      41.858  37.280  26.615  1.00  0.00    -0.200 F 
ATOM     95  F   UNL A   1      44.121  38.775  26.333  1.00  0.00    -0.200 F 
ENDBRANCH  61  85
BRANCH  73  96
ATOM     96  C   UNL A   1      42.908  34.836  35.493  1.00  0.00     0.064 A 
ATOM     97  C   UNL A   1      43.977  35.342  36.244  1.00  0.00     0.173 A 
ATOM     98  C   UNL A   1      41.626  35.350  35.752  1.00  0.00     0.173 A 
ATOM     99  F   UNL A   1      45.220  34.877  36.048  1.00  0.00    -0.203 F 
ATOM    100  C   UNL A   1      43.767  36.300  37.235  1.00  0.00     0.198 A 
ATOM    101  C   UNL A   1      41.425  36.333  36.716  1.00  0.00     0.198 A 
ATOM    102  F   UNL A   1      40.566  34.906  35.058  1.00  0.00    -0.203 F 
ATOM    103  F   UNL A   1      44.798  36.728  37.977  1.00  0.00    -0.200 F 
ATOM    104  C   UNL A   1      42.494  36.801  37.463  1.00  0.00     0.200 A 
ATOM    105  F   UNL A   1      40.197  36.828  36.921  1.00  0.00    -0.200 F 
ATOM    106  F   UNL A   1      42.297  37.730  38.408  1.00  0.00    -0.200 F 
ENDBRANCH  73  96
ENDBRANCH  47  48
ENDBRANCH  40  42
ENDBRANCH  39  40
ENDBRANCH  38  39
ENDBRANCH  37  38
ENDBRANCH  36  37
ENDBRANCH  35  36
ENDBRANCH   1  35
TORSDOF 19
ENDMDL
