MODEL 1
REMARK VINA RESULT:     -11.8      0.000      0.000
REMARK SMILES Cc1[nH]c2ccccc2c1[C@@H](C(=O)OCCOCCOC(=O)c1ccc(-c2c3nc(c(-c4c(F)c(F)c(F)c(F)c4F)c4ccc([nH]4)c(-c4c(F)c(F)c(F)c(F)c4F)c4nc(c(-c5c(F)c(F)c(F)c(F)c5F)c5ccc2[nH]5)C=C4)C=C3)cc1)[NH+]1CCCC1
REMARK SMILES IDX 18 1 17 2 16 3 15 4 14 5 12 6 13 7 11 8 10 9 1 10 2 11 3 12
REMARK SMILES IDX 4 13 9 15 5 16 8 17 6 18 7 19 86 20 87 21 90 22 88 24 89 25
REMARK SMILES IDX 19 26 20 27 21 28 22 29 23 30 24 31 85 32 25 33 84 34 26 35
REMARK SMILES IDX 27 36 28 37 78 38 29 39 83 40 77 41 79 42 30 43 82 44 76 45
REMARK SMILES IDX 75 46 31 48 63 49 43 50 62 51 44 52 47 53 61 54 80 55 45 56
REMARK SMILES IDX 46 57 60 59 81 60 48 61 32 62 33 63 41 64 34 65 35 66 39 67
REMARK SMILES IDX 42 68 36 69 37 70 40 71 38 72 64 73 65 74 73 75 66 76 67 77
REMARK SMILES IDX 71 78 74 79 68 80 69 81 72 82 70 83 49 84 50 85 58 86 51 87
REMARK SMILES IDX 52 88 56 89 59 90 53 91 54 92 57 93 55 94
REMARK H PARENT 3 14 86 23 79 47 47 58
REMARK Flexibility Score: inf
ROOT
ATOM      1  C   UNL A   1      31.287  31.706  26.255  1.00  0.00     0.202 C 
ENDROOT
BRANCH   1   2
ATOM      2  O   UNL A   1      31.933  30.469  26.015  1.00  0.00    -0.374 OA
BRANCH   2   3
ATOM      3  C   UNL A   1      32.216  29.620  27.117  1.00  0.00     0.202 C 
BRANCH   3   4
ATOM      4  C   UNL A   1      32.323  28.102  26.924  1.00  0.00     0.261 C 
BRANCH   4   5
ATOM      5  O   UNL A   1      31.127  27.333  27.179  1.00  0.00    -0.459 OA
BRANCH   5   6
ATOM      6  C   UNL A   1      30.761  26.502  26.157  1.00  0.00     0.370 C 
ATOM      7  O   UNL A   1      29.910  25.622  26.303  1.00  0.00    -0.245 OA
BRANCH   6   8
ATOM      8  C   UNL A   1      31.595  26.646  24.863  1.00  0.00     0.328 C 
BRANCH   8   9
ATOM      9  C   UNL A   1      31.278  27.772  23.868  1.00  0.00     0.049 A 
ATOM     10  C   UNL A   1      33.761  28.375  23.182  1.00  0.00     0.065 C 
ATOM     11  C   UNL A   1      32.275  28.484  23.188  1.00  0.00     0.022 A 
ATOM     12  N   UNL A   1      31.682  29.406  22.370  1.00  0.00    -0.358 N 
ATOM     13  C   UNL A   1      30.321  29.324  22.447  1.00  0.00     0.046 A 
ATOM     14  H   UNL A   1      32.172  30.044  21.801  1.00  0.00     0.166 HD
ATOM     15  C   UNL A   1      30.018  28.293  23.341  1.00  0.00     0.009 A 
ATOM     16  C   UNL A   1      29.357  30.087  21.767  1.00  0.00     0.027 A 
ATOM     17  C   UNL A   1      28.639  28.012  23.498  1.00  0.00     0.011 A 
ATOM     18  C   UNL A   1      28.013  29.801  21.991  1.00  0.00     0.002 A 
ATOM     19  C   UNL A   1      27.655  28.769  22.843  1.00  0.00     0.001 A 
ENDBRANCH   8   9
BRANCH   8  20
ATOM     20  N   UNL A   1      31.866  25.320  24.272  1.00  0.00    -0.319 N 
ATOM     21  C   UNL A   1      33.143  24.702  24.572  1.00  0.00     0.263 C 
ATOM     22  C   UNL A   1      31.568  25.112  22.866  1.00  0.00     0.263 C 
ATOM     23  H   UNL A   1      31.141  24.837  24.803  1.00  0.00     0.349 HD
ATOM     24  C   UNL A   1      33.945  24.868  23.299  1.00  0.00     0.067 C 
ATOM     25  C   UNL A   1      32.901  24.800  22.193  1.00  0.00     0.067 C 
ENDBRANCH   8  20
ENDBRANCH   6   8
ENDBRANCH   5   6
ENDBRANCH   4   5
ENDBRANCH   3   4
ENDBRANCH   2   3
ENDBRANCH   1   2
BRANCH   1  26
ATOM     26  C   UNL A   1      31.922  32.718  27.215  1.00  0.00     0.261 C 
BRANCH  26  27
ATOM     27  O   UNL A   1      33.311  32.963  27.056  1.00  0.00    -0.460 OA
BRANCH  27  28
ATOM     28  C   UNL A   1      33.865  33.752  27.997  1.00  0.00     0.338 C 
ATOM     29  O   UNL A   1      33.485  34.834  28.411  1.00  0.00    -0.246 OA
BRANCH  28  30
ATOM     30  C   UNL A   1      35.006  33.013  28.539  1.00  0.00     0.060 A 
ATOM     31  C   UNL A   1      34.780  31.735  29.055  1.00  0.00     0.016 A 
ATOM     32  C   UNL A   1      36.283  33.578  28.517  1.00  0.00     0.016 A 
ATOM     33  C   UNL A   1      35.846  31.014  29.579  1.00  0.00     0.010 A 
ATOM     34  C   UNL A   1      37.349  32.857  29.049  1.00  0.00     0.010 A 
ATOM     35  C   UNL A   1      37.128  31.582  29.602  1.00  0.00    -0.014 A 
BRANCH  35  36
ATOM     36  C   UNL A   1      38.218  30.883  30.312  1.00  0.00     0.031 A 
ATOM     37  C   UNL A   1      38.467  31.213  31.753  1.00  0.00     0.074 A 
ATOM     38  C   UNL A   1      38.952  29.955  29.676  1.00  0.00     0.049 A 
ATOM     39  N   UNL A   1      39.383  30.750  32.563  1.00  0.00    -0.248 NA
ATOM     40  C   UNL A   1      37.562  32.200  32.365  1.00  0.00     0.031 C 
ATOM     41  C   UNL A   1      38.765  29.543  28.286  1.00  0.00     0.029 A 
ATOM     42  N   UNL A   1      40.005  29.196  30.115  1.00  0.00    -0.354 N 
ATOM     43  C   UNL A   1      39.168  31.391  33.777  1.00  0.00     0.074 A 
ATOM     44  C   UNL A   1      38.057  32.298  33.589  1.00  0.00     0.031 C 
ATOM     45  C   UNL A   1      39.682  28.608  27.982  1.00  0.00     0.029 A 
ATOM     46  C   UNL A   1      40.541  28.387  29.143  1.00  0.00     0.049 A 
ATOM     47  H   UNL A   1      40.346  29.228  31.038  1.00  0.00     0.167 HD
ATOM     48  C   UNL A   1      39.836  31.225  34.941  1.00  0.00     0.037 A 
ATOM     49  C   UNL A   1      41.621  27.585  29.185  1.00  0.00     0.037 A 
ATOM     50  C   UNL A   1      40.940  30.317  35.108  1.00  0.00     0.049 A 
ATOM     51  C   UNL A   1      42.395  27.477  30.474  1.00  0.00     0.074 A 
ATOM     52  C   UNL A   1      41.669  30.045  36.251  1.00  0.00     0.029 A 
ATOM     53  N   UNL A   1      41.481  29.542  34.092  1.00  0.00    -0.354 N 
ATOM     54  N   UNL A   1      42.163  28.052  31.629  1.00  0.00    -0.248 NA
ATOM     55  C   UNL A   1      43.584  26.614  30.464  1.00  0.00     0.031 C 
ATOM     56  C   UNL A   1      42.692  29.154  35.912  1.00  0.00     0.029 A 
ATOM     57  C   UNL A   1      42.563  28.822  34.572  1.00  0.00     0.049 A 
ATOM     58  H   UNL A   1      41.146  29.507  33.167  1.00  0.00     0.167 HD
ATOM     59  C   UNL A   1      43.158  27.607  32.488  1.00  0.00     0.074 A 
ATOM     60  C   UNL A   1      43.987  26.696  31.724  1.00  0.00     0.031 C 
ATOM     61  C   UNL A   1      43.373  27.922  33.789  1.00  0.00     0.037 A 
BRANCH  48  62
ATOM     62  C   UNL A   1      39.415  32.062  36.113  1.00  0.00     0.064 A 
ATOM     63  C   UNL A   1      40.006  33.304  36.386  1.00  0.00     0.173 A 
ATOM     64  C   UNL A   1      38.379  31.630  36.955  1.00  0.00     0.173 A 
ATOM     65  F   UNL A   1      41.010  33.758  35.622  1.00  0.00    -0.203 F 
ATOM     66  C   UNL A   1      39.590  34.073  37.472  1.00  0.00     0.198 A 
ATOM     67  C   UNL A   1      37.945  32.414  38.021  1.00  0.00     0.198 A 
ATOM     68  F   UNL A   1      37.778  30.450  36.738  1.00  0.00    -0.203 F 
ATOM     69  F   UNL A   1      40.200  35.235  37.741  1.00  0.00    -0.200 F 
ATOM     70  C   UNL A   1      38.556  33.630  38.282  1.00  0.00     0.200 A 
ATOM     71  F   UNL A   1      36.937  31.990  38.795  1.00  0.00    -0.200 F 
ATOM     72  F   UNL A   1      38.150  34.374  39.322  1.00  0.00    -0.200 F 
ENDBRANCH  48  62
BRANCH  49  73
ATOM     73  C   UNL A   1      42.047  26.845  27.969  1.00  0.00     0.064 A 
ATOM     74  C   UNL A   1      41.603  25.540  27.718  1.00  0.00     0.173 A 
ATOM     75  C   UNL A   1      42.919  27.426  27.034  1.00  0.00     0.173 A 
ATOM     76  F   UNL A   1      40.786  24.931  28.591  1.00  0.00    -0.203 F 
ATOM     77  C   UNL A   1      42.029  24.837  26.591  1.00  0.00     0.198 A 
ATOM     78  C   UNL A   1      43.318  26.735  25.892  1.00  0.00     0.198 A 
ATOM     79  F   UNL A   1      43.375  28.673  27.225  1.00  0.00    -0.203 F 
ATOM     80  F   UNL A   1      41.626  23.573  26.401  1.00  0.00    -0.200 F 
ATOM     81  C   UNL A   1      42.880  25.438  25.676  1.00  0.00     0.200 A 
ATOM     82  F   UNL A   1      44.129  27.326  25.004  1.00  0.00    -0.200 F 
ATOM     83  F   UNL A   1      43.284  24.765  24.591  1.00  0.00    -0.200 F 
ENDBRANCH  49  73
BRANCH  61  84
ATOM     84  C   UNL A   1      44.537  27.268  34.475  1.00  0.00     0.064 A 
ATOM     85  C   UNL A   1      44.414  26.014  35.092  1.00  0.00     0.173 A 
ATOM     86  C   UNL A   1      45.803  27.873  34.459  1.00  0.00     0.173 A 
ATOM     87  F   UNL A   1      43.222  25.401  35.147  1.00  0.00    -0.203 F 
ATOM     88  C   UNL A   1      45.514  25.399  35.685  1.00  0.00     0.198 A 
ATOM     89  C   UNL A   1      46.907  27.240  35.023  1.00  0.00     0.198 A 
ATOM     90  F   UNL A   1      45.974  29.069  33.875  1.00  0.00    -0.203 F 
ATOM     91  F   UNL A   1      45.366  24.221  36.306  1.00  0.00    -0.200 F 
ATOM     92  C   UNL A   1      46.760  26.007  35.641  1.00  0.00     0.200 A 
ATOM     93  F   UNL A   1      48.113  27.822  34.965  1.00  0.00    -0.200 F 
ATOM     94  F   UNL A   1      47.821  25.406  36.198  1.00  0.00    -0.200 F 
ENDBRANCH  61  84
ENDBRANCH  35  36
ENDBRANCH  28  30
ENDBRANCH  27  28
ENDBRANCH  26  27
ENDBRANCH   1  26
TORSDOF 16
ENDMDL
MODEL 2
REMARK VINA RESULT:     -11.8      5.122     10.637
REMARK SMILES Cc1[nH]c2ccccc2c1[C@@H](C(=O)OCCOCCOC(=O)c1ccc(-c2c3nc(c(-c4c(F)c(F)c(F)c(F)c4F)c4ccc([nH]4)c(-c4c(F)c(F)c(F)c(F)c4F)c4nc(c(-c5c(F)c(F)c(F)c(F)c5F)c5ccc2[nH]5)C=C4)C=C3)cc1)[NH+]1CCCC1
REMARK SMILES IDX 18 1 17 2 16 3 15 4 14 5 12 6 13 7 11 8 10 9 1 10 2 11 3 12
REMARK SMILES IDX 4 13 9 15 5 16 8 17 6 18 7 19 86 20 87 21 90 22 88 24 89 25
REMARK SMILES IDX 19 26 20 27 21 28 22 29 23 30 24 31 85 32 25 33 84 34 26 35
REMARK SMILES IDX 27 36 28 37 78 38 29 39 83 40 77 41 79 42 30 43 82 44 76 45
REMARK SMILES IDX 75 46 31 48 63 49 43 50 62 51 44 52 47 53 61 54 80 55 45 56
REMARK SMILES IDX 46 57 60 59 81 60 48 61 32 62 33 63 41 64 34 65 35 66 39 67
REMARK SMILES IDX 42 68 36 69 37 70 40 71 38 72 64 73 65 74 73 75 66 76 67 77
REMARK SMILES IDX 71 78 74 79 68 80 69 81 72 82 70 83 49 84 50 85 58 86 51 87
REMARK SMILES IDX 52 88 56 89 59 90 53 91 54 92 57 93 55 94
REMARK H PARENT 3 14 86 23 79 47 47 58
REMARK Flexibility Score: inf
ROOT
ATOM      1  C   UNL A   1      37.889  19.647  24.918  1.00  0.00     0.202 C 
ENDROOT
BRANCH   1   2
ATOM      2  O   UNL A   1      37.066  20.784  25.103  1.00  0.00    -0.374 OA
BRANCH   2   3
ATOM      3  C   UNL A   1      37.197  21.876  24.205  1.00  0.00     0.202 C 
BRANCH   3   4
ATOM      4  C   UNL A   1      36.388  23.163  24.420  1.00  0.00     0.261 C 
BRANCH   4   5
ATOM      5  O   UNL A   1      35.710  23.699  23.263  1.00  0.00    -0.459 OA
BRANCH   5   6
ATOM      6  C   UNL A   1      34.408  23.303  23.137  1.00  0.00     0.370 C 
ATOM      7  O   UNL A   1      33.859  23.199  22.037  1.00  0.00    -0.245 OA
BRANCH   6   8
ATOM      8  C   UNL A   1      33.637  23.147  24.469  1.00  0.00     0.328 C 
BRANCH   8   9
ATOM      9  C   UNL A   1      33.476  21.757  25.102  1.00  0.00     0.049 A 
ATOM     10  C   UNL A   1      34.001  22.426  27.608  1.00  0.00     0.065 C 
ATOM     11  C   UNL A   1      33.664  21.524  26.471  1.00  0.00     0.022 A 
ATOM     12  N   UNL A   1      33.439  20.200  26.730  1.00  0.00    -0.358 N 
ATOM     13  C   UNL A   1      33.074  19.535  25.594  1.00  0.00     0.046 A 
ATOM     14  H   UNL A   1      33.526  19.782  27.618  1.00  0.00     0.166 HD
ATOM     15  C   UNL A   1      33.047  20.471  24.557  1.00  0.00     0.009 A 
ATOM     16  C   UNL A   1      32.756  18.176  25.438  1.00  0.00     0.027 A 
ATOM     17  C   UNL A   1      32.619  19.974  23.302  1.00  0.00     0.011 A 
ATOM     18  C   UNL A   1      32.385  17.727  24.173  1.00  0.00     0.002 A 
ATOM     19  C   UNL A   1      32.310  18.617  23.115  1.00  0.00     0.001 A 
ENDBRANCH   8   9
BRANCH   8  20
ATOM     20  N   UNL A   1      32.433  24.002  24.473  1.00  0.00    -0.319 N 
ATOM     21  C   UNL A   1      32.527  25.287  25.137  1.00  0.00     0.263 C 
ATOM     22  C   UNL A   1      31.154  23.399  24.806  1.00  0.00     0.263 C 
ATOM     23  H   UNL A   1      32.433  24.158  23.465  1.00  0.00     0.349 HD
ATOM     24  C   UNL A   1      31.771  25.093  26.434  1.00  0.00     0.067 C 
ATOM     25  C   UNL A   1      30.679  24.094  26.079  1.00  0.00     0.067 C 
ENDBRANCH   8  20
ENDBRANCH   6   8
ENDBRANCH   5   6
ENDBRANCH   4   5
ENDBRANCH   3   4
ENDBRANCH   2   3
ENDBRANCH   1   2
BRANCH   1  26
ATOM     26  C   UNL A   1      39.245  19.571  25.627  1.00  0.00     0.261 C 
BRANCH  26  27
ATOM     27  O   UNL A   1      39.496  20.543  26.631  1.00  0.00    -0.460 OA
BRANCH  27  28
ATOM     28  C   UNL A   1      40.753  20.556  27.114  1.00  0.00     0.338 C 
ATOM     29  O   UNL A   1      41.535  19.630  27.242  1.00  0.00    -0.246 OA
BRANCH  28  30
ATOM     30  C   UNL A   1      41.078  21.957  27.385  1.00  0.00     0.060 A 
ATOM     31  C   UNL A   1      40.515  22.937  26.563  1.00  0.00     0.016 A 
ATOM     32  C   UNL A   1      41.916  22.291  28.451  1.00  0.00     0.016 A 
ATOM     33  C   UNL A   1      40.811  24.274  26.796  1.00  0.00     0.010 A 
ATOM     34  C   UNL A   1      42.217  23.632  28.679  1.00  0.00     0.010 A 
ATOM     35  C   UNL A   1      41.682  24.624  27.837  1.00  0.00    -0.014 A 
BRANCH  35  36
ATOM     36  C   UNL A   1      42.125  26.027  27.972  1.00  0.00     0.031 A 
ATOM     37  C   UNL A   1      43.446  26.425  27.385  1.00  0.00     0.074 A 
ATOM     38  C   UNL A   1      41.341  26.926  28.590  1.00  0.00     0.049 A 
ATOM     39  N   UNL A   1      44.048  27.585  27.409  1.00  0.00    -0.248 NA
ATOM     40  C   UNL A   1      44.192  25.371  26.677  1.00  0.00     0.031 C 
ATOM     41  C   UNL A   1      40.027  26.642  29.163  1.00  0.00     0.029 A 
ATOM     42  N   UNL A   1      41.540  28.258  28.842  1.00  0.00    -0.354 N 
ATOM     43  C   UNL A   1      45.243  27.401  26.725  1.00  0.00     0.074 A 
ATOM     44  C   UNL A   1      45.297  26.012  26.326  1.00  0.00     0.031 C 
ATOM     45  C   UNL A   1      39.538  27.769  29.710  1.00  0.00     0.029 A 
ATOM     46  C   UNL A   1      40.522  28.838  29.558  1.00  0.00     0.049 A 
ATOM     47  H   UNL A   1      42.336  28.752  28.540  1.00  0.00     0.167 HD
ATOM     48  C   UNL A   1      46.199  28.318  26.449  1.00  0.00     0.037 A 
ATOM     49  C   UNL A   1      40.417  30.085  30.057  1.00  0.00     0.037 A 
ATOM     50  C   UNL A   1      46.128  29.696  26.855  1.00  0.00     0.049 A 
ATOM     51  C   UNL A   1      41.534  31.064  29.803  1.00  0.00     0.074 A 
ATOM     52  C   UNL A   1      47.024  30.718  26.604  1.00  0.00     0.029 A 
ATOM     53  N   UNL A   1      45.100  30.240  27.614  1.00  0.00    -0.354 N 
ATOM     54  N   UNL A   1      42.642  30.898  29.120  1.00  0.00    -0.248 NA
ATOM     55  C   UNL A   1      41.391  32.402  30.391  1.00  0.00     0.031 C 
ATOM     56  C   UNL A   1      46.573  31.865  27.263  1.00  0.00     0.029 A 
ATOM     57  C   UNL A   1      45.362  31.575  27.874  1.00  0.00     0.049 A 
ATOM     58  H   UNL A   1      44.303  29.751  27.920  1.00  0.00     0.167 HD
ATOM     59  C   UNL A   1      43.315  32.110  29.177  1.00  0.00     0.074 A 
ATOM     60  C   UNL A   1      42.481  33.011  29.947  1.00  0.00     0.031 C 
ATOM     61  C   UNL A   1      44.515  32.451  28.645  1.00  0.00     0.037 A 
BRANCH  48  62
ATOM     62  C   UNL A   1      47.416  27.853  25.705  1.00  0.00     0.064 A 
ATOM     63  C   UNL A   1      47.441  27.769  24.305  1.00  0.00     0.173 A 
ATOM     64  C   UNL A   1      48.588  27.522  26.402  1.00  0.00     0.173 A 
ATOM     65  F   UNL A   1      46.344  28.060  23.591  1.00  0.00    -0.203 F 
ATOM     66  C   UNL A   1      48.587  27.347  23.632  1.00  0.00     0.198 A 
ATOM     67  C   UNL A   1      49.740  27.130  25.726  1.00  0.00     0.198 A 
ATOM     68  F   UNL A   1      48.620  27.587  27.742  1.00  0.00    -0.203 F 
ATOM     69  F   UNL A   1      48.573  27.230  22.298  1.00  0.00    -0.200 F 
ATOM     70  C   UNL A   1      49.737  27.037  24.343  1.00  0.00     0.200 A 
ATOM     71  F   UNL A   1      50.854  26.843  26.414  1.00  0.00    -0.200 F 
ATOM     72  F   UNL A   1      50.841  26.640  23.694  1.00  0.00    -0.200 F 
ENDBRANCH  48  62
BRANCH  49  73
ATOM     73  C   UNL A   1      39.230  30.466  30.864  1.00  0.00     0.064 A 
ATOM     74  C   UNL A   1      38.119  31.086  30.276  1.00  0.00     0.173 A 
ATOM     75  C   UNL A   1      39.185  30.227  32.247  1.00  0.00     0.173 A 
ATOM     76  F   UNL A   1      38.121  31.357  28.962  1.00  0.00    -0.203 F 
ATOM     77  C   UNL A   1      37.019  31.471  31.042  1.00  0.00     0.198 A 
ATOM     78  C   UNL A   1      38.072  30.583  33.005  1.00  0.00     0.198 A 
ATOM     79  F   UNL A   1      40.221  29.637  32.861  1.00  0.00    -0.203 F 
ATOM     80  F   UNL A   1      35.991  32.106  30.462  1.00  0.00    -0.200 F 
ATOM     81  C   UNL A   1      36.993  31.212  32.404  1.00  0.00     0.200 A 
ATOM     82  F   UNL A   1      38.046  30.317  34.319  1.00  0.00    -0.200 F 
ATOM     83  F   UNL A   1      35.934  31.577  33.138  1.00  0.00    -0.200 F 
ENDBRANCH  49  73
BRANCH  61  84
ATOM     84  C   UNL A   1      44.992  33.857  28.863  1.00  0.00     0.064 A 
ATOM     85  C   UNL A   1      45.830  34.189  29.938  1.00  0.00     0.173 A 
ATOM     86  C   UNL A   1      44.660  34.870  27.949  1.00  0.00     0.173 A 
ATOM     87  F   UNL A   1      46.164  33.260  30.846  1.00  0.00    -0.203 F 
ATOM     88  C   UNL A   1      46.302  35.489  30.101  1.00  0.00     0.198 A 
ATOM     89  C   UNL A   1      45.161  36.160  28.097  1.00  0.00     0.198 A 
ATOM     90  F   UNL A   1      43.868  34.602  26.900  1.00  0.00    -0.203 F 
ATOM     91  F   UNL A   1      47.066  35.795  31.158  1.00  0.00    -0.200 F 
ATOM     92  C   UNL A   1      45.975  36.470  29.175  1.00  0.00     0.200 A 
ATOM     93  F   UNL A   1      44.858  37.102  27.193  1.00  0.00    -0.200 F 
ATOM     94  F   UNL A   1      46.444  37.717  29.325  1.00  0.00    -0.200 F 
ENDBRANCH  61  84
ENDBRANCH  35  36
ENDBRANCH  28  30
ENDBRANCH  27  28
ENDBRANCH  26  27
ENDBRANCH   1  26
TORSDOF 16
ENDMDL
MODEL 3
REMARK VINA RESULT:     -11.7      0.959      7.258
REMARK SMILES Cc1[nH]c2ccccc2c1[C@@H](C(=O)OCCOCCOC(=O)c1ccc(-c2c3nc(c(-c4c(F)c(F)c(F)c(F)c4F)c4ccc([nH]4)c(-c4c(F)c(F)c(F)c(F)c4F)c4nc(c(-c5c(F)c(F)c(F)c(F)c5F)c5ccc2[nH]5)C=C4)C=C3)cc1)[NH+]1CCCC1
REMARK SMILES IDX 18 1 17 2 16 3 15 4 14 5 12 6 13 7 11 8 10 9 1 10 2 11 3 12
REMARK SMILES IDX 4 13 9 15 5 16 8 17 6 18 7 19 86 20 87 21 90 22 88 24 89 25
REMARK SMILES IDX 19 26 20 27 21 28 22 29 23 30 24 31 85 32 25 33 84 34 26 35
REMARK SMILES IDX 27 36 28 37 78 38 29 39 83 40 77 41 79 42 30 43 82 44 76 45
REMARK SMILES IDX 75 46 31 48 63 49 43 50 62 51 44 52 47 53 61 54 80 55 45 56
REMARK SMILES IDX 46 57 60 59 81 60 48 61 32 62 33 63 41 64 34 65 35 66 39 67
REMARK SMILES IDX 42 68 36 69 37 70 40 71 38 72 64 73 65 74 73 75 66 76 67 77
REMARK SMILES IDX 71 78 74 79 68 80 69 81 72 82 70 83 49 84 50 85 58 86 51 87
REMARK SMILES IDX 52 88 56 89 59 90 53 91 54 92 57 93 55 94
REMARK H PARENT 3 14 86 23 79 47 47 58
REMARK Flexibility Score: inf
ROOT
ATOM      1  C   UNL A   1      31.858  31.586  26.825  1.00  0.00     0.202 C 
ENDROOT
BRANCH   1   2
ATOM      2  O   UNL A   1      33.047  30.853  27.054  1.00  0.00    -0.374 OA
BRANCH   2   3
ATOM      3  C   UNL A   1      33.035  29.448  26.846  1.00  0.00     0.202 C 
BRANCH   3   4
ATOM      4  C   UNL A   1      31.773  28.627  27.149  1.00  0.00     0.261 C 
BRANCH   4   5
ATOM      5  O   UNL A   1      31.892  27.193  27.022  1.00  0.00    -0.459 OA
BRANCH   5   6
ATOM      6  C   UNL A   1      31.135  26.650  26.022  1.00  0.00     0.370 C 
ATOM      7  O   UNL A   1      30.091  26.036  26.252  1.00  0.00    -0.245 OA
BRANCH   6   8
ATOM      8  C   UNL A   1      31.761  26.728  24.609  1.00  0.00     0.328 C 
BRANCH   8   9
ATOM      9  C   UNL A   1      31.380  27.877  23.665  1.00  0.00     0.049 A 
ATOM     10  C   UNL A   1      33.819  28.550  22.892  1.00  0.00     0.065 C 
ATOM     11  C   UNL A   1      32.333  28.628  22.965  1.00  0.00     0.022 A 
ATOM     12  N   UNL A   1      31.688  29.563  22.203  1.00  0.00    -0.358 N 
ATOM     13  C   UNL A   1      30.333  29.452  22.336  1.00  0.00     0.046 A 
ATOM     14  H   UNL A   1      32.140  30.227  21.633  1.00  0.00     0.166 HD
ATOM     15  C   UNL A   1      30.089  28.388  23.210  1.00  0.00     0.009 A 
ATOM     16  C   UNL A   1      29.326  30.215  21.723  1.00  0.00     0.027 A 
ATOM     17  C   UNL A   1      28.724  28.076  23.417  1.00  0.00     0.011 A 
ATOM     18  C   UNL A   1      27.999  29.896  21.995  1.00  0.00     0.002 A 
ATOM     19  C   UNL A   1      27.697  28.833  22.829  1.00  0.00     0.001 A 
ENDBRANCH   8   9
BRANCH   8  20
ATOM     20  N   UNL A   1      31.828  25.384  23.999  1.00  0.00    -0.319 N 
ATOM     21  C   UNL A   1      32.952  24.542  24.356  1.00  0.00     0.263 C 
ATOM     22  C   UNL A   1      31.588  25.258  22.572  1.00  0.00     0.263 C 
ATOM     23  H   UNL A   1      30.996  25.031  24.472  1.00  0.00     0.349 HD
ATOM     24  C   UNL A   1      33.850  24.582  23.139  1.00  0.00     0.067 C 
ATOM     25  C   UNL A   1      32.884  24.723  21.971  1.00  0.00     0.067 C 
ENDBRANCH   8  20
ENDBRANCH   6   8
ENDBRANCH   5   6
ENDBRANCH   4   5
ENDBRANCH   3   4
ENDBRANCH   2   3
ENDBRANCH   1   2
BRANCH   1  26
ATOM     26  C   UNL A   1      31.797  33.069  27.208  1.00  0.00     0.261 C 
BRANCH  26  27
ATOM     27  O   UNL A   1      33.034  33.764  27.267  1.00  0.00    -0.460 OA
BRANCH  27  28
ATOM     28  C   UNL A   1      33.290  34.379  28.437  1.00  0.00     0.338 C 
ATOM     29  O   UNL A   1      32.653  35.253  28.999  1.00  0.00    -0.246 OA
BRANCH  28  30
ATOM     30  C   UNL A   1      34.471  33.724  29.000  1.00  0.00     0.060 A 
ATOM     31  C   UNL A   1      34.283  32.583  29.784  1.00  0.00     0.016 A 
ATOM     32  C   UNL A   1      35.747  34.228  28.738  1.00  0.00     0.016 A 
ATOM     33  C   UNL A   1      35.387  31.944  30.334  1.00  0.00     0.010 A 
ATOM     34  C   UNL A   1      36.852  33.590  29.296  1.00  0.00     0.010 A 
ATOM     35  C   UNL A   1      36.672  32.460  30.114  1.00  0.00    -0.014 A 
BRANCH  35  36
ATOM     36  C   UNL A   1      37.821  31.879  30.838  1.00  0.00     0.031 A 
ATOM     37  C   UNL A   1      38.655  30.839  30.150  1.00  0.00     0.074 A 
ATOM     38  C   UNL A   1      38.119  32.298  32.079  1.00  0.00     0.049 A 
ATOM     39  N   UNL A   1      39.686  30.173  30.600  1.00  0.00    -0.248 NA
ATOM     40  C   UNL A   1      38.273  30.502  28.769  1.00  0.00     0.031 C 
ATOM     41  C   UNL A   1      37.388  33.326  32.817  1.00  0.00     0.029 A 
ATOM     42  N   UNL A   1      39.112  31.904  32.938  1.00  0.00    -0.354 N 
ATOM     43  C   UNL A   1      40.073  29.337  29.560  1.00  0.00     0.074 A 
ATOM     44  C   UNL A   1      39.149  29.555  28.470  1.00  0.00     0.031 C 
ATOM     45  C   UNL A   1      37.953  33.477  34.027  1.00  0.00     0.029 A 
ATOM     46  C   UNL A   1      39.059  32.531  34.159  1.00  0.00     0.049 A 
ATOM     47  H   UNL A   1      39.796  31.237  32.704  1.00  0.00     0.167 HD
ATOM     48  C   UNL A   1      41.115  28.474  29.524  1.00  0.00     0.037 A 
ATOM     49  C   UNL A   1      39.804  32.335  35.264  1.00  0.00     0.037 A 
ATOM     50  C   UNL A   1      42.024  28.271  30.621  1.00  0.00     0.049 A 
ATOM     51  C   UNL A   1      40.909  31.311  35.221  1.00  0.00     0.074 A 
ATOM     52  C   UNL A   1      43.132  27.446  30.682  1.00  0.00     0.029 A 
ATOM     53  N   UNL A   1      41.918  28.894  31.857  1.00  0.00    -0.354 N 
ATOM     54  N   UNL A   1      41.298  30.554  34.224  1.00  0.00    -0.248 NA
ATOM     55  C   UNL A   1      41.675  31.110  36.459  1.00  0.00     0.031 C 
ATOM     56  C   UNL A   1      43.659  27.520  31.974  1.00  0.00     0.029 A 
ATOM     57  C   UNL A   1      42.917  28.439  32.701  1.00  0.00     0.049 A 
ATOM     58  H   UNL A   1      41.235  29.560  32.097  1.00  0.00     0.167 HD
ATOM     59  C   UNL A   1      42.364  29.805  34.703  1.00  0.00     0.074 A 
ATOM     60  C   UNL A   1      42.573  30.213  36.077  1.00  0.00     0.031 C 
ATOM     61  C   UNL A   1      43.103  28.862  34.067  1.00  0.00     0.037 A 
BRANCH  48  62
ATOM     62  C   UNL A   1      41.307  27.664  28.276  1.00  0.00     0.064 A 
ATOM     63  C   UNL A   1      42.136  28.097  27.231  1.00  0.00     0.173 A 
ATOM     64  C   UNL A   1      40.678  26.417  28.138  1.00  0.00     0.173 A 
ATOM     65  F   UNL A   1      42.749  29.288  27.305  1.00  0.00    -0.203 F 
ATOM     66  C   UNL A   1      42.311  27.323  26.086  1.00  0.00     0.198 A 
ATOM     67  C   UNL A   1      40.878  25.632  27.006  1.00  0.00     0.198 A 
ATOM     68  F   UNL A   1      39.875  25.954  29.109  1.00  0.00    -0.203 F 
ATOM     69  F   UNL A   1      43.071  27.778  25.081  1.00  0.00    -0.200 F 
ATOM     70  C   UNL A   1      41.689  26.089  25.979  1.00  0.00     0.200 A 
ATOM     71  F   UNL A   1      40.286  24.434  26.911  1.00  0.00    -0.200 F 
ATOM     72  F   UNL A   1      41.864  25.340  24.880  1.00  0.00    -0.200 F 
ENDBRANCH  48  62
BRANCH  49  73
ATOM     73  C   UNL A   1      39.514  33.102  36.503  1.00  0.00     0.064 A 
ATOM     74  C   UNL A   1      38.592  32.635  37.449  1.00  0.00     0.173 A 
ATOM     75  C   UNL A   1      40.148  34.328  36.763  1.00  0.00     0.173 A 
ATOM     76  F   UNL A   1      37.942  31.480  37.238  1.00  0.00    -0.203 F 
ATOM     77  C   UNL A   1      38.299  33.373  38.596  1.00  0.00     0.198 A 
ATOM     78  C   UNL A   1      39.878  35.048  37.924  1.00  0.00     0.198 A 
ATOM     79  F   UNL A   1      41.039  34.822  35.891  1.00  0.00    -0.203 F 
ATOM     80  F   UNL A   1      37.377  32.925  39.460  1.00  0.00    -0.200 F 
ATOM     81  C   UNL A   1      38.948  34.575  38.836  1.00  0.00     0.200 A 
ATOM     82  F   UNL A   1      40.520  36.202  38.158  1.00  0.00    -0.200 F 
ATOM     83  F   UNL A   1      38.671  35.280  39.940  1.00  0.00    -0.200 F 
ENDBRANCH  49  73
BRANCH  61  84
ATOM     84  C   UNL A   1      44.215  28.218  34.843  1.00  0.00     0.064 A 
ATOM     85  C   UNL A   1      44.022  27.017  35.542  1.00  0.00     0.173 A 
ATOM     86  C   UNL A   1      45.504  28.775  34.835  1.00  0.00     0.173 A 
ATOM     87  F   UNL A   1      42.806  26.453  35.593  1.00  0.00    -0.203 F 
ATOM     88  C   UNL A   1      45.075  26.408  36.220  1.00  0.00     0.198 A 
ATOM     89  C   UNL A   1      46.560  28.145  35.485  1.00  0.00     0.198 A 
ATOM     90  F   UNL A   1      45.742  29.918  34.175  1.00  0.00    -0.203 F 
ATOM     91  F   UNL A   1      44.859  25.284  36.916  1.00  0.00    -0.200 F 
ATOM     92  C   UNL A   1      46.344  26.966  36.182  1.00  0.00     0.200 A 
ATOM     93  F   UNL A   1      47.789  28.677  35.434  1.00  0.00    -0.200 F 
ATOM     94  F   UNL A   1      47.359  26.369  36.822  1.00  0.00    -0.200 F 
ENDBRANCH  61  84
ENDBRANCH  35  36
ENDBRANCH  28  30
ENDBRANCH  27  28
ENDBRANCH  26  27
ENDBRANCH   1  26
TORSDOF 16
ENDMDL
