MODEL 1
REMARK VINA RESULT:     -11.1      0.000      0.000
REMARK SMILES Cc1cc(C)cc(C[N@@H+]2CCO[C@@H](CC(=O)OCCOCCOC(=O)c3ccc(-c4c5nc(c(-c6c(F)c(F)c(F)c(F)c6F)c6ccc([nH]6)c(-c6c(F)c(F)c(F)c(F)c6F)c6nc(c(-c7c(F)c(F)c(F)c(F)c7F)c7ccc4[nH]7)C=C6)C=C5)cc3)C2)c1
REMARK SMILES IDX 19 1 18 2 17 3 15 4 16 5 14 6 13 7 9 8 10 9 89 10 11 12
REMARK SMILES IDX 12 13 8 14 7 15 1 16 2 17 3 18 90 19 4 20 5 21 6 22 20 23
REMARK SMILES IDX 21 24 22 25 23 26 24 27 25 28 26 29 27 30 88 31 28 32 87 33
REMARK SMILES IDX 29 34 30 35 31 36 81 37 32 38 86 39 80 40 82 41 33 42 85 43
REMARK SMILES IDX 79 44 78 45 34 47 66 48 46 49 65 50 47 51 50 52 64 53 83 54
REMARK SMILES IDX 48 55 49 56 63 58 84 59 51 60 35 61 36 62 44 63 37 64 38 65
REMARK SMILES IDX 42 66 45 67 39 68 40 69 43 70 41 71 67 72 68 73 76 74 69 75
REMARK SMILES IDX 70 76 74 77 77 78 71 79 72 80 75 81 73 82 52 83 53 84 61 85
REMARK SMILES IDX 54 86 55 87 59 88 62 89 56 90 57 91 60 92 58 93
REMARK H PARENT 9 11 82 46 50 57
REMARK Flexibility Score: inf
ROOT
ATOM      1  C   UNL A   1      35.353  22.717  25.089  1.00  0.00     0.202 C 
ENDROOT
BRANCH   1   2
ATOM      2  C   UNL A   1      34.388  22.505  23.917  1.00  0.00     0.261 C 
BRANCH   2   3
ATOM      3  O   UNL A   1      33.065  22.044  24.274  1.00  0.00    -0.463 OA
BRANCH   3   4
ATOM      4  C   UNL A   1      32.137  22.139  23.281  1.00  0.00     0.308 C 
ATOM      5  O   UNL A   1      32.161  21.482  22.246  1.00  0.00    -0.252 OA
BRANCH   4   6
ATOM      6  C   UNL A   1      31.160  23.260  23.484  1.00  0.00     0.160 C 
BRANCH   6   7
ATOM      7  C   UNL A   1      31.504  24.709  23.141  1.00  0.00     0.184 C 
ATOM      8  N   UNL A   1      32.891  26.753  23.834  1.00  0.00    -0.327 N 
ATOM      9  C   UNL A   1      33.627  26.568  22.580  1.00  0.00     0.291 C 
ATOM     10  C   UNL A   1      32.211  25.515  24.260  1.00  0.00     0.295 C 
ATOM     11  H   UNL A   1      33.586  26.901  24.565  1.00  0.00     0.348 HD
ATOM     12  C   UNL A   1      32.878  25.774  21.503  1.00  0.00     0.222 C 
ATOM     13  O   UNL A   1      32.396  24.537  22.010  1.00  0.00    -0.366 OA
BRANCH   8  14
ATOM     14  C   UNL A   1      32.195  28.035  23.997  1.00  0.00     0.299 C 
BRANCH  14  15
ATOM     15  C   UNL A   1      32.549  28.887  25.193  1.00  0.00     0.007 A 
ATOM     16  C   UNL A   1      31.340  32.137  26.780  1.00  0.00     0.044 C 
ATOM     17  C   UNL A   1      32.143  30.897  26.520  1.00  0.00    -0.050 A 
ATOM     18  C   UNL A   1      33.364  30.704  27.172  1.00  0.00     0.006 A 
ATOM     19  C   UNL A   1      31.736  29.966  25.557  1.00  0.00     0.013 A 
ATOM     20  C   UNL A   1      34.128  29.560  26.921  1.00  0.00    -0.050 A 
ATOM     21  C   UNL A   1      35.449  29.373  27.605  1.00  0.00     0.044 C 
ATOM     22  C   UNL A   1      33.687  28.638  25.965  1.00  0.00     0.013 A 
ENDBRANCH  14  15
ENDBRANCH   8  14
ENDBRANCH   6   7
ENDBRANCH   4   6
ENDBRANCH   3   4
ENDBRANCH   2   3
ENDBRANCH   1   2
BRANCH   1  23
ATOM     23  O   UNL A   1      35.803  21.568  25.799  1.00  0.00    -0.374 OA
BRANCH  23  24
ATOM     24  C   UNL A   1      36.243  20.457  25.035  1.00  0.00     0.202 C 
BRANCH  24  25
ATOM     25  C   UNL A   1      37.737  20.145  25.071  1.00  0.00     0.261 C 
BRANCH  25  26
ATOM     26  O   UNL A   1      38.570  21.289  25.315  1.00  0.00    -0.460 OA
BRANCH  26  27
ATOM     27  C   UNL A   1      39.490  21.135  26.294  1.00  0.00     0.338 C 
ATOM     28  O   UNL A   1      40.001  20.095  26.684  1.00  0.00    -0.246 OA
BRANCH  27  29
ATOM     29  C   UNL A   1      39.884  22.455  26.813  1.00  0.00     0.060 A 
ATOM     30  C   UNL A   1      39.320  23.603  26.245  1.00  0.00     0.016 A 
ATOM     31  C   UNL A   1      40.887  22.559  27.778  1.00  0.00     0.016 A 
ATOM     32  C   UNL A   1      39.772  24.864  26.635  1.00  0.00     0.010 A 
ATOM     33  C   UNL A   1      41.338  23.825  28.169  1.00  0.00     0.010 A 
ATOM     34  C   UNL A   1      40.801  24.984  27.582  1.00  0.00    -0.014 A 
BRANCH  34  35
ATOM     35  C   UNL A   1      41.376  26.317  27.888  1.00  0.00     0.031 A 
ATOM     36  C   UNL A   1      42.789  26.630  27.478  1.00  0.00     0.074 A 
ATOM     37  C   UNL A   1      40.637  27.250  28.515  1.00  0.00     0.049 A 
ATOM     38  N   UNL A   1      43.479  27.730  27.646  1.00  0.00    -0.248 NA
ATOM     39  C   UNL A   1      43.523  25.557  26.790  1.00  0.00     0.031 C 
ATOM     40  C   UNL A   1      39.254  27.073  28.953  1.00  0.00     0.029 A 
ATOM     41  N   UNL A   1      40.950  28.531  28.898  1.00  0.00    -0.354 N 
ATOM     42  C   UNL A   1      44.725  27.485  27.083  1.00  0.00     0.074 A 
ATOM     43  C   UNL A   1      44.708  26.120  26.599  1.00  0.00     0.031 C 
ATOM     44  C   UNL A   1      38.836  28.204  29.547  1.00  0.00     0.029 A 
ATOM     45  C   UNL A   1      39.930  29.175  29.554  1.00  0.00     0.049 A 
ATOM     46  H   UNL A   1      41.823  28.949  28.718  1.00  0.00     0.167 HD
ATOM     47  C   UNL A   1      45.780  28.326  26.967  1.00  0.00     0.037 A 
ATOM     48  C   UNL A   1      39.888  30.402  30.108  1.00  0.00     0.037 A 
ATOM     49  C   UNL A   1      45.797  29.682  27.448  1.00  0.00     0.049 A 
ATOM     50  C   UNL A   1      41.096  31.299  30.015  1.00  0.00     0.074 A 
ATOM     51  C   UNL A   1      46.809  30.621  27.351  1.00  0.00     0.029 A 
ATOM     52  N   UNL A   1      44.752  30.291  28.127  1.00  0.00    -0.354 N 
ATOM     53  N   UNL A   1      42.250  31.076  29.434  1.00  0.00    -0.248 NA
ATOM     54  C   UNL A   1      40.992  32.621  30.649  1.00  0.00     0.031 C 
ATOM     55  C   UNL A   1      46.394  31.783  28.011  1.00  0.00     0.029 A 
ATOM     56  C   UNL A   1      45.106  31.584  28.478  1.00  0.00     0.049 A 
ATOM     57  H   UNL A   1      43.887  29.866  28.330  1.00  0.00     0.167 HD
ATOM     58  C   UNL A   1      42.996  32.233  29.608  1.00  0.00     0.074 A 
ATOM     59  C   UNL A   1      42.162  33.163  30.339  1.00  0.00     0.031 C 
ATOM     60  C   UNL A   1      44.260  32.502  29.197  1.00  0.00     0.037 A 
BRANCH  47  61
ATOM     61  C   UNL A   1      47.017  27.798  26.301  1.00  0.00     0.064 A 
ATOM     62  C   UNL A   1      48.088  27.283  27.046  1.00  0.00     0.173 A 
ATOM     63  C   UNL A   1      47.114  27.766  24.903  1.00  0.00     0.173 A 
ATOM     64  F   UNL A   1      48.048  27.299  28.387  1.00  0.00    -0.203 F 
ATOM     65  C   UNL A   1      49.221  26.776  26.414  1.00  0.00     0.198 A 
ATOM     66  C   UNL A   1      48.237  27.236  24.274  1.00  0.00     0.198 A 
ATOM     67  F   UNL A   1      46.114  28.241  24.144  1.00  0.00    -0.203 F 
ATOM     68  F   UNL A   1      50.250  26.325  27.147  1.00  0.00    -0.200 F 
ATOM     69  C   UNL A   1      49.292  26.748  25.029  1.00  0.00     0.200 A 
ATOM     70  F   UNL A   1      48.300  27.199  22.935  1.00  0.00    -0.200 F 
ATOM     71  F   UNL A   1      50.380  26.254  24.423  1.00  0.00    -0.200 F 
ENDBRANCH  47  61
BRANCH  48  72
ATOM     72  C   UNL A   1      38.657  30.861  30.800  1.00  0.00     0.064 A 
ATOM     73  C   UNL A   1      37.594  31.431  30.084  1.00  0.00     0.173 A 
ATOM     74  C   UNL A   1      38.524  30.755  32.192  1.00  0.00     0.173 A 
ATOM     75  F   UNL A   1      37.685  31.578  28.755  1.00  0.00    -0.203 F 
ATOM     76  C   UNL A   1      36.452  31.890  30.738  1.00  0.00     0.198 A 
ATOM     77  C   UNL A   1      37.370  31.190  32.840  1.00  0.00     0.198 A 
ATOM     78  F   UNL A   1      39.513  30.220  32.922  1.00  0.00    -0.203 F 
ATOM     79  F   UNL A   1      35.469  32.470  30.035  1.00  0.00    -0.200 F 
ATOM     80  C   UNL A   1      36.338  31.764  32.115  1.00  0.00     0.200 A 
ATOM     81  F   UNL A   1      37.260  31.057  34.169  1.00  0.00    -0.200 F 
ATOM     82  F   UNL A   1      35.238  32.204  32.740  1.00  0.00    -0.200 F 
ENDBRANCH  48  72
BRANCH  60  83
ATOM     83  C   UNL A   1      44.810  33.866  29.494  1.00  0.00     0.064 A 
ATOM     84  C   UNL A   1      45.448  34.152  30.710  1.00  0.00     0.173 A 
ATOM     85  C   UNL A   1      44.746  34.883  28.530  1.00  0.00     0.173 A 
ATOM     86  F   UNL A   1      45.522  33.218  31.670  1.00  0.00    -0.203 F 
ATOM     87  C   UNL A   1      45.987  35.413  30.955  1.00  0.00     0.198 A 
ATOM     88  C   UNL A   1      45.308  36.134  28.769  1.00  0.00     0.198 A 
ATOM     89  F   UNL A   1      44.151  34.658  27.349  1.00  0.00    -0.203 F 
ATOM     90  F   UNL A   1      46.560  35.676  32.139  1.00  0.00    -0.200 F 
ATOM     91  C   UNL A   1      45.924  36.399  29.983  1.00  0.00     0.200 A 
ATOM     92  F   UNL A   1      45.257  37.082  27.822  1.00  0.00    -0.200 F 
ATOM     93  F   UNL A   1      46.452  37.609  30.216  1.00  0.00    -0.200 F 
ENDBRANCH  60  83
ENDBRANCH  34  35
ENDBRANCH  27  29
ENDBRANCH  26  27
ENDBRANCH  25  26
ENDBRANCH  24  25
ENDBRANCH  23  24
ENDBRANCH   1  23
TORSDOF 17
ENDMDL
MODEL 2
REMARK VINA RESULT:     -11.0      4.515     10.122
REMARK SMILES Cc1cc(C)cc(C[N@@H+]2CCO[C@@H](CC(=O)OCCOCCOC(=O)c3ccc(-c4c5nc(c(-c6c(F)c(F)c(F)c(F)c6F)c6ccc([nH]6)c(-c6c(F)c(F)c(F)c(F)c6F)c6nc(c(-c7c(F)c(F)c(F)c(F)c7F)c7ccc4[nH]7)C=C6)C=C5)cc3)C2)c1
REMARK SMILES IDX 19 1 18 2 17 3 15 4 16 5 14 6 13 7 9 8 10 9 89 10 11 12
REMARK SMILES IDX 12 13 8 14 7 15 1 16 2 17 3 18 90 19 4 20 5 21 6 22 20 23
REMARK SMILES IDX 21 24 22 25 23 26 24 27 25 28 26 29 27 30 88 31 28 32 87 33
REMARK SMILES IDX 29 34 30 35 31 36 81 37 32 38 86 39 80 40 82 41 33 42 85 43
REMARK SMILES IDX 79 44 78 45 34 47 66 48 46 49 65 50 47 51 50 52 64 53 83 54
REMARK SMILES IDX 48 55 49 56 63 58 84 59 51 60 35 61 36 62 44 63 37 64 38 65
REMARK SMILES IDX 42 66 45 67 39 68 40 69 43 70 41 71 67 72 68 73 76 74 69 75
REMARK SMILES IDX 70 76 74 77 77 78 71 79 72 80 75 81 73 82 52 83 53 84 61 85
REMARK SMILES IDX 54 86 55 87 59 88 62 89 56 90 57 91 60 92 58 93
REMARK H PARENT 9 11 82 46 50 57
REMARK Flexibility Score: inf
ROOT
ATOM      1  C   UNL A   1      32.159  29.216  25.439  1.00  0.00     0.202 C 
ENDROOT
BRANCH   1   2
ATOM      2  C   UNL A   1      31.567  29.464  24.047  1.00  0.00     0.261 C 
BRANCH   2   3
ATOM      3  O   UNL A   1      30.125  29.402  23.961  1.00  0.00    -0.463 OA
BRANCH   3   4
ATOM      4  C   UNL A   1      29.645  28.616  22.958  1.00  0.00     0.308 C 
ATOM      5  O   UNL A   1      29.619  28.941  21.775  1.00  0.00    -0.252 OA
BRANCH   4   6
ATOM      6  C   UNL A   1      28.978  27.364  23.449  1.00  0.00     0.160 C 
BRANCH   6   7
ATOM      7  C   UNL A   1      29.769  26.097  23.774  1.00  0.00     0.184 C 
ATOM      8  N   UNL A   1      32.044  24.934  23.548  1.00  0.00    -0.327 N 
ATOM      9  C   UNL A   1      32.145  25.042  25.005  1.00  0.00     0.291 C 
ATOM     10  C   UNL A   1      31.092  25.913  22.988  1.00  0.00     0.295 C 
ATOM     11  H   UNL A   1      32.940  25.236  23.167  1.00  0.00     0.348 HD
ATOM     12  C   UNL A   1      30.806  25.213  25.735  1.00  0.00     0.222 C 
ATOM     13  O   UNL A   1      30.048  26.281  25.185  1.00  0.00    -0.366 OA
BRANCH   8  14
ATOM     14  C   UNL A   1      32.071  23.575  22.992  1.00  0.00     0.299 C 
BRANCH  14  15
ATOM     15  C   UNL A   1      33.138  22.627  23.490  1.00  0.00     0.007 A 
ATOM     16  C   UNL A   1      33.288  19.279  25.309  1.00  0.00     0.044 C 
ATOM     17  C   UNL A   1      33.715  20.553  24.642  1.00  0.00    -0.050 A 
ATOM     18  C   UNL A   1      35.037  20.993  24.755  1.00  0.00     0.006 A 
ATOM     19  C   UNL A   1      32.786  21.366  23.981  1.00  0.00     0.013 A 
ATOM     20  C   UNL A   1      35.440  22.189  24.153  1.00  0.00    -0.050 A 
ATOM     21  C   UNL A   1      36.853  22.667  24.301  1.00  0.00     0.044 C 
ATOM     22  C   UNL A   1      34.492  22.972  23.484  1.00  0.00     0.013 A 
ENDBRANCH  14  15
ENDBRANCH   8  14
ENDBRANCH   6   7
ENDBRANCH   4   6
ENDBRANCH   3   4
ENDBRANCH   2   3
ENDBRANCH   1   2
BRANCH   1  23
ATOM     23  O   UNL A   1      31.930  30.196  26.446  1.00  0.00    -0.374 OA
BRANCH  23  24
ATOM     24  C   UNL A   1      31.353  31.427  26.041  1.00  0.00     0.202 C 
BRANCH  24  25
ATOM     25  C   UNL A   1      31.604  32.634  26.941  1.00  0.00     0.261 C 
BRANCH  25  26
ATOM     26  O   UNL A   1      32.921  33.192  26.821  1.00  0.00    -0.460 OA
BRANCH  26  27
ATOM     27  C   UNL A   1      33.415  33.755  27.947  1.00  0.00     0.338 C 
ATOM     28  O   UNL A   1      32.946  34.686  28.586  1.00  0.00    -0.246 OA
BRANCH  27  29
ATOM     29  C   UNL A   1      34.613  33.020  28.382  1.00  0.00     0.060 A 
ATOM     30  C   UNL A   1      34.466  31.726  28.895  1.00  0.00     0.016 A 
ATOM     31  C   UNL A   1      35.860  33.649  28.387  1.00  0.00     0.016 A 
ATOM     32  C   UNL A   1      35.571  31.061  29.428  1.00  0.00     0.010 A 
ATOM     33  C   UNL A   1      36.966  32.980  28.922  1.00  0.00     0.010 A 
ATOM     34  C   UNL A   1      36.824  31.692  29.468  1.00  0.00    -0.014 A 
BRANCH  34  35
ATOM     35  C   UNL A   1      37.962  31.040  30.163  1.00  0.00     0.031 A 
ATOM     36  C   UNL A   1      38.245  31.376  31.602  1.00  0.00     0.074 A 
ATOM     37  C   UNL A   1      38.729  30.142  29.519  1.00  0.00     0.049 A 
ATOM     38  N   UNL A   1      39.183  30.919  32.392  1.00  0.00    -0.248 NA
ATOM     39  C   UNL A   1      37.353  32.360  32.232  1.00  0.00     0.031 C 
ATOM     40  C   UNL A   1      38.550  29.724  28.130  1.00  0.00     0.029 A 
ATOM     41  N   UNL A   1      39.817  29.423  29.949  1.00  0.00    -0.354 N 
ATOM     42  C   UNL A   1      38.994  31.556  33.612  1.00  0.00     0.074 A 
ATOM     43  C   UNL A   1      37.872  32.457  33.448  1.00  0.00     0.031 C 
ATOM     44  C   UNL A   1      39.497  28.823  27.820  1.00  0.00     0.029 A 
ATOM     45  C   UNL A   1      40.364  28.620  28.980  1.00  0.00     0.049 A 
ATOM     46  H   UNL A   1      40.171  29.479  30.866  1.00  0.00     0.167 HD
ATOM     47  C   UNL A   1      39.683  31.393  34.767  1.00  0.00     0.037 A 
ATOM     48  C   UNL A   1      41.448  27.821  29.021  1.00  0.00     0.037 A 
ATOM     49  C   UNL A   1      40.798  30.497  34.930  1.00  0.00     0.049 A 
ATOM     50  C   UNL A   1      42.232  27.700  30.302  1.00  0.00     0.074 A 
ATOM     51  C   UNL A   1      41.540  30.242  36.069  1.00  0.00     0.029 A 
ATOM     52  N   UNL A   1      41.336  29.716  33.918  1.00  0.00    -0.354 N 
ATOM     53  N   UNL A   1      42.013  28.267  31.463  1.00  0.00    -0.248 NA
ATOM     54  C   UNL A   1      43.412  26.822  30.279  1.00  0.00     0.031 C 
ATOM     55  C   UNL A   1      42.557  29.340  35.736  1.00  0.00     0.029 A 
ATOM     56  C   UNL A   1      42.418  28.999  34.401  1.00  0.00     0.049 A 
ATOM     57  H   UNL A   1      40.999  29.678  32.994  1.00  0.00     0.167 HD
ATOM     58  C   UNL A   1      43.004  27.796  32.313  1.00  0.00     0.074 A 
ATOM     59  C   UNL A   1      43.822  26.887  31.538  1.00  0.00     0.031 C 
ATOM     60  C   UNL A   1      43.217  28.088  33.620  1.00  0.00     0.037 A 
BRANCH  47  61
ATOM     61  C   UNL A   1      39.257  32.214  35.949  1.00  0.00     0.064 A 
ATOM     62  C   UNL A   1      38.346  31.722  36.894  1.00  0.00     0.173 A 
ATOM     63  C   UNL A   1      39.801  33.489  36.161  1.00  0.00     0.173 A 
ATOM     64  F   UNL A   1      37.791  30.511  36.730  1.00  0.00    -0.203 F 
ATOM     65  C   UNL A   1      37.976  32.487  37.997  1.00  0.00     0.198 A 
ATOM     66  C   UNL A   1      39.448  34.241  37.279  1.00  0.00     0.198 A 
ATOM     67  F   UNL A   1      40.682  34.003  35.290  1.00  0.00    -0.203 F 
ATOM     68  F   UNL A   1      37.073  32.012  38.867  1.00  0.00    -0.200 F 
ATOM     69  C   UNL A   1      38.532  33.743  38.192  1.00  0.00     0.200 A 
ATOM     70  F   UNL A   1      39.995  35.450  37.472  1.00  0.00    -0.200 F 
ATOM     71  F   UNL A   1      38.180  34.474  39.258  1.00  0.00    -0.200 F 
ENDBRANCH  47  61
BRANCH  48  72
ATOM     72  C   UNL A   1      41.859  27.067  27.808  1.00  0.00     0.064 A 
ATOM     73  C   UNL A   1      41.369  25.777  27.559  1.00  0.00     0.173 A 
ATOM     74  C   UNL A   1      42.761  27.613  26.884  1.00  0.00     0.173 A 
ATOM     75  F   UNL A   1      40.525  25.201  28.426  1.00  0.00    -0.203 F 
ATOM     76  C   UNL A   1      41.779  25.057  26.437  1.00  0.00     0.198 A 
ATOM     77  C   UNL A   1      43.149  26.903  25.750  1.00  0.00     0.198 A 
ATOM     78  F   UNL A   1      43.260  28.843  27.080  1.00  0.00    -0.203 F 
ATOM     79  F   UNL A   1      41.329  23.810  26.244  1.00  0.00    -0.200 F 
ATOM     80  C   UNL A   1      42.664  25.623  25.531  1.00  0.00     0.200 A 
ATOM     81  F   UNL A   1      43.996  27.457  24.872  1.00  0.00    -0.200 F 
ATOM     82  F   UNL A   1      43.055  24.931  24.453  1.00  0.00    -0.200 F 
ENDBRANCH  48  72
BRANCH  60  83
ATOM     83  C   UNL A   1      44.357  27.397  34.308  1.00  0.00     0.064 A 
ATOM     84  C   UNL A   1      45.625  27.988  34.405  1.00  0.00     0.173 A 
ATOM     85  C   UNL A   1      44.162  26.152  34.926  1.00  0.00     0.173 A 
ATOM     86  F   UNL A   1      45.865  29.170  33.819  1.00  0.00    -0.203 F 
ATOM     87  C   UNL A   1      46.661  27.349  35.081  1.00  0.00     0.198 A 
ATOM     88  C   UNL A   1      45.194  25.529  35.622  1.00  0.00     0.198 A 
ATOM     89  F   UNL A   1      42.966  25.548  34.867  1.00  0.00    -0.203 F 
ATOM     90  F   UNL A   1      47.876  27.915  35.129  1.00  0.00    -0.200 F 
ATOM     91  C   UNL A   1      46.444  26.125  35.695  1.00  0.00     0.200 A 
ATOM     92  F   UNL A   1      44.977  24.352  36.226  1.00  0.00    -0.200 F 
ATOM     93  F   UNL A   1      47.440  25.517  36.354  1.00  0.00    -0.200 F 
ENDBRANCH  60  83
ENDBRANCH  34  35
ENDBRANCH  27  29
ENDBRANCH  26  27
ENDBRANCH  25  26
ENDBRANCH  24  25
ENDBRANCH  23  24
ENDBRANCH   1  23
TORSDOF 17
ENDMDL
MODEL 3
REMARK VINA RESULT:     -10.7      1.275      2.250
REMARK SMILES Cc1cc(C)cc(C[N@@H+]2CCO[C@@H](CC(=O)OCCOCCOC(=O)c3ccc(-c4c5nc(c(-c6c(F)c(F)c(F)c(F)c6F)c6ccc([nH]6)c(-c6c(F)c(F)c(F)c(F)c6F)c6nc(c(-c7c(F)c(F)c(F)c(F)c7F)c7ccc4[nH]7)C=C6)C=C5)cc3)C2)c1
REMARK SMILES IDX 19 1 18 2 17 3 15 4 16 5 14 6 13 7 9 8 10 9 89 10 11 12
REMARK SMILES IDX 12 13 8 14 7 15 1 16 2 17 3 18 90 19 4 20 5 21 6 22 20 23
REMARK SMILES IDX 21 24 22 25 23 26 24 27 25 28 26 29 27 30 88 31 28 32 87 33
REMARK SMILES IDX 29 34 30 35 31 36 81 37 32 38 86 39 80 40 82 41 33 42 85 43
REMARK SMILES IDX 79 44 78 45 34 47 66 48 46 49 65 50 47 51 50 52 64 53 83 54
REMARK SMILES IDX 48 55 49 56 63 58 84 59 51 60 35 61 36 62 44 63 37 64 38 65
REMARK SMILES IDX 42 66 45 67 39 68 40 69 43 70 41 71 67 72 68 73 76 74 69 75
REMARK SMILES IDX 70 76 74 77 77 78 71 79 72 80 75 81 73 82 52 83 53 84 61 85
REMARK SMILES IDX 54 86 55 87 59 88 62 89 56 90 57 91 60 92 58 93
REMARK H PARENT 9 11 82 46 50 57
REMARK Flexibility Score: inf
ROOT
ATOM      1  C   UNL A   1      36.770  22.053  24.223  1.00  0.00     0.202 C 
ENDROOT
BRANCH   1   2
ATOM      2  C   UNL A   1      35.731  22.872  24.997  1.00  0.00     0.261 C 
BRANCH   2   3
ATOM      3  O   UNL A   1      34.734  22.103  25.708  1.00  0.00    -0.463 OA
BRANCH   3   4
ATOM      4  C   UNL A   1      34.020  22.805  26.632  1.00  0.00     0.308 C 
ATOM      5  O   UNL A   1      34.330  22.908  27.814  1.00  0.00    -0.252 OA
BRANCH   4   6
ATOM      6  C   UNL A   1      32.705  23.309  26.111  1.00  0.00     0.160 C 
BRANCH   6   7
ATOM      7  C   UNL A   1      32.445  24.795  25.868  1.00  0.00     0.184 C 
ATOM      8  N   UNL A   1      31.796  26.547  24.111  1.00  0.00    -0.327 N 
ATOM      9  C   UNL A   1      30.566  26.738  24.884  1.00  0.00     0.291 C 
ATOM     10  C   UNL A   1      32.419  25.238  24.383  1.00  0.00     0.295 C 
ATOM     11  H   UNL A   1      31.520  26.475  23.132  1.00  0.00     0.348 HD
ATOM     12  C   UNL A   1      30.649  26.293  26.350  1.00  0.00     0.222 C 
ATOM     13  O   UNL A   1      31.133  24.962  26.462  1.00  0.00    -0.366 OA
BRANCH   8  14
ATOM     14  C   UNL A   1      32.659  27.725  23.960  1.00  0.00     0.299 C 
BRANCH  14  15
ATOM     15  C   UNL A   1      32.840  28.629  25.157  1.00  0.00     0.007 A 
ATOM     16  C   UNL A   1      31.285  31.839  26.507  1.00  0.00     0.044 C 
ATOM     17  C   UNL A   1      32.183  30.645  26.369  1.00  0.00    -0.050 A 
ATOM     18  C   UNL A   1      33.341  30.546  27.146  1.00  0.00     0.006 A 
ATOM     19  C   UNL A   1      31.931  29.664  25.402  1.00  0.00     0.013 A 
ATOM     20  C   UNL A   1      34.193  29.446  27.010  1.00  0.00    -0.050 A 
ATOM     21  C   UNL A   1      35.447  29.360  27.827  1.00  0.00     0.044 C 
ATOM     22  C   UNL A   1      33.906  28.472  26.046  1.00  0.00     0.013 A 
ENDBRANCH  14  15
ENDBRANCH   8  14
ENDBRANCH   6   7
ENDBRANCH   4   6
ENDBRANCH   3   4
ENDBRANCH   2   3
ENDBRANCH   1   2
BRANCH   1  23
ATOM     23  O   UNL A   1      37.850  21.483  24.955  1.00  0.00    -0.374 OA
BRANCH  23  24
ATOM     24  C   UNL A   1      37.937  20.068  24.996  1.00  0.00     0.202 C 
BRANCH  24  25
ATOM     25  C   UNL A   1      39.256  19.474  25.486  1.00  0.00     0.261 C 
BRANCH  25  26
ATOM     26  O   UNL A   1      39.700  19.991  26.749  1.00  0.00    -0.460 OA
BRANCH  26  27
ATOM     27  C   UNL A   1      41.023  20.256  26.832  1.00  0.00     0.338 C 
ATOM     28  O   UNL A   1      41.954  19.494  26.613  1.00  0.00    -0.246 OA
BRANCH  27  29
ATOM     29  C   UNL A   1      41.223  21.676  27.163  1.00  0.00     0.060 A 
ATOM     30  C   UNL A   1      40.879  22.647  26.216  1.00  0.00     0.016 A 
ATOM     31  C   UNL A   1      41.850  22.038  28.357  1.00  0.00     0.016 A 
ATOM     32  C   UNL A   1      41.176  23.989  26.458  1.00  0.00     0.010 A 
ATOM     33  C   UNL A   1      42.145  23.384  28.598  1.00  0.00     0.010 A 
ATOM     34  C   UNL A   1      41.833  24.365  27.641  1.00  0.00    -0.014 A 
BRANCH  34  35
ATOM     35  C   UNL A   1      42.274  25.769  27.830  1.00  0.00     0.031 A 
ATOM     36  C   UNL A   1      43.609  26.208  27.294  1.00  0.00     0.074 A 
ATOM     37  C   UNL A   1      41.482  26.652  28.465  1.00  0.00     0.049 A 
ATOM     38  N   UNL A   1      44.180  27.385  27.348  1.00  0.00    -0.248 NA
ATOM     39  C   UNL A   1      44.407  25.183  26.605  1.00  0.00     0.031 C 
ATOM     40  C   UNL A   1      40.163  26.352  29.020  1.00  0.00     0.029 A 
ATOM     41  N   UNL A   1      41.674  27.980  28.754  1.00  0.00    -0.354 N 
ATOM     42  C   UNL A   1      45.401  27.244  26.701  1.00  0.00     0.074 A 
ATOM     43  C   UNL A   1      45.503  25.859  26.292  1.00  0.00     0.031 C 
ATOM     44  C   UNL A   1      39.665  27.465  29.585  1.00  0.00     0.029 A 
ATOM     45  C   UNL A   1      40.639  28.547  29.455  1.00  0.00     0.049 A 
ATOM     46  H   UNL A   1      42.479  28.479  28.484  1.00  0.00     0.167 HD
ATOM     47  C   UNL A   1      46.342  28.187  26.458  1.00  0.00     0.037 A 
ATOM     48  C   UNL A   1      40.499  29.794  29.946  1.00  0.00     0.037 A 
ATOM     49  C   UNL A   1      46.240  29.563  26.866  1.00  0.00     0.049 A 
ATOM     50  C   UNL A   1      41.587  30.810  29.710  1.00  0.00     0.074 A 
ATOM     51  C   UNL A   1      47.130  30.599  26.639  1.00  0.00     0.029 A 
ATOM     52  N   UNL A   1      45.185  30.095  27.593  1.00  0.00    -0.354 N 
ATOM     53  N   UNL A   1      42.713  30.679  29.052  1.00  0.00    -0.248 NA
ATOM     54  C   UNL A   1      41.381  32.149  30.282  1.00  0.00     0.031 C 
ATOM     55  C   UNL A   1      46.635  31.747  27.269  1.00  0.00     0.029 A 
ATOM     56  C   UNL A   1      45.415  31.437  27.847  1.00  0.00     0.049 A 
ATOM     57  H   UNL A   1      44.391  29.591  27.885  1.00  0.00     0.167 HD
ATOM     58  C   UNL A   1      43.334  31.919  29.106  1.00  0.00     0.074 A 
ATOM     59  C   UNL A   1      42.456  32.795  29.852  1.00  0.00     0.031 C 
ATOM     60  C   UNL A   1      44.526  32.300  28.582  1.00  0.00     0.037 A 
BRANCH  47  61
ATOM     61  C   UNL A   1      47.579  27.757  25.725  1.00  0.00     0.064 A 
ATOM     62  C   UNL A   1      47.610  27.670  24.326  1.00  0.00     0.173 A 
ATOM     63  C   UNL A   1      48.759  27.472  26.427  1.00  0.00     0.173 A 
ATOM     64  F   UNL A   1      46.504  27.925  23.609  1.00  0.00    -0.203 F 
ATOM     65  C   UNL A   1      48.771  27.290  23.658  1.00  0.00     0.198 A 
ATOM     66  C   UNL A   1      49.925  27.116  25.755  1.00  0.00     0.198 A 
ATOM     67  F   UNL A   1      48.785  27.546  27.767  1.00  0.00    -0.203 F 
ATOM     68  F   UNL A   1      48.766  27.175  22.322  1.00  0.00    -0.200 F 
ATOM     69  C   UNL A   1      49.929  27.020  24.372  1.00  0.00     0.200 A 
ATOM     70  F   UNL A   1      51.047  26.866  26.445  1.00  0.00    -0.200 F 
ATOM     71  F   UNL A   1      51.047  26.660  23.726  1.00  0.00    -0.200 F 
ENDBRANCH  47  61
BRANCH  48  72
ATOM     72  C   UNL A   1      39.277  30.157  30.709  1.00  0.00     0.064 A 
ATOM     73  C   UNL A   1      38.174  30.743  30.073  1.00  0.00     0.173 A 
ATOM     74  C   UNL A   1      39.194  29.940  32.092  1.00  0.00     0.173 A 
ATOM     75  F   UNL A   1      38.216  30.994  28.756  1.00  0.00    -0.203 F 
ATOM     76  C   UNL A   1      37.040  31.113  30.794  1.00  0.00     0.198 A 
ATOM     77  C   UNL A   1      38.049  30.286  32.807  1.00  0.00     0.198 A 
ATOM     78  F   UNL A   1      40.224  29.385  32.748  1.00  0.00    -0.203 F 
ATOM     79  F   UNL A   1      36.017  31.710  30.169  1.00  0.00    -0.200 F 
ATOM     80  C   UNL A   1      36.976  30.878  32.160  1.00  0.00     0.200 A 
ATOM     81  F   UNL A   1      37.988  30.048  34.125  1.00  0.00    -0.200 F 
ATOM     82  F   UNL A   1      35.885  31.231  32.851  1.00  0.00    -0.200 F 
ENDBRANCH  48  72
BRANCH  60  83
ATOM     83  C   UNL A   1      44.938  33.731  28.764  1.00  0.00     0.064 A 
ATOM     84  C   UNL A   1      44.577  34.722  27.840  1.00  0.00     0.173 A 
ATOM     85  C   UNL A   1      45.655  34.123  29.904  1.00  0.00     0.173 A 
ATOM     86  F   UNL A   1      43.904  34.395  26.727  1.00  0.00    -0.203 F 
ATOM     87  C   UNL A   1      44.935  36.053  28.044  1.00  0.00     0.198 A 
ATOM     88  C   UNL A   1      45.989  35.458  30.116  1.00  0.00     0.198 A 
ATOM     89  F   UNL A   1      46.018  33.213  30.821  1.00  0.00    -0.203 F 
ATOM     90  F   UNL A   1      44.613  36.979  27.129  1.00  0.00    -0.200 F 
ATOM     91  C   UNL A   1      45.633  36.421  29.184  1.00  0.00     0.200 A 
ATOM     92  F   UNL A   1      46.652  35.812  31.226  1.00  0.00    -0.200 F 
ATOM     93  F   UNL A   1      45.968  37.703  29.384  1.00  0.00    -0.200 F 
ENDBRANCH  60  83
ENDBRANCH  34  35
ENDBRANCH  27  29
ENDBRANCH  26  27
ENDBRANCH  25  26
ENDBRANCH  24  25
ENDBRANCH  23  24
ENDBRANCH   1  23
TORSDOF 17
ENDMDL
