MODEL 1
REMARK VINA RESULT:     -10.9      0.000      0.000
REMARK SMILES CC(=O)N[C@@H](C)C(=O)N1CCC[C@H]1C(=O)OCCOCCOC(=O)c1ccc(-c2c3nc(c(-c4c(F)c(F)c(F)c(F)c4F)c4ccc([nH]4)c(-c4c(F)c(F)c(F)c(F)c4F)c4nc(c(-c5c(F)c(F)c(F)c(F)c5F)c5ccc2[nH]5)C=C4)C=C3)cc1
REMARK SMILES IDX 18 1 17 2 16 3 14 4 15 5 13 6 9 7 10 8 11 9 12 10 7 11 8 12
REMARK SMILES IDX 5 13 6 14 4 15 1 16 2 17 3 18 19 20 20 21 21 22 22 23 23 24
REMARK SMILES IDX 24 25 25 26 26 27 87 28 27 29 86 30 28 31 29 32 30 33 80 34
REMARK SMILES IDX 31 35 85 36 79 37 81 38 32 39 84 40 78 41 77 42 33 44 65 45
REMARK SMILES IDX 45 46 64 47 46 48 49 49 63 50 82 51 47 52 48 53 62 55 83 56
REMARK SMILES IDX 50 57 34 58 35 59 43 60 36 61 37 62 41 63 44 64 38 65 39 66
REMARK SMILES IDX 42 67 40 68 66 69 67 70 75 71 68 72 69 73 73 74 76 75 70 76
REMARK SMILES IDX 71 77 74 78 72 79 51 80 52 81 60 82 53 83 54 84 58 85 61 86
REMARK SMILES IDX 55 87 56 88 59 89 57 90
REMARK H PARENT 4 19 81 43 49 54
REMARK Flexibility Score: inf
ROOT
ATOM      1  C   UNL A   1      35.110  22.713  25.945  1.00  0.00     0.202 C 
ENDROOT
BRANCH   1   2
ATOM      2  C   UNL A   1      34.137  23.123  27.050  1.00  0.00     0.261 C 
BRANCH   2   3
ATOM      3  O   UNL A   1      32.942  22.331  26.949  1.00  0.00    -0.462 OA
BRANCH   3   4
ATOM      4  C   UNL A   1      31.818  23.003  26.570  1.00  0.00     0.328 C 
ATOM      5  O   UNL A   1      31.164  23.699  27.334  1.00  0.00    -0.250 OA
BRANCH   4   6
ATOM      6  C   UNL A   1      31.499  22.793  25.067  1.00  0.00     0.195 C 
ATOM      7  N   UNL A   1      31.832  23.856  24.083  1.00  0.00    -0.327 N 
ATOM      8  C   UNL A   1      32.507  23.291  22.925  1.00  0.00     0.120 C 
ATOM      9  C   UNL A   1      32.193  21.808  22.980  1.00  0.00     0.024 C 
ATOM     10  C   UNL A   1      32.145  21.526  24.469  1.00  0.00     0.039 C 
BRANCH   7  11
ATOM     11  C   UNL A   1      31.261  25.108  24.199  1.00  0.00     0.245 C 
ATOM     12  O   UNL A   1      30.262  25.402  23.537  1.00  0.00    -0.272 OA
BRANCH  11  13
ATOM     13  C   UNL A   1      31.996  26.267  24.918  1.00  0.00     0.168 C 
ATOM     14  C   UNL A   1      33.498  26.005  24.789  1.00  0.00     0.041 C 
BRANCH  13  15
ATOM     15  N   UNL A   1      31.653  26.597  26.299  1.00  0.00    -0.345 N 
ATOM     16  C   UNL A   1      31.739  29.053  26.013  1.00  0.00     0.114 C 
ATOM     17  C   UNL A   1      31.570  27.831  26.873  1.00  0.00     0.217 C 
ATOM     18  O   UNL A   1      31.363  27.907  28.082  1.00  0.00    -0.275 OA
ATOM     19  H   UNL A   1      31.458  25.834  26.889  1.00  0.00     0.164 HD
ENDBRANCH  13  15
ENDBRANCH  11  13
ENDBRANCH   7  11
ENDBRANCH   4   6
ENDBRANCH   3   4
ENDBRANCH   2   3
ENDBRANCH   1   2
BRANCH   1  20
ATOM     20  O   UNL A   1      35.893  21.549  26.214  1.00  0.00    -0.374 OA
BRANCH  20  21
ATOM     21  C   UNL A   1      36.205  20.692  25.116  1.00  0.00     0.202 C 
BRANCH  21  22
ATOM     22  C   UNL A   1      37.685  20.327  24.955  1.00  0.00     0.261 C 
BRANCH  22  23
ATOM     23  O   UNL A   1      38.553  21.451  25.191  1.00  0.00    -0.460 OA
BRANCH  23  24
ATOM     24  C   UNL A   1      39.532  21.223  26.094  1.00  0.00     0.338 C 
ATOM     25  O   UNL A   1      40.171  20.186  26.250  1.00  0.00    -0.246 OA
BRANCH  24  26
ATOM     26  C   UNL A   1      39.877  22.458  26.818  1.00  0.00     0.060 A 
ATOM     27  C   UNL A   1      39.212  23.631  26.436  1.00  0.00     0.016 A 
ATOM     28  C   UNL A   1      40.894  22.500  27.776  1.00  0.00     0.016 A 
ATOM     29  C   UNL A   1      39.610  24.860  26.955  1.00  0.00     0.010 A 
ATOM     30  C   UNL A   1      41.297  23.736  28.292  1.00  0.00     0.010 A 
ATOM     31  C   UNL A   1      40.688  24.925  27.845  1.00  0.00    -0.014 A 
BRANCH  31  32
ATOM     32  C   UNL A   1      41.291  26.247  28.147  1.00  0.00     0.031 A 
ATOM     33  C   UNL A   1      42.683  26.536  27.655  1.00  0.00     0.074 A 
ATOM     34  C   UNL A   1      40.592  27.196  28.793  1.00  0.00     0.049 A 
ATOM     35  N   UNL A   1      43.398  27.628  27.769  1.00  0.00    -0.248 NA
ATOM     36  C   UNL A   1      43.363  25.445  26.939  1.00  0.00     0.031 C 
ATOM     37  C   UNL A   1      39.223  27.052  29.280  1.00  0.00     0.029 A 
ATOM     38  N   UNL A   1      40.943  28.477  29.141  1.00  0.00    -0.354 N 
ATOM     39  C   UNL A   1      44.608  27.351  27.146  1.00  0.00     0.074 A 
ATOM     40  C   UNL A   1      44.546  25.982  26.685  1.00  0.00     0.031 C 
ATOM     41  C   UNL A   1      38.844  28.204  29.860  1.00  0.00     0.029 A 
ATOM     42  C   UNL A   1      39.952  29.156  29.804  1.00  0.00     0.049 A 
ATOM     43  H   UNL A   1      41.821  28.869  28.935  1.00  0.00     0.167 HD
ATOM     44  C   UNL A   1      45.674  28.169  26.967  1.00  0.00     0.037 A 
ATOM     45  C   UNL A   1      39.947  30.404  30.311  1.00  0.00     0.037 A 
ATOM     46  C   UNL A   1      45.730  29.535  27.414  1.00  0.00     0.049 A 
ATOM     47  C   UNL A   1      41.166  31.275  30.149  1.00  0.00     0.074 A 
ATOM     48  C   UNL A   1      46.750  30.456  27.249  1.00  0.00     0.029 A 
ATOM     49  N   UNL A   1      44.723  30.174  28.123  1.00  0.00    -0.354 N 
ATOM     50  N   UNL A   1      42.291  31.019  29.528  1.00  0.00    -0.248 NA
ATOM     51  C   UNL A   1      41.109  32.611  30.758  1.00  0.00     0.031 C 
ATOM     52  C   UNL A   1      46.379  31.639  27.901  1.00  0.00     0.029 A 
ATOM     53  C   UNL A   1      45.109  31.469  28.429  1.00  0.00     0.049 A 
ATOM     54  H   UNL A   1      43.862  29.766  28.372  1.00  0.00     0.167 HD
ATOM     55  C   UNL A   1      43.060  32.170  29.638  1.00  0.00     0.074 A 
ATOM     56  C   UNL A   1      42.271  33.128  30.385  1.00  0.00     0.031 C 
ATOM     57  C   UNL A   1      44.306  32.414  29.162  1.00  0.00     0.037 A 
BRANCH  44  58
ATOM     58  C   UNL A   1      46.877  27.591  26.282  1.00  0.00     0.064 A 
ATOM     59  C   UNL A   1      47.909  26.968  26.998  1.00  0.00     0.173 A 
ATOM     60  C   UNL A   1      46.991  27.653  24.884  1.00  0.00     0.173 A 
ATOM     61  F   UNL A   1      47.855  26.896  28.336  1.00  0.00    -0.203 F 
ATOM     62  C   UNL A   1      49.027  26.456  26.343  1.00  0.00     0.198 A 
ATOM     63  C   UNL A   1      48.096  27.115  24.231  1.00  0.00     0.198 A 
ATOM     64  F   UNL A   1      46.029  28.236  24.153  1.00  0.00    -0.203 F 
ATOM     65  F   UNL A   1      50.027  25.912  27.052  1.00  0.00    -0.200 F 
ATOM     66  C   UNL A   1      49.117  26.526  24.961  1.00  0.00     0.200 A 
ATOM     67  F   UNL A   1      48.177  27.177  22.895  1.00  0.00    -0.200 F 
ATOM     68  F   UNL A   1      50.194  26.035  24.332  1.00  0.00    -0.200 F 
ENDBRANCH  44  58
BRANCH  45  69
ATOM     69  C   UNL A   1      38.737  30.917  31.004  1.00  0.00     0.064 A 
ATOM     70  C   UNL A   1      38.597  30.795  32.394  1.00  0.00     0.173 A 
ATOM     71  C   UNL A   1      37.696  31.530  30.293  1.00  0.00     0.173 A 
ATOM     72  F   UNL A   1      39.557  30.192  33.111  1.00  0.00    -0.203 F 
ATOM     73  C   UNL A   1      37.454  31.254  33.045  1.00  0.00     0.198 A 
ATOM     74  C   UNL A   1      36.563  32.010  30.949  1.00  0.00     0.198 A 
ATOM     75  F   UNL A   1      37.779  31.668  28.963  1.00  0.00    -0.203 F 
ATOM     76  F   UNL A   1      37.329  31.088  34.369  1.00  0.00    -0.200 F 
ATOM     77  C   UNL A   1      36.442  31.867  32.323  1.00  0.00     0.200 A 
ATOM     78  F   UNL A   1      35.591  32.610  30.250  1.00  0.00    -0.200 F 
ATOM     79  F   UNL A   1      35.345  32.311  32.950  1.00  0.00    -0.200 F 
ENDBRANCH  45  69
BRANCH  57  80
ATOM     80  C   UNL A   1      44.876  33.785  29.389  1.00  0.00     0.064 A 
ATOM     81  C   UNL A   1      44.650  34.837  28.490  1.00  0.00     0.173 A 
ATOM     82  C   UNL A   1      45.627  34.056  30.544  1.00  0.00     0.173 A 
ATOM     83  F   UNL A   1      43.951  34.623  27.365  1.00  0.00    -0.203 F 
ATOM     84  C   UNL A   1      45.174  36.104  28.726  1.00  0.00     0.198 A 
ATOM     85  C   UNL A   1      46.126  35.332  30.791  1.00  0.00     0.198 A 
ATOM     86  F   UNL A   1      45.865  33.086  31.439  1.00  0.00    -0.203 F 
ATOM     87  F   UNL A   1      44.984  37.083  27.830  1.00  0.00    -0.200 F 
ATOM     88  C   UNL A   1      45.905  36.353  29.879  1.00  0.00     0.200 A 
ATOM     89  F   UNL A   1      46.821  35.573  31.911  1.00  0.00    -0.200 F 
ATOM     90  F   UNL A   1      46.405  37.575  30.106  1.00  0.00    -0.200 F 
ENDBRANCH  57  80
ENDBRANCH  31  32
ENDBRANCH  24  26
ENDBRANCH  23  24
ENDBRANCH  22  23
ENDBRANCH  21  22
ENDBRANCH  20  21
ENDBRANCH   1  20
TORSDOF 17
ENDMDL
MODEL 2
REMARK VINA RESULT:     -10.9      1.058      2.695
REMARK SMILES CC(=O)N[C@@H](C)C(=O)N1CCC[C@H]1C(=O)OCCOCCOC(=O)c1ccc(-c2c3nc(c(-c4c(F)c(F)c(F)c(F)c4F)c4ccc([nH]4)c(-c4c(F)c(F)c(F)c(F)c4F)c4nc(c(-c5c(F)c(F)c(F)c(F)c5F)c5ccc2[nH]5)C=C4)C=C3)cc1
REMARK SMILES IDX 18 1 17 2 16 3 14 4 15 5 13 6 9 7 10 8 11 9 12 10 7 11 8 12
REMARK SMILES IDX 5 13 6 14 4 15 1 16 2 17 3 18 19 20 20 21 21 22 22 23 23 24
REMARK SMILES IDX 24 25 25 26 26 27 87 28 27 29 86 30 28 31 29 32 30 33 80 34
REMARK SMILES IDX 31 35 85 36 79 37 81 38 32 39 84 40 78 41 77 42 33 44 65 45
REMARK SMILES IDX 45 46 64 47 46 48 49 49 63 50 82 51 47 52 48 53 62 55 83 56
REMARK SMILES IDX 50 57 34 58 35 59 43 60 36 61 37 62 41 63 44 64 38 65 39 66
REMARK SMILES IDX 42 67 40 68 66 69 67 70 75 71 68 72 69 73 73 74 76 75 70 76
REMARK SMILES IDX 71 77 74 78 72 79 51 80 52 81 60 82 53 83 54 84 58 85 61 86
REMARK SMILES IDX 55 87 56 88 59 89 57 90
REMARK H PARENT 4 19 81 43 49 54
REMARK Flexibility Score: inf
ROOT
ATOM      1  C   UNL A   1      35.491  22.986  23.609  1.00  0.00     0.202 C 
ENDROOT
BRANCH   1   2
ATOM      2  C   UNL A   1      34.166  23.642  23.219  1.00  0.00     0.261 C 
BRANCH   2   3
ATOM      3  O   UNL A   1      34.247  25.057  23.460  1.00  0.00    -0.462 OA
BRANCH   3   4
ATOM      4  C   UNL A   1      33.657  25.850  22.522  1.00  0.00     0.328 C 
ATOM      5  O   UNL A   1      33.651  25.585  21.328  1.00  0.00    -0.250 OA
BRANCH   4   6
ATOM      6  C   UNL A   1      32.988  27.096  23.159  1.00  0.00     0.195 C 
ATOM      7  N   UNL A   1      32.098  26.937  24.338  1.00  0.00    -0.327 N 
ATOM      8  C   UNL A   1      32.431  27.910  25.367  1.00  0.00     0.120 C 
ATOM      9  C   UNL A   1      33.235  28.975  24.647  1.00  0.00     0.024 C 
ATOM     10  C   UNL A   1      33.993  28.179  23.601  1.00  0.00     0.039 C 
BRANCH   7  11
ATOM     11  C   UNL A   1      30.955  26.167  24.243  1.00  0.00     0.245 C 
ATOM     12  O   UNL A   1      29.858  26.699  24.055  1.00  0.00    -0.272 OA
BRANCH  11  13
ATOM     13  C   UNL A   1      30.953  24.672  24.651  1.00  0.00     0.168 C 
ATOM     14  C   UNL A   1      30.606  23.858  23.402  1.00  0.00     0.041 C 
BRANCH  13  15
ATOM     15  N   UNL A   1      30.148  24.232  25.787  1.00  0.00    -0.345 N 
ATOM     16  C   UNL A   1      31.943  22.944  26.900  1.00  0.00     0.114 C 
ATOM     17  C   UNL A   1      30.517  23.410  26.810  1.00  0.00     0.217 C 
ATOM     18  O   UNL A   1      29.666  23.070  27.630  1.00  0.00    -0.275 OA
ATOM     19  H   UNL A   1      29.225  24.571  25.818  1.00  0.00     0.164 HD
ENDBRANCH  13  15
ENDBRANCH  11  13
ENDBRANCH   7  11
ENDBRANCH   4   6
ENDBRANCH   3   4
ENDBRANCH   2   3
ENDBRANCH   1   2
BRANCH   1  20
ATOM     20  O   UNL A   1      35.564  22.492  24.947  1.00  0.00    -0.374 OA
BRANCH  20  21
ATOM     21  C   UNL A   1      35.849  21.106  25.127  1.00  0.00     0.202 C 
BRANCH  21  22
ATOM     22  C   UNL A   1      37.320  20.700  24.969  1.00  0.00     0.261 C 
BRANCH  22  23
ATOM     23  O   UNL A   1      38.217  21.801  25.209  1.00  0.00    -0.460 OA
BRANCH  23  24
ATOM     24  C   UNL A   1      39.217  21.528  26.076  1.00  0.00     0.338 C 
ATOM     25  O   UNL A   1      39.825  20.469  26.199  1.00  0.00    -0.246 OA
BRANCH  24  26
ATOM     26  C   UNL A   1      39.628  22.742  26.802  1.00  0.00     0.060 A 
ATOM     27  C   UNL A   1      38.926  23.923  26.525  1.00  0.00     0.016 A 
ATOM     28  C   UNL A   1      40.733  22.759  27.657  1.00  0.00     0.016 A 
ATOM     29  C   UNL A   1      39.370  25.136  27.041  1.00  0.00     0.010 A 
ATOM     30  C   UNL A   1      41.181  23.981  28.171  1.00  0.00     0.010 A 
ATOM     31  C   UNL A   1      40.530  25.180  27.824  1.00  0.00    -0.014 A 
BRANCH  31  32
ATOM     32  C   UNL A   1      41.156  26.494  28.107  1.00  0.00     0.031 A 
ATOM     33  C   UNL A   1      42.560  26.744  27.631  1.00  0.00     0.074 A 
ATOM     34  C   UNL A   1      40.467  27.470  28.724  1.00  0.00     0.049 A 
ATOM     35  N   UNL A   1      43.296  27.823  27.732  1.00  0.00    -0.248 NA
ATOM     36  C   UNL A   1      43.227  25.625  26.946  1.00  0.00     0.031 C 
ATOM     37  C   UNL A   1      39.089  27.365  29.194  1.00  0.00     0.029 A 
ATOM     38  N   UNL A   1      40.840  28.751  29.051  1.00  0.00    -0.354 N 
ATOM     39  C   UNL A   1      44.509  27.508  27.133  1.00  0.00     0.074 A 
ATOM     40  C   UNL A   1      44.424  26.132  26.698  1.00  0.00     0.031 C 
ATOM     41  C   UNL A   1      38.727  28.536  29.745  1.00  0.00     0.029 A 
ATOM     42  C   UNL A   1      39.855  29.463  29.686  1.00  0.00     0.049 A 
ATOM     43  H   UNL A   1      41.730  29.121  28.850  1.00  0.00     0.167 HD
ATOM     44  C   UNL A   1      45.594  28.300  26.953  1.00  0.00     0.037 A 
ATOM     45  C   UNL A   1      39.869  30.722  30.167  1.00  0.00     0.037 A 
ATOM     46  C   UNL A   1      45.673  29.674  27.373  1.00  0.00     0.049 A 
ATOM     47  C   UNL A   1      41.108  31.564  30.006  1.00  0.00     0.074 A 
ATOM     48  C   UNL A   1      46.714  30.571  27.203  1.00  0.00     0.029 A 
ATOM     49  N   UNL A   1      44.670  30.348  28.054  1.00  0.00    -0.354 N 
ATOM     50  N   UNL A   1      42.236  31.272  29.406  1.00  0.00    -0.248 NA
ATOM     51  C   UNL A   1      41.071  32.913  30.587  1.00  0.00     0.031 C 
ATOM     52  C   UNL A   1      46.358  31.773  27.826  1.00  0.00     0.029 A 
ATOM     53  C   UNL A   1      45.078  31.640  28.339  1.00  0.00     0.049 A 
ATOM     54  H   UNL A   1      43.797  29.964  28.299  1.00  0.00     0.167 HD
ATOM     55  C   UNL A   1      43.028  32.409  29.504  1.00  0.00     0.074 A 
ATOM     56  C   UNL A   1      42.248  33.398  30.220  1.00  0.00     0.031 C 
ATOM     57  C   UNL A   1      44.285  32.617  29.041  1.00  0.00     0.037 A 
BRANCH  44  58
ATOM     58  C   UNL A   1      46.794  27.684  26.297  1.00  0.00     0.064 A 
ATOM     59  C   UNL A   1      46.964  27.694  24.904  1.00  0.00     0.173 A 
ATOM     60  C   UNL A   1      47.795  27.083  27.077  1.00  0.00     0.173 A 
ATOM     61  F   UNL A   1      46.030  28.242  24.113  1.00  0.00    -0.203 F 
ATOM     62  C   UNL A   1      48.076  27.098  24.316  1.00  0.00     0.198 A 
ATOM     63  C   UNL A   1      48.918  26.513  26.486  1.00  0.00     0.198 A 
ATOM     64  F   UNL A   1      47.681  27.050  28.413  1.00  0.00    -0.203 F 
ATOM     65  F   UNL A   1      48.193  27.072  22.980  1.00  0.00    -0.200 F 
ATOM     66  C   UNL A   1      49.054  26.513  25.106  1.00  0.00     0.200 A 
ATOM     67  F   UNL A   1      49.865  25.956  27.253  1.00  0.00    -0.200 F 
ATOM     68  F   UNL A   1      50.123  25.937  24.538  1.00  0.00    -0.200 F 
ENDBRANCH  44  58
BRANCH  45  69
ATOM     69  C   UNL A   1      38.661  31.274  30.833  1.00  0.00     0.064 A 
ATOM     70  C   UNL A   1      38.475  31.140  32.216  1.00  0.00     0.173 A 
ATOM     71  C   UNL A   1      37.665  31.936  30.100  1.00  0.00     0.173 A 
ATOM     72  F   UNL A   1      39.389  30.492  32.952  1.00  0.00    -0.203 F 
ATOM     73  C   UNL A   1      37.333  31.637  32.840  1.00  0.00     0.198 A 
ATOM     74  C   UNL A   1      36.534  32.453  30.730  1.00  0.00     0.198 A 
ATOM     75  F   UNL A   1      37.793  32.087  28.775  1.00  0.00    -0.203 F 
ATOM     76  F   UNL A   1      37.163  31.460  34.157  1.00  0.00    -0.200 F 
ATOM     77  C   UNL A   1      36.367  32.298  32.097  1.00  0.00     0.200 A 
ATOM     78  F   UNL A   1      35.607  33.100  30.011  1.00  0.00    -0.200 F 
ATOM     79  F   UNL A   1      35.270  32.778  32.699  1.00  0.00    -0.200 F 
ENDBRANCH  45  69
BRANCH  57  80
ATOM     80  C   UNL A   1      44.881  33.980  29.249  1.00  0.00     0.064 A 
ATOM     81  C   UNL A   1      45.653  34.283  30.379  1.00  0.00     0.173 A 
ATOM     82  C   UNL A   1      44.707  34.984  28.283  1.00  0.00     0.173 A 
ATOM     83  F   UNL A   1      45.836  33.362  31.338  1.00  0.00    -0.203 F 
ATOM     84  C   UNL A   1      46.210  35.548  30.547  1.00  0.00     0.198 A 
ATOM     85  C   UNL A   1      45.288  36.238  28.440  1.00  0.00     0.198 A 
ATOM     86  F   UNL A   1      43.982  34.742  27.180  1.00  0.00    -0.203 F 
ATOM     87  F   UNL A   1      46.906  35.829  31.657  1.00  0.00    -0.200 F 
ATOM     88  C   UNL A   1      46.033  36.522  29.575  1.00  0.00     0.200 A 
ATOM     89  F   UNL A   1      45.127  37.173  27.494  1.00  0.00    -0.200 F 
ATOM     90  F   UNL A   1      46.574  37.737  29.737  1.00  0.00    -0.200 F 
ENDBRANCH  57  80
ENDBRANCH  31  32
ENDBRANCH  24  26
ENDBRANCH  23  24
ENDBRANCH  22  23
ENDBRANCH  21  22
ENDBRANCH  20  21
ENDBRANCH   1  20
TORSDOF 17
ENDMDL
MODEL 3
REMARK VINA RESULT:     -10.7      0.479      7.490
REMARK SMILES CC(=O)N[C@@H](C)C(=O)N1CCC[C@H]1C(=O)OCCOCCOC(=O)c1ccc(-c2c3nc(c(-c4c(F)c(F)c(F)c(F)c4F)c4ccc([nH]4)c(-c4c(F)c(F)c(F)c(F)c4F)c4nc(c(-c5c(F)c(F)c(F)c(F)c5F)c5ccc2[nH]5)C=C4)C=C3)cc1
REMARK SMILES IDX 18 1 17 2 16 3 14 4 15 5 13 6 9 7 10 8 11 9 12 10 7 11 8 12
REMARK SMILES IDX 5 13 6 14 4 15 1 16 2 17 3 18 19 20 20 21 21 22 22 23 23 24
REMARK SMILES IDX 24 25 25 26 26 27 87 28 27 29 86 30 28 31 29 32 30 33 80 34
REMARK SMILES IDX 31 35 85 36 79 37 81 38 32 39 84 40 78 41 77 42 33 44 65 45
REMARK SMILES IDX 45 46 64 47 46 48 49 49 63 50 82 51 47 52 48 53 62 55 83 56
REMARK SMILES IDX 50 57 34 58 35 59 43 60 36 61 37 62 41 63 44 64 38 65 39 66
REMARK SMILES IDX 42 67 40 68 66 69 67 70 75 71 68 72 69 73 73 74 76 75 70 76
REMARK SMILES IDX 71 77 74 78 72 79 51 80 52 81 60 82 53 83 54 84 58 85 61 86
REMARK SMILES IDX 55 87 56 88 59 89 57 90
REMARK H PARENT 4 19 81 43 49 54
REMARK Flexibility Score: inf
ROOT
ATOM      1  C   UNL A   1      34.973  22.738  25.932  1.00  0.00     0.202 C 
ENDROOT
BRANCH   1   2
ATOM      2  C   UNL A   1      33.993  23.131  27.037  1.00  0.00     0.261 C 
BRANCH   2   3
ATOM      3  O   UNL A   1      32.805  22.330  26.926  1.00  0.00    -0.462 OA
BRANCH   3   4
ATOM      4  C   UNL A   1      31.678  22.993  26.540  1.00  0.00     0.328 C 
ATOM      5  O   UNL A   1      31.009  23.676  27.302  1.00  0.00    -0.250 OA
BRANCH   4   6
ATOM      6  C   UNL A   1      31.378  22.791  25.032  1.00  0.00     0.195 C 
ATOM      7  N   UNL A   1      31.725  23.860  24.058  1.00  0.00    -0.327 N 
ATOM      8  C   UNL A   1      32.414  23.300  22.906  1.00  0.00     0.120 C 
ATOM      9  C   UNL A   1      32.098  21.818  22.948  1.00  0.00     0.024 C 
ATOM     10  C   UNL A   1      32.031  21.527  24.436  1.00  0.00     0.039 C 
BRANCH   7  11
ATOM     11  C   UNL A   1      31.153  25.112  24.175  1.00  0.00     0.245 C 
ATOM     12  O   UNL A   1      30.164  25.411  23.499  1.00  0.00    -0.272 OA
BRANCH  11  13
ATOM     13  C   UNL A   1      31.879  26.265  24.912  1.00  0.00     0.168 C 
ATOM     14  C   UNL A   1      33.382  25.995  24.815  1.00  0.00     0.041 C 
BRANCH  13  15
ATOM     15  N   UNL A   1      31.507  26.594  26.286  1.00  0.00    -0.345 N 
ATOM     16  C   UNL A   1      31.826  29.038  26.067  1.00  0.00     0.114 C 
ATOM     17  C   UNL A   1      31.511  27.818  26.887  1.00  0.00     0.217 C 
ATOM     18  O   UNL A   1      31.259  27.885  28.089  1.00  0.00    -0.275 OA
ATOM     19  H   UNL A   1      31.219  25.839  26.847  1.00  0.00     0.164 HD
ENDBRANCH  13  15
ENDBRANCH  11  13
ENDBRANCH   7  11
ENDBRANCH   4   6
ENDBRANCH   3   4
ENDBRANCH   2   3
ENDBRANCH   1   2
BRANCH   1  20
ATOM     20  O   UNL A   1      35.773  21.586  26.199  1.00  0.00    -0.374 OA
BRANCH  20  21
ATOM     21  C   UNL A   1      36.067  20.715  25.108  1.00  0.00     0.202 C 
BRANCH  21  22
ATOM     22  C   UNL A   1      37.544  20.343  24.930  1.00  0.00     0.261 C 
BRANCH  22  23
ATOM     23  O   UNL A   1      38.421  21.456  25.182  1.00  0.00    -0.460 OA
BRANCH  23  24
ATOM     24  C   UNL A   1      39.377  21.218  26.107  1.00  0.00     0.338 C 
ATOM     25  O   UNL A   1      39.921  20.145  26.354  1.00  0.00    -0.246 OA
BRANCH  24  26
ATOM     26  C   UNL A   1      39.832  22.474  26.727  1.00  0.00     0.060 A 
ATOM     27  C   UNL A   1      39.258  23.664  26.260  1.00  0.00     0.016 A 
ATOM     28  C   UNL A   1      40.865  22.507  27.669  1.00  0.00     0.016 A 
ATOM     29  C   UNL A   1      39.762  24.892  26.675  1.00  0.00     0.010 A 
ATOM     30  C   UNL A   1      41.374  23.743  28.081  1.00  0.00     0.010 A 
ATOM     31  C   UNL A   1      40.857  24.939  27.547  1.00  0.00    -0.014 A 
BRANCH  31  32
ATOM     32  C   UNL A   1      41.569  26.227  27.737  1.00  0.00     0.031 A 
ATOM     33  C   UNL A   1      40.887  27.324  28.507  1.00  0.00     0.074 A 
ATOM     34  C   UNL A   1      42.824  26.397  27.285  1.00  0.00     0.049 A 
ATOM     35  N   UNL A   1      41.326  28.516  28.826  1.00  0.00    -0.248 NA
ATOM     36  C   UNL A   1      39.523  27.039  28.981  1.00  0.00     0.031 C 
ATOM     37  C   UNL A   1      43.605  25.396  26.565  1.00  0.00     0.029 A 
ATOM     38  N   UNL A   1      43.663  27.480  27.379  1.00  0.00    -0.354 N 
ATOM     39  C   UNL A   1      40.292  29.122  29.529  1.00  0.00     0.074 A 
ATOM     40  C   UNL A   1      39.194  28.181  29.564  1.00  0.00     0.031 C 
ATOM     41  C   UNL A   1      44.816  25.908  26.285  1.00  0.00     0.029 A 
ATOM     42  C   UNL A   1      44.885  27.279  26.787  1.00  0.00     0.049 A 
ATOM     43  H   UNL A   1      43.411  28.319  27.827  1.00  0.00     0.167 HD
ATOM     44  C   UNL A   1      40.264  30.349  30.103  1.00  0.00     0.037 A 
ATOM     45  C   UNL A   1      45.935  28.113  26.665  1.00  0.00     0.037 A 
ATOM     46  C   UNL A   1      41.362  31.279  30.080  1.00  0.00     0.049 A 
ATOM     47  C   UNL A   1      45.858  29.495  27.261  1.00  0.00     0.074 A 
ATOM     48  C   UNL A   1      41.445  32.531  30.663  1.00  0.00     0.029 A 
ATOM     49  N   UNL A   1      42.568  31.057  29.431  1.00  0.00    -0.354 N 
ATOM     50  N   UNL A   1      44.893  30.046  27.956  1.00  0.00    -0.248 NA
ATOM     51  C   UNL A   1      47.023  30.369  27.059  1.00  0.00     0.031 C 
ATOM     52  C   UNL A   1      42.685  33.087  30.326  1.00  0.00     0.029 A 
ATOM     53  C   UNL A   1      43.391  32.162  29.575  1.00  0.00     0.049 A 
ATOM     54  H   UNL A   1      42.803  30.236  28.941  1.00  0.00     0.167 HD
ATOM     55  C   UNL A   1      45.345  31.312  28.304  1.00  0.00     0.074 A 
ATOM     56  C   UNL A   1      46.675  31.447  27.745  1.00  0.00     0.031 C 
ATOM     57  C   UNL A   1      44.718  32.275  29.024  1.00  0.00     0.037 A 
BRANCH  44  58
ATOM     58  C   UNL A   1      38.991  30.764  30.778  1.00  0.00     0.064 A 
ATOM     59  C   UNL A   1      38.814  30.643  32.165  1.00  0.00     0.173 A 
ATOM     60  C   UNL A   1      37.935  31.301  30.025  1.00  0.00     0.173 A 
ATOM     61  F   UNL A   1      39.787  30.122  32.927  1.00  0.00    -0.203 F 
ATOM     62  C   UNL A   1      37.615  31.016  32.768  1.00  0.00     0.198 A 
ATOM     63  C   UNL A   1      36.749  31.698  30.636  1.00  0.00     0.198 A 
ATOM     64  F   UNL A   1      38.055  31.439  28.696  1.00  0.00    -0.203 F 
ATOM     65  F   UNL A   1      37.448  30.843  34.087  1.00  0.00    -0.200 F 
ATOM     66  C   UNL A   1      36.587  31.547  32.005  1.00  0.00     0.200 A 
ATOM     67  F   UNL A   1      35.759  32.218  29.897  1.00  0.00    -0.200 F 
ATOM     68  F   UNL A   1      35.433  31.904  32.586  1.00  0.00    -0.200 F 
ENDBRANCH  44  58
BRANCH  45  69
ATOM     69  C   UNL A   1      47.163  27.661  25.962  1.00  0.00     0.064 A 
ATOM     70  C   UNL A   1      47.271  27.753  24.567  1.00  0.00     0.173 A 
ATOM     71  C   UNL A   1      48.247  27.118  26.667  1.00  0.00     0.173 A 
ATOM     72  F   UNL A   1      46.249  28.241  23.849  1.00  0.00    -0.203 F 
ATOM     73  C   UNL A   1      48.412  27.308  23.903  1.00  0.00     0.198 A 
ATOM     74  C   UNL A   1      49.397  26.695  26.003  1.00  0.00     0.198 A 
ATOM     75  F   UNL A   1      48.192  27.004  28.002  1.00  0.00    -0.203 F 
ATOM     76  F   UNL A   1      48.472  27.372  22.566  1.00  0.00    -0.200 F 
ATOM     77  C   UNL A   1      49.476  26.785  24.622  1.00  0.00     0.200 A 
ATOM     78  F   UNL A   1      50.427  26.200  26.702  1.00  0.00    -0.200 F 
ATOM     79  F   UNL A   1      50.574  26.361  23.982  1.00  0.00    -0.200 F 
ENDBRANCH  45  69
BRANCH  57  80
ATOM     80  C   UNL A   1      45.478  33.542  29.292  1.00  0.00     0.064 A 
ATOM     81  C   UNL A   1      46.321  33.675  30.404  1.00  0.00     0.173 A 
ATOM     82  C   UNL A   1      45.391  34.622  28.400  1.00  0.00     0.173 A 
ATOM     83  F   UNL A   1      46.427  32.677  31.294  1.00  0.00    -0.203 F 
ATOM     84  C   UNL A   1      47.029  34.853  30.628  1.00  0.00     0.198 A 
ATOM     85  C   UNL A   1      46.123  35.787  28.611  1.00  0.00     0.198 A 
ATOM     86  F   UNL A   1      44.605  34.542  27.316  1.00  0.00    -0.203 F 
ATOM     87  F   UNL A   1      47.793  34.975  31.723  1.00  0.00    -0.200 F 
ATOM     88  C   UNL A   1      46.935  35.904  29.728  1.00  0.00     0.200 A 
ATOM     89  F   UNL A   1      46.040  36.797  27.734  1.00  0.00    -0.200 F 
ATOM     90  F   UNL A   1      47.622  37.035  29.943  1.00  0.00    -0.200 F 
ENDBRANCH  57  80
ENDBRANCH  31  32
ENDBRANCH  24  26
ENDBRANCH  23  24
ENDBRANCH  22  23
ENDBRANCH  21  22
ENDBRANCH  20  21
ENDBRANCH   1  20
TORSDOF 17
ENDMDL
