MODEL 1
REMARK VINA RESULT:     -12.5      0.000      0.000
REMARK SMILES Cc1ccc(S(=O)(=O)n2cc(C(=O)C(=O)N[C@H](Cc3c[nH]c4ccccc34)C(=O)NCC(=O)OCCOCCOC(=O)c3ccc(-c4c5nc(c(-c6c(F)c(F)c(F)c(F)c6F)c6ccc([nH]6)c(-c6c(F)c(F)c(F)c(F)c6F)c6nc(c(-c7c(F)c(F)c(F)c(F)c7F)c7ccc4[nH]7)C=C6)C=C5)cc3)c3ccccc32)cc1
REMARK SMILES IDX 35 1 34 2 32 3 33 4 31 5 30 6 28 7 29 8 17 10 16 11 14 12
REMARK SMILES IDX 15 13 12 15 13 16 11 17 9 18 10 19 111 20 106 21 110 22
REMARK SMILES IDX 107 23 109 24 108 25 6 26 7 27 8 28 5 29 1 30 2 31 3 32
REMARK SMILES IDX 113 33 4 34 112 35 18 36 19 37 20 38 27 39 21 40 22 41 26 42
REMARK SMILES IDX 23 44 25 45 24 46 36 47 37 48 38 49 39 50 40 51 41 52 42 53
REMARK SMILES IDX 43 54 44 55 105 56 45 57 104 58 46 59 47 60 48 61 98 62
REMARK SMILES IDX 49 63 103 64 97 65 99 66 50 67 102 68 96 69 95 70 51 72
REMARK SMILES IDX 83 73 63 74 82 75 64 76 67 77 81 78 100 79 65 80 66 81 80 83
REMARK SMILES IDX 101 84 68 85 52 86 53 87 61 88 54 89 55 90 59 91 62 92 56 93
REMARK SMILES IDX 57 94 60 95 58 96 84 97 85 98 93 99 86 100 87 101 91 102
REMARK SMILES IDX 94 103 88 104 89 105 92 106 90 107 69 108 70 109 78 110
REMARK SMILES IDX 71 111 72 112 76 113 79 114 73 115 74 116 77 117 75 118
REMARK H PARENT 30 9 16 14 21 43 99 71 67 82
REMARK Flexibility Score: inf
ROOT
ATOM      1  C   UNL A   1      39.221  21.453  25.815  1.00  0.00     0.261 C 
ENDROOT
BRANCH   1   2
ATOM      2  O   UNL A   1      38.602  22.699  26.131  1.00  0.00    -0.462 OA
BRANCH   2   3
ATOM      3  C   UNL A   1      37.423  22.977  25.506  1.00  0.00     0.325 C 
ATOM      4  O   UNL A   1      37.014  24.060  25.174  1.00  0.00    -0.250 OA
BRANCH   3   5
ATOM      5  C   UNL A   1      36.595  21.712  25.372  1.00  0.00     0.238 C 
BRANCH   5   6
ATOM      6  N   UNL A   1      35.780  21.469  26.538  1.00  0.00    -0.343 N 
ATOM      7  C   UNL A   1      34.454  21.571  26.763  1.00  0.00     0.243 C 
ATOM      8  O   UNL A   1      34.143  21.415  27.950  1.00  0.00    -0.273 OA
ATOM      9  H   UNL A   1      36.294  21.170  27.323  1.00  0.00     0.164 HD
BRANCH   7  10
ATOM     10  C   UNL A   1      33.371  21.895  25.692  1.00  0.00     0.176 C 
BRANCH  10  11
ATOM     11  N   UNL A   1      31.931  22.085  26.142  1.00  0.00    -0.337 N 
ATOM     12  C   UNL A   1      30.820  22.904  25.954  1.00  0.00     0.293 C 
ATOM     13  O   UNL A   1      29.788  22.619  26.558  1.00  0.00    -0.265 OA
ATOM     14  H   UNL A   1      31.705  21.384  26.795  1.00  0.00     0.164 HD
BRANCH  12  15
ATOM     15  C   UNL A   1      30.798  24.123  25.038  1.00  0.00     0.252 C 
ATOM     16  O   UNL A   1      30.613  23.856  23.850  1.00  0.00    -0.283 OA
BRANCH  15  17
ATOM     17  C   UNL A   1      31.102  25.533  25.425  1.00  0.00     0.054 A 
ATOM     18  N   UNL A   1      32.508  27.312  25.492  1.00  0.00    -0.240 N 
ATOM     19  C   UNL A   1      32.118  26.131  26.201  1.00  0.00     0.117 A 
ATOM     20  C   UNL A   1      31.840  27.150  24.309  1.00  0.00     0.065 A 
ATOM     21  C   UNL A   1      30.609  26.657  24.712  1.00  0.00     0.012 A 
ATOM     22  C   UNL A   1      32.109  27.375  23.002  1.00  0.00     0.028 A 
ATOM     23  C   UNL A   1      29.473  27.083  24.022  1.00  0.00     0.011 A 
ATOM     24  C   UNL A   1      30.981  27.828  22.341  1.00  0.00     0.002 A 
ATOM     25  C   UNL A   1      29.694  27.847  22.891  1.00  0.00     0.001 A 
BRANCH  18  26
ATOM     26  S   UNL A   1      32.321  28.991  26.186  1.00  0.00     0.268 S 
ATOM     27  O   UNL A   1      31.130  28.898  27.005  1.00  0.00    -0.201 OA
ATOM     28  O   UNL A   1      32.388  29.897  25.047  1.00  0.00    -0.201 OA
BRANCH  26  29
ATOM     29  C   UNL A   1      33.692  29.485  27.267  1.00  0.00     0.088 A 
ATOM     30  C   UNL A   1      37.786  30.835  27.757  1.00  0.00     0.044 C 
ATOM     31  C   UNL A   1      36.346  30.402  27.900  1.00  0.00    -0.051 A 
ATOM     32  C   UNL A   1      36.057  29.053  27.877  1.00  0.00     0.005 A 
ATOM     33  C   UNL A   1      35.269  31.285  27.763  1.00  0.00     0.005 A 
ATOM     34  C   UNL A   1      34.787  28.654  27.402  1.00  0.00     0.022 A 
ATOM     35  C   UNL A   1      33.948  30.830  27.501  1.00  0.00     0.022 A 
ENDBRANCH  26  29
ENDBRANCH  18  26
ENDBRANCH  15  17
ENDBRANCH  12  15
ENDBRANCH  10  11
BRANCH  10  36
ATOM     36  C   UNL A   1      33.637  21.352  24.254  1.00  0.00     0.072 C 
BRANCH  36  37
ATOM     37  C   UNL A   1      33.226  19.917  23.917  1.00  0.00    -0.020 A 
ATOM     38  C   UNL A   1      32.114  19.580  23.160  1.00  0.00     0.087 A 
ATOM     39  C   UNL A   1      33.882  18.657  24.200  1.00  0.00     0.003 A 
ATOM     40  N   UNL A   1      31.996  18.220  23.098  1.00  0.00    -0.361 N 
ATOM     41  C   UNL A   1      33.067  17.628  23.713  1.00  0.00     0.046 A 
ATOM     42  C   UNL A   1      35.083  18.273  24.838  1.00  0.00     0.010 A 
ATOM     43  H   UNL A   1      31.249  17.737  22.674  1.00  0.00     0.166 HD
ATOM     44  C   UNL A   1      33.357  16.265  23.858  1.00  0.00     0.026 A 
ATOM     45  C   UNL A   1      35.397  16.910  24.984  1.00  0.00     0.001 A 
ATOM     46  C   UNL A   1      34.540  15.921  24.508  1.00  0.00     0.002 A 
ENDBRANCH  36  37
ENDBRANCH  10  36
ENDBRANCH   7  10
ENDBRANCH   5   6
ENDBRANCH   3   5
ENDBRANCH   2   3
ENDBRANCH   1   2
BRANCH   1  47
ATOM     47  C   UNL A   1      40.528  21.384  26.569  1.00  0.00     0.202 C 
BRANCH  47  48
ATOM     48  O   UNL A   1      40.415  22.285  27.663  1.00  0.00    -0.374 OA
BRANCH  48  49
ATOM     49  C   UNL A   1      41.598  22.531  28.410  1.00  0.00     0.202 C 
BRANCH  49  50
ATOM     50  C   UNL A   1      41.994  24.013  28.436  1.00  0.00     0.261 C 
BRANCH  50  51
ATOM     51  O   UNL A   1      40.807  24.830  28.425  1.00  0.00    -0.460 OA
BRANCH  51  52
ATOM     52  C   UNL A   1      40.761  25.757  27.431  1.00  0.00     0.338 C 
ATOM     53  O   UNL A   1      41.173  25.596  26.292  1.00  0.00    -0.246 OA
BRANCH  52  54
ATOM     54  C   UNL A   1      40.454  27.099  28.001  1.00  0.00     0.060 A 
ATOM     55  C   UNL A   1      41.495  28.034  28.149  1.00  0.00     0.016 A 
ATOM     56  C   UNL A   1      39.289  27.234  28.746  1.00  0.00     0.016 A 
ATOM     57  C   UNL A   1      41.449  28.985  29.171  1.00  0.00     0.010 A 
ATOM     58  C   UNL A   1      39.342  28.033  29.865  1.00  0.00     0.010 A 
ATOM     59  C   UNL A   1      40.419  28.912  30.094  1.00  0.00    -0.014 A 
BRANCH  59  60
ATOM     60  C   UNL A   1      40.346  29.663  31.364  1.00  0.00     0.031 A 
ATOM     61  C   UNL A   1      40.784  28.868  32.582  1.00  0.00     0.074 A 
ATOM     62  C   UNL A   1      40.417  31.008  31.166  1.00  0.00     0.049 A 
ATOM     63  N   UNL A   1      40.846  29.245  33.818  1.00  0.00    -0.248 NA
ATOM     64  C   UNL A   1      41.174  27.454  32.444  1.00  0.00     0.031 C 
ATOM     65  C   UNL A   1      41.268  32.015  31.766  1.00  0.00     0.029 A 
ATOM     66  N   UNL A   1      39.567  31.809  30.387  1.00  0.00    -0.354 N 
ATOM     67  C   UNL A   1      41.616  28.302  34.507  1.00  0.00     0.074 A 
ATOM     68  C   UNL A   1      41.784  27.206  33.597  1.00  0.00     0.031 C 
ATOM     69  C   UNL A   1      40.738  33.238  31.707  1.00  0.00     0.029 A 
ATOM     70  C   UNL A   1      39.479  33.067  31.063  1.00  0.00     0.049 A 
ATOM     71  H   UNL A   1      39.123  31.557  29.546  1.00  0.00     0.167 HD
ATOM     72  C   UNL A   1      42.195  28.562  35.719  1.00  0.00     0.037 A 
ATOM     73  C   UNL A   1      38.314  33.554  31.554  1.00  0.00     0.037 A 
ATOM     74  C   UNL A   1      41.741  29.881  36.259  1.00  0.00     0.049 A 
ATOM     75  C   UNL A   1      38.332  33.580  33.071  1.00  0.00     0.074 A 
ATOM     76  C   UNL A   1      42.367  31.054  36.632  1.00  0.00     0.029 A 
ATOM     77  N   UNL A   1      40.386  30.292  36.150  1.00  0.00    -0.354 N 
ATOM     78  N   UNL A   1      38.856  32.676  33.870  1.00  0.00    -0.248 NA
ATOM     79  C   UNL A   1      37.820  34.752  33.776  1.00  0.00     0.031 C 
ATOM     80  C   UNL A   1      41.493  32.154  36.610  1.00  0.00     0.029 A 
ATOM     81  C   UNL A   1      40.259  31.670  36.261  1.00  0.00     0.049 A 
ATOM     82  H   UNL A   1      39.630  29.675  36.012  1.00  0.00     0.167 HD
ATOM     83  C   UNL A   1      38.669  33.101  35.176  1.00  0.00     0.074 A 
ATOM     84  C   UNL A   1      38.061  34.416  35.050  1.00  0.00     0.031 C 
ATOM     85  C   UNL A   1      39.027  32.422  36.315  1.00  0.00     0.037 A 
BRANCH  72  86
ATOM     86  C   UNL A   1      43.456  27.707  36.097  1.00  0.00     0.064 A 
ATOM     87  C   UNL A   1      44.724  27.996  35.603  1.00  0.00     0.173 A 
ATOM     88  C   UNL A   1      43.506  26.584  36.936  1.00  0.00     0.173 A 
ATOM     89  F   UNL A   1      45.031  29.285  35.601  1.00  0.00    -0.203 F 
ATOM     90  C   UNL A   1      45.813  27.093  35.541  1.00  0.00     0.198 A 
ATOM     91  C   UNL A   1      44.614  25.702  37.004  1.00  0.00     0.198 A 
ATOM     92  F   UNL A   1      42.511  26.361  37.805  1.00  0.00    -0.203 F 
ATOM     93  F   UNL A   1      46.965  27.437  34.945  1.00  0.00    -0.200 F 
ATOM     94  C   UNL A   1      45.739  25.911  36.232  1.00  0.00     0.200 A 
ATOM     95  F   UNL A   1      44.595  24.677  37.867  1.00  0.00    -0.200 F 
ATOM     96  F   UNL A   1      46.789  25.078  36.294  1.00  0.00    -0.200 F 
ENDBRANCH  72  86
BRANCH  73  97
ATOM     97  C   UNL A   1      37.202  33.168  30.636  1.00  0.00     0.064 A 
ATOM     98  C   UNL A   1      36.116  32.514  31.276  1.00  0.00     0.173 A 
ATOM     99  C   UNL A   1      36.917  34.003  29.552  1.00  0.00     0.173 A 
ATOM    100  F   UNL A   1      36.349  31.698  32.318  1.00  0.00    -0.203 F 
ATOM    101  C   UNL A   1      34.807  32.930  31.047  1.00  0.00     0.198 A 
ATOM    102  C   UNL A   1      35.599  34.389  29.306  1.00  0.00     0.198 A 
ATOM    103  F   UNL A   1      37.910  34.616  28.895  1.00  0.00    -0.203 F 
ATOM    104  F   UNL A   1      33.820  32.519  31.858  1.00  0.00    -0.200 F 
ATOM    105  C   UNL A   1      34.560  33.907  30.097  1.00  0.00     0.200 A 
ATOM    106  F   UNL A   1      35.347  35.352  28.409  1.00  0.00    -0.200 F 
ATOM    107  F   UNL A   1      33.339  34.455  30.010  1.00  0.00    -0.200 F 
ENDBRANCH  73  97
BRANCH  85 108
ATOM    108  C   UNL A   1      38.503  32.710  37.718  1.00  0.00     0.064 A 
ATOM    109  C   UNL A   1      37.669  31.828  38.418  1.00  0.00     0.173 A 
ATOM    110  C   UNL A   1      38.948  33.837  38.469  1.00  0.00     0.173 A 
ATOM    111  F   UNL A   1      37.280  30.664  37.883  1.00  0.00    -0.203 F 
ATOM    112  C   UNL A   1      37.245  32.093  39.722  1.00  0.00     0.198 A 
ATOM    113  C   UNL A   1      38.540  34.085  39.773  1.00  0.00     0.198 A 
ATOM    114  F   UNL A   1      39.831  34.726  37.996  1.00  0.00    -0.203 F 
ATOM    115  F   UNL A   1      36.423  31.229  40.333  1.00  0.00    -0.200 F 
ATOM    116  C   UNL A   1      37.679  33.218  40.399  1.00  0.00     0.200 A 
ATOM    117  F   UNL A   1      39.012  35.161  40.421  1.00  0.00    -0.200 F 
ATOM    118  F   UNL A   1      37.295  33.447  41.660  1.00  0.00    -0.200 F 
ENDBRANCH  85 108
ENDBRANCH  59  60
ENDBRANCH  52  54
ENDBRANCH  51  52
ENDBRANCH  50  51
ENDBRANCH  49  50
ENDBRANCH  48  49
ENDBRANCH  47  48
ENDBRANCH   1  47
TORSDOF 23
ENDMDL
MODEL 2
REMARK VINA RESULT:     -11.3      2.090      2.566
REMARK SMILES Cc1ccc(S(=O)(=O)n2cc(C(=O)C(=O)N[C@H](Cc3c[nH]c4ccccc34)C(=O)NCC(=O)OCCOCCOC(=O)c3ccc(-c4c5nc(c(-c6c(F)c(F)c(F)c(F)c6F)c6ccc([nH]6)c(-c6c(F)c(F)c(F)c(F)c6F)c6nc(c(-c7c(F)c(F)c(F)c(F)c7F)c7ccc4[nH]7)C=C6)C=C5)cc3)c3ccccc32)cc1
REMARK SMILES IDX 35 1 34 2 32 3 33 4 31 5 30 6 28 7 29 8 17 10 16 11 14 12
REMARK SMILES IDX 15 13 12 15 13 16 11 17 9 18 10 19 111 20 106 21 110 22
REMARK SMILES IDX 107 23 109 24 108 25 6 26 7 27 8 28 5 29 1 30 2 31 3 32
REMARK SMILES IDX 113 33 4 34 112 35 18 36 19 37 20 38 27 39 21 40 22 41 26 42
REMARK SMILES IDX 23 44 25 45 24 46 36 47 37 48 38 49 39 50 40 51 41 52 42 53
REMARK SMILES IDX 43 54 44 55 105 56 45 57 104 58 46 59 47 60 48 61 98 62
REMARK SMILES IDX 49 63 103 64 97 65 99 66 50 67 102 68 96 69 95 70 51 72
REMARK SMILES IDX 83 73 63 74 82 75 64 76 67 77 81 78 100 79 65 80 66 81 80 83
REMARK SMILES IDX 101 84 68 85 52 86 53 87 61 88 54 89 55 90 59 91 62 92 56 93
REMARK SMILES IDX 57 94 60 95 58 96 84 97 85 98 93 99 86 100 87 101 91 102
REMARK SMILES IDX 94 103 88 104 89 105 92 106 90 107 69 108 70 109 78 110
REMARK SMILES IDX 71 111 72 112 76 113 79 114 73 115 74 116 77 117 75 118
REMARK H PARENT 30 9 16 14 21 43 99 71 67 82
REMARK Flexibility Score: inf
ROOT
ATOM      1  C   UNL A   1      39.117  21.389  25.749  1.00  0.00     0.261 C 
ENDROOT
BRANCH   1   2
ATOM      2  O   UNL A   1      38.474  22.524  26.327  1.00  0.00    -0.462 OA
BRANCH   2   3
ATOM      3  C   UNL A   1      37.374  23.004  25.682  1.00  0.00     0.325 C 
ATOM      4  O   UNL A   1      37.106  24.157  25.462  1.00  0.00    -0.250 OA
BRANCH   3   5
ATOM      5  C   UNL A   1      36.424  21.865  25.357  1.00  0.00     0.238 C 
BRANCH   5   6
ATOM      6  N   UNL A   1      35.634  21.473  26.499  1.00  0.00    -0.343 N 
ATOM      7  C   UNL A   1      34.387  21.794  26.901  1.00  0.00     0.243 C 
ATOM      8  O   UNL A   1      34.107  21.366  28.028  1.00  0.00    -0.273 OA
ATOM      9  H   UNL A   1      36.097  20.848  27.104  1.00  0.00     0.164 HD
BRANCH   7  10
ATOM     10  C   UNL A   1      33.365  22.654  26.100  1.00  0.00     0.176 C 
BRANCH  10  11
ATOM     11  N   UNL A   1      31.969  22.850  26.670  1.00  0.00    -0.337 N 
ATOM     12  C   UNL A   1      30.812  23.608  26.506  1.00  0.00     0.293 C 
ATOM     13  O   UNL A   1      29.856  23.362  27.239  1.00  0.00    -0.265 OA
ATOM     14  H   UNL A   1      31.836  22.220  27.415  1.00  0.00     0.164 HD
BRANCH  12  15
ATOM     15  C   UNL A   1      30.651  24.714  25.469  1.00  0.00     0.252 C 
ATOM     16  O   UNL A   1      30.045  24.369  24.454  1.00  0.00    -0.283 OA
BRANCH  15  17
ATOM     17  C   UNL A   1      31.257  26.079  25.521  1.00  0.00     0.054 A 
ATOM     18  N   UNL A   1      33.040  27.447  25.828  1.00  0.00    -0.240 N 
ATOM     19  C   UNL A   1      31.967  26.790  26.512  1.00  0.00     0.117 A 
ATOM     20  C   UNL A   1      32.956  26.879  24.585  1.00  0.00     0.065 A 
ATOM     21  C   UNL A   1      31.590  26.824  24.360  1.00  0.00     0.012 A 
ATOM     22  C   UNL A   1      33.837  26.446  23.654  1.00  0.00     0.028 A 
ATOM     23  C   UNL A   1      31.127  27.071  23.067  1.00  0.00     0.011 A 
ATOM     24  C   UNL A   1      33.377  26.728  22.379  1.00  0.00     0.002 A 
ATOM     25  C   UNL A   1      32.092  27.198  22.085  1.00  0.00     0.001 A 
BRANCH  18  26
ATOM     26  S   UNL A   1      33.210  29.263  25.766  1.00  0.00     0.268 S 
ATOM     27  O   UNL A   1      31.946  29.750  26.279  1.00  0.00    -0.201 OA
ATOM     28  O   UNL A   1      33.646  29.572  24.411  1.00  0.00    -0.201 OA
BRANCH  26  29
ATOM     29  C   UNL A   1      34.522  29.906  26.843  1.00  0.00     0.088 A 
ATOM     30  C   UNL A   1      36.756  29.720  30.556  1.00  0.00     0.044 C 
ATOM     31  C   UNL A   1      36.185  30.012  29.189  1.00  0.00    -0.051 A 
ATOM     32  C   UNL A   1      35.048  30.787  29.101  1.00  0.00     0.005 A 
ATOM     33  C   UNL A   1      36.567  29.311  28.040  1.00  0.00     0.005 A 
ATOM     34  C   UNL A   1      34.183  30.576  28.003  1.00  0.00     0.022 A 
ATOM     35  C   UNL A   1      35.771  29.300  26.862  1.00  0.00     0.022 A 
ENDBRANCH  26  29
ENDBRANCH  18  26
ENDBRANCH  15  17
ENDBRANCH  12  15
ENDBRANCH  10  11
BRANCH  10  36
ATOM     36  C   UNL A   1      33.549  22.679  24.551  1.00  0.00     0.072 C 
BRANCH  36  37
ATOM     37  C   UNL A   1      32.972  21.533  23.718  1.00  0.00    -0.020 A 
ATOM     38  C   UNL A   1      32.165  21.706  22.604  1.00  0.00     0.087 A 
ATOM     39  C   UNL A   1      33.174  20.102  23.816  1.00  0.00     0.003 A 
ATOM     40  N   UNL A   1      31.769  20.487  22.130  1.00  0.00    -0.361 N 
ATOM     41  C   UNL A   1      32.379  19.488  22.841  1.00  0.00     0.046 A 
ATOM     42  C   UNL A   1      33.940  19.251  24.644  1.00  0.00     0.010 A 
ATOM     43  H   UNL A   1      31.138  20.348  21.387  1.00  0.00     0.166 HD
ATOM     44  C   UNL A   1      32.277  18.099  22.675  1.00  0.00     0.026 A 
ATOM     45  C   UNL A   1      33.860  17.857  24.487  1.00  0.00     0.001 A 
ATOM     46  C   UNL A   1      33.032  17.290  23.521  1.00  0.00     0.002 A 
ENDBRANCH  36  37
ENDBRANCH  10  36
ENDBRANCH   7  10
ENDBRANCH   5   6
ENDBRANCH   3   5
ENDBRANCH   2   3
ENDBRANCH   1   2
BRANCH   1  47
ATOM     47  C   UNL A   1      40.413  21.166  26.492  1.00  0.00     0.202 C 
BRANCH  47  48
ATOM     48  O   UNL A   1      40.347  21.956  27.672  1.00  0.00    -0.374 OA
BRANCH  48  49
ATOM     49  C   UNL A   1      41.566  22.530  28.124  1.00  0.00     0.202 C 
BRANCH  49  50
ATOM     50  C   UNL A   1      41.650  24.040  27.867  1.00  0.00     0.261 C 
BRANCH  50  51
ATOM     51  O   UNL A   1      40.359  24.640  28.093  1.00  0.00    -0.460 OA
BRANCH  51  52
ATOM     52  C   UNL A   1      39.998  25.581  27.180  1.00  0.00     0.338 C 
ATOM     53  O   UNL A   1      40.155  25.491  25.971  1.00  0.00    -0.246 OA
BRANCH  52  54
ATOM     54  C   UNL A   1      39.698  26.868  27.867  1.00  0.00     0.060 A 
ATOM     55  C   UNL A   1      40.257  28.058  27.365  1.00  0.00     0.016 A 
ATOM     56  C   UNL A   1      39.252  26.812  29.182  1.00  0.00     0.016 A 
ATOM     57  C   UNL A   1      40.543  29.120  28.226  1.00  0.00     0.010 A 
ATOM     58  C   UNL A   1      39.717  27.772  30.050  1.00  0.00     0.010 A 
ATOM     59  C   UNL A   1      40.370  28.932  29.587  1.00  0.00    -0.014 A 
BRANCH  59  60
ATOM     60  C   UNL A   1      40.849  29.839  30.650  1.00  0.00     0.031 A 
ATOM     61  C   UNL A   1      41.903  29.230  31.558  1.00  0.00     0.074 A 
ATOM     62  C   UNL A   1      40.677  31.148  30.319  1.00  0.00     0.049 A 
ATOM     63  N   UNL A   1      42.521  29.768  32.560  1.00  0.00    -0.248 NA
ATOM     64  C   UNL A   1      42.319  27.828  31.377  1.00  0.00     0.031 C 
ATOM     65  C   UNL A   1      41.604  32.260  30.321  1.00  0.00     0.029 A 
ATOM     66  N   UNL A   1      39.479  31.803  29.993  1.00  0.00    -0.354 N 
ATOM     67  C   UNL A   1      43.621  28.957  32.859  1.00  0.00     0.074 A 
ATOM     68  C   UNL A   1      43.435  27.759  32.092  1.00  0.00     0.031 C 
ATOM     69  C   UNL A   1      40.992  33.441  30.420  1.00  0.00     0.029 A 
ATOM     70  C   UNL A   1      39.603  33.134  30.504  1.00  0.00     0.049 A 
ATOM     71  H   UNL A   1      38.710  31.425  29.511  1.00  0.00     0.167 HD
ATOM     72  C   UNL A   1      44.687  29.399  33.594  1.00  0.00     0.037 A 
ATOM     73  C   UNL A   1      38.783  33.631  31.461  1.00  0.00     0.037 A 
ATOM     74  C   UNL A   1      44.422  30.756  34.163  1.00  0.00     0.049 A 
ATOM     75  C   UNL A   1      39.535  33.856  32.759  1.00  0.00     0.074 A 
ATOM     76  C   UNL A   1      45.027  31.994  34.067  1.00  0.00     0.029 A 
ATOM     77  N   UNL A   1      43.152  31.090  34.703  1.00  0.00    -0.354 N 
ATOM     78  N   UNL A   1      40.470  33.088  33.272  1.00  0.00    -0.248 NA
ATOM     79  C   UNL A   1      39.315  35.088  33.512  1.00  0.00     0.031 C 
ATOM     80  C   UNL A   1      44.146  33.042  34.378  1.00  0.00     0.029 A 
ATOM     81  C   UNL A   1      42.956  32.464  34.735  1.00  0.00     0.049 A 
ATOM     82  H   UNL A   1      42.492  30.429  35.017  1.00  0.00     0.167 HD
ATOM     83  C   UNL A   1      40.902  33.672  34.454  1.00  0.00     0.074 A 
ATOM     84  C   UNL A   1      40.179  34.932  34.524  1.00  0.00     0.031 C 
ATOM     85  C   UNL A   1      41.837  33.164  35.322  1.00  0.00     0.037 A 
BRANCH  72  86
ATOM     86  C   UNL A   1      46.052  28.655  33.374  1.00  0.00     0.064 A 
ATOM     87  C   UNL A   1      46.709  28.656  32.148  1.00  0.00     0.173 A 
ATOM     88  C   UNL A   1      46.781  27.914  34.316  1.00  0.00     0.173 A 
ATOM     89  F   UNL A   1      46.727  29.832  31.537  1.00  0.00    -0.203 F 
ATOM     90  C   UNL A   1      47.686  27.720  31.733  1.00  0.00     0.198 A 
ATOM     91  C   UNL A   1      47.847  27.043  33.975  1.00  0.00     0.198 A 
ATOM     92  F   UNL A   1      46.550  28.091  35.624  1.00  0.00    -0.203 F 
ATOM     93  F   UNL A   1      48.182  27.743  30.486  1.00  0.00    -0.200 F 
ATOM     94  C   UNL A   1      48.241  26.878  32.663  1.00  0.00     0.200 A 
ATOM     95  F   UNL A   1      48.521  26.406  34.943  1.00  0.00    -0.200 F 
ATOM     96  F   UNL A   1      49.250  26.055  32.337  1.00  0.00    -0.200 F 
ENDBRANCH  72  86
BRANCH  73  97
ATOM     97  C   UNL A   1      37.410  33.081  31.256  1.00  0.00     0.064 A 
ATOM     98  C   UNL A   1      36.801  32.575  32.434  1.00  0.00     0.173 A 
ATOM     99  C   UNL A   1      36.588  33.688  30.302  1.00  0.00     0.173 A 
ATOM    100  F   UNL A   1      37.556  31.978  33.372  1.00  0.00    -0.203 F 
ATOM    101  C   UNL A   1      35.504  32.948  32.774  1.00  0.00     0.198 A 
ATOM    102  C   UNL A   1      35.277  34.029  30.638  1.00  0.00     0.198 A 
ATOM    103  F   UNL A   1      37.111  34.151  29.159  1.00  0.00    -0.203 F 
ATOM    104  F   UNL A   1      35.040  32.713  34.012  1.00  0.00    -0.200 F 
ATOM    105  C   UNL A   1      34.765  33.721  31.895  1.00  0.00     0.200 A 
ATOM    106  F   UNL A   1      34.560  34.799  29.808  1.00  0.00    -0.200 F 
ATOM    107  F   UNL A   1      33.599  34.251  32.294  1.00  0.00    -0.200 F 
ENDBRANCH  73  97
BRANCH  85 108
ATOM    108  C   UNL A   1      42.037  33.611  36.767  1.00  0.00     0.064 A 
ATOM    109  C   UNL A   1      41.830  32.764  37.864  1.00  0.00     0.173 A 
ATOM    110  C   UNL A   1      42.589  34.884  37.089  1.00  0.00     0.173 A 
ATOM    111  F   UNL A   1      41.438  31.494  37.700  1.00  0.00    -0.203 F 
ATOM    112  C   UNL A   1      42.070  33.184  39.174  1.00  0.00     0.198 A 
ATOM    113  C   UNL A   1      42.846  35.290  38.393  1.00  0.00     0.198 A 
ATOM    114  F   UNL A   1      42.950  35.779  36.160  1.00  0.00    -0.203 F 
ATOM    115  F   UNL A   1      41.825  32.342  40.188  1.00  0.00    -0.200 F 
ATOM    116  C   UNL A   1      42.577  34.442  39.439  1.00  0.00     0.200 A 
ATOM    117  F   UNL A   1      43.380  36.499  38.617  1.00  0.00    -0.200 F 
ATOM    118  F   UNL A   1      42.836  34.824  40.695  1.00  0.00    -0.200 F 
ENDBRANCH  85 108
ENDBRANCH  59  60
ENDBRANCH  52  54
ENDBRANCH  51  52
ENDBRANCH  50  51
ENDBRANCH  49  50
ENDBRANCH  48  49
ENDBRANCH  47  48
ENDBRANCH   1  47
TORSDOF 23
ENDMDL
MODEL 3
REMARK VINA RESULT:     -11.0      4.462      7.599
REMARK SMILES Cc1ccc(S(=O)(=O)n2cc(C(=O)C(=O)N[C@H](Cc3c[nH]c4ccccc34)C(=O)NCC(=O)OCCOCCOC(=O)c3ccc(-c4c5nc(c(-c6c(F)c(F)c(F)c(F)c6F)c6ccc([nH]6)c(-c6c(F)c(F)c(F)c(F)c6F)c6nc(c(-c7c(F)c(F)c(F)c(F)c7F)c7ccc4[nH]7)C=C6)C=C5)cc3)c3ccccc32)cc1
REMARK SMILES IDX 35 1 34 2 32 3 33 4 31 5 30 6 28 7 29 8 17 10 16 11 14 12
REMARK SMILES IDX 15 13 12 15 13 16 11 17 9 18 10 19 111 20 106 21 110 22
REMARK SMILES IDX 107 23 109 24 108 25 6 26 7 27 8 28 5 29 1 30 2 31 3 32
REMARK SMILES IDX 113 33 4 34 112 35 18 36 19 37 20 38 27 39 21 40 22 41 26 42
REMARK SMILES IDX 23 44 25 45 24 46 36 47 37 48 38 49 39 50 40 51 41 52 42 53
REMARK SMILES IDX 43 54 44 55 105 56 45 57 104 58 46 59 47 60 48 61 98 62
REMARK SMILES IDX 49 63 103 64 97 65 99 66 50 67 102 68 96 69 95 70 51 72
REMARK SMILES IDX 83 73 63 74 82 75 64 76 67 77 81 78 100 79 65 80 66 81 80 83
REMARK SMILES IDX 101 84 68 85 52 86 53 87 61 88 54 89 55 90 59 91 62 92 56 93
REMARK SMILES IDX 57 94 60 95 58 96 84 97 85 98 93 99 86 100 87 101 91 102
REMARK SMILES IDX 94 103 88 104 89 105 92 106 90 107 69 108 70 109 78 110
REMARK SMILES IDX 71 111 72 112 76 113 79 114 73 115 74 116 77 117 75 118
REMARK H PARENT 30 9 16 14 21 43 99 71 67 82
REMARK Flexibility Score: inf
ROOT
ATOM      1  C   UNL A   1      38.896  21.872  26.057  1.00  0.00     0.261 C 
ENDROOT
BRANCH   1   2
ATOM      2  O   UNL A   1      38.267  23.122  26.336  1.00  0.00    -0.462 OA
BRANCH   2   3
ATOM      3  C   UNL A   1      37.014  23.306  25.832  1.00  0.00     0.325 C 
ATOM      4  O   UNL A   1      36.427  24.350  25.708  1.00  0.00    -0.250 OA
BRANCH   3   5
ATOM      5  C   UNL A   1      36.371  21.964  25.535  1.00  0.00     0.238 C 
BRANCH   5   6
ATOM      6  N   UNL A   1      35.525  21.515  26.615  1.00  0.00    -0.343 N 
ATOM      7  C   UNL A   1      34.260  21.820  26.971  1.00  0.00     0.243 C 
ATOM      8  O   UNL A   1      33.923  21.334  28.058  1.00  0.00    -0.273 OA
ATOM      9  H   UNL A   1      35.956  20.858  27.208  1.00  0.00     0.164 HD
BRANCH   7  10
ATOM     10  C   UNL A   1      33.279  22.724  26.166  1.00  0.00     0.176 C 
BRANCH  10  11
ATOM     11  N   UNL A   1      31.875  22.941  26.706  1.00  0.00    -0.337 N 
ATOM     12  C   UNL A   1      30.751  23.748  26.549  1.00  0.00     0.293 C 
ATOM     13  O   UNL A   1      29.764  23.500  27.241  1.00  0.00    -0.265 OA
ATOM     14  H   UNL A   1      31.697  22.280  27.413  1.00  0.00     0.164 HD
BRANCH  12  15
ATOM     15  C   UNL A   1      30.659  24.911  25.567  1.00  0.00     0.252 C 
ATOM     16  O   UNL A   1      30.180  24.610  24.473  1.00  0.00    -0.283 OA
BRANCH  15  17
ATOM     17  C   UNL A   1      31.201  26.289  25.765  1.00  0.00     0.054 A 
ATOM     18  N   UNL A   1      32.908  27.694  26.274  1.00  0.00    -0.240 N 
ATOM     19  C   UNL A   1      31.834  26.938  26.846  1.00  0.00     0.117 A 
ATOM     20  C   UNL A   1      32.905  27.235  24.985  1.00  0.00     0.065 A 
ATOM     21  C   UNL A   1      31.553  27.146  24.689  1.00  0.00     0.012 A 
ATOM     22  C   UNL A   1      33.844  26.920  24.063  1.00  0.00     0.028 A 
ATOM     23  C   UNL A   1      31.139  27.486  23.401  1.00  0.00     0.011 A 
ATOM     24  C   UNL A   1      33.430  27.294  22.796  1.00  0.00     0.002 A 
ATOM     25  C   UNL A   1      32.141  27.737  22.482  1.00  0.00     0.001 A 
BRANCH  18  26
ATOM     26  S   UNL A   1      33.001  29.515  26.376  1.00  0.00     0.268 S 
ATOM     27  O   UNL A   1      31.840  29.880  27.162  1.00  0.00    -0.201 OA
ATOM     28  O   UNL A   1      33.163  29.978  25.004  1.00  0.00    -0.201 OA
BRANCH  26  29
ATOM     29  C   UNL A   1      34.469  30.117  27.256  1.00  0.00     0.088 A 
ATOM     30  C   UNL A   1      36.939  30.195  30.821  1.00  0.00     0.044 C 
ATOM     31  C   UNL A   1      36.309  30.346  29.457  1.00  0.00    -0.051 A 
ATOM     32  C   UNL A   1      35.287  31.259  29.301  1.00  0.00     0.005 A 
ATOM     33  C   UNL A   1      36.499  29.422  28.425  1.00  0.00     0.005 A 
ATOM     34  C   UNL A   1      34.319  31.008  28.302  1.00  0.00     0.022 A 
ATOM     35  C   UNL A   1      35.620  29.342  27.310  1.00  0.00     0.022 A 
ENDBRANCH  26  29
ENDBRANCH  18  26
ENDBRANCH  15  17
ENDBRANCH  12  15
ENDBRANCH  10  11
BRANCH  10  36
ATOM     36  C   UNL A   1      33.503  22.782  24.623  1.00  0.00     0.072 C 
BRANCH  36  37
ATOM     37  C   UNL A   1      32.941  21.658  23.751  1.00  0.00    -0.020 A 
ATOM     38  C   UNL A   1      32.158  21.859  22.625  1.00  0.00     0.087 A 
ATOM     39  C   UNL A   1      33.139  20.224  23.818  1.00  0.00     0.003 A 
ATOM     40  N   UNL A   1      31.770  20.653  22.112  1.00  0.00    -0.361 N 
ATOM     41  C   UNL A   1      32.363  19.636  22.812  1.00  0.00     0.046 A 
ATOM     42  C   UNL A   1      33.885  19.352  24.641  1.00  0.00     0.010 A 
ATOM     43  H   UNL A   1      31.155  20.534  21.353  1.00  0.00     0.166 HD
ATOM     44  C   UNL A   1      32.262  18.252  22.611  1.00  0.00     0.026 A 
ATOM     45  C   UNL A   1      33.806  17.962  24.448  1.00  0.00     0.001 A 
ATOM     46  C   UNL A   1      32.998  17.421  23.452  1.00  0.00     0.002 A 
ENDBRANCH  36  37
ENDBRANCH  10  36
ENDBRANCH   7  10
ENDBRANCH   5   6
ENDBRANCH   3   5
ENDBRANCH   2   3
ENDBRANCH   1   2
BRANCH   1  47
ATOM     47  C   UNL A   1      40.151  21.792  26.895  1.00  0.00     0.202 C 
BRANCH  47  48
ATOM     48  O   UNL A   1      40.828  23.031  26.733  1.00  0.00    -0.374 OA
BRANCH  48  49
ATOM     49  C   UNL A   1      42.217  22.965  26.443  1.00  0.00     0.202 C 
BRANCH  49  50
ATOM     50  C   UNL A   1      42.824  24.331  26.098  1.00  0.00     0.261 C 
BRANCH  50  51
ATOM     51  O   UNL A   1      41.995  25.379  26.638  1.00  0.00    -0.460 OA
BRANCH  51  52
ATOM     52  C   UNL A   1      42.260  26.623  26.159  1.00  0.00     0.338 C 
ATOM     53  O   UNL A   1      42.098  26.987  25.004  1.00  0.00    -0.246 OA
BRANCH  52  54
ATOM     54  C   UNL A   1      43.087  27.380  27.140  1.00  0.00     0.060 A 
ATOM     55  C   UNL A   1      42.746  27.329  28.505  1.00  0.00     0.016 A 
ATOM     56  C   UNL A   1      43.872  28.421  26.660  1.00  0.00     0.016 A 
ATOM     57  C   UNL A   1      43.027  28.411  29.343  1.00  0.00     0.010 A 
ATOM     58  C   UNL A   1      43.963  29.554  27.434  1.00  0.00     0.010 A 
ATOM     59  C   UNL A   1      43.541  29.567  28.778  1.00  0.00    -0.014 A 
BRANCH  59  60
ATOM     60  C   UNL A   1      43.663  30.874  29.454  1.00  0.00     0.031 A 
ATOM     61  C   UNL A   1      42.336  31.566  29.714  1.00  0.00     0.074 A 
ATOM     62  C   UNL A   1      44.817  30.974  30.168  1.00  0.00     0.049 A 
ATOM     63  N   UNL A   1      42.112  32.702  30.292  1.00  0.00    -0.248 NA
ATOM     64  C   UNL A   1      41.078  30.958  29.246  1.00  0.00     0.031 C 
ATOM     65  C   UNL A   1      45.057  31.353  31.544  1.00  0.00     0.029 A 
ATOM     66  N   UNL A   1      46.134  30.845  29.696  1.00  0.00    -0.354 N 
ATOM     67  C   UNL A   1      40.748  32.754  30.600  1.00  0.00     0.074 A 
ATOM     68  C   UNL A   1      40.157  31.641  29.915  1.00  0.00     0.031 C 
ATOM     69  C   UNL A   1      46.294  31.808  31.746  1.00  0.00     0.029 A 
ATOM     70  C   UNL A   1      46.922  31.756  30.468  1.00  0.00     0.049 A 
ATOM     71  H   UNL A   1      46.451  30.249  28.981  1.00  0.00     0.167 HD
ATOM     72  C   UNL A   1      40.232  33.617  31.528  1.00  0.00     0.037 A 
ATOM     73  C   UNL A   1      47.584  32.802  29.916  1.00  0.00     0.037 A 
ATOM     74  C   UNL A   1      41.271  34.582  32.001  1.00  0.00     0.049 A 
ATOM     75  C   UNL A   1      46.975  34.121  30.350  1.00  0.00     0.074 A 
ATOM     76  C   UNL A   1      41.829  34.900  33.224  1.00  0.00     0.029 A 
ATOM     77  N   UNL A   1      42.194  35.170  31.095  1.00  0.00    -0.354 N 
ATOM     78  N   UNL A   1      45.696  34.386  30.509  1.00  0.00    -0.248 NA
ATOM     79  C   UNL A   1      47.850  35.222  30.743  1.00  0.00     0.031 C 
ATOM     80  C   UNL A   1      43.089  35.508  33.092  1.00  0.00     0.029 A 
ATOM     81  C   UNL A   1      43.328  35.632  31.749  1.00  0.00     0.049 A 
ATOM     82  H   UNL A   1      42.047  35.240  30.124  1.00  0.00     0.167 HD
ATOM     83  C   UNL A   1      45.582  35.702  30.931  1.00  0.00     0.074 A 
ATOM     84  C   UNL A   1      46.954  36.152  31.100  1.00  0.00     0.031 C 
ATOM     85  C   UNL A   1      44.414  36.385  31.166  1.00  0.00     0.037 A 
BRANCH  72  86
ATOM     86  C   UNL A   1      38.872  33.204  32.195  1.00  0.00     0.064 A 
ATOM     87  C   UNL A   1      37.643  33.632  31.703  1.00  0.00     0.173 A 
ATOM     88  C   UNL A   1      38.687  32.393  33.325  1.00  0.00     0.173 A 
ATOM     89  F   UNL A   1      37.535  33.586  30.383  1.00  0.00    -0.203 F 
ATOM     90  C   UNL A   1      36.429  33.668  32.429  1.00  0.00     0.198 A 
ATOM     91  C   UNL A   1      37.462  32.298  34.032  1.00  0.00     0.198 A 
ATOM     92  F   UNL A   1      39.671  31.576  33.724  1.00  0.00    -0.203 F 
ATOM     93  F   UNL A   1      35.319  34.202  31.897  1.00  0.00    -0.200 F 
ATOM     94  C   UNL A   1      36.351  33.012  33.631  1.00  0.00     0.200 A 
ATOM     95  F   UNL A   1      37.360  31.463  35.076  1.00  0.00    -0.200 F 
ATOM     96  F   UNL A   1      35.189  32.924  34.298  1.00  0.00    -0.200 F 
ENDBRANCH  72  86
BRANCH  73  97
ATOM     97  C   UNL A   1      48.090  32.398  28.571  1.00  0.00     0.064 A 
ATOM     98  C   UNL A   1      47.395  32.992  27.484  1.00  0.00     0.173 A 
ATOM     99  C   UNL A   1      49.459  32.159  28.421  1.00  0.00     0.173 A 
ATOM    100  F   UNL A   1      46.077  33.233  27.586  1.00  0.00    -0.203 F 
ATOM    101  C   UNL A   1      48.096  33.601  26.446  1.00  0.00     0.198 A 
ATOM    102  C   UNL A   1      50.149  32.744  27.359  1.00  0.00     0.198 A 
ATOM    103  F   UNL A   1      50.151  31.571  29.405  1.00  0.00    -0.203 F 
ATOM    104  F   UNL A   1      47.454  34.405  25.585  1.00  0.00    -0.200 F 
ATOM    105  C   UNL A   1      49.478  33.519  26.418  1.00  0.00     0.200 A 
ATOM    106  F   UNL A   1      51.488  32.695  27.332  1.00  0.00    -0.200 F 
ATOM    107  F   UNL A   1      50.170  34.264  25.543  1.00  0.00    -0.200 F 
ENDBRANCH  73  97
BRANCH  85 108
ATOM    108  C   UNL A   1      44.283  37.901  31.269  1.00  0.00     0.064 A 
ATOM    109  C   UNL A   1      44.754  38.636  32.365  1.00  0.00     0.173 A 
ATOM    110  C   UNL A   1      43.797  38.688  30.185  1.00  0.00     0.173 A 
ATOM    111  F   UNL A   1      45.357  38.036  33.399  1.00  0.00    -0.203 F 
ATOM    112  C   UNL A   1      44.667  40.029  32.411  1.00  0.00     0.198 A 
ATOM    113  C   UNL A   1      43.732  40.075  30.227  1.00  0.00     0.198 A 
ATOM    114  F   UNL A   1      43.406  38.160  29.018  1.00  0.00    -0.203 F 
ATOM    115  F   UNL A   1      45.106  40.679  33.498  1.00  0.00    -0.200 F 
ATOM    116  C   UNL A   1      44.158  40.748  31.345  1.00  0.00     0.200 A 
ATOM    117  F   UNL A   1      43.274  40.748  29.161  1.00  0.00    -0.200 F 
ATOM    118  F   UNL A   1      44.109  42.085  31.384  1.00  0.00    -0.200 F 
ENDBRANCH  85 108
ENDBRANCH  59  60
ENDBRANCH  52  54
ENDBRANCH  51  52
ENDBRANCH  50  51
ENDBRANCH  49  50
ENDBRANCH  48  49
ENDBRANCH  47  48
ENDBRANCH   1  47
TORSDOF 23
ENDMDL
