MODEL 1
REMARK VINA RESULT:     -11.4      0.000      0.000
REMARK SMILES O=C(Cc1ccccc1Nc1c(Cl)cccc1Cl)OCCOCCOC(=O)c1ccc(-c2c3nc(c(-c4c(F)c(F)c(F)c(F)c4F)c4ccc([nH]4)c(-c4c(F)c(F)c(F)c(F)c4F)c4nc(c(-c5c(F)c(F)c(F)c(F)c5F)c5ccc2[nH]5)C=C4)C=C3)cc1
REMARK SMILES IDX 21 1 20 2 19 3 2 4 1 5 3 6 4 7 5 8 9 9 6 10 8 11 7 12 10 13
REMARK SMILES IDX 11 15 12 16 17 17 13 18 14 19 16 20 18 21 15 22 22 23 23 24
REMARK SMILES IDX 24 25 25 26 26 27 27 28 28 29 29 30 90 31 30 32 89 33 31 34
REMARK SMILES IDX 32 35 33 36 83 37 34 38 88 39 82 40 84 41 35 42 87 43 81 44
REMARK SMILES IDX 80 45 36 47 68 48 48 49 67 50 49 51 52 52 66 53 85 54 50 55
REMARK SMILES IDX 51 56 65 58 86 59 53 60 37 61 38 62 46 63 39 64 40 65 44 66
REMARK SMILES IDX 47 67 41 68 42 69 45 70 43 71 69 72 70 73 78 74 71 75 72 76
REMARK SMILES IDX 76 77 79 78 73 79 74 80 77 81 75 82 54 83 55 84 63 85 56 86
REMARK SMILES IDX 57 87 61 88 64 89 58 90 59 91 62 92 60 93
REMARK H PARENT 10 14 84 46 52 57
REMARK Flexibility Score: inf
ROOT
ATOM      1  C   UNL A   1      33.364  27.230  25.933  1.00  0.00     0.202 C 
ENDROOT
BRANCH   1   2
ATOM      2  C   UNL A   1      33.881  25.937  25.306  1.00  0.00     0.261 C 
BRANCH   2   3
ATOM      3  O   UNL A   1      34.126  25.997  23.893  1.00  0.00    -0.463 OA
BRANCH   3   4
ATOM      4  C   UNL A   1      33.923  24.965  23.036  1.00  0.00     0.310 C 
ATOM      5  O   UNL A   1      34.774  24.081  22.943  1.00  0.00    -0.252 OA
BRANCH   4   6
ATOM      6  C   UNL A   1      32.702  24.961  22.147  1.00  0.00     0.160 C 
BRANCH   6   7
ATOM      7  C   UNL A   1      31.483  25.711  22.638  1.00  0.00    -0.013 A 
ATOM      8  C   UNL A   1      31.357  27.082  22.325  1.00  0.00     0.006 A 
ATOM      9  C   UNL A   1      30.490  25.075  23.425  1.00  0.00     0.042 A 
ATOM     10  C   UNL A   1      30.241  27.809  22.725  1.00  0.00     0.000 A 
ATOM     11  C   UNL A   1      29.408  25.856  23.863  1.00  0.00     0.026 A 
ATOM     12  C   UNL A   1      29.272  27.198  23.503  1.00  0.00     0.002 A 
BRANCH   9  13
ATOM     13  N   UNL A   1      30.556  23.689  23.700  1.00  0.00    -0.353 N 
ATOM     14  H   UNL A   1      29.914  23.139  23.195  1.00  0.00     0.167 HD
BRANCH  13  15
ATOM     15  C   UNL A   1      31.394  22.960  24.585  1.00  0.00     0.076 A 
ATOM     16  C   UNL A   1      32.213  21.940  24.050  1.00  0.00     0.066 A 
ATOM     17  C   UNL A   1      31.535  23.240  25.958  1.00  0.00     0.066 A 
ATOM     18  Cl  UNL A   1      32.051  21.459  22.391  1.00  0.00    -0.082 Cl
ATOM     19  C   UNL A   1      33.179  21.287  24.823  1.00  0.00     0.023 A 
ATOM     20  C   UNL A   1      32.515  22.595  26.730  1.00  0.00     0.023 A 
ATOM     21  Cl  UNL A   1      30.454  24.298  26.804  1.00  0.00    -0.082 Cl
ATOM     22  C   UNL A   1      33.345  21.633  26.159  1.00  0.00     0.003 A 
ENDBRANCH  13  15
ENDBRANCH   9  13
ENDBRANCH   6   7
ENDBRANCH   4   6
ENDBRANCH   3   4
ENDBRANCH   2   3
ENDBRANCH   1   2
BRANCH   1  23
ATOM     23  O   UNL A   1      31.960  27.425  26.017  1.00  0.00    -0.374 OA
BRANCH  23  24
ATOM     24  C   UNL A   1      31.463  28.757  25.860  1.00  0.00     0.202 C 
BRANCH  24  25
ATOM     25  C   UNL A   1      31.916  29.808  26.880  1.00  0.00     0.261 C 
BRANCH  25  26
ATOM     26  O   UNL A   1      32.883  30.717  26.328  1.00  0.00    -0.460 OA
BRANCH  26  27
ATOM     27  C   UNL A   1      33.257  31.735  27.139  1.00  0.00     0.338 C 
ATOM     28  O   UNL A   1      32.592  32.703  27.476  1.00  0.00    -0.246 OA
BRANCH  27  29
ATOM     29  C   UNL A   1      34.546  31.392  27.764  1.00  0.00     0.060 A 
ATOM     30  C   UNL A   1      34.775  30.056  28.129  1.00  0.00     0.016 A 
ATOM     31  C   UNL A   1      35.510  32.371  28.001  1.00  0.00     0.016 A 
ATOM     32  C   UNL A   1      35.968  29.698  28.751  1.00  0.00     0.010 A 
ATOM     33  C   UNL A   1      36.697  32.014  28.642  1.00  0.00     0.010 A 
ATOM     34  C   UNL A   1      36.922  30.683  29.035  1.00  0.00    -0.014 A 
BRANCH  34  35
ATOM     35  C   UNL A   1      38.120  30.354  29.839  1.00  0.00     0.031 A 
ATOM     36  C   UNL A   1      39.125  29.389  29.278  1.00  0.00     0.074 A 
ATOM     37  C   UNL A   1      38.282  30.883  31.064  1.00  0.00     0.049 A 
ATOM     38  N   UNL A   1      40.168  28.850  29.854  1.00  0.00    -0.248 NA
ATOM     39  C   UNL A   1      38.921  28.967  27.883  1.00  0.00     0.031 C 
ATOM     40  C   UNL A   1      37.386  31.854  31.688  1.00  0.00     0.029 A 
ATOM     41  N   UNL A   1      39.246  30.655  32.014  1.00  0.00    -0.354 N 
ATOM     42  C   UNL A   1      40.733  28.015  28.900  1.00  0.00     0.074 A 
ATOM     43  C   UNL A   1      39.912  28.103  27.713  1.00  0.00     0.031 C 
ATOM     44  C   UNL A   1      37.824  32.116  32.932  1.00  0.00     0.029 A 
ATOM     45  C   UNL A   1      39.003  31.296  33.204  1.00  0.00     0.049 A 
ATOM     46  H   UNL A   1      40.035  30.087  31.857  1.00  0.00     0.167 HD
ATOM     47  C   UNL A   1      41.839  27.244  29.014  1.00  0.00     0.037 A 
ATOM     48  C   UNL A   1      39.636  31.193  34.388  1.00  0.00     0.037 A 
ATOM     49  C   UNL A   1      42.653  27.174  30.200  1.00  0.00     0.049 A 
ATOM     50  C   UNL A   1      40.823  30.269  34.504  1.00  0.00     0.074 A 
ATOM     51  C   UNL A   1      43.823  26.465  30.399  1.00  0.00     0.029 A 
ATOM     52  N   UNL A   1      42.370  27.828  31.389  1.00  0.00    -0.354 N 
ATOM     53  N   UNL A   1      41.385  29.521  33.585  1.00  0.00    -0.248 NA
ATOM     54  C   UNL A   1      41.461  30.171  35.824  1.00  0.00     0.031 C 
ATOM     55  C   UNL A   1      44.212  26.634  31.730  1.00  0.00     0.029 A 
ATOM     56  C   UNL A   1      43.321  27.501  32.342  1.00  0.00     0.049 A 
ATOM     57  H   UNL A   1      41.609  28.434  31.535  1.00  0.00     0.167 HD
ATOM     58  C   UNL A   1      42.450  28.884  34.208  1.00  0.00     0.074 A 
ATOM     59  C   UNL A   1      42.475  29.355  35.576  1.00  0.00     0.031 C 
ATOM     60  C   UNL A   1      43.328  27.984  33.699  1.00  0.00     0.037 A 
BRANCH  47  61
ATOM     61  C   UNL A   1      42.231  26.389  27.846  1.00  0.00     0.064 A 
ATOM     62  C   UNL A   1      43.200  26.798  26.919  1.00  0.00     0.173 A 
ATOM     63  C   UNL A   1      41.688  25.102  27.703  1.00  0.00     0.173 A 
ATOM     64  F   UNL A   1      43.741  28.023  27.003  1.00  0.00    -0.203 F 
ATOM     65  C   UNL A   1      43.608  25.952  25.890  1.00  0.00     0.198 A 
ATOM     66  C   UNL A   1      42.118  24.249  26.690  1.00  0.00     0.198 A 
ATOM     67  F   UNL A   1      40.758  24.661  28.564  1.00  0.00    -0.203 F 
ATOM     68  F   UNL A   1      44.519  26.373  25.001  1.00  0.00    -0.200 F 
ATOM     69  C   UNL A   1      43.076  24.676  25.784  1.00  0.00     0.200 A 
ATOM     70  F   UNL A   1      41.614  23.011  26.600  1.00  0.00    -0.200 F 
ATOM     71  F   UNL A   1      43.488  23.856  24.808  1.00  0.00    -0.200 F 
ENDBRANCH  47  61
BRANCH  48  72
ATOM     72  C   UNL A   1      39.139  31.939  35.577  1.00  0.00     0.064 A 
ATOM     73  C   UNL A   1      39.553  33.253  35.834  1.00  0.00     0.173 A 
ATOM     74  C   UNL A   1      38.282  31.334  36.509  1.00  0.00     0.173 A 
ATOM     75  F   UNL A   1      40.393  33.868  34.989  1.00  0.00    -0.203 F 
ATOM     76  C   UNL A   1      39.160  33.919  36.994  1.00  0.00     0.198 A 
ATOM     77  C   UNL A   1      37.859  32.014  37.649  1.00  0.00     0.198 A 
ATOM     78  F   UNL A   1      37.855  30.078  36.314  1.00  0.00    -0.203 F 
ATOM     79  F   UNL A   1      39.630  35.148  37.249  1.00  0.00    -0.200 F 
ATOM     80  C   UNL A   1      38.310  33.300  37.898  1.00  0.00     0.200 A 
ATOM     81  F   UNL A   1      37.026  31.418  38.513  1.00  0.00    -0.200 F 
ATOM     82  F   UNL A   1      37.938  33.939  39.016  1.00  0.00    -0.200 F 
ENDBRANCH  48  72
BRANCH  60  83
ATOM     83  C   UNL A   1      44.399  27.468  34.616  1.00  0.00     0.064 A 
ATOM     84  C   UNL A   1      45.589  28.180  34.828  1.00  0.00     0.173 A 
ATOM     85  C   UNL A   1      44.214  26.272  35.327  1.00  0.00     0.173 A 
ATOM     86  F   UNL A   1      45.822  29.321  34.160  1.00  0.00    -0.203 F 
ATOM     87  C   UNL A   1      46.564  27.702  35.699  1.00  0.00     0.198 A 
ATOM     88  C   UNL A   1      45.175  25.815  36.224  1.00  0.00     0.198 A 
ATOM     89  F   UNL A   1      43.090  25.558  35.167  1.00  0.00    -0.203 F 
ATOM     90  F   UNL A   1      47.714  28.372  35.847  1.00  0.00    -0.200 F 
ATOM     91  C   UNL A   1      46.352  26.525  36.403  1.00  0.00     0.200 A 
ATOM     92  F   UNL A   1      44.960  24.689  36.917  1.00  0.00    -0.200 F 
ATOM     93  F   UNL A   1      47.286  26.073  37.251  1.00  0.00    -0.200 F 
ENDBRANCH  60  83
ENDBRANCH  34  35
ENDBRANCH  27  29
ENDBRANCH  26  27
ENDBRANCH  25  26
ENDBRANCH  24  25
ENDBRANCH  23  24
ENDBRANCH   1  23
TORSDOF 17
ENDMDL
MODEL 2
REMARK VINA RESULT:     -11.0      4.879      9.846
REMARK SMILES O=C(Cc1ccccc1Nc1c(Cl)cccc1Cl)OCCOCCOC(=O)c1ccc(-c2c3nc(c(-c4c(F)c(F)c(F)c(F)c4F)c4ccc([nH]4)c(-c4c(F)c(F)c(F)c(F)c4F)c4nc(c(-c5c(F)c(F)c(F)c(F)c5F)c5ccc2[nH]5)C=C4)C=C3)cc1
REMARK SMILES IDX 21 1 20 2 19 3 2 4 1 5 3 6 4 7 5 8 9 9 6 10 8 11 7 12 10 13
REMARK SMILES IDX 11 15 12 16 17 17 13 18 14 19 16 20 18 21 15 22 22 23 23 24
REMARK SMILES IDX 24 25 25 26 26 27 27 28 28 29 29 30 90 31 30 32 89 33 31 34
REMARK SMILES IDX 32 35 33 36 83 37 34 38 88 39 82 40 84 41 35 42 87 43 81 44
REMARK SMILES IDX 80 45 36 47 68 48 48 49 67 50 49 51 52 52 66 53 85 54 50 55
REMARK SMILES IDX 51 56 65 58 86 59 53 60 37 61 38 62 46 63 39 64 40 65 44 66
REMARK SMILES IDX 47 67 41 68 42 69 45 70 43 71 69 72 70 73 78 74 71 75 72 76
REMARK SMILES IDX 76 77 79 78 73 79 74 80 77 81 75 82 54 83 55 84 63 85 56 86
REMARK SMILES IDX 57 87 61 88 64 89 58 90 59 91 62 92 60 93
REMARK H PARENT 10 14 84 46 52 57
REMARK Flexibility Score: inf
ROOT
ATOM      1  C   UNL A   1      37.104  22.883  25.320  1.00  0.00     0.202 C 
ENDROOT
BRANCH   1   2
ATOM      2  C   UNL A   1      35.649  23.206  25.653  1.00  0.00     0.261 C 
BRANCH   2   3
ATOM      3  O   UNL A   1      35.206  24.512  25.257  1.00  0.00    -0.463 OA
BRANCH   3   4
ATOM      4  C   UNL A   1      33.933  24.812  24.898  1.00  0.00     0.310 C 
ATOM      5  O   UNL A   1      33.041  23.985  25.084  1.00  0.00    -0.252 OA
BRANCH   4   6
ATOM      6  C   UNL A   1      33.643  26.118  24.196  1.00  0.00     0.160 C 
BRANCH   6   7
ATOM      7  C   UNL A   1      33.257  27.299  25.060  1.00  0.00    -0.013 A 
ATOM      8  C   UNL A   1      34.041  27.596  26.196  1.00  0.00     0.006 A 
ATOM      9  C   UNL A   1      32.115  28.087  24.770  1.00  0.00     0.042 A 
ATOM     10  C   UNL A   1      33.749  28.688  27.004  1.00  0.00     0.000 A 
ATOM     11  C   UNL A   1      31.814  29.144  25.643  1.00  0.00     0.026 A 
ATOM     12  C   UNL A   1      32.628  29.456  26.734  1.00  0.00     0.002 A 
BRANCH   9  13
ATOM     13  N   UNL A   1      31.346  27.855  23.604  1.00  0.00    -0.353 N 
ATOM     14  H   UNL A   1      31.873  27.629  22.804  1.00  0.00     0.167 HD
BRANCH  13  15
ATOM     15  C   UNL A   1      29.942  27.893  23.399  1.00  0.00     0.076 A 
ATOM     16  C   UNL A   1      29.158  26.831  23.906  1.00  0.00     0.066 A 
ATOM     17  C   UNL A   1      29.255  28.965  22.798  1.00  0.00     0.066 A 
ATOM     18  Cl  UNL A   1      29.913  25.424  24.584  1.00  0.00    -0.082 Cl
ATOM     19  C   UNL A   1      27.759  26.871  23.886  1.00  0.00     0.023 A 
ATOM     20  C   UNL A   1      27.851  29.012  22.792  1.00  0.00     0.023 A 
ATOM     21  Cl  UNL A   1      30.076  30.225  21.936  1.00  0.00    -0.082 Cl
ATOM     22  C   UNL A   1      27.107  27.975  23.350  1.00  0.00     0.003 A 
ENDBRANCH  13  15
ENDBRANCH   9  13
ENDBRANCH   6   7
ENDBRANCH   4   6
ENDBRANCH   3   4
ENDBRANCH   2   3
ENDBRANCH   1   2
BRANCH   1  23
ATOM     23  O   UNL A   1      37.777  21.912  26.109  1.00  0.00    -0.374 OA
BRANCH  23  24
ATOM     24  C   UNL A   1      39.105  21.544  25.722  1.00  0.00     0.202 C 
BRANCH  24  25
ATOM     25  C   UNL A   1      39.428  20.048  25.632  1.00  0.00     0.261 C 
BRANCH  25  26
ATOM     26  O   UNL A   1      40.470  19.664  26.545  1.00  0.00    -0.460 OA
BRANCH  26  27
ATOM     27  C   UNL A   1      41.731  19.733  26.055  1.00  0.00     0.338 C 
ATOM     28  O   UNL A   1      42.251  18.998  25.229  1.00  0.00    -0.246 OA
BRANCH  27  29
ATOM     29  C   UNL A   1      42.342  20.996  26.503  1.00  0.00     0.060 A 
ATOM     30  C   UNL A   1      42.275  21.323  27.865  1.00  0.00     0.016 A 
ATOM     31  C   UNL A   1      42.961  21.853  25.593  1.00  0.00     0.016 A 
ATOM     32  C   UNL A   1      42.813  22.524  28.321  1.00  0.00     0.010 A 
ATOM     33  C   UNL A   1      43.483  23.064  26.048  1.00  0.00     0.010 A 
ATOM     34  C   UNL A   1      43.394  23.412  27.408  1.00  0.00    -0.014 A 
BRANCH  34  35
ATOM     35  C   UNL A   1      43.823  24.760  27.845  1.00  0.00     0.031 A 
ATOM     36  C   UNL A   1      42.773  25.780  28.174  1.00  0.00     0.074 A 
ATOM     37  C   UNL A   1      45.129  25.069  27.909  1.00  0.00     0.049 A 
ATOM     38  N   UNL A   1      42.908  27.053  28.440  1.00  0.00    -0.248 NA
ATOM     39  C   UNL A   1      41.380  25.306  28.196  1.00  0.00     0.031 C 
ATOM     40  C   UNL A   1      46.229  24.144  27.645  1.00  0.00     0.029 A 
ATOM     41  N   UNL A   1      45.751  26.260  28.190  1.00  0.00    -0.354 N 
ATOM     42  C   UNL A   1      41.621  27.534  28.644  1.00  0.00     0.074 A 
ATOM     43  C   UNL A   1      40.715  26.423  28.455  1.00  0.00     0.031 C 
ATOM     44  C   UNL A   1      47.393  24.809  27.745  1.00  0.00     0.029 A 
ATOM     45  C   UNL A   1      47.114  26.214  28.035  1.00  0.00     0.049 A 
ATOM     46  H   UNL A   1      45.266  27.068  28.476  1.00  0.00     0.167 HD
ATOM     47  C   UNL A   1      41.240  28.793  28.958  1.00  0.00     0.037 A 
ATOM     48  C   UNL A   1      48.025  27.206  28.076  1.00  0.00     0.037 A 
ATOM     49  C   UNL A   1      42.155  29.887  29.151  1.00  0.00     0.049 A 
ATOM     50  C   UNL A   1      47.559  28.614  28.356  1.00  0.00     0.074 A 
ATOM     51  C   UNL A   1      41.873  31.189  29.524  1.00  0.00     0.029 A 
ATOM     52  N   UNL A   1      43.528  29.807  28.974  1.00  0.00    -0.354 N 
ATOM     53  N   UNL A   1      46.347  29.054  28.599  1.00  0.00    -0.248 NA
ATOM     54  C   UNL A   1      48.587  29.664  28.363  1.00  0.00     0.031 C 
ATOM     55  C   UNL A   1      43.067  31.915  29.505  1.00  0.00     0.029 A 
ATOM     56  C   UNL A   1      44.102  31.050  29.185  1.00  0.00     0.049 A 
ATOM     57  H   UNL A   1      44.021  28.990  28.735  1.00  0.00     0.167 HD
ATOM     58  C   UNL A   1      46.471  30.421  28.809  1.00  0.00     0.074 A 
ATOM     59  C   UNL A   1      47.879  30.735  28.693  1.00  0.00     0.031 C 
ATOM     60  C   UNL A   1      45.508  31.340  29.067  1.00  0.00     0.037 A 
BRANCH  47  61
ATOM     61  C   UNL A   1      39.773  29.077  29.087  1.00  0.00     0.064 A 
ATOM     62  C   UNL A   1      38.982  29.412  27.979  1.00  0.00     0.173 A 
ATOM     63  C   UNL A   1      39.134  28.926  30.329  1.00  0.00     0.173 A 
ATOM     64  F   UNL A   1      39.545  29.581  26.773  1.00  0.00    -0.203 F 
ATOM     65  C   UNL A   1      37.606  29.589  28.109  1.00  0.00     0.198 A 
ATOM     66  C   UNL A   1      37.755  29.076  30.449  1.00  0.00     0.198 A 
ATOM     67  F   UNL A   1      39.844  28.605  31.420  1.00  0.00    -0.203 F 
ATOM     68  F   UNL A   1      36.873  29.933  27.041  1.00  0.00    -0.200 F 
ATOM     69  C   UNL A   1      36.993  29.409  29.340  1.00  0.00     0.200 A 
ATOM     70  F   UNL A   1      37.164  28.886  31.636  1.00  0.00    -0.200 F 
ATOM     71  F   UNL A   1      35.667  29.556  29.457  1.00  0.00    -0.200 F 
ENDBRANCH  47  61
BRANCH  48  72
ATOM     72  C   UNL A   1      49.459  26.926  27.796  1.00  0.00     0.064 A 
ATOM     73  C   UNL A   1      49.946  26.876  26.482  1.00  0.00     0.173 A 
ATOM     74  C   UNL A   1      50.362  26.647  28.834  1.00  0.00     0.173 A 
ATOM     75  F   UNL A   1      49.119  27.108  25.453  1.00  0.00    -0.203 F 
ATOM     76  C   UNL A   1      51.268  26.523  26.216  1.00  0.00     0.198 A 
ATOM     77  C   UNL A   1      51.693  26.332  28.569  1.00  0.00     0.198 A 
ATOM     78  F   UNL A   1      49.951  26.679  30.110  1.00  0.00    -0.203 F 
ATOM     79  F   UNL A   1      51.686  26.414  24.947  1.00  0.00    -0.200 F 
ATOM     80  C   UNL A   1      52.141  26.255  27.259  1.00  0.00     0.200 A 
ATOM     81  F   UNL A   1      52.537  26.088  29.580  1.00  0.00    -0.200 F 
ATOM     82  F   UNL A   1      53.410  25.911  27.001  1.00  0.00    -0.200 F 
ENDBRANCH  48  72
BRANCH  60  83
ATOM     83  C   UNL A   1      45.944  32.763  29.264  1.00  0.00     0.064 A 
ATOM     84  C   UNL A   1      45.981  33.672  28.196  1.00  0.00     0.173 A 
ATOM     85  C   UNL A   1      46.285  33.235  30.541  1.00  0.00     0.173 A 
ATOM     86  F   UNL A   1      45.680  33.268  26.953  1.00  0.00    -0.203 F 
ATOM     87  C   UNL A   1      46.366  34.996  28.397  1.00  0.00     0.198 A 
ATOM     88  C   UNL A   1      46.634  34.567  30.744  1.00  0.00     0.198 A 
ATOM     89  F   UNL A   1      46.257  32.408  31.597  1.00  0.00    -0.203 F 
ATOM     90  F   UNL A   1      46.442  35.834  27.355  1.00  0.00    -0.200 F 
ATOM     91  C   UNL A   1      46.682  35.443  29.671  1.00  0.00     0.200 A 
ATOM     92  F   UNL A   1      46.920  35.002  31.978  1.00  0.00    -0.200 F 
ATOM     93  F   UNL A   1      47.040  36.721  29.864  1.00  0.00    -0.200 F 
ENDBRANCH  60  83
ENDBRANCH  34  35
ENDBRANCH  27  29
ENDBRANCH  26  27
ENDBRANCH  25  26
ENDBRANCH  24  25
ENDBRANCH  23  24
ENDBRANCH   1  23
TORSDOF 17
ENDMDL
MODEL 3
REMARK VINA RESULT:     -11.0      4.312      9.540
REMARK SMILES O=C(Cc1ccccc1Nc1c(Cl)cccc1Cl)OCCOCCOC(=O)c1ccc(-c2c3nc(c(-c4c(F)c(F)c(F)c(F)c4F)c4ccc([nH]4)c(-c4c(F)c(F)c(F)c(F)c4F)c4nc(c(-c5c(F)c(F)c(F)c(F)c5F)c5ccc2[nH]5)C=C4)C=C3)cc1
REMARK SMILES IDX 21 1 20 2 19 3 2 4 1 5 3 6 4 7 5 8 9 9 6 10 8 11 7 12 10 13
REMARK SMILES IDX 11 15 12 16 17 17 13 18 14 19 16 20 18 21 15 22 22 23 23 24
REMARK SMILES IDX 24 25 25 26 26 27 27 28 28 29 29 30 90 31 30 32 89 33 31 34
REMARK SMILES IDX 32 35 33 36 83 37 34 38 88 39 82 40 84 41 35 42 87 43 81 44
REMARK SMILES IDX 80 45 36 47 68 48 48 49 67 50 49 51 52 52 66 53 85 54 50 55
REMARK SMILES IDX 51 56 65 58 86 59 53 60 37 61 38 62 46 63 39 64 40 65 44 66
REMARK SMILES IDX 47 67 41 68 42 69 45 70 43 71 69 72 70 73 78 74 71 75 72 76
REMARK SMILES IDX 76 77 79 78 73 79 74 80 77 81 75 82 54 83 55 84 63 85 56 86
REMARK SMILES IDX 57 87 61 88 64 89 58 90 59 91 62 92 60 93
REMARK H PARENT 10 14 84 46 52 57
REMARK Flexibility Score: inf
ROOT
ATOM      1  C   UNL A   1      33.895  21.979  27.421  1.00  0.00     0.202 C 
ENDROOT
BRANCH   1   2
ATOM      2  C   UNL A   1      32.647  22.411  26.653  1.00  0.00     0.261 C 
BRANCH   2   3
ATOM      3  O   UNL A   1      32.259  23.780  26.836  1.00  0.00    -0.463 OA
BRANCH   3   4
ATOM      4  C   UNL A   1      31.053  24.288  26.482  1.00  0.00     0.310 C 
ATOM      5  O   UNL A   1      30.027  23.795  26.951  1.00  0.00    -0.252 OA
BRANCH   4   6
ATOM      6  C   UNL A   1      30.979  25.392  25.453  1.00  0.00     0.160 C 
BRANCH   6   7
ATOM      7  C   UNL A   1      31.410  26.776  25.888  1.00  0.00    -0.013 A 
ATOM      8  C   UNL A   1      31.031  27.236  27.168  1.00  0.00     0.006 A 
ATOM      9  C   UNL A   1      32.156  27.622  25.030  1.00  0.00     0.042 A 
ATOM     10  C   UNL A   1      31.428  28.486  27.627  1.00  0.00     0.000 A 
ATOM     11  C   UNL A   1      32.486  28.902  25.504  1.00  0.00     0.026 A 
ATOM     12  C   UNL A   1      32.147  29.323  26.791  1.00  0.00     0.002 A 
BRANCH   9  13
ATOM     13  N   UNL A   1      32.606  27.167  23.767  1.00  0.00    -0.353 N 
ATOM     14  H   UNL A   1      32.531  27.829  23.042  1.00  0.00     0.167 HD
BRANCH  13  15
ATOM     15  C   UNL A   1      33.146  25.914  23.374  1.00  0.00     0.076 A 
ATOM     16  C   UNL A   1      34.085  25.288  24.225  1.00  0.00     0.066 A 
ATOM     17  C   UNL A   1      32.744  25.199  22.229  1.00  0.00     0.066 A 
ATOM     18  Cl  UNL A   1      34.711  26.123  25.611  1.00  0.00    -0.082 Cl
ATOM     19  C   UNL A   1      34.543  23.987  23.990  1.00  0.00     0.023 A 
ATOM     20  C   UNL A   1      33.191  23.887  22.003  1.00  0.00     0.023 A 
ATOM     21  Cl  UNL A   1      31.777  25.915  20.982  1.00  0.00    -0.082 Cl
ATOM     22  C   UNL A   1      34.075  23.278  22.890  1.00  0.00     0.003 A 
ENDBRANCH  13  15
ENDBRANCH   9  13
ENDBRANCH   6   7
ENDBRANCH   4   6
ENDBRANCH   3   4
ENDBRANCH   2   3
ENDBRANCH   1   2
BRANCH   1  23
ATOM     23  O   UNL A   1      35.110  21.828  26.702  1.00  0.00    -0.374 OA
BRANCH  23  24
ATOM     24  C   UNL A   1      35.132  20.894  25.619  1.00  0.00     0.202 C 
BRANCH  24  25
ATOM     25  C   UNL A   1      36.493  20.557  25.000  1.00  0.00     0.261 C 
BRANCH  25  26
ATOM     26  O   UNL A   1      37.458  21.600  25.214  1.00  0.00    -0.460 OA
BRANCH  26  27
ATOM     27  C   UNL A   1      38.615  21.214  25.804  1.00  0.00     0.338 C 
ATOM     28  O   UNL A   1      39.150  20.117  25.750  1.00  0.00    -0.246 OA
BRANCH  27  29
ATOM     29  C   UNL A   1      39.282  22.404  26.358  1.00  0.00     0.060 A 
ATOM     30  C   UNL A   1      38.774  23.669  26.026  1.00  0.00     0.016 A 
ATOM     31  C   UNL A   1      40.400  22.280  27.182  1.00  0.00     0.016 A 
ATOM     32  C   UNL A   1      39.397  24.819  26.504  1.00  0.00     0.010 A 
ATOM     33  C   UNL A   1      41.034  23.433  27.646  1.00  0.00     0.010 A 
ATOM     34  C   UNL A   1      40.547  24.704  27.294  1.00  0.00    -0.014 A 
BRANCH  34  35
ATOM     35  C   UNL A   1      41.316  25.910  27.674  1.00  0.00     0.031 A 
ATOM     36  C   UNL A   1      40.618  27.004  28.428  1.00  0.00     0.074 A 
ATOM     37  C   UNL A   1      42.606  26.034  27.317  1.00  0.00     0.049 A 
ATOM     38  N   UNL A   1      41.047  28.199  28.742  1.00  0.00    -0.248 NA
ATOM     39  C   UNL A   1      39.247  26.717  28.882  1.00  0.00     0.031 C 
ATOM     40  C   UNL A   1      43.388  25.018  26.614  1.00  0.00     0.029 A 
ATOM     41  N   UNL A   1      43.478  27.082  27.472  1.00  0.00    -0.354 N 
ATOM     42  C   UNL A   1      39.996  28.811  29.413  1.00  0.00     0.074 A 
ATOM     43  C   UNL A   1      38.903  27.866  29.448  1.00  0.00     0.031 C 
ATOM     44  C   UNL A   1      44.617  25.505  26.370  1.00  0.00     0.029 A 
ATOM     45  C   UNL A   1      44.690  26.880  26.858  1.00  0.00     0.049 A 
ATOM     46  H   UNL A   1      43.256  27.899  27.975  1.00  0.00     0.167 HD
ATOM     47  C   UNL A   1      39.956  30.054  29.946  1.00  0.00     0.037 A 
ATOM     48  C   UNL A   1      45.719  27.729  26.674  1.00  0.00     0.037 A 
ATOM     49  C   UNL A   1      41.057  30.981  29.912  1.00  0.00     0.049 A 
ATOM     50  C   UNL A   1      45.615  29.133  27.217  1.00  0.00     0.074 A 
ATOM     51  C   UNL A   1      41.136  32.243  30.470  1.00  0.00     0.029 A 
ATOM     52  N   UNL A   1      42.264  30.747  29.272  1.00  0.00    -0.354 N 
ATOM     53  N   UNL A   1      44.640  29.689  27.896  1.00  0.00    -0.248 NA
ATOM     54  C   UNL A   1      46.753  30.027  26.965  1.00  0.00     0.031 C 
ATOM     55  C   UNL A   1      42.364  32.802  30.109  1.00  0.00     0.029 A 
ATOM     56  C   UNL A   1      43.078  31.862  29.382  1.00  0.00     0.049 A 
ATOM     57  H   UNL A   1      42.507  29.913  28.808  1.00  0.00     0.167 HD
ATOM     58  C   UNL A   1      45.056  30.986  28.169  1.00  0.00     0.074 A 
ATOM     59  C   UNL A   1      46.383  31.126  27.608  1.00  0.00     0.031 C 
ATOM     60  C   UNL A   1      44.398  31.978  28.818  1.00  0.00     0.037 A 
BRANCH  47  61
ATOM     61  C   UNL A   1      38.680  30.507  30.592  1.00  0.00     0.064 A 
ATOM     62  C   UNL A   1      38.490  30.450  31.979  1.00  0.00     0.173 A 
ATOM     63  C   UNL A   1      37.666  31.088  29.813  1.00  0.00     0.173 A 
ATOM     64  F   UNL A   1      39.422  29.893  32.767  1.00  0.00    -0.203 F 
ATOM     65  C   UNL A   1      37.330  30.954  32.563  1.00  0.00     0.198 A 
ATOM     66  C   UNL A   1      36.521  31.615  30.403  1.00  0.00     0.198 A 
ATOM     67  F   UNL A   1      37.799  31.168  28.481  1.00  0.00    -0.203 F 
ATOM     68  F   UNL A   1      37.158  30.868  33.890  1.00  0.00    -0.200 F 
ATOM     69  C   UNL A   1      36.353  31.546  31.777  1.00  0.00     0.200 A 
ATOM     70  F   UNL A   1      35.587  32.201  29.642  1.00  0.00    -0.200 F 
ATOM     71  F   UNL A   1      35.250  32.052  32.344  1.00  0.00    -0.200 F 
ENDBRANCH  47  61
BRANCH  48  72
ATOM     72  C   UNL A   1      46.917  27.304  25.899  1.00  0.00     0.064 A 
ATOM     73  C   UNL A   1      47.998  26.667  26.526  1.00  0.00     0.173 A 
ATOM     74  C   UNL A   1      47.031  27.576  24.527  1.00  0.00     0.173 A 
ATOM     75  F   UNL A   1      47.952  26.409  27.840  1.00  0.00    -0.203 F 
ATOM     76  C   UNL A   1      49.158  26.352  25.819  1.00  0.00     0.198 A 
ATOM     77  C   UNL A   1      48.175  27.226  23.813  1.00  0.00     0.198 A 
ATOM     78  F   UNL A   1      46.028  28.184  23.877  1.00  0.00    -0.203 F 
ATOM     79  F   UNL A   1      50.202  25.809  26.459  1.00  0.00    -0.200 F 
ATOM     80  C   UNL A   1      49.243  26.628  24.463  1.00  0.00     0.200 A 
ATOM     81  F   UNL A   1      48.248  27.481  22.500  1.00  0.00    -0.200 F 
ATOM     82  F   UNL A   1      50.361  26.329  23.786  1.00  0.00    -0.200 F 
ENDBRANCH  48  72
BRANCH  60  83
ATOM     83  C   UNL A   1      45.110  33.291  28.978  1.00  0.00     0.064 A 
ATOM     84  C   UNL A   1      45.979  33.528  30.053  1.00  0.00     0.173 A 
ATOM     85  C   UNL A   1      44.958  34.305  28.019  1.00  0.00     0.173 A 
ATOM     86  F   UNL A   1      46.147  32.597  31.004  1.00  0.00    -0.203 F 
ATOM     87  C   UNL A   1      46.651  34.742  30.176  1.00  0.00     0.198 A 
ATOM     88  C   UNL A   1      45.659  35.503  28.126  1.00  0.00     0.198 A 
ATOM     89  F   UNL A   1      44.147  34.125  26.967  1.00  0.00    -0.203 F 
ATOM     90  F   UNL A   1      47.436  34.965  31.238  1.00  0.00    -0.200 F 
ATOM     91  C   UNL A   1      46.498  35.723  29.207  1.00  0.00     0.200 A 
ATOM     92  F   UNL A   1      45.525  36.442  27.180  1.00  0.00    -0.200 F 
ATOM     93  F   UNL A   1      47.155  36.886  29.321  1.00  0.00    -0.200 F 
ENDBRANCH  60  83
ENDBRANCH  34  35
ENDBRANCH  27  29
ENDBRANCH  26  27
ENDBRANCH  25  26
ENDBRANCH  24  25
ENDBRANCH  23  24
ENDBRANCH   1  23
TORSDOF 17
ENDMDL
