MODEL 1
REMARK VINA RESULT:     -10.8      0.000      0.000
REMARK SMILES C[C@@H](CC(=O)OCCOCCOC(=O)c1ccc(-c2c3nc(c(-c4c(F)c(F)c(F)c(F)c4F)c4ccc([nH]4)c(-c4c(F)c(F)c(F)c(F)c4F)c4nc(c(-c5c(F)c(F)c(F)c(F)c5F)c5ccc2[nH]5)C=C4)C=C3)cc1)NC(=O)c1ccc(O)cc1
REMARK SMILES IDX 8 1 7 2 6 3 4 4 5 5 3 6 2 7 1 8 78 9 79 10 80 12 81 13 82 14
REMARK SMILES IDX 87 15 83 16 86 17 84 18 85 19 9 21 10 22 11 23 12 24 13 25
REMARK SMILES IDX 14 26 15 27 16 28 77 29 17 30 76 31 18 32 19 33 20 34 70 35
REMARK SMILES IDX 21 36 75 37 69 38 71 39 22 40 74 41 68 42 67 43 23 45 55 46
REMARK SMILES IDX 35 47 54 48 36 49 39 50 53 51 72 52 37 53 38 54 52 56 73 57
REMARK SMILES IDX 40 58 24 59 25 60 33 61 26 62 27 63 31 64 34 65 28 66 29 67
REMARK SMILES IDX 32 68 30 69 56 70 57 71 65 72 58 73 59 74 63 75 66 76 60 77
REMARK SMILES IDX 61 78 64 79 62 80 41 81 42 82 50 83 43 84 44 85 48 86 51 87
REMARK SMILES IDX 45 88 46 89 49 90 47 91
REMARK H PARENT 78 11 85 20 71 44 39 55
REMARK Flexibility Score: inf
ROOT
ATOM      1  C   UNL A   1      33.729  28.475  24.829  1.00  0.00     0.202 C 
ENDROOT
BRANCH   1   2
ATOM      2  C   UNL A   1      33.828  26.992  24.471  1.00  0.00     0.261 C 
BRANCH   2   3
ATOM      3  O   UNL A   1      32.772  26.592  23.576  1.00  0.00    -0.463 OA
BRANCH   3   4
ATOM      4  C   UNL A   1      33.183  26.098  22.386  1.00  0.00     0.307 C 
ATOM      5  O   UNL A   1      33.953  26.673  21.622  1.00  0.00    -0.252 OA
BRANCH   4   6
ATOM      6  C   UNL A   1      32.669  24.715  22.062  1.00  0.00     0.147 C 
BRANCH   6   7
ATOM      7  C   UNL A   1      32.998  23.498  22.936  1.00  0.00     0.090 C 
ATOM      8  C   UNL A   1      32.531  22.159  22.377  1.00  0.00     0.031 C 
BRANCH   7   9
ATOM      9  N   UNL A   1      32.553  23.659  24.319  1.00  0.00    -0.349 N 
ATOM     10  C   UNL A   1      33.234  23.470  25.500  1.00  0.00     0.251 C 
ATOM     11  H   UNL A   1      31.617  23.947  24.423  1.00  0.00     0.164 HD
ATOM     12  O   UNL A   1      32.631  23.559  26.567  1.00  0.00    -0.269 OA
BRANCH  10  13
ATOM     13  C   UNL A   1      34.671  23.109  25.503  1.00  0.00     0.040 A 
ATOM     14  C   UNL A   1      35.017  21.753  25.490  1.00  0.00     0.017 A 
ATOM     15  C   UNL A   1      35.677  24.080  25.559  1.00  0.00     0.017 A 
ATOM     16  C   UNL A   1      36.361  21.375  25.458  1.00  0.00     0.047 A 
ATOM     17  C   UNL A   1      37.023  23.703  25.512  1.00  0.00     0.047 A 
ATOM     18  C   UNL A   1      37.351  22.353  25.448  1.00  0.00     0.115 A 
BRANCH  18  19
ATOM     19  O   UNL A   1      38.649  21.941  25.380  1.00  0.00    -0.508 OA
ATOM     20  H   UNL A   1      38.938  21.216  25.898  1.00  0.00     0.293 HD
ENDBRANCH  18  19
ENDBRANCH  10  13
ENDBRANCH   7   9
ENDBRANCH   6   7
ENDBRANCH   4   6
ENDBRANCH   3   4
ENDBRANCH   2   3
ENDBRANCH   1   2
BRANCH   1  21
ATOM     21  O   UNL A   1      32.622  28.827  25.657  1.00  0.00    -0.374 OA
BRANCH  21  22
ATOM     22  C   UNL A   1      31.764  29.878  25.202  1.00  0.00     0.202 C 
BRANCH  22  23
ATOM     23  C   UNL A   1      31.676  31.095  26.131  1.00  0.00     0.261 C 
BRANCH  23  24
ATOM     24  O   UNL A   1      32.523  30.938  27.292  1.00  0.00    -0.460 OA
BRANCH  24  25
ATOM     25  C   UNL A   1      33.343  31.994  27.520  1.00  0.00     0.338 C 
ATOM     26  O   UNL A   1      33.028  33.173  27.615  1.00  0.00    -0.246 OA
BRANCH  25  27
ATOM     27  C   UNL A   1      34.710  31.543  27.835  1.00  0.00     0.060 A 
ATOM     28  C   UNL A   1      34.908  30.169  28.025  1.00  0.00     0.016 A 
ATOM     29  C   UNL A   1      35.739  32.449  28.098  1.00  0.00     0.016 A 
ATOM     30  C   UNL A   1      36.121  29.700  28.530  1.00  0.00     0.010 A 
ATOM     31  C   UNL A   1      36.955  31.974  28.612  1.00  0.00     0.010 A 
ATOM     32  C   UNL A   1      37.138  30.602  28.869  1.00  0.00    -0.014 A 
BRANCH  32  33
ATOM     33  C   UNL A   1      38.321  30.112  29.624  1.00  0.00     0.031 A 
ATOM     34  C   UNL A   1      38.545  30.586  31.037  1.00  0.00     0.074 A 
ATOM     35  C   UNL A   1      39.159  29.206  29.088  1.00  0.00     0.049 A 
ATOM     36  N   UNL A   1      39.497  30.269  31.879  1.00  0.00    -0.248 NA
ATOM     37  C   UNL A   1      37.562  31.539  31.572  1.00  0.00     0.031 C 
ATOM     38  C   UNL A   1      39.034  28.631  27.751  1.00  0.00     0.029 A 
ATOM     39  N   UNL A   1      40.281  28.610  29.609  1.00  0.00    -0.354 N 
ATOM     40  C   UNL A   1      39.227  30.980  33.041  1.00  0.00     0.074 A 
ATOM     41  C   UNL A   1      38.040  31.768  32.786  1.00  0.00     0.031 C 
ATOM     42  C   UNL A   1      40.042  27.764  27.555  1.00  0.00     0.029 A 
ATOM     43  C   UNL A   1      40.896  27.743  28.741  1.00  0.00     0.049 A 
ATOM     44  H   UNL A   1      40.611  28.786  30.519  1.00  0.00     0.167 HD
ATOM     45  C   UNL A   1      39.897  30.969  34.219  1.00  0.00     0.037 A 
ATOM     46  C   UNL A   1      42.028  27.025  28.883  1.00  0.00     0.037 A 
ATOM     47  C   UNL A   1      41.076  30.185  34.483  1.00  0.00     0.049 A 
ATOM     48  C   UNL A   1      42.799  27.089  30.175  1.00  0.00     0.074 A 
ATOM     49  C   UNL A   1      41.809  30.097  35.654  1.00  0.00     0.029 A 
ATOM     50  N   UNL A   1      41.697  29.358  33.561  1.00  0.00    -0.354 N 
ATOM     51  N   UNL A   1      42.520  27.743  31.275  1.00  0.00    -0.248 NA
ATOM     52  C   UNL A   1      44.044  26.307  30.245  1.00  0.00     0.031 C 
ATOM     53  C   UNL A   1      42.901  29.253  35.426  1.00  0.00     0.029 A 
ATOM     54  C   UNL A   1      42.822  28.778  34.127  1.00  0.00     0.049 A 
ATOM     55  H   UNL A   1      41.386  29.206  32.639  1.00  0.00     0.167 HD
ATOM     56  C   UNL A   1      43.534  27.435  32.173  1.00  0.00     0.074 A 
ATOM     57  C   UNL A   1      44.432  26.524  31.495  1.00  0.00     0.031 C 
ATOM     58  C   UNL A   1      43.706  27.868  33.446  1.00  0.00     0.037 A 
BRANCH  45  59
ATOM     59  C   UNL A   1      39.381  31.851  35.316  1.00  0.00     0.064 A 
ATOM     60  C   UNL A   1      38.534  31.357  36.320  1.00  0.00     0.173 A 
ATOM     61  C   UNL A   1      39.772  33.197  35.388  1.00  0.00     0.173 A 
ATOM     62  F   UNL A   1      38.124  30.081  36.288  1.00  0.00    -0.203 F 
ATOM     63  C   UNL A   1      38.081  32.184  37.344  1.00  0.00     0.198 A 
ATOM     64  C   UNL A   1      39.337  34.014  36.427  1.00  0.00     0.198 A 
ATOM     65  F   UNL A   1      40.586  33.715  34.456  1.00  0.00    -0.203 F 
ATOM     66  F   UNL A   1      37.243  31.702  38.271  1.00  0.00    -0.200 F 
ATOM     67  C   UNL A   1      38.487  33.509  37.400  1.00  0.00     0.200 A 
ATOM     68  F   UNL A   1      39.740  35.291  36.487  1.00  0.00    -0.200 F 
ATOM     69  F   UNL A   1      38.056  34.302  38.391  1.00  0.00    -0.200 F 
ENDBRANCH  45  59
BRANCH  46  70
ATOM     70  C   UNL A   1      42.514  26.182  27.759  1.00  0.00     0.064 A 
ATOM     71  C   UNL A   1      43.476  26.659  26.858  1.00  0.00     0.173 A 
ATOM     72  C   UNL A   1      42.008  24.890  27.554  1.00  0.00     0.173 A 
ATOM     73  F   UNL A   1      43.967  27.899  26.997  1.00  0.00    -0.203 F 
ATOM     74  C   UNL A   1      43.903  25.881  25.785  1.00  0.00     0.198 A 
ATOM     75  C   UNL A   1      42.455  24.103  26.495  1.00  0.00     0.198 A 
ATOM     76  F   UNL A   1      41.083  24.391  28.386  1.00  0.00    -0.203 F 
ATOM     77  F   UNL A   1      44.791  26.376  24.913  1.00  0.00    -0.200 F 
ATOM     78  C   UNL A   1      43.397  24.601  25.608  1.00  0.00     0.200 A 
ATOM     79  F   UNL A   1      41.970  22.865  26.333  1.00  0.00    -0.200 F 
ATOM     80  F   UNL A   1      43.810  23.852  24.576  1.00  0.00    -0.200 F 
ENDBRANCH  46  70
BRANCH  58  81
ATOM     81  C   UNL A   1      44.890  27.340  34.205  1.00  0.00     0.064 A 
ATOM     82  C   UNL A   1      46.116  28.019  34.216  1.00  0.00     0.173 A 
ATOM     83  C   UNL A   1      44.781  26.164  34.962  1.00  0.00     0.173 A 
ATOM     84  F   UNL A   1      46.275  29.138  33.495  1.00  0.00    -0.203 F 
ATOM     85  C   UNL A   1      47.199  27.527  34.940  1.00  0.00     0.198 A 
ATOM     86  C   UNL A   1      45.858  25.690  35.708  1.00  0.00     0.198 A 
ATOM     87  F   UNL A   1      43.627  25.482  34.991  1.00  0.00    -0.203 F 
ATOM     88  F   UNL A   1      48.376  28.168  34.903  1.00  0.00    -0.200 F 
ATOM     89  C   UNL A   1      47.068  26.368  35.691  1.00  0.00     0.200 A 
ATOM     90  F   UNL A   1      45.725  24.575  36.441  1.00  0.00    -0.200 F 
ATOM     91  F   UNL A   1      48.109  25.900  36.393  1.00  0.00    -0.200 F 
ENDBRANCH  58  81
ENDBRANCH  32  33
ENDBRANCH  25  27
ENDBRANCH  24  25
ENDBRANCH  23  24
ENDBRANCH  22  23
ENDBRANCH  21  22
ENDBRANCH   1  21
TORSDOF 18
ENDMDL
MODEL 2
REMARK VINA RESULT:     -10.6      1.485      2.322
REMARK SMILES C[C@@H](CC(=O)OCCOCCOC(=O)c1ccc(-c2c3nc(c(-c4c(F)c(F)c(F)c(F)c4F)c4ccc([nH]4)c(-c4c(F)c(F)c(F)c(F)c4F)c4nc(c(-c5c(F)c(F)c(F)c(F)c5F)c5ccc2[nH]5)C=C4)C=C3)cc1)NC(=O)c1ccc(O)cc1
REMARK SMILES IDX 8 1 7 2 6 3 4 4 5 5 3 6 2 7 1 8 78 9 79 10 80 12 81 13 82 14
REMARK SMILES IDX 87 15 83 16 86 17 84 18 85 19 9 21 10 22 11 23 12 24 13 25
REMARK SMILES IDX 14 26 15 27 16 28 77 29 17 30 76 31 18 32 19 33 20 34 70 35
REMARK SMILES IDX 21 36 75 37 69 38 71 39 22 40 74 41 68 42 67 43 23 45 55 46
REMARK SMILES IDX 35 47 54 48 36 49 39 50 53 51 72 52 37 53 38 54 52 56 73 57
REMARK SMILES IDX 40 58 24 59 25 60 33 61 26 62 27 63 31 64 34 65 28 66 29 67
REMARK SMILES IDX 32 68 30 69 56 70 57 71 65 72 58 73 59 74 63 75 66 76 60 77
REMARK SMILES IDX 61 78 64 79 62 80 41 81 42 82 50 83 43 84 44 85 48 86 51 87
REMARK SMILES IDX 45 88 46 89 49 90 47 91
REMARK H PARENT 78 11 85 20 71 44 39 55
REMARK Flexibility Score: inf
ROOT
ATOM      1  C   UNL A   1      32.365  29.292  27.072  1.00  0.00     0.202 C 
ENDROOT
BRANCH   1   2
ATOM      2  C   UNL A   1      31.745  28.249  26.142  1.00  0.00     0.261 C 
BRANCH   2   3
ATOM      3  O   UNL A   1      31.193  27.142  26.880  1.00  0.00    -0.463 OA
BRANCH   3   4
ATOM      4  C   UNL A   1      30.820  26.080  26.130  1.00  0.00     0.307 C 
ATOM      5  O   UNL A   1      29.902  25.316  26.414  1.00  0.00    -0.252 OA
BRANCH   4   6
ATOM      6  C   UNL A   1      31.589  25.913  24.841  1.00  0.00     0.147 C 
BRANCH   6   7
ATOM      7  C   UNL A   1      32.840  25.032  24.746  1.00  0.00     0.090 C 
ATOM      8  C   UNL A   1      34.073  25.588  25.450  1.00  0.00     0.031 C 
BRANCH   7   9
ATOM      9  N   UNL A   1      33.162  24.654  23.371  1.00  0.00    -0.349 N 
ATOM     10  C   UNL A   1      33.497  23.429  22.840  1.00  0.00     0.251 C 
ATOM     11  H   UNL A   1      33.136  25.394  22.720  1.00  0.00     0.164 HD
ATOM     12  O   UNL A   1      33.839  23.353  21.663  1.00  0.00    -0.269 OA
BRANCH  10  13
ATOM     13  C   UNL A   1      33.505  22.210  23.682  1.00  0.00     0.040 A 
ATOM     14  C   UNL A   1      32.309  21.499  23.836  1.00  0.00     0.017 A 
ATOM     15  C   UNL A   1      34.657  21.782  24.353  1.00  0.00     0.017 A 
ATOM     16  C   UNL A   1      32.286  20.327  24.595  1.00  0.00     0.047 A 
ATOM     17  C   UNL A   1      34.637  20.602  25.101  1.00  0.00     0.047 A 
ATOM     18  C   UNL A   1      33.454  19.877  25.203  1.00  0.00     0.115 A 
BRANCH  18  19
ATOM     19  O   UNL A   1      33.395  18.710  25.905  1.00  0.00    -0.508 OA
ATOM     20  H   UNL A   1      34.096  18.473  26.480  1.00  0.00     0.293 HD
ENDBRANCH  18  19
ENDBRANCH  10  13
ENDBRANCH   7   9
ENDBRANCH   6   7
ENDBRANCH   4   6
ENDBRANCH   3   4
ENDBRANCH   2   3
ENDBRANCH   1   2
BRANCH   1  21
ATOM     21  O   UNL A   1      31.582  30.467  27.275  1.00  0.00    -0.374 OA
BRANCH  21  22
ATOM     22  C   UNL A   1      31.570  31.443  26.229  1.00  0.00     0.202 C 
BRANCH  22  23
ATOM     23  C   UNL A   1      31.795  32.890  26.686  1.00  0.00     0.261 C 
BRANCH  23  24
ATOM     24  O   UNL A   1      32.409  32.944  27.993  1.00  0.00    -0.460 OA
BRANCH  24  25
ATOM     25  C   UNL A   1      33.464  33.792  28.070  1.00  0.00     0.338 C 
ATOM     26  O   UNL A   1      33.433  35.016  28.080  1.00  0.00    -0.246 OA
BRANCH  25  27
ATOM     27  C   UNL A   1      34.714  33.059  28.331  1.00  0.00     0.060 A 
ATOM     28  C   UNL A   1      34.606  31.725  28.747  1.00  0.00     0.016 A 
ATOM     29  C   UNL A   1      35.955  33.700  28.327  1.00  0.00     0.016 A 
ATOM     30  C   UNL A   1      35.730  31.044  29.213  1.00  0.00     0.010 A 
ATOM     31  C   UNL A   1      37.083  33.013  28.801  1.00  0.00     0.010 A 
ATOM     32  C   UNL A   1      36.969  31.696  29.285  1.00  0.00    -0.014 A 
BRANCH  32  33
ATOM     33  C   UNL A   1      38.094  31.039  30.002  1.00  0.00     0.031 A 
ATOM     34  C   UNL A   1      38.338  31.365  31.452  1.00  0.00     0.074 A 
ATOM     35  C   UNL A   1      38.857  30.114  29.392  1.00  0.00     0.049 A 
ATOM     36  N   UNL A   1      39.245  30.893  32.270  1.00  0.00    -0.248 NA
ATOM     37  C   UNL A   1      37.432  32.350  32.063  1.00  0.00     0.031 C 
ATOM     38  C   UNL A   1      38.703  29.672  28.009  1.00  0.00     0.029 A 
ATOM     39  N   UNL A   1      39.916  29.378  29.866  1.00  0.00    -0.354 N 
ATOM     40  C   UNL A   1      39.021  31.520  33.488  1.00  0.00     0.074 A 
ATOM     41  C   UNL A   1      37.911  32.429  33.296  1.00  0.00     0.031 C 
ATOM     42  C   UNL A   1      39.635  28.741  27.744  1.00  0.00     0.029 A 
ATOM     43  C   UNL A   1      40.467  28.541  28.929  1.00  0.00     0.049 A 
ATOM     44  H   UNL A   1      40.247  29.444  30.791  1.00  0.00     0.167 HD
ATOM     45  C   UNL A   1      39.671  31.347  34.665  1.00  0.00     0.037 A 
ATOM     46  C   UNL A   1      41.530  27.717  29.014  1.00  0.00     0.037 A 
ATOM     47  C   UNL A   1      40.773  30.442  34.866  1.00  0.00     0.049 A 
ATOM     48  C   UNL A   1      42.285  27.598  30.312  1.00  0.00     0.074 A 
ATOM     49  C   UNL A   1      41.479  30.188  36.030  1.00  0.00     0.029 A 
ATOM     50  N   UNL A   1      41.334  29.649  33.879  1.00  0.00    -0.354 N 
ATOM     51  N   UNL A   1      42.047  28.176  31.464  1.00  0.00    -0.248 NA
ATOM     52  C   UNL A   1      43.456  26.708  30.321  1.00  0.00     0.031 C 
ATOM     53  C   UNL A   1      42.497  29.274  35.735  1.00  0.00     0.029 A 
ATOM     54  C   UNL A   1      42.396  28.924  34.399  1.00  0.00     0.049 A 
ATOM     55  H   UNL A   1      41.024  29.606  32.945  1.00  0.00     0.167 HD
ATOM     56  C   UNL A   1      43.018  27.702  32.338  1.00  0.00     0.074 A 
ATOM     57  C   UNL A   1      43.843  26.779  31.587  1.00  0.00     0.031 C 
ATOM     58  C   UNL A   1      43.207  28.004  33.645  1.00  0.00     0.037 A 
BRANCH  45  59
ATOM     59  C   UNL A   1      39.217  32.171  35.833  1.00  0.00     0.064 A 
ATOM     60  C   UNL A   1      38.330  31.660  36.792  1.00  0.00     0.173 A 
ATOM     61  C   UNL A   1      39.708  33.472  36.017  1.00  0.00     0.173 A 
ATOM     62  F   UNL A   1      37.824  30.426  36.654  1.00  0.00    -0.203 F 
ATOM     63  C   UNL A   1      37.935  32.431  37.883  1.00  0.00     0.198 A 
ATOM     64  C   UNL A   1      39.330  34.230  37.121  1.00  0.00     0.198 A 
ATOM     65  F   UNL A   1      40.564  34.004  35.130  1.00  0.00    -0.203 F 
ATOM     66  F   UNL A   1      37.059  31.937  38.767  1.00  0.00    -0.200 F 
ATOM     67  C   UNL A   1      38.440  33.712  38.049  1.00  0.00     0.200 A 
ATOM     68  F   UNL A   1      39.829  35.464  37.287  1.00  0.00    -0.200 F 
ATOM     69  F   UNL A   1      38.065  34.450  39.104  1.00  0.00    -0.200 F 
ENDBRANCH  45  59
BRANCH  46  70
ATOM     70  C   UNL A   1      41.957  26.936  27.823  1.00  0.00     0.064 A 
ATOM     71  C   UNL A   1      42.906  27.444  26.926  1.00  0.00     0.173 A 
ATOM     72  C   UNL A   1      41.406  25.676  27.549  1.00  0.00     0.173 A 
ATOM     73  F   UNL A   1      43.439  28.658  27.131  1.00  0.00    -0.203 F 
ATOM     74  C   UNL A   1      43.279  26.727  25.792  1.00  0.00     0.198 A 
ATOM     75  C   UNL A   1      41.798  24.949  26.428  1.00  0.00     0.198 A 
ATOM     76  F   UNL A   1      40.491  25.149  28.375  1.00  0.00    -0.203 F 
ATOM     77  F   UNL A   1      44.156  27.254  24.927  1.00  0.00    -0.200 F 
ATOM     78  C   UNL A   1      42.729  25.477  25.547  1.00  0.00     0.200 A 
ATOM     79  F   UNL A   1      41.271  23.738  26.200  1.00  0.00    -0.200 F 
ATOM     80  F   UNL A   1      43.089  24.787  24.456  1.00  0.00    -0.200 F 
ENDBRANCH  46  70
BRANCH  58  81
ATOM     81  C   UNL A   1      44.330  27.310  34.362  1.00  0.00     0.064 A 
ATOM     82  C   UNL A   1      44.154  26.054  34.960  1.00  0.00     0.173 A 
ATOM     83  C   UNL A   1      45.606  27.892  34.414  1.00  0.00     0.173 A 
ATOM     84  F   UNL A   1      42.950  25.465  34.951  1.00  0.00    -0.203 F 
ATOM     85  C   UNL A   1      45.211  25.415  35.604  1.00  0.00     0.198 A 
ATOM     86  C   UNL A   1      46.667  27.237  35.035  1.00  0.00     0.198 A 
ATOM     87  F   UNL A   1      45.828  29.089  33.851  1.00  0.00    -0.203 F 
ATOM     88  F   UNL A   1      45.012  24.235  36.206  1.00  0.00    -0.200 F 
ATOM     89  C   UNL A   1      46.467  26.003  35.635  1.00  0.00     0.200 A 
ATOM     90  F   UNL A   1      47.882  27.802  35.055  1.00  0.00    -0.200 F 
ATOM     91  F   UNL A   1      47.484  25.383  36.250  1.00  0.00    -0.200 F 
ENDBRANCH  58  81
ENDBRANCH  32  33
ENDBRANCH  25  27
ENDBRANCH  24  25
ENDBRANCH  23  24
ENDBRANCH  22  23
ENDBRANCH  21  22
ENDBRANCH   1  21
TORSDOF 18
ENDMDL
MODEL 3
REMARK VINA RESULT:     -10.5      1.305      2.522
REMARK SMILES C[C@@H](CC(=O)OCCOCCOC(=O)c1ccc(-c2c3nc(c(-c4c(F)c(F)c(F)c(F)c4F)c4ccc([nH]4)c(-c4c(F)c(F)c(F)c(F)c4F)c4nc(c(-c5c(F)c(F)c(F)c(F)c5F)c5ccc2[nH]5)C=C4)C=C3)cc1)NC(=O)c1ccc(O)cc1
REMARK SMILES IDX 8 1 7 2 6 3 4 4 5 5 3 6 2 7 1 8 78 9 79 10 80 12 81 13 82 14
REMARK SMILES IDX 87 15 83 16 86 17 84 18 85 19 9 21 10 22 11 23 12 24 13 25
REMARK SMILES IDX 14 26 15 27 16 28 77 29 17 30 76 31 18 32 19 33 20 34 70 35
REMARK SMILES IDX 21 36 75 37 69 38 71 39 22 40 74 41 68 42 67 43 23 45 55 46
REMARK SMILES IDX 35 47 54 48 36 49 39 50 53 51 72 52 37 53 38 54 52 56 73 57
REMARK SMILES IDX 40 58 24 59 25 60 33 61 26 62 27 63 31 64 34 65 28 66 29 67
REMARK SMILES IDX 32 68 30 69 56 70 57 71 65 72 58 73 59 74 63 75 66 76 60 77
REMARK SMILES IDX 61 78 64 79 62 80 41 81 42 82 50 83 43 84 44 85 48 86 51 87
REMARK SMILES IDX 45 88 46 89 49 90 47 91
REMARK H PARENT 78 11 85 20 71 44 39 55
REMARK Flexibility Score: inf
ROOT
ATOM      1  C   UNL A   1      32.978  29.638  26.073  1.00  0.00     0.202 C 
ENDROOT
BRANCH   1   2
ATOM      2  C   UNL A   1      32.275  29.195  24.790  1.00  0.00     0.261 C 
BRANCH   2   3
ATOM      3  O   UNL A   1      31.126  28.373  25.073  1.00  0.00    -0.463 OA
BRANCH   3   4
ATOM      4  C   UNL A   1      31.402  27.086  25.385  1.00  0.00     0.307 C 
ATOM      5  O   UNL A   1      30.977  26.504  26.378  1.00  0.00    -0.252 OA
BRANCH   4   6
ATOM      6  C   UNL A   1      32.250  26.356  24.370  1.00  0.00     0.147 C 
BRANCH   6   7
ATOM      7  C   UNL A   1      33.113  25.146  24.748  1.00  0.00     0.090 C 
ATOM      8  C   UNL A   1      33.904  25.300  26.043  1.00  0.00     0.031 C 
BRANCH   7   9
ATOM      9  N   UNL A   1      33.989  24.714  23.660  1.00  0.00    -0.349 N 
ATOM     10  C   UNL A   1      34.380  23.451  23.282  1.00  0.00     0.251 C 
ATOM     11  H   UNL A   1      34.359  25.444  23.111  1.00  0.00     0.164 HD
ATOM     12  O   UNL A   1      35.218  23.317  22.394  1.00  0.00    -0.269 OA
BRANCH  10  13
ATOM     13  C   UNL A   1      33.846  22.250  23.966  1.00  0.00     0.040 A 
ATOM     14  C   UNL A   1      34.530  21.762  25.086  1.00  0.00     0.017 A 
ATOM     15  C   UNL A   1      32.710  21.577  23.500  1.00  0.00     0.017 A 
ATOM     16  C   UNL A   1      34.037  20.653  25.776  1.00  0.00     0.047 A 
ATOM     17  C   UNL A   1      32.209  20.476  24.200  1.00  0.00     0.047 A 
ATOM     18  C   UNL A   1      32.870  20.032  25.341  1.00  0.00     0.115 A 
BRANCH  18  19
ATOM     19  O   UNL A   1      32.405  18.975  26.065  1.00  0.00    -0.508 OA
ATOM     20  H   UNL A   1      33.007  18.366  26.445  1.00  0.00     0.293 HD
ENDBRANCH  18  19
ENDBRANCH  10  13
ENDBRANCH   7   9
ENDBRANCH   6   7
ENDBRANCH   4   6
ENDBRANCH   3   4
ENDBRANCH   2   3
ENDBRANCH   1   2
BRANCH   1  21
ATOM     21  O   UNL A   1      32.190  30.437  26.953  1.00  0.00    -0.374 OA
BRANCH  21  22
ATOM     22  C   UNL A   1      31.458  31.526  26.382  1.00  0.00     0.202 C 
BRANCH  22  23
ATOM     23  C   UNL A   1      31.917  32.921  26.823  1.00  0.00     0.261 C 
BRANCH  23  24
ATOM     24  O   UNL A   1      32.748  32.857  28.004  1.00  0.00    -0.460 OA
BRANCH  24  25
ATOM     25  C   UNL A   1      33.834  33.667  27.955  1.00  0.00     0.338 C 
ATOM     26  O   UNL A   1      33.848  34.887  27.853  1.00  0.00    -0.246 OA
BRANCH  25  27
ATOM     27  C   UNL A   1      35.069  32.912  28.227  1.00  0.00     0.060 A 
ATOM     28  C   UNL A   1      34.933  31.586  28.659  1.00  0.00     0.016 A 
ATOM     29  C   UNL A   1      36.323  33.527  28.217  1.00  0.00     0.016 A 
ATOM     30  C   UNL A   1      36.043  30.887  29.135  1.00  0.00     0.010 A 
ATOM     31  C   UNL A   1      37.436  32.823  28.701  1.00  0.00     0.010 A 
ATOM     32  C   UNL A   1      37.294  31.514  29.201  1.00  0.00    -0.014 A 
BRANCH  32  33
ATOM     33  C   UNL A   1      38.404  30.843  29.927  1.00  0.00     0.031 A 
ATOM     34  C   UNL A   1      38.641  31.167  31.379  1.00  0.00     0.074 A 
ATOM     35  C   UNL A   1      39.160  29.907  29.325  1.00  0.00     0.049 A 
ATOM     36  N   UNL A   1      39.536  30.684  32.204  1.00  0.00    -0.248 NA
ATOM     37  C   UNL A   1      37.744  32.165  31.982  1.00  0.00     0.031 C 
ATOM     38  C   UNL A   1      39.011  29.466  27.940  1.00  0.00     0.029 A 
ATOM     39  N   UNL A   1      40.205  29.157  29.808  1.00  0.00    -0.354 N 
ATOM     40  C   UNL A   1      39.310  31.315  33.421  1.00  0.00     0.074 A 
ATOM     41  C   UNL A   1      38.213  32.238  33.219  1.00  0.00     0.031 C 
ATOM     42  C   UNL A   1      39.932  28.522  27.683  1.00  0.00     0.029 A 
ATOM     43  C   UNL A   1      40.752  28.312  28.876  1.00  0.00     0.049 A 
ATOM     44  H   UNL A   1      40.529  29.220  30.735  1.00  0.00     0.167 HD
ATOM     45  C   UNL A   1      39.948  31.134  34.602  1.00  0.00     0.037 A 
ATOM     46  C   UNL A   1      41.803  27.474  28.970  1.00  0.00     0.037 A 
ATOM     47  C   UNL A   1      41.036  30.215  34.813  1.00  0.00     0.049 A 
ATOM     48  C   UNL A   1      42.546  27.347  30.274  1.00  0.00     0.074 A 
ATOM     49  C   UNL A   1      41.729  29.953  35.983  1.00  0.00     0.029 A 
ATOM     50  N   UNL A   1      41.594  29.413  33.831  1.00  0.00    -0.354 N 
ATOM     51  N   UNL A   1      42.307  27.928  31.424  1.00  0.00    -0.248 NA
ATOM     52  C   UNL A   1      43.705  26.440  30.293  1.00  0.00     0.031 C 
ATOM     53  C   UNL A   1      42.737  29.025  35.697  1.00  0.00     0.029 A 
ATOM     54  C   UNL A   1      42.642  28.675  34.360  1.00  0.00     0.049 A 
ATOM     55  H   UNL A   1      41.292  29.373  32.895  1.00  0.00     0.167 HD
ATOM     56  C   UNL A   1      43.264  27.442  32.306  1.00  0.00     0.074 A 
ATOM     57  C   UNL A   1      44.083  26.508  31.563  1.00  0.00     0.031 C 
ATOM     58  C   UNL A   1      43.447  27.743  33.614  1.00  0.00     0.037 A 
BRANCH  45  59
ATOM     59  C   UNL A   1      39.495  31.966  35.766  1.00  0.00     0.064 A 
ATOM     60  C   UNL A   1      40.039  33.235  36.017  1.00  0.00     0.173 A 
ATOM     61  C   UNL A   1      38.477  31.506  36.614  1.00  0.00     0.173 A 
ATOM     62  F   UNL A   1      41.022  33.713  35.242  1.00  0.00    -0.203 F 
ATOM     63  C   UNL A   1      39.593  34.004  37.089  1.00  0.00     0.198 A 
ATOM     64  C   UNL A   1      38.017  32.288  37.669  1.00  0.00     0.198 A 
ATOM     65  F   UNL A   1      37.921  30.302  36.411  1.00  0.00    -0.203 F 
ATOM     66  F   UNL A   1      40.151  35.196  37.334  1.00  0.00    -0.200 F 
ATOM     67  C   UNL A   1      38.579  33.532  37.910  1.00  0.00     0.200 A 
ATOM     68  F   UNL A   1      37.028  31.836  38.454  1.00  0.00    -0.200 F 
ATOM     69  F   UNL A   1      38.145  34.277  38.936  1.00  0.00    -0.200 F 
ENDBRANCH  45  59
BRANCH  46  70
ATOM     70  C   UNL A   1      42.230  26.686  27.783  1.00  0.00     0.064 A 
ATOM     71  C   UNL A   1      41.702  25.413  27.531  1.00  0.00     0.173 A 
ATOM     72  C   UNL A   1      43.191  27.185  26.892  1.00  0.00     0.173 A 
ATOM     73  F   UNL A   1      40.801  24.882  28.372  1.00  0.00    -0.203 F 
ATOM     74  C   UNL A   1      42.129  24.662  26.439  1.00  0.00     0.198 A 
ATOM     75  C   UNL A   1      43.599  26.443  25.786  1.00  0.00     0.198 A 
ATOM     76  F   UNL A   1      43.729  28.396  27.094  1.00  0.00    -0.203 F 
ATOM     77  F   UNL A   1      41.641  23.429  26.244  1.00  0.00    -0.200 F 
ATOM     78  C   UNL A   1      43.073  25.180  25.564  1.00  0.00     0.200 A 
ATOM     79  F   UNL A   1      44.504  26.952  24.939  1.00  0.00    -0.200 F 
ATOM     80  F   UNL A   1      43.483  24.457  24.513  1.00  0.00    -0.200 F 
ENDBRANCH  46  70
BRANCH  58  81
ATOM     81  C   UNL A   1      44.555  27.035  34.341  1.00  0.00     0.064 A 
ATOM     82  C   UNL A   1      45.853  27.562  34.393  1.00  0.00     0.173 A 
ATOM     83  C   UNL A   1      44.302  25.838  35.027  1.00  0.00     0.173 A 
ATOM     84  F   UNL A   1      46.148  28.695  33.740  1.00  0.00    -0.203 F 
ATOM     85  C   UNL A   1      46.865  26.903  35.088  1.00  0.00     0.198 A 
ATOM     86  C   UNL A   1      45.309  25.196  35.744  1.00  0.00     0.198 A 
ATOM     87  F   UNL A   1      43.075  25.296  35.015  1.00  0.00    -0.203 F 
ATOM     88  F   UNL A   1      48.109  27.401  35.089  1.00  0.00    -0.200 F 
ATOM     89  C   UNL A   1      46.591  25.725  35.768  1.00  0.00     0.200 A 
ATOM     90  F   UNL A   1      45.040  24.063  36.409  1.00  0.00    -0.200 F 
ATOM     91  F   UNL A   1      47.564  25.096  36.441  1.00  0.00    -0.200 F 
ENDBRANCH  58  81
ENDBRANCH  32  33
ENDBRANCH  25  27
ENDBRANCH  24  25
ENDBRANCH  23  24
ENDBRANCH  22  23
ENDBRANCH  21  22
ENDBRANCH   1  21
TORSDOF 18
ENDMDL
