MODEL 1
REMARK VINA RESULT:     -11.0      0.000      0.000
REMARK SMILES O=C(CN(C(=O)[C@H]1CC[C@H]2CCCC[C@H]2[NH2+]1)C1CC1)OCCOCCOC(=O)c1ccc(-c2c3nc(c(-c4c(F)c(F)c(F)c(F)c4F)c4ccc([nH]4)c(-c4c(F)c(F)c(F)c(F)c4F)c4nc(c(-c5c(F)c(F)c(F)c(F)c5F)c5ccc2[nH]5)C=C4)C=C3)cc1
REMARK SMILES IDX 22 1 21 2 20 3 2 4 1 5 3 6 4 7 5 8 6 9 7 10 8 11 16 12 9 13
REMARK SMILES IDX 15 14 10 17 14 18 11 19 13 20 12 21 17 22 18 23 19 24 23 25
REMARK SMILES IDX 24 26 25 27 26 28 27 29 28 30 29 31 30 32 91 33 31 34 90 35
REMARK SMILES IDX 32 36 33 37 34 38 84 39 35 40 89 41 83 42 85 43 36 44 88 45
REMARK SMILES IDX 82 46 81 47 37 49 69 50 49 51 68 52 50 53 53 54 67 55 86 56
REMARK SMILES IDX 51 57 52 58 66 60 87 61 54 62 38 63 39 64 47 65 40 66 41 67
REMARK SMILES IDX 45 68 48 69 42 70 43 71 46 72 44 73 70 74 71 75 79 76 72 77
REMARK SMILES IDX 73 78 77 79 80 80 74 81 75 82 78 83 76 84 55 85 56 86 64 87
REMARK SMILES IDX 57 88 58 89 62 90 65 91 59 92 60 93 63 94 61 95
REMARK H PARENT 16 15 16 16 85 48 53 59
REMARK Flexibility Score: inf
ROOT
ATOM      1  C   UNL A   1      33.033  29.460  27.279  1.00  0.00     0.202 C 
ENDROOT
BRANCH   1   2
ATOM      2  C   UNL A   1      31.625  28.878  27.306  1.00  0.00     0.261 C 
BRANCH   2   3
ATOM      3  O   UNL A   1      31.626  27.450  27.463  1.00  0.00    -0.462 OA
BRANCH   3   4
ATOM      4  C   UNL A   1      31.374  26.627  26.415  1.00  0.00     0.325 C 
ATOM      5  O   UNL A   1      30.341  25.958  26.409  1.00  0.00    -0.250 OA
BRANCH   4   6
ATOM      6  C   UNL A   1      32.388  26.514  25.268  1.00  0.00     0.242 C 
BRANCH   6   7
ATOM      7  N   UNL A   1      31.922  26.854  23.909  1.00  0.00    -0.323 N 
BRANCH   7   8
ATOM      8  C   UNL A   1      31.530  28.130  23.473  1.00  0.00     0.281 C 
ATOM      9  O   UNL A   1      32.253  29.118  23.643  1.00  0.00    -0.268 OA
BRANCH   8  10
ATOM     10  C   UNL A   1      30.177  28.321  22.706  1.00  0.00     0.273 C 
ATOM     11  C   UNL A   1      29.011  27.949  23.631  1.00  0.00     0.076 C 
ATOM     12  N   UNL A   1      30.072  29.736  22.271  1.00  0.00    -0.333 N 
ATOM     13  C   UNL A   1      27.652  28.326  23.030  1.00  0.00     0.016 C 
ATOM     14  C   UNL A   1      28.807  30.014  21.583  1.00  0.00     0.186 C 
ATOM     15  H   UNL A   1      30.844  29.944  21.637  1.00  0.00     0.347 HD
ATOM     16  H   UNL A   1      30.109  30.323  23.105  1.00  0.00     0.347 HD
ATOM     17  C   UNL A   1      27.621  29.779  22.524  1.00  0.00     0.048 C 
ATOM     18  C   UNL A   1      28.754  31.456  21.079  1.00  0.00     0.065 C 
ATOM     19  C   UNL A   1      27.571  30.784  23.691  1.00  0.00     0.010 C 
ATOM     20  C   UNL A   1      28.911  32.472  22.197  1.00  0.00     0.006 C 
ATOM     21  C   UNL A   1      28.014  32.224  23.406  1.00  0.00     0.001 C 
ENDBRANCH   8  10
ENDBRANCH   7   8
BRANCH   7  22
ATOM     22  C   UNL A   1      31.944  25.693  23.017  1.00  0.00     0.086 C 
ATOM     23  C   UNL A   1      32.231  24.257  23.334  1.00  0.00     0.027 C 
ATOM     24  C   UNL A   1      30.817  24.696  23.095  1.00  0.00     0.027 C 
ENDBRANCH   7  22
ENDBRANCH   6   7
ENDBRANCH   4   6
ENDBRANCH   3   4
ENDBRANCH   2   3
ENDBRANCH   1   2
BRANCH   1  25
ATOM     25  O   UNL A   1      33.090  30.745  26.654  1.00  0.00    -0.374 OA
BRANCH  25  26
ATOM     26  C   UNL A   1      31.812  31.380  26.499  1.00  0.00     0.202 C 
BRANCH  26  27
ATOM     27  C   UNL A   1      31.776  32.827  26.999  1.00  0.00     0.261 C 
BRANCH  27  28
ATOM     28  O   UNL A   1      33.102  33.372  27.051  1.00  0.00    -0.460 OA
BRANCH  28  29
ATOM     29  C   UNL A   1      33.433  33.962  28.224  1.00  0.00     0.338 C 
ATOM     30  O   UNL A   1      32.761  34.744  28.877  1.00  0.00    -0.246 OA
BRANCH  29  31
ATOM     31  C   UNL A   1      34.674  33.337  28.729  1.00  0.00     0.060 A 
ATOM     32  C   UNL A   1      34.550  32.166  29.493  1.00  0.00     0.016 A 
ATOM     33  C   UNL A   1      35.937  33.848  28.426  1.00  0.00     0.016 A 
ATOM     34  C   UNL A   1      35.678  31.519  29.982  1.00  0.00     0.010 A 
ATOM     35  C   UNL A   1      37.069  33.209  28.926  1.00  0.00     0.010 A 
ATOM     36  C   UNL A   1      36.940  32.064  29.733  1.00  0.00    -0.014 A 
BRANCH  36  37
ATOM     37  C   UNL A   1      38.115  31.590  30.489  1.00  0.00     0.031 A 
ATOM     38  C   UNL A   1      38.988  30.559  29.838  1.00  0.00     0.074 A 
ATOM     39  C   UNL A   1      38.368  32.030  31.732  1.00  0.00     0.049 A 
ATOM     40  N   UNL A   1      39.964  29.855  30.342  1.00  0.00    -0.248 NA
ATOM     41  C   UNL A   1      38.700  30.269  28.423  1.00  0.00     0.031 C 
ATOM     42  C   UNL A   1      37.607  33.059  32.434  1.00  0.00     0.029 A 
ATOM     43  N   UNL A   1      39.324  31.635  32.631  1.00  0.00    -0.354 N 
ATOM     44  C   UNL A   1      40.387  29.019  29.318  1.00  0.00     0.074 A 
ATOM     45  C   UNL A   1      39.547  29.284  28.171  1.00  0.00     0.031 C 
ATOM     46  C   UNL A   1      38.101  33.188  33.678  1.00  0.00     0.029 A 
ATOM     47  C   UNL A   1      39.182  32.221  33.865  1.00  0.00     0.049 A 
ATOM     48  H   UNL A   1      40.040  30.995  32.415  1.00  0.00     0.167 HD
ATOM     49  C   UNL A   1      41.388  28.109  29.337  1.00  0.00     0.037 A 
ATOM     50  C   UNL A   1      39.825  31.965  35.020  1.00  0.00     0.037 A 
ATOM     51  C   UNL A   1      42.214  27.863  30.488  1.00  0.00     0.049 A 
ATOM     52  C   UNL A   1      40.901  30.909  35.038  1.00  0.00     0.074 A 
ATOM     53  C   UNL A   1      43.283  26.996  30.613  1.00  0.00     0.029 A 
ATOM     54  N   UNL A   1      42.050  28.483  31.720  1.00  0.00    -0.354 N 
ATOM     55  N   UNL A   1      41.322  30.138  34.063  1.00  0.00    -0.248 NA
ATOM     56  C   UNL A   1      41.594  30.687  36.315  1.00  0.00     0.031 C 
ATOM     57  C   UNL A   1      43.726  27.044  31.939  1.00  0.00     0.029 A 
ATOM     58  C   UNL A   1      42.978  27.992  32.622  1.00  0.00     0.049 A 
ATOM     59  H   UNL A   1      41.375  29.170  31.921  1.00  0.00     0.167 HD
ATOM     60  C   UNL A   1      42.343  29.363  34.598  1.00  0.00     0.074 A 
ATOM     61  C   UNL A   1      42.482  29.761  35.984  1.00  0.00     0.031 C 
ATOM     62  C   UNL A   1      43.101  28.412  33.996  1.00  0.00     0.037 A 
BRANCH  49  63
ATOM     63  C   UNL A   1      41.604  27.290  28.099  1.00  0.00     0.064 A 
ATOM     64  C   UNL A   1      42.437  27.722  27.056  1.00  0.00     0.173 A 
ATOM     65  C   UNL A   1      40.962  26.051  27.953  1.00  0.00     0.173 A 
ATOM     66  F   UNL A   1      43.060  28.909  27.134  1.00  0.00    -0.203 F 
ATOM     67  C   UNL A   1      42.588  26.963  25.897  1.00  0.00     0.198 A 
ATOM     68  C   UNL A   1      41.144  25.279  26.810  1.00  0.00     0.198 A 
ATOM     69  F   UNL A   1      40.152  25.590  28.919  1.00  0.00    -0.203 F 
ATOM     70  F   UNL A   1      43.336  27.427  24.887  1.00  0.00    -0.200 F 
ATOM     71  C   UNL A   1      41.947  25.739  25.778  1.00  0.00     0.200 A 
ATOM     72  F   UNL A   1      40.531  24.091  26.702  1.00  0.00    -0.200 F 
ATOM     73  F   UNL A   1      42.094  25.009  24.665  1.00  0.00    -0.200 F 
ENDBRANCH  49  63
BRANCH  50  74
ATOM     74  C   UNL A   1      39.444  32.702  36.252  1.00  0.00     0.064 A 
ATOM     75  C   UNL A   1      40.018  33.941  36.563  1.00  0.00     0.173 A 
ATOM     76  C   UNL A   1      38.483  32.188  37.138  1.00  0.00     0.173 A 
ATOM     77  F   UNL A   1      40.957  34.463  35.761  1.00  0.00    -0.203 F 
ATOM     78  C   UNL A   1      39.654  34.635  37.716  1.00  0.00     0.198 A 
ATOM     79  C   UNL A   1      38.099  32.896  38.275  1.00  0.00     0.198 A 
ATOM     80  F   UNL A   1      37.902  31.006  36.886  1.00  0.00    -0.203 F 
ATOM     81  F   UNL A   1      40.245  35.802  38.009  1.00  0.00    -0.200 F 
ATOM     82  C   UNL A   1      38.689  34.116  38.566  1.00  0.00     0.200 A 
ATOM     83  F   UNL A   1      37.155  32.397  39.085  1.00  0.00    -0.200 F 
ATOM     84  F   UNL A   1      38.330  34.789  39.669  1.00  0.00    -0.200 F 
ENDBRANCH  50  74
BRANCH  62  85
ATOM     85  C   UNL A   1      44.179  27.762  34.814  1.00  0.00     0.064 A 
ATOM     86  C   UNL A   1      43.970  26.546  35.478  1.00  0.00     0.173 A 
ATOM     87  C   UNL A   1      45.464  28.326  34.860  1.00  0.00     0.173 A 
ATOM     88  F   UNL A   1      42.756  25.974  35.474  1.00  0.00    -0.203 F 
ATOM     89  C   UNL A   1      45.006  25.924  36.171  1.00  0.00     0.198 A 
ATOM     90  C   UNL A   1      46.504  27.686  35.527  1.00  0.00     0.198 A 
ATOM     91  F   UNL A   1      45.717  29.485  34.233  1.00  0.00    -0.203 F 
ATOM     92  F   UNL A   1      44.776  24.778  36.828  1.00  0.00    -0.200 F 
ATOM     93  C   UNL A   1      46.273  26.488  36.185  1.00  0.00     0.200 A 
ATOM     94  F   UNL A   1      47.732  28.223  35.523  1.00  0.00    -0.200 F 
ATOM     95  F   UNL A   1      47.274  25.877  36.835  1.00  0.00    -0.200 F 
ENDBRANCH  62  85
ENDBRANCH  36  37
ENDBRANCH  29  31
ENDBRANCH  28  29
ENDBRANCH  27  28
ENDBRANCH  26  27
ENDBRANCH  25  26
ENDBRANCH   1  25
TORSDOF 18
ENDMDL
MODEL 2
REMARK VINA RESULT:     -10.8      3.583      8.536
REMARK SMILES O=C(CN(C(=O)[C@H]1CC[C@H]2CCCC[C@H]2[NH2+]1)C1CC1)OCCOCCOC(=O)c1ccc(-c2c3nc(c(-c4c(F)c(F)c(F)c(F)c4F)c4ccc([nH]4)c(-c4c(F)c(F)c(F)c(F)c4F)c4nc(c(-c5c(F)c(F)c(F)c(F)c5F)c5ccc2[nH]5)C=C4)C=C3)cc1
REMARK SMILES IDX 22 1 21 2 20 3 2 4 1 5 3 6 4 7 5 8 6 9 7 10 8 11 16 12 9 13
REMARK SMILES IDX 15 14 10 17 14 18 11 19 13 20 12 21 17 22 18 23 19 24 23 25
REMARK SMILES IDX 24 26 25 27 26 28 27 29 28 30 29 31 30 32 91 33 31 34 90 35
REMARK SMILES IDX 32 36 33 37 34 38 84 39 35 40 89 41 83 42 85 43 36 44 88 45
REMARK SMILES IDX 82 46 81 47 37 49 69 50 49 51 68 52 50 53 53 54 67 55 86 56
REMARK SMILES IDX 51 57 52 58 66 60 87 61 54 62 38 63 39 64 47 65 40 66 41 67
REMARK SMILES IDX 45 68 48 69 42 70 43 71 46 72 44 73 70 74 71 75 79 76 72 77
REMARK SMILES IDX 73 78 77 79 80 80 74 81 75 82 78 83 76 84 55 85 56 86 64 87
REMARK SMILES IDX 57 88 58 89 62 90 65 91 59 92 60 93 63 94 61 95
REMARK H PARENT 16 15 16 16 85 48 53 59
REMARK Flexibility Score: inf
ROOT
ATOM      1  C   UNL A   1      39.754  21.039  26.077  1.00  0.00     0.202 C 
ENDROOT
BRANCH   1   2
ATOM      2  C   UNL A   1      38.779  22.209  26.129  1.00  0.00     0.261 C 
BRANCH   2   3
ATOM      3  O   UNL A   1      37.448  21.830  25.744  1.00  0.00    -0.462 OA
BRANCH   3   4
ATOM      4  C   UNL A   1      36.653  22.672  25.039  1.00  0.00     0.325 C 
ATOM      5  O   UNL A   1      37.099  23.221  24.032  1.00  0.00    -0.250 OA
BRANCH   4   6
ATOM      6  C   UNL A   1      35.222  22.955  25.517  1.00  0.00     0.242 C 
BRANCH   6   7
ATOM      7  N   UNL A   1      34.187  23.167  24.485  1.00  0.00    -0.323 N 
BRANCH   7   8
ATOM      8  C   UNL A   1      33.688  24.413  24.071  1.00  0.00     0.281 C 
ATOM      9  O   UNL A   1      34.029  24.918  22.995  1.00  0.00    -0.268 OA
BRANCH   8  10
ATOM     10  C   UNL A   1      32.634  25.171  24.948  1.00  0.00     0.273 C 
ATOM     11  C   UNL A   1      33.335  26.279  25.744  1.00  0.00     0.076 C 
ATOM     12  N   UNL A   1      31.595  25.743  24.055  1.00  0.00    -0.333 N 
ATOM     13  C   UNL A   1      32.340  27.207  26.448  1.00  0.00     0.016 C 
ATOM     14  C   UNL A   1      30.590  26.513  24.795  1.00  0.00     0.186 C 
ATOM     15  H   UNL A   1      31.128  24.981  23.563  1.00  0.00     0.347 HD
ATOM     16  H   UNL A   1      32.057  26.378  23.403  1.00  0.00     0.347 HD
ATOM     17  C   UNL A   1      31.239  27.710  25.497  1.00  0.00     0.048 C 
ATOM     18  C   UNL A   1      29.490  27.028  23.865  1.00  0.00     0.065 C 
ATOM     19  C   UNL A   1      31.780  28.764  24.511  1.00  0.00     0.010 C 
ATOM     20  C   UNL A   1      30.031  27.911  22.754  1.00  0.00     0.006 C 
ATOM     21  C   UNL A   1      30.984  29.006  23.224  1.00  0.00     0.001 C 
ENDBRANCH   8  10
ENDBRANCH   7   8
BRANCH   7  22
ATOM     22  C   UNL A   1      33.744  21.906  23.888  1.00  0.00     0.086 C 
ATOM     23  C   UNL A   1      32.807  20.873  24.436  1.00  0.00     0.027 C 
ATOM     24  C   UNL A   1      32.336  21.807  23.362  1.00  0.00     0.027 C 
ENDBRANCH   7  22
ENDBRANCH   6   7
ENDBRANCH   4   6
ENDBRANCH   3   4
ENDBRANCH   2   3
ENDBRANCH   1   2
BRANCH   1  25
ATOM     25  O   UNL A   1      40.402  20.800  27.329  1.00  0.00    -0.374 OA
BRANCH  25  26
ATOM     26  C   UNL A   1      41.749  20.318  27.211  1.00  0.00     0.202 C 
BRANCH  26  27
ATOM     27  C   UNL A   1      42.521  20.922  26.034  1.00  0.00     0.261 C 
BRANCH  27  28
ATOM     28  O   UNL A   1      43.243  22.088  26.454  1.00  0.00    -0.460 OA
BRANCH  28  29
ATOM     29  C   UNL A   1      43.072  23.181  25.673  1.00  0.00     0.338 C 
ATOM     30  O   UNL A   1      43.135  23.240  24.455  1.00  0.00    -0.246 OA
BRANCH  29  31
ATOM     31  C   UNL A   1      42.563  24.284  26.516  1.00  0.00     0.060 A 
ATOM     32  C   UNL A   1      43.147  25.549  26.356  1.00  0.00     0.016 A 
ATOM     33  C   UNL A   1      41.505  24.106  27.409  1.00  0.00     0.016 A 
ATOM     34  C   UNL A   1      42.702  26.633  27.104  1.00  0.00     0.010 A 
ATOM     35  C   UNL A   1      41.065  25.186  28.170  1.00  0.00     0.010 A 
ATOM     36  C   UNL A   1      41.687  26.442  28.044  1.00  0.00    -0.014 A 
BRANCH  36  37
ATOM     37  C   UNL A   1      41.413  27.478  29.060  1.00  0.00     0.031 A 
ATOM     38  C   UNL A   1      42.242  27.459  30.309  1.00  0.00     0.074 A 
ATOM     39  C   UNL A   1      40.428  28.374  28.892  1.00  0.00     0.049 A 
ATOM     40  N   UNL A   1      42.095  28.131  31.417  1.00  0.00    -0.248 NA
ATOM     41  C   UNL A   1      43.387  26.532  30.311  1.00  0.00     0.031 C 
ATOM     42  C   UNL A   1      39.596  28.503  27.700  1.00  0.00     0.029 A 
ATOM     43  N   UNL A   1      39.945  29.327  29.752  1.00  0.00    -0.354 N 
ATOM     44  C   UNL A   1      43.107  27.688  32.258  1.00  0.00     0.074 A 
ATOM     45  C   UNL A   1      43.846  26.672  31.543  1.00  0.00     0.031 C 
ATOM     46  C   UNL A   1      38.673  29.456  27.918  1.00  0.00     0.029 A 
ATOM     47  C   UNL A   1      38.828  29.968  29.279  1.00  0.00     0.049 A 
ATOM     48  H   UNL A   1      40.358  29.530  30.622  1.00  0.00     0.167 HD
ATOM     49  C   UNL A   1      43.389  28.096  33.517  1.00  0.00     0.037 A 
ATOM     50  C   UNL A   1      38.003  30.834  29.898  1.00  0.00     0.037 A 
ATOM     51  C   UNL A   1      42.641  29.110  34.209  1.00  0.00     0.049 A 
ATOM     52  C   UNL A   1      38.301  31.236  31.320  1.00  0.00     0.074 A 
ATOM     53  C   UNL A   1      42.859  29.633  35.469  1.00  0.00     0.029 A 
ATOM     54  N   UNL A   1      41.521  29.749  33.694  1.00  0.00    -0.354 N 
ATOM     55  N   UNL A   1      39.273  30.839  32.107  1.00  0.00    -0.248 NA
ATOM     56  C   UNL A   1      37.388  32.205  31.942  1.00  0.00     0.031 C 
ATOM     57  C   UNL A   1      41.832  30.541  35.744  1.00  0.00     0.029 A 
ATOM     58  C   UNL A   1      41.014  30.636  34.628  1.00  0.00     0.049 A 
ATOM     59  H   UNL A   1      41.143  29.593  32.799  1.00  0.00     0.167 HD
ATOM     60  C   UNL A   1      39.108  31.529  33.301  1.00  0.00     0.074 A 
ATOM     61  C   UNL A   1      37.943  32.374  33.134  1.00  0.00     0.031 C 
ATOM     62  C   UNL A   1      39.856  31.473  34.432  1.00  0.00     0.037 A 
BRANCH  49  63
ATOM     63  C   UNL A   1      44.515  27.408  34.231  1.00  0.00     0.064 A 
ATOM     64  C   UNL A   1      45.830  27.895  34.190  1.00  0.00     0.173 A 
ATOM     65  C   UNL A   1      44.273  26.238  34.967  1.00  0.00     0.173 A 
ATOM     66  F   UNL A   1      46.122  28.999  33.485  1.00  0.00    -0.203 F 
ATOM     67  C   UNL A   1      46.867  27.215  34.827  1.00  0.00     0.198 A 
ATOM     68  C   UNL A   1      45.304  25.582  35.631  1.00  0.00     0.198 A 
ATOM     69  F   UNL A   1      43.034  25.727  35.038  1.00  0.00    -0.203 F 
ATOM     70  F   UNL A   1      48.125  27.663  34.719  1.00  0.00    -0.200 F 
ATOM     71  C   UNL A   1      46.602  26.064  35.552  1.00  0.00     0.200 A 
ATOM     72  F   UNL A   1      45.043  24.474  36.340  1.00  0.00    -0.200 F 
ATOM     73  F   UNL A   1      47.599  25.412  36.165  1.00  0.00    -0.200 F 
ENDBRANCH  49  63
BRANCH  50  74
ATOM     74  C   UNL A   1      36.808  31.350  29.182  1.00  0.00     0.064 A 
ATOM     75  C   UNL A   1      35.703  30.527  28.929  1.00  0.00     0.173 A 
ATOM     76  C   UNL A   1      36.739  32.684  28.751  1.00  0.00     0.173 A 
ATOM     77  F   UNL A   1      35.729  29.239  29.300  1.00  0.00    -0.203 F 
ATOM     78  C   UNL A   1      34.579  31.014  28.263  1.00  0.00     0.198 A 
ATOM     79  C   UNL A   1      35.604  33.178  28.112  1.00  0.00     0.198 A 
ATOM     80  F   UNL A   1      37.769  33.514  28.970  1.00  0.00    -0.203 F 
ATOM     81  F   UNL A   1      33.551  30.195  28.001  1.00  0.00    -0.200 F 
ATOM     82  C   UNL A   1      34.527  32.341  27.863  1.00  0.00     0.200 A 
ATOM     83  F   UNL A   1      35.552  34.464  27.740  1.00  0.00    -0.200 F 
ATOM     84  F   UNL A   1      33.441  32.812  27.234  1.00  0.00    -0.200 F 
ENDBRANCH  50  74
BRANCH  62  85
ATOM     85  C   UNL A   1      39.469  32.378  35.566  1.00  0.00     0.064 A 
ATOM     86  C   UNL A   1      39.957  33.687  35.666  1.00  0.00     0.173 A 
ATOM     87  C   UNL A   1      38.529  31.950  36.518  1.00  0.00     0.173 A 
ATOM     88  F   UNL A   1      40.866  34.138  34.788  1.00  0.00    -0.203 F 
ATOM     89  C   UNL A   1      39.529  34.533  36.686  1.00  0.00     0.198 A 
ATOM     90  C   UNL A   1      38.079  32.808  37.517  1.00  0.00     0.198 A 
ATOM     91  F   UNL A   1      38.024  30.709  36.460  1.00  0.00    -0.203 F 
ATOM     92  F   UNL A   1      40.034  35.771  36.783  1.00  0.00    -0.200 F 
ATOM     93  C   UNL A   1      38.583  34.097  37.602  1.00  0.00     0.200 A 
ATOM     94  F   UNL A   1      37.152  32.392  38.389  1.00  0.00    -0.200 F 
ATOM     95  F   UNL A   1      38.156  34.920  38.571  1.00  0.00    -0.200 F 
ENDBRANCH  62  85
ENDBRANCH  36  37
ENDBRANCH  29  31
ENDBRANCH  28  29
ENDBRANCH  27  28
ENDBRANCH  26  27
ENDBRANCH  25  26
ENDBRANCH   1  25
TORSDOF 18
ENDMDL
MODEL 3
REMARK VINA RESULT:     -10.8      2.052      4.339
REMARK SMILES O=C(CN(C(=O)[C@H]1CC[C@H]2CCCC[C@H]2[NH2+]1)C1CC1)OCCOCCOC(=O)c1ccc(-c2c3nc(c(-c4c(F)c(F)c(F)c(F)c4F)c4ccc([nH]4)c(-c4c(F)c(F)c(F)c(F)c4F)c4nc(c(-c5c(F)c(F)c(F)c(F)c5F)c5ccc2[nH]5)C=C4)C=C3)cc1
REMARK SMILES IDX 22 1 21 2 20 3 2 4 1 5 3 6 4 7 5 8 6 9 7 10 8 11 16 12 9 13
REMARK SMILES IDX 15 14 10 17 14 18 11 19 13 20 12 21 17 22 18 23 19 24 23 25
REMARK SMILES IDX 24 26 25 27 26 28 27 29 28 30 29 31 30 32 91 33 31 34 90 35
REMARK SMILES IDX 32 36 33 37 34 38 84 39 35 40 89 41 83 42 85 43 36 44 88 45
REMARK SMILES IDX 82 46 81 47 37 49 69 50 49 51 68 52 50 53 53 54 67 55 86 56
REMARK SMILES IDX 51 57 52 58 66 60 87 61 54 62 38 63 39 64 47 65 40 66 41 67
REMARK SMILES IDX 45 68 48 69 42 70 43 71 46 72 44 73 70 74 71 75 79 76 72 77
REMARK SMILES IDX 73 78 77 79 80 80 74 81 75 82 78 83 76 84 55 85 56 86 64 87
REMARK SMILES IDX 57 88 58 89 62 90 65 91 59 92 60 93 63 94 61 95
REMARK H PARENT 16 15 16 16 85 48 53 59
REMARK Flexibility Score: inf
ROOT
ATOM      1  C   UNL A   1      30.692  26.503  26.070  1.00  0.00     0.202 C 
ENDROOT
BRANCH   1   2
ATOM      2  C   UNL A   1      30.253  26.817  24.645  1.00  0.00     0.261 C 
BRANCH   2   3
ATOM      3  O   UNL A   1      29.695  25.673  23.980  1.00  0.00    -0.462 OA
BRANCH   3   4
ATOM      4  C   UNL A   1      30.441  24.912  23.141  1.00  0.00     0.325 C 
ATOM      5  O   UNL A   1      30.277  23.692  23.126  1.00  0.00    -0.250 OA
BRANCH   4   6
ATOM      6  C   UNL A   1      31.498  25.573  22.244  1.00  0.00     0.242 C 
BRANCH   6   7
ATOM      7  N   UNL A   1      32.916  25.283  22.534  1.00  0.00    -0.323 N 
BRANCH   7   8
ATOM      8  C   UNL A   1      33.472  24.005  22.706  1.00  0.00     0.281 C 
ATOM      9  O   UNL A   1      33.860  23.337  21.742  1.00  0.00    -0.268 OA
BRANCH   8  10
ATOM     10  C   UNL A   1      33.663  23.415  24.145  1.00  0.00     0.273 C 
ATOM     11  C   UNL A   1      33.334  21.917  24.130  1.00  0.00     0.076 C 
ATOM     12  N   UNL A   1      35.067  23.640  24.570  1.00  0.00    -0.333 N 
ATOM     13  C   UNL A   1      33.714  21.225  25.443  1.00  0.00     0.016 C 
ATOM     14  C   UNL A   1      35.345  23.073  25.894  1.00  0.00     0.186 C 
ATOM     15  H   UNL A   1      35.245  24.644  24.598  1.00  0.00     0.347 HD
ATOM     16  H   UNL A   1      35.676  23.174  23.896  1.00  0.00     0.347 HD
ATOM     17  C   UNL A   1      35.153  21.554  25.879  1.00  0.00     0.048 C 
ATOM     18  C   UNL A   1      36.774  23.383  26.342  1.00  0.00     0.065 C 
ATOM     19  C   UNL A   1      36.191  20.825  25.002  1.00  0.00     0.010 C 
ATOM     20  C   UNL A   1      37.817  22.848  25.376  1.00  0.00     0.006 C 
ATOM     21  C   UNL A   1      37.615  21.391  24.971  1.00  0.00     0.001 C 
ENDBRANCH   8  10
ENDBRANCH   7   8
BRANCH   7  22
ATOM     22  C   UNL A   1      33.723  26.503  22.590  1.00  0.00     0.086 C 
ATOM     23  C   UNL A   1      33.284  27.926  22.761  1.00  0.00     0.027 C 
ATOM     24  C   UNL A   1      33.901  27.196  23.916  1.00  0.00     0.027 C 
ENDBRANCH   7  22
ENDBRANCH   6   7
ENDBRANCH   4   6
ENDBRANCH   3   4
ENDBRANCH   2   3
ENDBRANCH   1   2
BRANCH   1  25
ATOM     25  O   UNL A   1      31.520  27.523  26.633  1.00  0.00    -0.374 OA
BRANCH  25  26
ATOM     26  C   UNL A   1      31.421  28.793  25.971  1.00  0.00     0.202 C 
BRANCH  26  27
ATOM     27  C   UNL A   1      31.807  29.983  26.854  1.00  0.00     0.261 C 
BRANCH  27  28
ATOM     28  O   UNL A   1      33.126  30.443  26.528  1.00  0.00    -0.460 OA
BRANCH  28  29
ATOM     29  C   UNL A   1      33.558  31.503  27.250  1.00  0.00     0.338 C 
ATOM     30  O   UNL A   1      32.922  32.496  27.564  1.00  0.00    -0.246 OA
BRANCH  29  31
ATOM     31  C   UNL A   1      34.888  31.178  27.810  1.00  0.00     0.060 A 
ATOM     32  C   UNL A   1      35.161  29.834  28.104  1.00  0.00     0.016 A 
ATOM     33  C   UNL A   1      35.869  32.153  28.000  1.00  0.00     0.016 A 
ATOM     34  C   UNL A   1      36.398  29.460  28.614  1.00  0.00     0.010 A 
ATOM     35  C   UNL A   1      37.105  31.784  28.524  1.00  0.00     0.010 A 
ATOM     36  C   UNL A   1      37.359  30.442  28.864  1.00  0.00    -0.014 A 
BRANCH  36  37
ATOM     37  C   UNL A   1      38.544  30.128  29.686  1.00  0.00     0.031 A 
ATOM     38  C   UNL A   1      39.516  29.123  29.146  1.00  0.00     0.074 A 
ATOM     39  C   UNL A   1      38.722  30.688  30.894  1.00  0.00     0.049 A 
ATOM     40  N   UNL A   1      40.529  28.544  29.730  1.00  0.00    -0.248 NA
ATOM     41  C   UNL A   1      39.297  28.697  27.753  1.00  0.00     0.031 C 
ATOM     42  C   UNL A   1      37.860  31.704  31.489  1.00  0.00     0.029 A 
ATOM     43  N   UNL A   1      39.677  30.447  31.847  1.00  0.00    -0.354 N 
ATOM     44  C   UNL A   1      41.049  27.665  28.790  1.00  0.00     0.074 A 
ATOM     45  C   UNL A   1      40.226  27.767  27.605  1.00  0.00     0.031 C 
ATOM     46  C   UNL A   1      38.303  31.974  32.730  1.00  0.00     0.029 A 
ATOM     47  C   UNL A   1      39.451  31.117  33.023  1.00  0.00     0.049 A 
ATOM     48  H   UNL A   1      40.448  29.852  31.702  1.00  0.00     0.167 HD
ATOM     49  C   UNL A   1      42.118  26.846  28.910  1.00  0.00     0.037 A 
ATOM     50  C   UNL A   1      40.076  31.009  34.211  1.00  0.00     0.037 A 
ATOM     51  C   UNL A   1      42.924  26.762  30.098  1.00  0.00     0.049 A 
ATOM     52  C   UNL A   1      41.231  30.050  34.344  1.00  0.00     0.074 A 
ATOM     53  C   UNL A   1      44.054  25.999  30.321  1.00  0.00     0.029 A 
ATOM     54  N   UNL A   1      42.673  27.465  31.269  1.00  0.00    -0.354 N 
ATOM     55  N   UNL A   1      41.742  29.239  33.447  1.00  0.00    -0.248 NA
ATOM     56  C   UNL A   1      41.898  29.989  35.652  1.00  0.00     0.031 C 
ATOM     57  C   UNL A   1      44.450  26.190  31.649  1.00  0.00     0.029 A 
ATOM     58  C   UNL A   1      43.608  27.125  32.232  1.00  0.00     0.049 A 
ATOM     59  H   UNL A   1      41.939  28.108  31.395  1.00  0.00     0.167 HD
ATOM     60  C   UNL A   1      42.804  28.597  34.070  1.00  0.00     0.074 A 
ATOM     61  C   UNL A   1      42.868  29.115  35.421  1.00  0.00     0.031 C 
ATOM     62  C   UNL A   1      43.654  27.665  33.569  1.00  0.00     0.037 A 
BRANCH  49  63
ATOM     63  C   UNL A   1      42.437  25.949  27.751  1.00  0.00     0.064 A 
ATOM     64  C   UNL A   1      43.438  26.263  26.819  1.00  0.00     0.173 A 
ATOM     65  C   UNL A   1      41.724  24.754  27.566  1.00  0.00     0.173 A 
ATOM     66  F   UNL A   1      44.138  27.403  26.937  1.00  0.00    -0.203 F 
ATOM     67  C   UNL A   1      43.687  25.435  25.727  1.00  0.00     0.198 A 
ATOM     68  C   UNL A   1      41.999  23.912  26.493  1.00  0.00     0.198 A 
ATOM     69  F   UNL A   1      40.753  24.406  28.425  1.00  0.00    -0.203 F 
ATOM     70  F   UNL A   1      44.604  25.789  24.815  1.00  0.00    -0.200 F 
ATOM     71  C   UNL A   1      42.973  24.258  25.569  1.00  0.00     0.200 A 
ATOM     72  F   UNL A   1      41.314  22.769  26.349  1.00  0.00    -0.200 F 
ATOM     73  F   UNL A   1      43.214  23.461  24.519  1.00  0.00    -0.200 F 
ENDBRANCH  49  63
BRANCH  50  74
ATOM     74  C   UNL A   1      39.598  31.810  35.368  1.00  0.00     0.064 A 
ATOM     75  C   UNL A   1      40.089  33.100  35.609  1.00  0.00     0.173 A 
ATOM     76  C   UNL A   1      38.627  31.307  36.248  1.00  0.00     0.173 A 
ATOM     77  F   UNL A   1      41.034  33.616  34.810  1.00  0.00    -0.203 F 
ATOM     78  C   UNL A   1      39.635  33.853  36.690  1.00  0.00     0.198 A 
ATOM     79  C   UNL A   1      38.153  32.072  37.312  1.00  0.00     0.198 A 
ATOM     80  F   UNL A   1      38.124  30.078  36.061  1.00  0.00    -0.203 F 
ATOM     81  F   UNL A   1      40.147  35.070  36.919  1.00  0.00    -0.200 F 
ATOM     82  C   UNL A   1      38.662  33.342  37.536  1.00  0.00     0.200 A 
ATOM     83  F   UNL A   1      37.202  31.579  38.117  1.00  0.00    -0.200 F 
ATOM     84  F   UNL A   1      38.217  34.071  38.569  1.00  0.00    -0.200 F 
ENDBRANCH  50  74
BRANCH  62  85
ATOM     85  C   UNL A   1      44.754  27.174  34.464  1.00  0.00     0.064 A 
ATOM     86  C   UNL A   1      45.978  27.848  34.568  1.00  0.00     0.173 A 
ATOM     87  C   UNL A   1      44.543  26.060  35.291  1.00  0.00     0.173 A 
ATOM     88  F   UNL A   1      46.232  28.911  33.789  1.00  0.00    -0.203 F 
ATOM     89  C   UNL A   1      46.958  27.416  35.459  1.00  0.00     0.198 A 
ATOM     90  C   UNL A   1      45.511  25.650  36.203  1.00  0.00     0.198 A 
ATOM     91  F   UNL A   1      43.385  25.386  35.236  1.00  0.00    -0.203 F 
ATOM     92  F   UNL A   1      48.135  28.055  35.519  1.00  0.00    -0.200 F 
ATOM     93  C   UNL A   1      46.719  26.326  36.283  1.00  0.00     0.200 A 
ATOM     94  F   UNL A   1      45.272  24.609  37.011  1.00  0.00    -0.200 F 
ATOM     95  F   UNL A   1      47.655  25.925  37.155  1.00  0.00    -0.200 F 
ENDBRANCH  62  85
ENDBRANCH  36  37
ENDBRANCH  29  31
ENDBRANCH  28  29
ENDBRANCH  27  28
ENDBRANCH  26  27
ENDBRANCH  25  26
ENDBRANCH   1  25
TORSDOF 18
ENDMDL
