MODEL 1
REMARK VINA RESULT:     -10.0      0.000      0.000
REMARK SMILES N#CNC(=O)[C@H]1C[C@@H]1C(=O)OCCOCCOC(=O)c1ccc(-c2c3nc(c(-c4c(F)c(F)c(F)c(F)c4F)c4ccc([nH]4)c(-c4c(F)c(F)c(F)c(F)c4F)c4nc(c(-c5c(F)c(F)c(F)c(F)c5F)c5ccc2[nH]5)C=C4)C=C3)cc1
REMARK SMILES IDX 14 1 13 2 12 3 11 4 9 5 10 6 8 7 6 8 7 9 4 10 3 11 5 13 2 14
REMARK SMILES IDX 1 15 15 16 16 17 17 18 18 19 19 20 20 21 21 22 82 23 22 24
REMARK SMILES IDX 81 25 23 26 24 27 25 28 75 29 26 30 80 31 74 32 76 33 27 34
REMARK SMILES IDX 79 35 73 36 72 37 28 39 60 40 40 41 59 42 41 43 44 44 58 45
REMARK SMILES IDX 77 46 42 47 43 48 57 50 78 51 45 52 29 53 30 54 38 55 31 56
REMARK SMILES IDX 32 57 36 58 39 59 33 60 34 61 37 62 35 63 61 64 62 65 70 66
REMARK SMILES IDX 63 67 64 68 68 69 71 70 65 71 66 72 69 73 67 74 46 75 47 76
REMARK SMILES IDX 55 77 48 78 49 79 53 80 56 81 50 82 51 83 54 84 52 85
REMARK H PARENT 3 12 76 38 44 49
REMARK Flexibility Score: inf
ROOT
ATOM      1  O   UNL A   1      37.447  21.153  25.221  1.00  0.00    -0.374 OA
ENDROOT
BRANCH   1   2
ATOM      2  C   UNL A   1      36.070  21.314  25.538  1.00  0.00     0.202 C 
BRANCH   2   3
ATOM      3  C   UNL A   1      35.132  21.926  24.494  1.00  0.00     0.261 C 
BRANCH   3   4
ATOM      4  O   UNL A   1      33.888  22.376  25.054  1.00  0.00    -0.463 OA
BRANCH   4   5
ATOM      5  C   UNL A   1      33.159  23.187  24.236  1.00  0.00     0.309 C 
ATOM      6  O   UNL A   1      32.565  22.838  23.227  1.00  0.00    -0.252 OA
BRANCH   5   7
ATOM      7  C   UNL A   1      33.046  24.583  24.718  1.00  0.00     0.112 C 
ATOM      8  C   UNL A   1      34.097  25.646  24.467  1.00  0.00     0.094 C 
ATOM      9  C   UNL A   1      33.883  25.110  25.858  1.00  0.00     0.030 C 
BRANCH   8  10
ATOM     10  C   UNL A   1      33.631  26.993  24.063  1.00  0.00     0.236 C 
ATOM     11  N   UNL A   1      33.236  27.171  22.770  1.00  0.00    -0.262 N 
ATOM     12  H   UNL A   1      32.942  28.088  22.566  1.00  0.00     0.182 HD
ATOM     13  O   UNL A   1      33.595  27.901  24.883  1.00  0.00    -0.274 OA
BRANCH  11  14
ATOM     14  C   UNL A   1      33.173  26.339  21.725  1.00  0.00     0.183 C 
ATOM     15  N   UNL A   1      33.109  25.614  20.823  1.00  0.00    -0.172 NA
ENDBRANCH  11  14
ENDBRANCH   8  10
ENDBRANCH   5   7
ENDBRANCH   4   5
ENDBRANCH   3   4
ENDBRANCH   2   3
ENDBRANCH   1   2
BRANCH   1  16
ATOM     16  C   UNL A   1      37.936  19.845  24.945  1.00  0.00     0.202 C 
BRANCH  16  17
ATOM     17  C   UNL A   1      39.215  19.366  25.652  1.00  0.00     0.261 C 
BRANCH  17  18
ATOM     18  O   UNL A   1      40.217  20.388  25.803  1.00  0.00    -0.460 OA
BRANCH  18  19
ATOM     19  C   UNL A   1      40.765  20.447  27.044  1.00  0.00     0.338 C 
ATOM     20  O   UNL A   1      41.207  19.521  27.702  1.00  0.00    -0.246 OA
BRANCH  19  21
ATOM     21  C   UNL A   1      40.955  21.848  27.463  1.00  0.00     0.060 A 
ATOM     22  C   UNL A   1      40.326  22.842  26.701  1.00  0.00     0.016 A 
ATOM     23  C   UNL A   1      41.832  22.191  28.493  1.00  0.00     0.016 A 
ATOM     24  C   UNL A   1      40.608  24.184  26.931  1.00  0.00     0.010 A 
ATOM     25  C   UNL A   1      42.119  23.543  28.718  1.00  0.00     0.010 A 
ATOM     26  C   UNL A   1      41.539  24.543  27.914  1.00  0.00    -0.014 A 
BRANCH  26  27
ATOM     27  C   UNL A   1      41.992  25.953  28.014  1.00  0.00     0.031 A 
ATOM     28  C   UNL A   1      43.310  26.353  27.409  1.00  0.00     0.074 A 
ATOM     29  C   UNL A   1      41.220  26.876  28.614  1.00  0.00     0.049 A 
ATOM     30  N   UNL A   1      43.916  27.515  27.430  1.00  0.00    -0.248 NA
ATOM     31  C   UNL A   1      44.048  25.304  26.688  1.00  0.00     0.031 C 
ATOM     32  C   UNL A   1      39.905  26.622  29.199  1.00  0.00     0.029 A 
ATOM     33  N   UNL A   1      41.436  28.213  28.839  1.00  0.00    -0.354 N 
ATOM     34  C   UNL A   1      45.111  27.329  26.745  1.00  0.00     0.074 A 
ATOM     35  C   UNL A   1      45.158  25.940  26.345  1.00  0.00     0.031 C 
ATOM     36  C   UNL A   1      39.433  27.763  29.725  1.00  0.00     0.029 A 
ATOM     37  C   UNL A   1      40.433  28.817  29.556  1.00  0.00     0.049 A 
ATOM     38  H   UNL A   1      42.234  28.693  28.518  1.00  0.00     0.167 HD
ATOM     39  C   UNL A   1      46.075  28.240  26.472  1.00  0.00     0.037 A 
ATOM     40  C   UNL A   1      40.344  30.068  30.048  1.00  0.00     0.037 A 
ATOM     41  C   UNL A   1      46.017  29.625  26.869  1.00  0.00     0.049 A 
ATOM     42  C   UNL A   1      41.464  31.042  29.792  1.00  0.00     0.074 A 
ATOM     43  C   UNL A   1      46.929  30.634  26.609  1.00  0.00     0.029 A 
ATOM     44  N   UNL A   1      45.000  30.192  27.623  1.00  0.00    -0.354 N 
ATOM     45  N   UNL A   1      42.577  30.869  29.121  1.00  0.00    -0.248 NA
ATOM     46  C   UNL A   1      41.311  32.390  30.358  1.00  0.00     0.031 C 
ATOM     47  C   UNL A   1      46.507  31.787  27.276  1.00  0.00     0.029 A 
ATOM     48  C   UNL A   1      45.285  31.526  27.873  1.00  0.00     0.049 A 
ATOM     49  H   UNL A   1      44.195  29.718  27.934  1.00  0.00     0.167 HD
ATOM     50  C   UNL A   1      43.240  32.090  29.156  1.00  0.00     0.074 A 
ATOM     51  C   UNL A   1      42.396  33.000  29.902  1.00  0.00     0.031 C 
ATOM     52  C   UNL A   1      44.437  32.427  28.616  1.00  0.00     0.037 A 
BRANCH  39  53
ATOM     53  C   UNL A   1      47.302  27.768  25.743  1.00  0.00     0.064 A 
ATOM     54  C   UNL A   1      47.366  27.716  24.343  1.00  0.00     0.173 A 
ATOM     55  C   UNL A   1      48.456  27.412  26.462  1.00  0.00     0.173 A 
ATOM     56  F   UNL A   1      46.292  28.036  23.604  1.00  0.00    -0.203 F 
ATOM     57  C   UNL A   1      48.525  27.299  23.692  1.00  0.00     0.198 A 
ATOM     58  C   UNL A   1      49.624  27.033  25.807  1.00  0.00     0.198 A 
ATOM     59  F   UNL A   1      48.455  27.451  27.803  1.00  0.00    -0.203 F 
ATOM     60  F   UNL A   1      48.546  27.209  22.354  1.00  0.00    -0.200 F 
ATOM     61  C   UNL A   1      49.656  26.968  24.423  1.00  0.00     0.200 A 
ATOM     62  F   UNL A   1      50.721  26.734  26.518  1.00  0.00    -0.200 F 
ATOM     63  F   UNL A   1      50.775  26.582  23.796  1.00  0.00    -0.200 F 
ENDBRANCH  39  53
BRANCH  40  64
ATOM     64  C   UNL A   1      39.158  30.462  30.853  1.00  0.00     0.064 A 
ATOM     65  C   UNL A   1      38.046  31.074  30.257  1.00  0.00     0.173 A 
ATOM     66  C   UNL A   1      39.114  30.242  32.239  1.00  0.00     0.173 A 
ATOM     67  F   UNL A   1      38.047  31.327  28.940  1.00  0.00    -0.203 F 
ATOM     68  C   UNL A   1      36.948  31.469  31.018  1.00  0.00     0.198 A 
ATOM     69  C   UNL A   1      38.001  30.604  32.993  1.00  0.00     0.198 A 
ATOM     70  F   UNL A   1      40.152  29.659  32.859  1.00  0.00    -0.203 F 
ATOM     71  F   UNL A   1      35.922  32.101  30.431  1.00  0.00    -0.200 F 
ATOM     72  C   UNL A   1      36.922  31.225  32.384  1.00  0.00     0.200 A 
ATOM     73  F   UNL A   1      37.974  30.349  34.307  1.00  0.00    -0.200 F 
ATOM     74  F   UNL A   1      35.862  31.598  33.114  1.00  0.00    -0.200 F 
ENDBRANCH  40  64
BRANCH  52  75
ATOM     75  C   UNL A   1      44.893  33.853  28.764  1.00  0.00     0.064 A 
ATOM     76  C   UNL A   1      45.726  34.263  29.817  1.00  0.00     0.173 A 
ATOM     77  C   UNL A   1      44.522  34.817  27.813  1.00  0.00     0.173 A 
ATOM     78  F   UNL A   1      46.104  33.388  30.761  1.00  0.00    -0.203 F 
ATOM     79  C   UNL A   1      46.139  35.589  29.929  1.00  0.00     0.198 A 
ATOM     80  C   UNL A   1      44.971  36.132  27.906  1.00  0.00     0.198 A 
ATOM     81  F   UNL A   1      43.735  34.480  26.778  1.00  0.00    -0.203 F 
ATOM     82  F   UNL A   1      46.883  35.970  30.977  1.00  0.00    -0.200 F 
ATOM     83  C   UNL A   1      45.769  36.519  28.970  1.00  0.00     0.200 A 
ATOM     84  F   UNL A   1      44.630  37.023  26.963  1.00  0.00    -0.200 F 
ATOM     85  F   UNL A   1      46.177  37.792  29.075  1.00  0.00    -0.200 F 
ENDBRANCH  52  75
ENDBRANCH  26  27
ENDBRANCH  19  21
ENDBRANCH  18  19
ENDBRANCH  17  18
ENDBRANCH  16  17
ENDBRANCH   1  16
TORSDOF 16
ENDMDL
MODEL 2
REMARK VINA RESULT:      -9.9      1.619      2.487
REMARK SMILES N#CNC(=O)[C@H]1C[C@@H]1C(=O)OCCOCCOC(=O)c1ccc(-c2c3nc(c(-c4c(F)c(F)c(F)c(F)c4F)c4ccc([nH]4)c(-c4c(F)c(F)c(F)c(F)c4F)c4nc(c(-c5c(F)c(F)c(F)c(F)c5F)c5ccc2[nH]5)C=C4)C=C3)cc1
REMARK SMILES IDX 14 1 13 2 12 3 11 4 9 5 10 6 8 7 6 8 7 9 4 10 3 11 5 13 2 14
REMARK SMILES IDX 1 15 15 16 16 17 17 18 18 19 19 20 20 21 21 22 82 23 22 24
REMARK SMILES IDX 81 25 23 26 24 27 25 28 75 29 26 30 80 31 74 32 76 33 27 34
REMARK SMILES IDX 79 35 73 36 72 37 28 39 60 40 40 41 59 42 41 43 44 44 58 45
REMARK SMILES IDX 77 46 42 47 43 48 57 50 78 51 45 52 29 53 30 54 38 55 31 56
REMARK SMILES IDX 32 57 36 58 39 59 33 60 34 61 37 62 35 63 61 64 62 65 70 66
REMARK SMILES IDX 63 67 64 68 68 69 71 70 65 71 66 72 69 73 67 74 46 75 47 76
REMARK SMILES IDX 55 77 48 78 49 79 53 80 56 81 50 82 51 83 54 84 52 85
REMARK H PARENT 3 12 76 38 44 49
REMARK Flexibility Score: inf
ROOT
ATOM      1  O   UNL A   1      37.545  22.361  25.194  1.00  0.00    -0.374 OA
ENDROOT
BRANCH   1   2
ATOM      2  C   UNL A   1      36.729  23.190  24.375  1.00  0.00     0.202 C 
BRANCH   2   3
ATOM      3  C   UNL A   1      35.629  24.030  25.029  1.00  0.00     0.261 C 
BRANCH   3   4
ATOM      4  O   UNL A   1      34.612  24.442  24.102  1.00  0.00    -0.463 OA
BRANCH   4   5
ATOM      5  C   UNL A   1      34.026  23.422  23.413  1.00  0.00     0.309 C 
ATOM      6  O   UNL A   1      34.166  23.190  22.222  1.00  0.00    -0.252 OA
BRANCH   5   7
ATOM      7  C   UNL A   1      33.232  22.503  24.260  1.00  0.00     0.112 C 
ATOM      8  C   UNL A   1      33.658  21.086  24.592  1.00  0.00     0.094 C 
ATOM      9  C   UNL A   1      32.479  21.328  23.685  1.00  0.00     0.030 C 
BRANCH   8  10
ATOM     10  C   UNL A   1      33.493  20.628  25.990  1.00  0.00     0.236 C 
ATOM     11  N   UNL A   1      32.961  19.389  26.198  1.00  0.00    -0.262 N 
ATOM     12  H   UNL A   1      32.874  19.147  27.149  1.00  0.00     0.182 HD
ATOM     13  O   UNL A   1      33.842  21.348  26.917  1.00  0.00    -0.274 OA
BRANCH  11  14
ATOM     14  C   UNL A   1      32.533  18.441  25.359  1.00  0.00     0.183 C 
ATOM     15  N   UNL A   1      32.165  17.625  24.622  1.00  0.00    -0.172 NA
ENDBRANCH  11  14
ENDBRANCH   8  10
ENDBRANCH   5   7
ENDBRANCH   4   5
ENDBRANCH   3   4
ENDBRANCH   2   3
ENDBRANCH   1   2
BRANCH   1  16
ATOM     16  C   UNL A   1      37.536  20.956  24.964  1.00  0.00     0.202 C 
BRANCH  16  17
ATOM     17  C   UNL A   1      38.612  20.087  25.638  1.00  0.00     0.261 C 
BRANCH  17  18
ATOM     18  O   UNL A   1      39.904  20.715  25.721  1.00  0.00    -0.460 OA
BRANCH  18  19
ATOM     19  C   UNL A   1      40.435  20.728  26.970  1.00  0.00     0.338 C 
ATOM     20  O   UNL A   1      40.820  19.771  27.620  1.00  0.00    -0.246 OA
BRANCH  19  21
ATOM     21  C   UNL A   1      40.686  22.111  27.415  1.00  0.00     0.060 A 
ATOM     22  C   UNL A   1      40.009  23.139  26.745  1.00  0.00     0.016 A 
ATOM     23  C   UNL A   1      41.658  22.407  28.371  1.00  0.00     0.016 A 
ATOM     24  C   UNL A   1      40.334  24.469  26.991  1.00  0.00     0.010 A 
ATOM     25  C   UNL A   1      41.988  23.746  28.613  1.00  0.00     0.010 A 
ATOM     26  C   UNL A   1      41.356  24.781  27.897  1.00  0.00    -0.014 A 
BRANCH  26  27
ATOM     27  C   UNL A   1      41.841  26.179  28.000  1.00  0.00     0.031 A 
ATOM     28  C   UNL A   1      43.169  26.551  27.399  1.00  0.00     0.074 A 
ATOM     29  C   UNL A   1      41.088  27.120  28.599  1.00  0.00     0.049 A 
ATOM     30  N   UNL A   1      43.802  27.698  27.423  1.00  0.00    -0.248 NA
ATOM     31  C   UNL A   1      43.884  25.486  26.679  1.00  0.00     0.031 C 
ATOM     32  C   UNL A   1      39.766  26.895  29.180  1.00  0.00     0.029 A 
ATOM     33  N   UNL A   1      41.334  28.451  28.827  1.00  0.00    -0.354 N 
ATOM     34  C   UNL A   1      44.994  27.486  26.742  1.00  0.00     0.074 A 
ATOM     35  C   UNL A   1      45.010  26.097  26.339  1.00  0.00     0.031 C 
ATOM     36  C   UNL A   1      39.319  28.046  29.706  1.00  0.00     0.029 A 
ATOM     37  C   UNL A   1      40.343  29.077  29.542  1.00  0.00     0.049 A 
ATOM     38  H   UNL A   1      42.144  28.912  28.508  1.00  0.00     0.167 HD
ATOM     39  C   UNL A   1      45.980  28.375  26.472  1.00  0.00     0.037 A 
ATOM     40  C   UNL A   1      40.282  30.328  30.036  1.00  0.00     0.037 A 
ATOM     41  C   UNL A   1      45.952  29.760  26.872  1.00  0.00     0.049 A 
ATOM     42  C   UNL A   1      41.425  31.277  29.784  1.00  0.00     0.074 A 
ATOM     43  C   UNL A   1      46.888  30.748  26.616  1.00  0.00     0.029 A 
ATOM     44  N   UNL A   1      44.947  30.349  27.624  1.00  0.00    -0.354 N 
ATOM     45  N   UNL A   1      42.536  31.079  29.116  1.00  0.00    -0.248 NA
ATOM     46  C   UNL A   1      41.302  32.627  30.352  1.00  0.00     0.031 C 
ATOM     47  C   UNL A   1      46.490  31.910  27.283  1.00  0.00     0.029 A 
ATOM     48  C   UNL A   1      45.261  31.676  27.876  1.00  0.00     0.049 A 
ATOM     49  H   UNL A   1      44.130  29.893  27.932  1.00  0.00     0.167 HD
ATOM     50  C   UNL A   1      43.226  32.285  29.155  1.00  0.00     0.074 A 
ATOM     51  C   UNL A   1      42.401  33.213  29.900  1.00  0.00     0.031 C 
ATOM     52  C   UNL A   1      44.432  32.595  28.618  1.00  0.00     0.037 A 
BRANCH  39  53
ATOM     53  C   UNL A   1      47.198  27.876  25.746  1.00  0.00     0.064 A 
ATOM     54  C   UNL A   1      47.272  27.845  24.346  1.00  0.00     0.173 A 
ATOM     55  C   UNL A   1      48.333  27.472  26.468  1.00  0.00     0.173 A 
ATOM     56  F   UNL A   1      46.215  28.210  23.604  1.00  0.00    -0.203 F 
ATOM     57  C   UNL A   1      48.423  27.401  23.698  1.00  0.00     0.198 A 
ATOM     58  C   UNL A   1      49.494  27.067  25.817  1.00  0.00     0.198 A 
ATOM     59  F   UNL A   1      48.321  27.489  27.810  1.00  0.00    -0.203 F 
ATOM     60  F   UNL A   1      48.453  27.332  22.359  1.00  0.00    -0.200 F 
ATOM     61  C   UNL A   1      49.536  27.023  24.433  1.00  0.00     0.200 A 
ATOM     62  F   UNL A   1      50.575  26.721  26.532  1.00  0.00    -0.200 F 
ATOM     63  F   UNL A   1      50.648  26.611  23.808  1.00  0.00    -0.200 F 
ENDBRANCH  39  53
BRANCH  40  64
ATOM     64  C   UNL A   1      39.103  30.748  30.838  1.00  0.00     0.064 A 
ATOM     65  C   UNL A   1      39.043  30.516  32.220  1.00  0.00     0.173 A 
ATOM     66  C   UNL A   1      38.006  31.385  30.238  1.00  0.00     0.173 A 
ATOM     67  F   UNL A   1      40.056  29.890  32.838  1.00  0.00    -0.203 F 
ATOM     68  C   UNL A   1      37.925  30.884  32.964  1.00  0.00     0.198 A 
ATOM     69  C   UNL A   1      36.904  31.786  30.989  1.00  0.00     0.198 A 
ATOM     70  F   UNL A   1      38.012  31.632  28.920  1.00  0.00    -0.203 F 
ATOM     71  F   UNL A   1      37.871  30.601  34.273  1.00  0.00    -0.200 F 
ATOM     72  C   UNL A   1      36.860  31.527  32.350  1.00  0.00     0.200 A 
ATOM     73  F   UNL A   1      35.887  32.423  30.394  1.00  0.00    -0.200 F 
ATOM     74  F   UNL A   1      35.788  31.889  33.068  1.00  0.00    -0.200 F 
ENDBRANCH  40  64
BRANCH  52  75
ATOM     75  C   UNL A   1      44.920  34.010  28.770  1.00  0.00     0.064 A 
ATOM     76  C   UNL A   1      45.778  34.395  29.812  1.00  0.00     0.173 A 
ATOM     77  C   UNL A   1      44.554  34.990  27.832  1.00  0.00     0.173 A 
ATOM     78  F   UNL A   1      46.153  33.504  30.743  1.00  0.00    -0.203 F 
ATOM     79  C   UNL A   1      46.220  35.711  29.928  1.00  0.00     0.198 A 
ATOM     80  C   UNL A   1      45.032  36.293  27.928  1.00  0.00     0.198 A 
ATOM     81  F   UNL A   1      43.744  34.677  26.808  1.00  0.00    -0.203 F 
ATOM     82  F   UNL A   1      46.989  36.067  30.966  1.00  0.00    -0.200 F 
ATOM     83  C   UNL A   1      45.855  36.655  28.982  1.00  0.00     0.200 A 
ATOM     84  F   UNL A   1      44.695  37.199  26.998  1.00  0.00    -0.200 F 
ATOM     85  F   UNL A   1      46.291  37.919  29.090  1.00  0.00    -0.200 F 
ENDBRANCH  52  75
ENDBRANCH  26  27
ENDBRANCH  19  21
ENDBRANCH  18  19
ENDBRANCH  17  18
ENDBRANCH  16  17
ENDBRANCH   1  16
TORSDOF 16
ENDMDL
MODEL 3
REMARK VINA RESULT:      -9.9      1.035      2.070
REMARK SMILES N#CNC(=O)[C@H]1C[C@@H]1C(=O)OCCOCCOC(=O)c1ccc(-c2c3nc(c(-c4c(F)c(F)c(F)c(F)c4F)c4ccc([nH]4)c(-c4c(F)c(F)c(F)c(F)c4F)c4nc(c(-c5c(F)c(F)c(F)c(F)c5F)c5ccc2[nH]5)C=C4)C=C3)cc1
REMARK SMILES IDX 14 1 13 2 12 3 11 4 9 5 10 6 8 7 6 8 7 9 4 10 3 11 5 13 2 14
REMARK SMILES IDX 1 15 15 16 16 17 17 18 18 19 19 20 20 21 21 22 82 23 22 24
REMARK SMILES IDX 81 25 23 26 24 27 25 28 75 29 26 30 80 31 74 32 76 33 27 34
REMARK SMILES IDX 79 35 73 36 72 37 28 39 60 40 40 41 59 42 41 43 44 44 58 45
REMARK SMILES IDX 77 46 42 47 43 48 57 50 78 51 45 52 29 53 30 54 38 55 31 56
REMARK SMILES IDX 32 57 36 58 39 59 33 60 34 61 37 62 35 63 61 64 62 65 70 66
REMARK SMILES IDX 63 67 64 68 68 69 71 70 65 71 66 72 69 73 67 74 46 75 47 76
REMARK SMILES IDX 55 77 48 78 49 79 53 80 56 81 50 82 51 83 54 84 52 85
REMARK H PARENT 3 12 76 38 44 49
REMARK Flexibility Score: inf
ROOT
ATOM      1  O   UNL A   1      37.133  21.539  25.263  1.00  0.00    -0.374 OA
ENDROOT
BRANCH   1   2
ATOM      2  C   UNL A   1      35.980  21.814  26.050  1.00  0.00     0.202 C 
BRANCH   2   3
ATOM      3  C   UNL A   1      34.862  22.676  25.457  1.00  0.00     0.261 C 
BRANCH   3   4
ATOM      4  O   UNL A   1      34.392  22.191  24.189  1.00  0.00    -0.463 OA
BRANCH   4   5
ATOM      5  C   UNL A   1      34.736  22.966  23.122  1.00  0.00     0.309 C 
ATOM      6  O   UNL A   1      35.874  23.208  22.751  1.00  0.00    -0.252 OA
BRANCH   5   7
ATOM      7  C   UNL A   1      33.579  23.456  22.337  1.00  0.00     0.112 C 
ATOM      8  C   UNL A   1      32.989  24.844  22.487  1.00  0.00     0.094 C 
ATOM      9  C   UNL A   1      32.212  23.640  22.950  1.00  0.00     0.030 C 
BRANCH   8  10
ATOM     10  C   UNL A   1      32.637  25.579  21.250  1.00  0.00     0.236 C 
ATOM     11  N   UNL A   1      31.722  26.586  21.344  1.00  0.00    -0.262 N 
ATOM     12  H   UNL A   1      31.530  27.030  20.486  1.00  0.00     0.182 HD
ATOM     13  O   UNL A   1      33.171  25.284  20.188  1.00  0.00    -0.274 OA
BRANCH  11  14
ATOM     14  C   UNL A   1      31.036  27.086  22.376  1.00  0.00     0.183 C 
ATOM     15  N   UNL A   1      30.439  27.509  23.275  1.00  0.00    -0.172 NA
ENDBRANCH  11  14
ENDBRANCH   8  10
ENDBRANCH   5   7
ENDBRANCH   4   5
ENDBRANCH   3   4
ENDBRANCH   2   3
ENDBRANCH   1   2
BRANCH   1  16
ATOM     16  C   UNL A   1      37.396  20.192  24.888  1.00  0.00     0.202 C 
BRANCH  16  17
ATOM     17  C   UNL A   1      38.762  19.577  25.241  1.00  0.00     0.261 C 
BRANCH  17  18
ATOM     18  O   UNL A   1      39.279  19.995  26.517  1.00  0.00    -0.460 OA
BRANCH  18  19
ATOM     19  C   UNL A   1      40.597  20.319  26.501  1.00  0.00     0.338 C 
ATOM     20  O   UNL A   1      41.513  19.667  26.029  1.00  0.00    -0.246 OA
BRANCH  19  21
ATOM     21  C   UNL A   1      40.800  21.702  26.970  1.00  0.00     0.060 A 
ATOM     22  C   UNL A   1      40.213  22.731  26.221  1.00  0.00     0.016 A 
ATOM     23  C   UNL A   1      41.650  21.996  28.036  1.00  0.00     0.016 A 
ATOM     24  C   UNL A   1      40.513  24.060  26.501  1.00  0.00     0.010 A 
ATOM     25  C   UNL A   1      41.955  23.335  28.313  1.00  0.00     0.010 A 
ATOM     26  C   UNL A   1      41.419  24.370  27.523  1.00  0.00    -0.014 A 
BRANCH  26  27
ATOM     27  C   UNL A   1      41.894  25.767  27.681  1.00  0.00     0.031 A 
ATOM     28  C   UNL A   1      43.228  26.166  27.110  1.00  0.00     0.074 A 
ATOM     29  C   UNL A   1      41.130  26.681  28.304  1.00  0.00     0.049 A 
ATOM     30  N   UNL A   1      43.853  27.315  27.181  1.00  0.00    -0.248 NA
ATOM     31  C   UNL A   1      43.957  25.131  26.361  1.00  0.00     0.031 C 
ATOM     32  C   UNL A   1      39.803  26.429  28.861  1.00  0.00     0.029 A 
ATOM     33  N   UNL A   1      41.365  28.005  28.581  1.00  0.00    -0.354 N 
ATOM     34  C   UNL A   1      45.054  27.134  26.507  1.00  0.00     0.074 A 
ATOM     35  C   UNL A   1      45.083  25.760  26.056  1.00  0.00     0.031 C 
ATOM     36  C   UNL A   1      39.342  27.558  29.422  1.00  0.00     0.029 A 
ATOM     37  C   UNL A   1      40.362  28.600  29.306  1.00  0.00     0.049 A 
ATOM     38  H   UNL A   1      42.176  28.482  28.289  1.00  0.00     0.167 HD
ATOM     39  C   UNL A   1      46.038  28.037  26.280  1.00  0.00     0.037 A 
ATOM     40  C   UNL A   1      40.288  29.833  29.843  1.00  0.00     0.037 A 
ATOM     41  C   UNL A   1      45.998  29.407  26.728  1.00  0.00     0.049 A 
ATOM     42  C   UNL A   1      41.428  30.797  29.638  1.00  0.00     0.074 A 
ATOM     43  C   UNL A   1      46.931  30.408  26.518  1.00  0.00     0.029 A 
ATOM     44  N   UNL A   1      44.980  29.964  27.488  1.00  0.00    -0.354 N 
ATOM     45  N   UNL A   1      42.548  30.628  28.977  1.00  0.00    -0.248 NA
ATOM     46  C   UNL A   1      41.291  32.125  30.251  1.00  0.00     0.031 C 
ATOM     47  C   UNL A   1      46.518  31.544  27.221  1.00  0.00     0.029 A 
ATOM     48  C   UNL A   1      45.284  31.283  27.791  1.00  0.00     0.049 A 
ATOM     49  H   UNL A   1      44.163  29.493  27.770  1.00  0.00     0.167 HD
ATOM     50  C   UNL A   1      43.231  31.836  29.065  1.00  0.00     0.074 A 
ATOM     51  C   UNL A   1      42.392  32.732  29.833  1.00  0.00     0.031 C 
ATOM     52  C   UNL A   1      44.441  32.171  28.555  1.00  0.00     0.037 A 
BRANCH  39  53
ATOM     53  C   UNL A   1      47.267  27.570  25.552  1.00  0.00     0.064 A 
ATOM     54  C   UNL A   1      47.407  27.702  24.162  1.00  0.00     0.173 A 
ATOM     55  C   UNL A   1      48.348  27.030  26.267  1.00  0.00     0.173 A 
ATOM     56  F   UNL A   1      46.403  28.203  23.426  1.00  0.00    -0.203 F 
ATOM     57  C   UNL A   1      48.569  27.285  23.515  1.00  0.00     0.198 A 
ATOM     58  C   UNL A   1      49.522  26.650  25.622  1.00  0.00     0.198 A 
ATOM     59  F   UNL A   1      48.274  26.888  27.599  1.00  0.00    -0.203 F 
ATOM     60  F   UNL A   1      48.659  27.374  22.180  1.00  0.00    -0.200 F 
ATOM     61  C   UNL A   1      49.628  26.769  24.246  1.00  0.00     0.200 A 
ATOM     62  F   UNL A   1      50.551  26.171  26.335  1.00  0.00    -0.200 F 
ATOM     63  F   UNL A   1      50.750  26.382  23.624  1.00  0.00    -0.200 F 
ENDBRANCH  39  53
BRANCH  40  64
ATOM     64  C   UNL A   1      39.097  30.218  30.646  1.00  0.00     0.064 A 
ATOM     65  C   UNL A   1      39.043  29.979  32.026  1.00  0.00     0.173 A 
ATOM     66  C   UNL A   1      37.984  30.827  30.046  1.00  0.00     0.173 A 
ATOM     67  F   UNL A   1      40.071  29.379  32.643  1.00  0.00    -0.203 F 
ATOM     68  C   UNL A   1      37.914  30.315  32.770  1.00  0.00     0.198 A 
ATOM     69  C   UNL A   1      36.871  31.196  30.797  1.00  0.00     0.198 A 
ATOM     70  F   UNL A   1      37.985  31.079  28.729  1.00  0.00    -0.203 F 
ATOM     71  F   UNL A   1      37.867  30.026  34.078  1.00  0.00    -0.200 F 
ATOM     72  C   UNL A   1      36.833  30.931  32.158  1.00  0.00     0.200 A 
ATOM     73  F   UNL A   1      35.838  31.807  30.204  1.00  0.00    -0.200 F 
ATOM     74  F   UNL A   1      35.750  31.261  32.876  1.00  0.00    -0.200 F 
ENDBRANCH  40  64
BRANCH  52  75
ATOM     75  C   UNL A   1      44.919  33.582  28.762  1.00  0.00     0.064 A 
ATOM     76  C   UNL A   1      44.585  34.619  27.877  1.00  0.00     0.173 A 
ATOM     77  C   UNL A   1      45.690  33.910  29.889  1.00  0.00     0.173 A 
ATOM     78  F   UNL A   1      43.860  34.364  26.778  1.00  0.00    -0.203 F 
ATOM     79  C   UNL A   1      45.036  35.920  28.095  1.00  0.00     0.198 A 
ATOM     80  C   UNL A   1      46.103  35.218  30.125  1.00  0.00     0.198 A 
ATOM     81  F   UNL A   1      46.030  32.961  30.776  1.00  0.00    -0.203 F 
ATOM     82  F   UNL A   1      44.756  36.880  27.203  1.00  0.00    -0.200 F 
ATOM     83  C   UNL A   1      45.785  36.220  29.221  1.00  0.00     0.200 A 
ATOM     84  F   UNL A   1      46.808  35.509  31.227  1.00  0.00    -0.200 F 
ATOM     85  F   UNL A   1      46.208  37.474  29.433  1.00  0.00    -0.200 F 
ENDBRANCH  52  75
ENDBRANCH  26  27
ENDBRANCH  19  21
ENDBRANCH  18  19
ENDBRANCH  17  18
ENDBRANCH  16  17
ENDBRANCH   1  16
TORSDOF 16
ENDMDL
