MODEL 1
REMARK VINA RESULT:     -10.7      0.000      0.000
REMARK SMILES CSc1ccc(Cl)c(C(=O)N[C@@H](CO)C(=O)OCCOCCOC(=O)c2ccc(-c3c4nc(c(-c5c(F)c(F)c(F)c(F)c5F)c5ccc([nH]5)c(-c5c(F)c(F)c(F)c(F)c5F)c5nc(c(-c6c(F)c(F)c(F)c(F)c6F)c6ccc3[nH]6)C=C5)C=C4)cc2)c1
REMARK SMILES IDX 19 1 18 2 17 3 15 4 16 5 12 6 11 7 9 8 10 9 8 11 3 12 4 13
REMARK SMILES IDX 89 14 5 15 6 16 7 17 2 18 1 19 13 20 14 21 20 23 21 24 22 25
REMARK SMILES IDX 23 26 24 27 25 28 26 29 27 30 88 31 28 32 87 33 29 34 30 35
REMARK SMILES IDX 31 36 81 37 32 38 86 39 80 40 82 41 33 42 85 43 79 44 78 45
REMARK SMILES IDX 34 47 66 48 46 49 65 50 47 51 50 52 64 53 83 54 48 55 49 56
REMARK SMILES IDX 63 58 84 59 51 60 35 61 36 62 44 63 37 64 38 65 42 66 45 67
REMARK SMILES IDX 39 68 40 69 43 70 41 71 67 72 68 73 76 74 69 75 70 76 74 77
REMARK SMILES IDX 77 78 71 79 72 80 75 81 73 82 52 83 53 84 61 85 54 86 55 87
REMARK SMILES IDX 59 88 62 89 56 90 57 91 60 92 58 93
REMARK H PARENT 11 10 14 22 82 46 50 57
REMARK Flexibility Score: inf
ROOT
ATOM      1  C   UNL A   1      35.605  23.302  26.113  1.00  0.00     0.202 C 
ENDROOT
BRANCH   1   2
ATOM      2  C   UNL A   1      34.670  24.227  25.328  1.00  0.00     0.261 C 
BRANCH   2   3
ATOM      3  O   UNL A   1      34.107  25.263  26.150  1.00  0.00    -0.462 OA
BRANCH   3   4
ATOM      4  C   UNL A   1      33.263  26.095  25.482  1.00  0.00     0.331 C 
ATOM      5  O   UNL A   1      33.552  26.686  24.445  1.00  0.00    -0.250 OA
BRANCH   4   6
ATOM      6  C   UNL A   1      31.841  26.108  26.064  1.00  0.00     0.218 C 
BRANCH   6   7
ATOM      7  N   UNL A   1      31.379  24.972  26.874  1.00  0.00    -0.337 N 
ATOM      8  C   UNL A   1      30.924  23.715  26.549  1.00  0.00     0.253 C 
ATOM      9  O   UNL A   1      30.184  23.197  27.391  1.00  0.00    -0.269 OA
ATOM     10  H   UNL A   1      31.399  25.145  27.842  1.00  0.00     0.164 HD
BRANCH   8  11
ATOM     11  C   UNL A   1      31.372  22.862  25.391  1.00  0.00     0.059 A 
ATOM     12  C   UNL A   1      32.308  20.629  24.859  1.00  0.00     0.008 A 
ATOM     13  C   UNL A   1      32.528  21.032  23.550  1.00  0.00     0.016 A 
ATOM     14  C   UNL A   1      31.796  21.561  25.776  1.00  0.00     0.030 A 
ATOM     15  C   UNL A   1      32.065  22.274  23.130  1.00  0.00     0.022 A 
ATOM     16  C   UNL A   1      31.409  23.143  24.020  1.00  0.00     0.053 A 
ATOM     17  Cl  UNL A   1      30.478  24.350  23.214  1.00  0.00    -0.083 Cl
BRANCH  12  18
ATOM     18  S   UNL A   1      32.630  18.950  25.369  1.00  0.00    -0.130 SA
ATOM     19  C   UNL A   1      33.932  18.493  24.175  1.00  0.00     0.091 C 
ENDBRANCH  12  18
ENDBRANCH   8  11
ENDBRANCH   6   7
BRANCH   6  20
ATOM     20  C   UNL A   1      31.719  27.388  26.907  1.00  0.00     0.193 C 
BRANCH  20  21
ATOM     21  O   UNL A   1      32.980  28.066  26.973  1.00  0.00    -0.394 OA
ATOM     22  H   UNL A   1      33.568  27.725  26.280  1.00  0.00     0.210 HD
ENDBRANCH  20  21
ENDBRANCH   6  20
ENDBRANCH   4   6
ENDBRANCH   3   4
ENDBRANCH   2   3
ENDBRANCH   1   2
BRANCH   1  23
ATOM     23  O   UNL A   1      35.401  21.900  25.961  1.00  0.00    -0.374 OA
BRANCH  23  24
ATOM     24  C   UNL A   1      36.083  21.235  24.896  1.00  0.00     0.202 C 
BRANCH  24  25
ATOM     25  C   UNL A   1      37.415  20.543  25.224  1.00  0.00     0.261 C 
BRANCH  25  26
ATOM     26  O   UNL A   1      38.547  21.435  25.171  1.00  0.00    -0.460 OA
BRANCH  26  27
ATOM     27  C   UNL A   1      39.501  21.190  26.104  1.00  0.00     0.338 C 
ATOM     28  O   UNL A   1      40.113  20.152  26.285  1.00  0.00    -0.246 OA
BRANCH  27  29
ATOM     29  C   UNL A   1      39.862  22.429  26.817  1.00  0.00     0.060 A 
ATOM     30  C   UNL A   1      39.189  23.605  26.460  1.00  0.00     0.016 A 
ATOM     31  C   UNL A   1      40.943  22.471  27.698  1.00  0.00     0.016 A 
ATOM     32  C   UNL A   1      39.626  24.835  26.948  1.00  0.00     0.010 A 
ATOM     33  C   UNL A   1      41.389  23.708  28.179  1.00  0.00     0.010 A 
ATOM     34  C   UNL A   1      40.756  24.899  27.775  1.00  0.00    -0.014 A 
BRANCH  34  35
ATOM     35  C   UNL A   1      41.356  26.222  28.078  1.00  0.00     0.031 A 
ATOM     36  C   UNL A   1      42.750  26.523  27.597  1.00  0.00     0.074 A 
ATOM     37  C   UNL A   1      40.652  27.164  28.729  1.00  0.00     0.049 A 
ATOM     38  N   UNL A   1      43.457  27.617  27.727  1.00  0.00    -0.248 NA
ATOM     39  C   UNL A   1      43.437  25.445  26.867  1.00  0.00     0.031 C 
ATOM     40  C   UNL A   1      39.284  27.007  29.219  1.00  0.00     0.029 A 
ATOM     41  N   UNL A   1      40.995  28.443  29.089  1.00  0.00    -0.354 N 
ATOM     42  C   UNL A   1      44.668  27.361  27.097  1.00  0.00     0.074 A 
ATOM     43  C   UNL A   1      44.613  25.999  26.611  1.00  0.00     0.031 C 
ATOM     44  C   UNL A   1      38.906  28.147  29.824  1.00  0.00     0.029 A 
ATOM     45  C   UNL A   1      40.010  29.103  29.780  1.00  0.00     0.049 A 
ATOM     46  H   UNL A   1      41.867  28.849  28.873  1.00  0.00     0.167 HD
ATOM     47  C   UNL A   1      45.727  28.189  26.932  1.00  0.00     0.037 A 
ATOM     48  C   UNL A   1      40.006  30.336  30.323  1.00  0.00     0.037 A 
ATOM     49  C   UNL A   1      45.786  29.544  27.414  1.00  0.00     0.049 A 
ATOM     50  C   UNL A   1      41.217  31.220  30.168  1.00  0.00     0.074 A 
ATOM     51  C   UNL A   1      46.810  30.465  27.281  1.00  0.00     0.029 A 
ATOM     52  N   UNL A   1      44.777  30.167  28.133  1.00  0.00    -0.354 N 
ATOM     53  N   UNL A   1      42.344  30.980  29.544  1.00  0.00    -0.248 NA
ATOM     54  C   UNL A   1      41.149  32.551  30.789  1.00  0.00     0.031 C 
ATOM     55  C   UNL A   1      46.437  31.634  27.953  1.00  0.00     0.029 A 
ATOM     56  C   UNL A   1      45.163  31.456  28.467  1.00  0.00     0.049 A 
ATOM     57  H   UNL A   1      43.914  29.756  28.369  1.00  0.00     0.167 HD
ATOM     58  C   UNL A   1      43.106  32.135  29.673  1.00  0.00     0.074 A 
ATOM     59  C   UNL A   1      42.309  33.080  30.426  1.00  0.00     0.031 C 
ATOM     60  C   UNL A   1      44.354  32.388  29.209  1.00  0.00     0.037 A 
BRANCH  47  61
ATOM     61  C   UNL A   1      46.923  27.642  26.210  1.00  0.00     0.064 A 
ATOM     62  C   UNL A   1      47.037  27.719  24.814  1.00  0.00     0.173 A 
ATOM     63  C   UNL A   1      47.982  27.065  26.927  1.00  0.00     0.173 A 
ATOM     64  F   UNL A   1      46.045  28.251  24.085  1.00  0.00    -0.203 F 
ATOM     65  C   UNL A   1      48.159  27.217  24.159  1.00  0.00     0.198 A 
ATOM     66  C   UNL A   1      49.113  26.586  26.270  1.00  0.00     0.198 A 
ATOM     67  F   UNL A   1      47.923  26.971  28.263  1.00  0.00    -0.203 F 
ATOM     68  F   UNL A   1      48.230  27.265  22.822  1.00  0.00    -0.200 F 
ATOM     69  C   UNL A   1      49.197  26.656  24.888  1.00  0.00     0.200 A 
ATOM     70  F   UNL A   1      50.120  26.053  26.976  1.00  0.00    -0.200 F 
ATOM     71  F   UNL A   1      50.279  26.178  24.257  1.00  0.00    -0.200 F 
ENDBRANCH  47  61
BRANCH  48  72
ATOM     72  C   UNL A   1      38.813  30.811  31.068  1.00  0.00     0.064 A 
ATOM     73  C   UNL A   1      37.754  31.450  30.407  1.00  0.00     0.173 A 
ATOM     74  C   UNL A   1      38.717  30.653  32.458  1.00  0.00     0.173 A 
ATOM     75  F   UNL A   1      37.815  31.649  29.083  1.00  0.00    -0.203 F 
ATOM     76  C   UNL A   1      36.650  31.924  31.112  1.00  0.00     0.198 A 
ATOM     77  C   UNL A   1      37.601  31.105  33.158  1.00  0.00     0.198 A 
ATOM     78  F   UNL A   1      39.706  30.053  33.136  1.00  0.00    -0.203 F 
ATOM     79  F   UNL A   1      35.671  32.570  30.462  1.00  0.00    -0.200 F 
ATOM     80  C   UNL A   1      36.571  31.747  32.485  1.00  0.00     0.200 A 
ATOM     81  F   UNL A   1      37.525  30.926  34.483  1.00  0.00    -0.200 F 
ATOM     82  F   UNL A   1      35.508  32.204  33.162  1.00  0.00    -0.200 F 
ENDBRANCH  48  72
BRANCH  60  83
ATOM     83  C   UNL A   1      44.922  33.752  29.473  1.00  0.00     0.064 A 
ATOM     84  C   UNL A   1      44.705  34.822  28.592  1.00  0.00     0.173 A 
ATOM     85  C   UNL A   1      45.662  34.000  30.639  1.00  0.00     0.173 A 
ATOM     86  F   UNL A   1      44.016  34.632  27.458  1.00  0.00    -0.203 F 
ATOM     87  C   UNL A   1      45.230  36.084  28.858  1.00  0.00     0.198 A 
ATOM     88  C   UNL A   1      46.163  35.269  30.914  1.00  0.00     0.198 A 
ATOM     89  F   UNL A   1      45.893  33.012  31.517  1.00  0.00    -0.203 F 
ATOM     90  F   UNL A   1      45.048  37.081  27.981  1.00  0.00    -0.200 F 
ATOM     91  C   UNL A   1      45.953  36.308  30.020  1.00  0.00     0.200 A 
ATOM     92  F   UNL A   1      46.852  35.487  32.043  1.00  0.00    -0.200 F 
ATOM     93  F   UNL A   1      46.454  37.525  30.275  1.00  0.00    -0.200 F 
ENDBRANCH  60  83
ENDBRANCH  34  35
ENDBRANCH  27  29
ENDBRANCH  26  27
ENDBRANCH  25  26
ENDBRANCH  24  25
ENDBRANCH  23  24
ENDBRANCH   1  23
TORSDOF 19
ENDMDL
MODEL 2
REMARK VINA RESULT:     -10.4      4.200      9.682
REMARK SMILES CSc1ccc(Cl)c(C(=O)N[C@@H](CO)C(=O)OCCOCCOC(=O)c2ccc(-c3c4nc(c(-c5c(F)c(F)c(F)c(F)c5F)c5ccc([nH]5)c(-c5c(F)c(F)c(F)c(F)c5F)c5nc(c(-c6c(F)c(F)c(F)c(F)c6F)c6ccc3[nH]6)C=C5)C=C4)cc2)c1
REMARK SMILES IDX 19 1 18 2 17 3 15 4 16 5 12 6 11 7 9 8 10 9 8 11 3 12 4 13
REMARK SMILES IDX 89 14 5 15 6 16 7 17 2 18 1 19 13 20 14 21 20 23 21 24 22 25
REMARK SMILES IDX 23 26 24 27 25 28 26 29 27 30 88 31 28 32 87 33 29 34 30 35
REMARK SMILES IDX 31 36 81 37 32 38 86 39 80 40 82 41 33 42 85 43 79 44 78 45
REMARK SMILES IDX 34 47 66 48 46 49 65 50 47 51 50 52 64 53 83 54 48 55 49 56
REMARK SMILES IDX 63 58 84 59 51 60 35 61 36 62 44 63 37 64 38 65 42 66 45 67
REMARK SMILES IDX 39 68 40 69 43 70 41 71 67 72 68 73 76 74 69 75 70 76 74 77
REMARK SMILES IDX 77 78 71 79 72 80 75 81 73 82 52 83 53 84 61 85 54 86 55 87
REMARK SMILES IDX 59 88 62 89 56 90 57 91 60 92 58 93
REMARK H PARENT 11 10 14 22 82 46 50 57
REMARK Flexibility Score: inf
ROOT
ATOM      1  C   UNL A   1      32.298  28.688  26.982  1.00  0.00     0.202 C 
ENDROOT
BRANCH   1   2
ATOM      2  C   UNL A   1      31.636  27.928  25.829  1.00  0.00     0.261 C 
BRANCH   2   3
ATOM      3  O   UNL A   1      31.121  26.650  26.239  1.00  0.00    -0.462 OA
BRANCH   3   4
ATOM      4  C   UNL A   1      31.844  25.595  25.778  1.00  0.00     0.331 C 
ATOM      5  O   UNL A   1      33.023  25.391  26.054  1.00  0.00    -0.250 OA
BRANCH   4   6
ATOM      6  C   UNL A   1      30.998  24.579  24.993  1.00  0.00     0.218 C 
BRANCH   6   7
ATOM      7  N   UNL A   1      31.417  24.177  23.643  1.00  0.00    -0.337 N 
ATOM      8  C   UNL A   1      32.508  23.485  23.169  1.00  0.00     0.253 C 
ATOM      9  O   UNL A   1      32.805  23.727  21.995  1.00  0.00    -0.269 OA
ATOM     10  H   UNL A   1      30.793  24.459  22.937  1.00  0.00     0.164 HD
BRANCH   8  11
ATOM     11  C   UNL A   1      33.236  22.363  23.860  1.00  0.00     0.059 A 
ATOM     12  C   UNL A   1      33.125  19.919  24.263  1.00  0.00     0.008 A 
ATOM     13  C   UNL A   1      34.150  20.024  25.191  1.00  0.00     0.016 A 
ATOM     14  C   UNL A   1      32.638  21.089  23.658  1.00  0.00     0.030 A 
ATOM     15  C   UNL A   1      34.796  21.243  25.361  1.00  0.00     0.022 A 
ATOM     16  C   UNL A   1      34.404  22.380  24.632  1.00  0.00     0.053 A 
ATOM     17  Cl  UNL A   1      35.620  23.602  24.591  1.00  0.00    -0.083 Cl
BRANCH  12  18
ATOM     18  S   UNL A   1      32.457  18.328  23.809  1.00  0.00    -0.130 SA
ATOM     19  C   UNL A   1      32.905  17.356  25.286  1.00  0.00     0.091 C 
ENDBRANCH  12  18
ENDBRANCH   8  11
ENDBRANCH   6   7
BRANCH   6  20
ATOM     20  C   UNL A   1      30.896  23.318  25.867  1.00  0.00     0.193 C 
BRANCH  20  21
ATOM     21  O   UNL A   1      30.902  23.670  27.256  1.00  0.00    -0.394 OA
ATOM     22  H   UNL A   1      31.142  24.605  27.352  1.00  0.00     0.210 HD
ENDBRANCH  20  21
ENDBRANCH   6  20
ENDBRANCH   4   6
ENDBRANCH   3   4
ENDBRANCH   2   3
ENDBRANCH   1   2
BRANCH   1  23
ATOM     23  O   UNL A   1      31.723  29.942  27.342  1.00  0.00    -0.374 OA
BRANCH  23  24
ATOM     24  C   UNL A   1      31.774  31.001  26.385  1.00  0.00     0.202 C 
BRANCH  24  25
ATOM     25  C   UNL A   1      31.689  32.443  26.911  1.00  0.00     0.261 C 
BRANCH  25  26
ATOM     26  O   UNL A   1      32.936  33.159  26.807  1.00  0.00    -0.460 OA
BRANCH  26  27
ATOM     27  C   UNL A   1      33.464  33.547  27.995  1.00  0.00     0.338 C 
ATOM     28  O   UNL A   1      32.948  34.263  28.837  1.00  0.00    -0.246 OA
BRANCH  27  29
ATOM     29  C   UNL A   1      34.732  32.843  28.257  1.00  0.00     0.060 A 
ATOM     30  C   UNL A   1      34.663  31.497  28.637  1.00  0.00     0.016 A 
ATOM     31  C   UNL A   1      35.948  33.527  28.287  1.00  0.00     0.016 A 
ATOM     32  C   UNL A   1      35.804  30.840  29.093  1.00  0.00     0.010 A 
ATOM     33  C   UNL A   1      37.092  32.870  28.757  1.00  0.00     0.010 A 
ATOM     34  C   UNL A   1      37.017  31.535  29.198  1.00  0.00    -0.014 A 
BRANCH  34  35
ATOM     35  C   UNL A   1      38.152  30.905  29.918  1.00  0.00     0.031 A 
ATOM     36  C   UNL A   1      38.391  31.256  31.361  1.00  0.00     0.074 A 
ATOM     37  C   UNL A   1      38.930  29.992  29.310  1.00  0.00     0.049 A 
ATOM     38  N   UNL A   1      39.305  30.809  32.185  1.00  0.00    -0.248 NA
ATOM     39  C   UNL A   1      37.475  32.241  31.955  1.00  0.00     0.031 C 
ATOM     40  C   UNL A   1      38.782  29.544  27.927  1.00  0.00     0.029 A 
ATOM     41  N   UNL A   1      40.002  29.279  29.783  1.00  0.00    -0.354 N 
ATOM     42  C   UNL A   1      39.073  31.456  33.392  1.00  0.00     0.074 A 
ATOM     43  C   UNL A   1      37.953  32.348  33.187  1.00  0.00     0.031 C 
ATOM     44  C   UNL A   1      39.735  28.635  27.660  1.00  0.00     0.029 A 
ATOM     45  C   UNL A   1      40.569  28.452  28.846  1.00  0.00     0.049 A 
ATOM     46  H   UNL A   1      40.333  29.353  30.708  1.00  0.00     0.167 HD
ATOM     47  C   UNL A   1      39.730  31.312  34.568  1.00  0.00     0.037 A 
ATOM     48  C   UNL A   1      41.647  27.648  28.935  1.00  0.00     0.037 A 
ATOM     49  C   UNL A   1      40.844  30.426  34.777  1.00  0.00     0.049 A 
ATOM     50  C   UNL A   1      42.391  27.544  30.241  1.00  0.00     0.074 A 
ATOM     51  C   UNL A   1      41.564  30.200  35.938  1.00  0.00     0.029 A 
ATOM     52  N   UNL A   1      41.407  29.624  33.796  1.00  0.00    -0.354 N 
ATOM     53  N   UNL A   1      42.145  28.135  31.385  1.00  0.00    -0.248 NA
ATOM     54  C   UNL A   1      43.559  26.652  30.269  1.00  0.00     0.031 C 
ATOM     55  C   UNL A   1      42.587  29.292  35.649  1.00  0.00     0.029 A 
ATOM     56  C   UNL A   1      42.477  28.917  34.319  1.00  0.00     0.049 A 
ATOM     57  H   UNL A   1      41.091  29.565  32.865  1.00  0.00     0.167 HD
ATOM     58  C   UNL A   1      43.107  27.669  32.272  1.00  0.00     0.074 A 
ATOM     59  C   UNL A   1      43.935  26.737  31.537  1.00  0.00     0.031 C 
ATOM     60  C   UNL A   1      43.287  27.986  33.577  1.00  0.00     0.037 A 
BRANCH  47  61
ATOM     61  C   UNL A   1      39.267  32.151  35.722  1.00  0.00     0.064 A 
ATOM     62  C   UNL A   1      38.337  31.669  36.656  1.00  0.00     0.173 A 
ATOM     63  C   UNL A   1      39.785  33.441  35.916  1.00  0.00     0.173 A 
ATOM     64  F   UNL A   1      37.804  30.448  36.507  1.00  0.00    -0.203 F 
ATOM     65  C   UNL A   1      37.926  32.456  37.728  1.00  0.00     0.198 A 
ATOM     66  C   UNL A   1      39.390  34.216  37.003  1.00  0.00     0.198 A 
ATOM     67  F   UNL A   1      40.679  33.946  35.054  1.00  0.00    -0.203 F 
ATOM     68  F   UNL A   1      37.007  31.991  38.585  1.00  0.00    -0.200 F 
ATOM     69  C   UNL A   1      38.456  33.726  37.904  1.00  0.00     0.200 A 
ATOM     70  F   UNL A   1      39.910  35.439  37.177  1.00  0.00    -0.200 F 
ATOM     71  F   UNL A   1      38.063  34.480  38.940  1.00  0.00    -0.200 F 
ENDBRANCH  47  61
BRANCH  48  72
ATOM     72  C   UNL A   1      42.090  26.873  27.749  1.00  0.00     0.064 A 
ATOM     73  C   UNL A   1      41.611  25.578  27.509  1.00  0.00     0.173 A 
ATOM     74  C   UNL A   1      43.016  27.407  26.841  1.00  0.00     0.173 A 
ATOM     75  F   UNL A   1      40.747  25.015  28.365  1.00  0.00    -0.203 F 
ATOM     76  C   UNL A   1      42.053  24.840  26.413  1.00  0.00     0.198 A 
ATOM     77  C   UNL A   1      43.438  26.678  25.731  1.00  0.00     0.198 A 
ATOM     78  F   UNL A   1      43.507  28.641  27.029  1.00  0.00    -0.203 F 
ATOM     79  F   UNL A   1      41.613  23.587  26.230  1.00  0.00    -0.200 F 
ATOM     80  C   UNL A   1      42.961  25.393  25.522  1.00  0.00     0.200 A 
ATOM     81  F   UNL A   1      44.310  27.218  24.870  1.00  0.00    -0.200 F 
ATOM     82  F   UNL A   1      43.386  24.682  24.468  1.00  0.00    -0.200 F 
ENDBRANCH  48  72
BRANCH  60  83
ATOM     83  C   UNL A   1      44.402  27.294  34.305  1.00  0.00     0.064 A 
ATOM     84  C   UNL A   1      44.207  26.065  34.952  1.00  0.00     0.173 A 
ATOM     85  C   UNL A   1      45.690  27.850  34.325  1.00  0.00     0.173 A 
ATOM     86  F   UNL A   1      42.991  25.500  34.974  1.00  0.00    -0.203 F 
ATOM     87  C   UNL A   1      45.256  25.431  35.614  1.00  0.00     0.198 A 
ATOM     88  C   UNL A   1      46.742  27.200  34.965  1.00  0.00     0.198 A 
ATOM     89  F   UNL A   1      45.931  29.021  33.716  1.00  0.00    -0.203 F 
ATOM     90  F   UNL A   1      45.037  24.279  36.263  1.00  0.00    -0.200 F 
ATOM     91  C   UNL A   1      46.523  25.995  35.614  1.00  0.00     0.200 A 
ATOM     92  F   UNL A   1      47.969  27.742  34.955  1.00  0.00    -0.200 F 
ATOM     93  F   UNL A   1      47.532  25.381  36.248  1.00  0.00    -0.200 F 
ENDBRANCH  60  83
ENDBRANCH  34  35
ENDBRANCH  27  29
ENDBRANCH  26  27
ENDBRANCH  25  26
ENDBRANCH  24  25
ENDBRANCH  23  24
ENDBRANCH   1  23
TORSDOF 19
ENDMDL
MODEL 3
REMARK VINA RESULT:     -10.3      0.549      7.233
REMARK SMILES CSc1ccc(Cl)c(C(=O)N[C@@H](CO)C(=O)OCCOCCOC(=O)c2ccc(-c3c4nc(c(-c5c(F)c(F)c(F)c(F)c5F)c5ccc([nH]5)c(-c5c(F)c(F)c(F)c(F)c5F)c5nc(c(-c6c(F)c(F)c(F)c(F)c6F)c6ccc3[nH]6)C=C5)C=C4)cc2)c1
REMARK SMILES IDX 19 1 18 2 17 3 15 4 16 5 12 6 11 7 9 8 10 9 8 11 3 12 4 13
REMARK SMILES IDX 89 14 5 15 6 16 7 17 2 18 1 19 13 20 14 21 20 23 21 24 22 25
REMARK SMILES IDX 23 26 24 27 25 28 26 29 27 30 88 31 28 32 87 33 29 34 30 35
REMARK SMILES IDX 31 36 81 37 32 38 86 39 80 40 82 41 33 42 85 43 79 44 78 45
REMARK SMILES IDX 34 47 66 48 46 49 65 50 47 51 50 52 64 53 83 54 48 55 49 56
REMARK SMILES IDX 63 58 84 59 51 60 35 61 36 62 44 63 37 64 38 65 42 66 45 67
REMARK SMILES IDX 39 68 40 69 43 70 41 71 67 72 68 73 76 74 69 75 70 76 74 77
REMARK SMILES IDX 77 78 71 79 72 80 75 81 73 82 52 83 53 84 61 85 54 86 55 87
REMARK SMILES IDX 59 88 62 89 56 90 57 91 60 92 58 93
REMARK H PARENT 11 10 14 22 82 46 50 57
REMARK Flexibility Score: inf
ROOT
ATOM      1  C   UNL A   1      35.861  23.520  26.102  1.00  0.00     0.202 C 
ENDROOT
BRANCH   1   2
ATOM      2  C   UNL A   1      35.057  24.568  25.326  1.00  0.00     0.261 C 
BRANCH   2   3
ATOM      3  O   UNL A   1      34.116  25.265  26.159  1.00  0.00    -0.462 OA
BRANCH   3   4
ATOM      4  C   UNL A   1      33.270  26.077  25.471  1.00  0.00     0.331 C 
ATOM      5  O   UNL A   1      33.544  26.611  24.399  1.00  0.00    -0.250 OA
BRANCH   4   6
ATOM      6  C   UNL A   1      31.863  26.146  26.085  1.00  0.00     0.218 C 
BRANCH   6   7
ATOM      7  N   UNL A   1      31.352  25.002  26.853  1.00  0.00    -0.337 N 
ATOM      8  C   UNL A   1      30.886  23.761  26.485  1.00  0.00     0.253 C 
ATOM      9  O   UNL A   1      30.107  23.240  27.289  1.00  0.00    -0.269 OA
ATOM     10  H   UNL A   1      31.339  25.155  27.825  1.00  0.00     0.164 HD
BRANCH   8  11
ATOM     11  C   UNL A   1      31.362  22.924  25.327  1.00  0.00     0.059 A 
ATOM     12  C   UNL A   1      32.446  20.758  24.799  1.00  0.00     0.008 A 
ATOM     13  C   UNL A   1      32.594  21.154  23.477  1.00  0.00     0.016 A 
ATOM     14  C   UNL A   1      31.894  21.665  25.717  1.00  0.00     0.030 A 
ATOM     15  C   UNL A   1      32.027  22.350  23.054  1.00  0.00     0.022 A 
ATOM     16  C   UNL A   1      31.335  23.183  23.951  1.00  0.00     0.053 A 
ATOM     17  Cl  UNL A   1      30.292  24.303  23.157  1.00  0.00    -0.083 Cl
BRANCH  12  18
ATOM     18  S   UNL A   1      32.908  19.116  25.323  1.00  0.00    -0.130 SA
ATOM     19  C   UNL A   1      32.424  18.157  23.849  1.00  0.00     0.091 C 
ENDBRANCH  12  18
ENDBRANCH   8  11
ENDBRANCH   6   7
BRANCH   6  20
ATOM     20  C   UNL A   1      31.834  27.391  26.988  1.00  0.00     0.193 C 
BRANCH  20  21
ATOM     21  O   UNL A   1      31.713  28.579  26.197  1.00  0.00    -0.394 OA
ATOM     22  H   UNL A   1      30.939  28.506  25.616  1.00  0.00     0.210 HD
ENDBRANCH  20  21
ENDBRANCH   6  20
ENDBRANCH   4   6
ENDBRANCH   3   4
ENDBRANCH   2   3
ENDBRANCH   1   2
BRANCH   1  23
ATOM     23  O   UNL A   1      35.509  22.155  25.895  1.00  0.00    -0.374 OA
BRANCH  23  24
ATOM     24  C   UNL A   1      36.238  21.417  24.912  1.00  0.00     0.202 C 
BRANCH  24  25
ATOM     25  C   UNL A   1      37.439  20.586  25.390  1.00  0.00     0.261 C 
BRANCH  25  26
ATOM     26  O   UNL A   1      38.701  21.265  25.228  1.00  0.00    -0.460 OA
BRANCH  26  27
ATOM     27  C   UNL A   1      39.580  21.071  26.243  1.00  0.00     0.338 C 
ATOM     28  O   UNL A   1      40.101  20.022  26.582  1.00  0.00    -0.246 OA
BRANCH  27  29
ATOM     29  C   UNL A   1      39.992  22.359  26.830  1.00  0.00     0.060 A 
ATOM     30  C   UNL A   1      39.464  23.528  26.268  1.00  0.00     0.016 A 
ATOM     31  C   UNL A   1      40.994  22.427  27.798  1.00  0.00     0.016 A 
ATOM     32  C   UNL A   1      39.970  24.772  26.640  1.00  0.00     0.010 A 
ATOM     33  C   UNL A   1      41.510  23.677  28.164  1.00  0.00     0.010 A 
ATOM     34  C   UNL A   1      41.027  24.852  27.558  1.00  0.00    -0.014 A 
BRANCH  34  35
ATOM     35  C   UNL A   1      41.719  26.150  27.751  1.00  0.00     0.031 A 
ATOM     36  C   UNL A   1      41.026  27.245  28.517  1.00  0.00     0.074 A 
ATOM     37  C   UNL A   1      42.970  26.338  27.295  1.00  0.00     0.049 A 
ATOM     38  N   UNL A   1      41.451  28.444  28.823  1.00  0.00    -0.248 NA
ATOM     39  C   UNL A   1      39.670  26.944  29.004  1.00  0.00     0.031 C 
ATOM     40  C   UNL A   1      43.759  25.347  26.568  1.00  0.00     0.029 A 
ATOM     41  N   UNL A   1      43.794  27.431  27.380  1.00  0.00    -0.354 N 
ATOM     42  C   UNL A   1      40.421  29.039  29.539  1.00  0.00     0.074 A 
ATOM     43  C   UNL A   1      39.337  28.083  29.596  1.00  0.00     0.031 C 
ATOM     44  C   UNL A   1      44.955  25.881  26.264  1.00  0.00     0.029 A 
ATOM     45  C   UNL A   1      45.006  27.255  26.760  1.00  0.00     0.049 A 
ATOM     46  H   UNL A   1      43.540  28.264  27.842  1.00  0.00     0.167 HD
ATOM     47  C   UNL A   1      40.385  30.270  30.104  1.00  0.00     0.037 A 
ATOM     48  C   UNL A   1      46.034  28.112  26.603  1.00  0.00     0.037 A 
ATOM     49  C   UNL A   1      41.460  31.224  30.050  1.00  0.00     0.049 A 
ATOM     50  C   UNL A   1      45.949  29.493  27.200  1.00  0.00     0.074 A 
ATOM     51  C   UNL A   1      41.522  32.490  30.607  1.00  0.00     0.029 A 
ATOM     52  N   UNL A   1      42.662  31.018  29.390  1.00  0.00    -0.354 N 
ATOM     53  N   UNL A   1      44.984  30.035  27.901  1.00  0.00    -0.248 NA
ATOM     54  C   UNL A   1      47.103  30.379  26.987  1.00  0.00     0.031 C 
ATOM     55  C   UNL A   1      42.746  33.065  30.251  1.00  0.00     0.029 A 
ATOM     56  C   UNL A   1      43.465  32.142  29.509  1.00  0.00     0.049 A 
ATOM     57  H   UNL A   1      42.909  30.195  28.909  1.00  0.00     0.167 HD
ATOM     58  C   UNL A   1      45.422  31.310  28.236  1.00  0.00     0.074 A 
ATOM     59  C   UNL A   1      46.746  31.457  27.670  1.00  0.00     0.031 C 
ATOM     60  C   UNL A   1      44.784  32.270  28.947  1.00  0.00     0.037 A 
BRANCH  47  61
ATOM     61  C   UNL A   1      39.126  30.661  30.820  1.00  0.00     0.064 A 
ATOM     62  C   UNL A   1      38.028  31.201  30.134  1.00  0.00     0.173 A 
ATOM     63  C   UNL A   1      39.005  30.463  32.204  1.00  0.00     0.173 A 
ATOM     64  F   UNL A   1      38.100  31.421  28.813  1.00  0.00    -0.203 F 
ATOM     65  C   UNL A   1      36.862  31.549  30.812  1.00  0.00     0.198 A 
ATOM     66  C   UNL A   1      37.829  30.789  32.874  1.00  0.00     0.198 A 
ATOM     67  F   UNL A   1      40.025  29.946  32.905  1.00  0.00    -0.203 F 
ATOM     68  F   UNL A   1      35.840  32.100  30.143  1.00  0.00    -0.200 F 
ATOM     69  C   UNL A   1      36.762  31.338  32.179  1.00  0.00     0.200 A 
ATOM     70  F   UNL A   1      37.730  30.576  34.193  1.00  0.00    -0.200 F 
ATOM     71  F   UNL A   1      35.636  31.668  32.829  1.00  0.00    -0.200 F 
ENDBRANCH  47  61
BRANCH  48  72
ATOM     72  C   UNL A   1      47.239  27.688  25.846  1.00  0.00     0.064 A 
ATOM     73  C   UNL A   1      47.270  27.745  24.445  1.00  0.00     0.173 A 
ATOM     74  C   UNL A   1      48.376  27.202  26.507  1.00  0.00     0.173 A 
ATOM     75  F   UNL A   1      46.197  28.176  23.769  1.00  0.00    -0.203 F 
ATOM     76  C   UNL A   1      48.390  27.316  23.734  1.00  0.00     0.198 A 
ATOM     77  C   UNL A   1      49.504  26.797  25.796  1.00  0.00     0.198 A 
ATOM     78  F   UNL A   1      48.393  27.124  27.845  1.00  0.00    -0.203 F 
ATOM     79  F   UNL A   1      48.378  27.340  22.394  1.00  0.00    -0.200 F 
ATOM     80  C   UNL A   1      49.507  26.848  24.410  1.00  0.00     0.200 A 
ATOM     81  F   UNL A   1      50.583  26.352  26.452  1.00  0.00    -0.200 F 
ATOM     82  F   UNL A   1      50.583  26.437  23.725  1.00  0.00    -0.200 F 
ENDBRANCH  48  72
BRANCH  60  83
ATOM     83  C   UNL A   1      45.523  33.555  29.184  1.00  0.00     0.064 A 
ATOM     84  C   UNL A   1      45.401  34.646  28.311  1.00  0.00     0.173 A 
ATOM     85  C   UNL A   1      46.333  33.710  30.319  1.00  0.00     0.173 A 
ATOM     86  F   UNL A   1      44.649  34.543  27.205  1.00  0.00    -0.203 F 
ATOM     87  C   UNL A   1      46.084  35.835  28.552  1.00  0.00     0.198 A 
ATOM     88  C   UNL A   1      46.994  34.909  30.571  1.00  0.00     0.198 A 
ATOM     89  F   UNL A   1      46.479  32.699  31.190  1.00  0.00    -0.203 F 
ATOM     90  F   UNL A   1      45.988  36.849  27.680  1.00  0.00    -0.200 F 
ATOM     91  C   UNL A   1      46.875  35.968  29.684  1.00  0.00     0.200 A 
ATOM     92  F   UNL A   1      47.749  35.039  31.671  1.00  0.00    -0.200 F 
ATOM     93  F   UNL A   1      47.528  37.115  29.916  1.00  0.00    -0.200 F 
ENDBRANCH  60  83
ENDBRANCH  34  35
ENDBRANCH  27  29
ENDBRANCH  26  27
ENDBRANCH  25  26
ENDBRANCH  24  25
ENDBRANCH  23  24
ENDBRANCH   1  23
TORSDOF 19
ENDMDL
