MODEL 1
REMARK VINA RESULT:      -9.7      0.000      0.000
REMARK SMILES Cc1cc(C)c2c(c1)C=C(C(=O)OCCOCCOC(=O)c1ccc(-c3c4nc(c(-c5c(F)c(F)c(F)c(F)c5F)c5ccc([nH]5)c(-c5c(F)c(F)c(F)c(F)c5F)c5nc(c(-c6c(F)c(F)c(F)c(F)c6F)c6ccc3[nH]6)C=C5)C=C4)cc1)[C@@H](C(F)(F)F)O2
REMARK SMILES IDX 17 1 16 2 15 3 14 4 13 5 11 6 12 7 10 8 1 9 2 10 3 11 8 12
REMARK SMILES IDX 4 13 7 14 5 15 6 16 9 17 90 18 85 19 86 20 87 21 88 22 89 23
REMARK SMILES IDX 18 24 19 25 20 26 21 27 22 28 23 29 84 30 24 31 83 32 25 33
REMARK SMILES IDX 26 34 27 35 77 36 28 37 82 38 76 39 78 40 29 41 81 42 75 43
REMARK SMILES IDX 74 44 30 46 62 47 42 48 61 49 43 50 46 51 60 52 79 53 44 54
REMARK SMILES IDX 45 55 59 57 80 58 47 59 31 60 32 61 40 62 33 63 34 64 38 65
REMARK SMILES IDX 41 66 35 67 36 68 39 69 37 70 63 71 64 72 72 73 65 74 66 75
REMARK SMILES IDX 70 76 73 77 67 78 68 79 71 80 69 81 48 82 49 83 57 84 50 85
REMARK SMILES IDX 51 86 55 87 58 88 52 89 53 90 56 91 54 92
REMARK H PARENT 78 45 46 56
REMARK Flexibility Score: inf
ROOT
ATOM      1  C   UNL A   1      45.189  18.699  25.318  1.00  0.00     0.202 C 
ENDROOT
BRANCH   1   2
ATOM      2  O   UNL A   1      45.530  19.640  24.297  1.00  0.00    -0.374 OA
BRANCH   2   3
ATOM      3  C   UNL A   1      46.396  20.716  24.650  1.00  0.00     0.202 C 
BRANCH   3   4
ATOM      4  C   UNL A   1      45.750  21.898  25.378  1.00  0.00     0.261 C 
BRANCH   4   5
ATOM      5  O   UNL A   1      46.699  22.950  25.614  1.00  0.00    -0.460 OA
BRANCH   5   6
ATOM      6  C   UNL A   1      46.668  23.949  24.701  1.00  0.00     0.338 C 
ATOM      7  O   UNL A   1      46.871  23.848  23.502  1.00  0.00    -0.246 OA
BRANCH   6   8
ATOM      8  C   UNL A   1      46.232  25.203  25.342  1.00  0.00     0.087 C 
ATOM      9  C   UNL A   1      41.250  28.796  25.698  1.00  0.00     0.044 C 
ATOM     10  C   UNL A   1      42.677  28.392  25.919  1.00  0.00    -0.050 A 
ATOM     11  C   UNL A   1      43.585  29.287  26.498  1.00  0.00     0.010 A 
ATOM     12  C   UNL A   1      43.122  27.119  25.553  1.00  0.00     0.015 A 
ATOM     13  C   UNL A   1      44.926  28.925  26.709  1.00  0.00    -0.008 A 
ATOM     14  C   UNL A   1      44.459  26.752  25.740  1.00  0.00     0.018 A 
ATOM     15  C   UNL A   1      45.885  29.919  27.300  1.00  0.00     0.048 C 
ATOM     16  C   UNL A   1      45.356  27.643  26.335  1.00  0.00     0.130 A 
ATOM     17  C   UNL A   1      44.926  25.471  25.247  1.00  0.00     0.027 C 
ATOM     18  O   UNL A   1      46.662  27.323  26.588  1.00  0.00    -0.475 OA
ATOM     19  C   UNL A   1      47.224  26.109  26.015  1.00  0.00     0.316 C 
BRANCH  19  20
ATOM     20  C   UNL A   1      48.386  26.505  25.093  1.00  0.00     0.430 C 
ATOM     21  F   UNL A   1      48.950  27.672  25.489  1.00  0.00    -0.167 F 
ATOM     22  F   UNL A   1      49.374  25.580  25.106  1.00  0.00    -0.167 F 
ATOM     23  F   UNL A   1      47.992  26.660  23.809  1.00  0.00    -0.167 F 
ENDBRANCH  19  20
ENDBRANCH   6   8
ENDBRANCH   5   6
ENDBRANCH   4   5
ENDBRANCH   3   4
ENDBRANCH   2   3
ENDBRANCH   1   2
BRANCH   1  24
ATOM     24  C   UNL A   1      43.718  18.650  25.744  1.00  0.00     0.261 C 
BRANCH  24  25
ATOM     25  O   UNL A   1      43.000  19.829  25.331  1.00  0.00    -0.460 OA
BRANCH  25  26
ATOM     26  C   UNL A   1      41.806  20.007  25.942  1.00  0.00     0.338 C 
ATOM     27  O   UNL A   1      40.909  19.189  26.079  1.00  0.00    -0.246 OA
BRANCH  26  28
ATOM     28  C   UNL A   1      41.771  21.319  26.612  1.00  0.00     0.060 A 
ATOM     29  C   UNL A   1      41.948  22.457  25.814  1.00  0.00     0.016 A 
ATOM     30  C   UNL A   1      41.679  21.428  28.000  1.00  0.00     0.016 A 
ATOM     31  C   UNL A   1      42.094  23.707  26.408  1.00  0.00     0.010 A 
ATOM     32  C   UNL A   1      41.842  22.682  28.597  1.00  0.00     0.010 A 
ATOM     33  C   UNL A   1      42.093  23.818  27.804  1.00  0.00    -0.014 A 
BRANCH  33  34
ATOM     34  C   UNL A   1      42.547  25.082  28.432  1.00  0.00     0.031 A 
ATOM     35  C   UNL A   1      41.541  26.175  28.657  1.00  0.00     0.074 A 
ATOM     36  C   UNL A   1      43.816  25.235  28.843  1.00  0.00     0.049 A 
ATOM     37  N   UNL A   1      41.711  27.373  29.154  1.00  0.00    -0.248 NA
ATOM     38  C   UNL A   1      40.150  25.875  28.273  1.00  0.00     0.031 C 
ATOM     39  C   UNL A   1      44.865  24.221  28.743  1.00  0.00     0.029 A 
ATOM     40  N   UNL A   1      44.437  26.306  29.433  1.00  0.00    -0.354 N 
ATOM     41  C   UNL A   1      40.455  27.965  29.147  1.00  0.00     0.074 A 
ATOM     42  C   UNL A   1      39.535  27.010  28.569  1.00  0.00     0.031 C 
ATOM     43  C   UNL A   1      46.003  24.722  29.252  1.00  0.00     0.029 A 
ATOM     44  C   UNL A   1      45.771  26.100  29.682  1.00  0.00     0.049 A 
ATOM     45  H   UNL A   1      43.970  27.144  29.657  1.00  0.00     0.167 HD
ATOM     46  C   UNL A   1      40.099  29.193  29.594  1.00  0.00     0.037 A 
ATOM     47  C   UNL A   1      46.699  26.939  30.182  1.00  0.00     0.037 A 
ATOM     48  C   UNL A   1      41.015  30.145  30.163  1.00  0.00     0.049 A 
ATOM     49  C   UNL A   1      46.299  28.338  30.574  1.00  0.00     0.074 A 
ATOM     50  C   UNL A   1      40.752  31.417  30.637  1.00  0.00     0.029 A 
ATOM     51  N   UNL A   1      42.374  29.926  30.331  1.00  0.00    -0.354 N 
ATOM     52  N   UNL A   1      45.113  28.895  30.554  1.00  0.00    -0.248 NA
ATOM     53  C   UNL A   1      47.370  29.225  31.049  1.00  0.00     0.031 C 
ATOM     54  C   UNL A   1      41.960  31.985  31.053  1.00  0.00     0.029 A 
ATOM     55  C   UNL A   1      42.968  31.050  30.880  1.00  0.00     0.049 A 
ATOM     56  H   UNL A   1      42.846  29.095  30.095  1.00  0.00     0.167 HD
ATOM     57  C   UNL A   1      45.289  30.190  31.027  1.00  0.00     0.074 A 
ATOM     58  C   UNL A   1      46.696  30.330  31.343  1.00  0.00     0.031 C 
ATOM     59  C   UNL A   1      44.370  31.174  31.183  1.00  0.00     0.037 A 
BRANCH  46  60
ATOM     60  C   UNL A   1      38.658  29.584  29.469  1.00  0.00     0.064 A 
ATOM     61  C   UNL A   1      37.842  29.747  30.599  1.00  0.00     0.173 A 
ATOM     62  C   UNL A   1      38.097  29.845  28.210  1.00  0.00     0.173 A 
ATOM     63  F   UNL A   1      38.328  29.494  31.824  1.00  0.00    -0.203 F 
ATOM     64  C   UNL A   1      36.514  30.143  30.471  1.00  0.00     0.198 A 
ATOM     65  C   UNL A   1      36.775  30.264  28.088  1.00  0.00     0.198 A 
ATOM     66  F   UNL A   1      38.835  29.704  27.100  1.00  0.00    -0.203 F 
ATOM     67  F   UNL A   1      35.743  30.259  31.561  1.00  0.00    -0.200 F 
ATOM     68  C   UNL A   1      35.984  30.409  29.217  1.00  0.00     0.200 A 
ATOM     69  F   UNL A   1      36.268  30.530  26.876  1.00  0.00    -0.200 F 
ATOM     70  F   UNL A   1      34.708  30.800  29.097  1.00  0.00    -0.200 F 
ENDBRANCH  46  60
BRANCH  47  71
ATOM     71  C   UNL A   1      48.104  26.482  30.331  1.00  0.00     0.064 A 
ATOM     72  C   UNL A   1      48.481  25.641  31.388  1.00  0.00     0.173 A 
ATOM     73  C   UNL A   1      49.099  26.876  29.425  1.00  0.00     0.173 A 
ATOM     74  F   UNL A   1      47.571  25.260  32.297  1.00  0.00    -0.203 F 
ATOM     75  C   UNL A   1      49.800  25.218  31.534  1.00  0.00     0.198 A 
ATOM     76  C   UNL A   1      50.413  26.433  29.558  1.00  0.00     0.198 A 
ATOM     77  F   UNL A   1      48.790  27.686  28.400  1.00  0.00    -0.203 F 
ATOM     78  F   UNL A   1      50.141  24.444  32.574  1.00  0.00    -0.200 F 
ATOM     79  C   UNL A   1      50.763  25.608  30.616  1.00  0.00     0.200 A 
ATOM     80  F   UNL A   1      51.338  26.807  28.664  1.00  0.00    -0.200 F 
ATOM     81  F   UNL A   1      52.031  25.196  30.754  1.00  0.00    -0.200 F 
ENDBRANCH  47  71
BRANCH  59  82
ATOM     82  C   UNL A   1      44.848  32.489  31.724  1.00  0.00     0.064 A 
ATOM     83  C   UNL A   1      45.228  33.535  30.872  1.00  0.00     0.173 A 
ATOM     84  C   UNL A   1      44.863  32.728  33.107  1.00  0.00     0.173 A 
ATOM     85  F   UNL A   1      45.243  33.351  29.543  1.00  0.00    -0.203 F 
ATOM     86  C   UNL A   1      45.621  34.770  31.383  1.00  0.00     0.198 A 
ATOM     87  C   UNL A   1      45.229  33.972  33.614  1.00  0.00     0.198 A 
ATOM     88  F   UNL A   1      44.500  31.763  33.964  1.00  0.00    -0.203 F 
ATOM     89  F   UNL A   1      46.012  35.744  30.552  1.00  0.00    -0.200 F 
ATOM     90  C   UNL A   1      45.613  34.990  32.753  1.00  0.00     0.200 A 
ATOM     91  F   UNL A   1      45.208  34.188  34.937  1.00  0.00    -0.200 F 
ATOM     92  F   UNL A   1      45.978  36.182  33.243  1.00  0.00    -0.200 F 
ENDBRANCH  59  82
ENDBRANCH  33  34
ENDBRANCH  26  28
ENDBRANCH  25  26
ENDBRANCH  24  25
ENDBRANCH   1  24
TORSDOF 15
ENDMDL
MODEL 2
REMARK VINA RESULT:      -9.5      4.124      7.615
REMARK SMILES Cc1cc(C)c2c(c1)C=C(C(=O)OCCOCCOC(=O)c1ccc(-c3c4nc(c(-c5c(F)c(F)c(F)c(F)c5F)c5ccc([nH]5)c(-c5c(F)c(F)c(F)c(F)c5F)c5nc(c(-c6c(F)c(F)c(F)c(F)c6F)c6ccc3[nH]6)C=C5)C=C4)cc1)[C@@H](C(F)(F)F)O2
REMARK SMILES IDX 17 1 16 2 15 3 14 4 13 5 11 6 12 7 10 8 1 9 2 10 3 11 8 12
REMARK SMILES IDX 4 13 7 14 5 15 6 16 9 17 90 18 85 19 86 20 87 21 88 22 89 23
REMARK SMILES IDX 18 24 19 25 20 26 21 27 22 28 23 29 84 30 24 31 83 32 25 33
REMARK SMILES IDX 26 34 27 35 77 36 28 37 82 38 76 39 78 40 29 41 81 42 75 43
REMARK SMILES IDX 74 44 30 46 62 47 42 48 61 49 43 50 46 51 60 52 79 53 44 54
REMARK SMILES IDX 45 55 59 57 80 58 47 59 31 60 32 61 40 62 33 63 34 64 38 65
REMARK SMILES IDX 41 66 35 67 36 68 39 69 37 70 63 71 64 72 72 73 65 74 66 75
REMARK SMILES IDX 70 76 73 77 67 78 68 79 71 80 69 81 48 82 49 83 57 84 50 85
REMARK SMILES IDX 51 86 55 87 58 88 52 89 53 90 56 91 54 92
REMARK H PARENT 78 45 46 56
REMARK Flexibility Score: inf
ROOT
ATOM      1  C   UNL A   1      35.854  20.454  25.008  1.00  0.00     0.202 C 
ENDROOT
BRANCH   1   2
ATOM      2  O   UNL A   1      35.358  21.311  26.039  1.00  0.00    -0.374 OA
BRANCH   2   3
ATOM      3  C   UNL A   1      34.008  21.128  26.459  1.00  0.00     0.202 C 
BRANCH   3   4
ATOM      4  C   UNL A   1      32.976  22.097  25.875  1.00  0.00     0.261 C 
BRANCH   4   5
ATOM      5  O   UNL A   1      33.508  23.427  25.768  1.00  0.00    -0.460 OA
BRANCH   5   6
ATOM      6  C   UNL A   1      33.577  23.903  24.503  1.00  0.00     0.338 C 
ATOM      7  O   UNL A   1      33.875  23.274  23.500  1.00  0.00    -0.246 OA
BRANCH   6   8
ATOM      8  C   UNL A   1      33.120  25.304  24.466  1.00  0.00     0.087 C 
ATOM      9  C   UNL A   1      34.048  30.614  27.434  1.00  0.00     0.044 C 
ATOM     10  C   UNL A   1      33.408  29.675  26.455  1.00  0.00    -0.050 A 
ATOM     11  C   UNL A   1      32.278  30.071  25.730  1.00  0.00     0.010 A 
ATOM     12  C   UNL A   1      33.928  28.393  26.253  1.00  0.00     0.015 A 
ATOM     13  C   UNL A   1      31.664  29.202  24.812  1.00  0.00    -0.008 A 
ATOM     14  C   UNL A   1      33.315  27.511  25.356  1.00  0.00     0.018 A 
ATOM     15  C   UNL A   1      30.432  29.643  24.074  1.00  0.00     0.048 C 
ATOM     16  C   UNL A   1      32.199  27.919  24.622  1.00  0.00     0.130 A 
ATOM     17  C   UNL A   1      33.800  26.149  25.248  1.00  0.00     0.027 C 
ATOM     18  O   UNL A   1      31.588  27.118  23.695  1.00  0.00    -0.475 OA
ATOM     19  C   UNL A   1      31.945  25.709  23.623  1.00  0.00     0.316 C 
BRANCH  19  20
ATOM     20  C   UNL A   1      30.687  24.879  23.920  1.00  0.00     0.430 C 
ATOM     21  F   UNL A   1      30.611  24.557  25.234  1.00  0.00    -0.167 F 
ATOM     22  F   UNL A   1      29.555  25.562  23.627  1.00  0.00    -0.167 F 
ATOM     23  F   UNL A   1      30.658  23.725  23.216  1.00  0.00    -0.167 F 
ENDBRANCH  19  20
ENDBRANCH   6   8
ENDBRANCH   5   6
ENDBRANCH   4   5
ENDBRANCH   3   4
ENDBRANCH   2   3
ENDBRANCH   1   2
BRANCH   1  24
ATOM     24  C   UNL A   1      37.366  20.206  24.988  1.00  0.00     0.261 C 
BRANCH  24  25
ATOM     25  O   UNL A   1      38.108  21.386  25.351  1.00  0.00    -0.460 OA
BRANCH  25  26
ATOM     26  C   UNL A   1      39.217  21.151  26.090  1.00  0.00     0.338 C 
ATOM     27  O   UNL A   1      39.869  20.120  26.150  1.00  0.00    -0.246 OA
BRANCH  26  28
ATOM     28  C   UNL A   1      39.678  22.400  26.722  1.00  0.00     0.060 A 
ATOM     29  C   UNL A   1      39.093  23.597  26.292  1.00  0.00     0.016 A 
ATOM     30  C   UNL A   1      40.737  22.409  27.632  1.00  0.00     0.016 A 
ATOM     31  C   UNL A   1      39.603  24.817  26.726  1.00  0.00     0.010 A 
ATOM     32  C   UNL A   1      41.260  23.636  28.055  1.00  0.00     0.010 A 
ATOM     33  C   UNL A   1      40.721  24.842  27.569  1.00  0.00    -0.014 A 
BRANCH  33  34
ATOM     34  C   UNL A   1      41.441  26.121  27.781  1.00  0.00     0.031 A 
ATOM     35  C   UNL A   1      40.747  27.220  28.536  1.00  0.00     0.074 A 
ATOM     36  C   UNL A   1      42.706  26.283  27.359  1.00  0.00     0.049 A 
ATOM     37  N   UNL A   1      41.161  28.429  28.812  1.00  0.00    -0.248 NA
ATOM     38  C   UNL A   1      39.404  26.911  29.055  1.00  0.00     0.031 C 
ATOM     39  C   UNL A   1      43.505  25.267  26.677  1.00  0.00     0.029 A 
ATOM     40  N   UNL A   1      43.540  27.368  27.446  1.00  0.00    -0.354 N 
ATOM     41  C   UNL A   1      40.136  29.022  29.539  1.00  0.00     0.074 A 
ATOM     42  C   UNL A   1      39.067  28.052  29.635  1.00  0.00     0.031 C 
ATOM     43  C   UNL A   1      44.717  25.779  26.404  1.00  0.00     0.029 A 
ATOM     44  C   UNL A   1      44.765  27.168  26.861  1.00  0.00     0.049 A 
ATOM     45  H   UNL A   1      43.284  28.211  27.886  1.00  0.00     0.167 HD
ATOM     46  C   UNL A   1      40.097  30.260  30.085  1.00  0.00     0.037 A 
ATOM     47  C   UNL A   1      45.797  28.018  26.699  1.00  0.00     0.037 A 
ATOM     48  C   UNL A   1      41.159  31.224  29.983  1.00  0.00     0.049 A 
ATOM     49  C   UNL A   1      45.687  29.426  27.223  1.00  0.00     0.074 A 
ATOM     50  C   UNL A   1      41.209  32.508  30.496  1.00  0.00     0.029 A 
ATOM     51  N   UNL A   1      42.357  31.009  29.319  1.00  0.00    -0.354 N 
ATOM     52  N   UNL A   1      44.711  29.984  27.898  1.00  0.00    -0.248 NA
ATOM     53  C   UNL A   1      46.819  30.325  26.956  1.00  0.00     0.031 C 
ATOM     54  C   UNL A   1      42.421  33.086  30.105  1.00  0.00     0.029 A 
ATOM     55  C   UNL A   1      43.144  32.146  29.387  1.00  0.00     0.049 A 
ATOM     56  H   UNL A   1      42.610  30.172  28.866  1.00  0.00     0.167 HD
ATOM     57  C   UNL A   1      45.115  31.289  28.150  1.00  0.00     0.074 A 
ATOM     58  C   UNL A   1      46.434  31.436  27.569  1.00  0.00     0.031 C 
ATOM     59  C   UNL A   1      44.453  32.277  28.800  1.00  0.00     0.037 A 
BRANCH  46  60
ATOM     60  C   UNL A   1      38.856  30.648  30.830  1.00  0.00     0.064 A 
ATOM     61  C   UNL A   1      38.768  30.525  32.224  1.00  0.00     0.173 A 
ATOM     62  C   UNL A   1      37.758  31.194  30.148  1.00  0.00     0.173 A 
ATOM     63  F   UNL A   1      39.786  29.994  32.919  1.00  0.00    -0.203 F 
ATOM     64  C   UNL A   1      37.622  30.920  32.907  1.00  0.00     0.198 A 
ATOM     65  C   UNL A   1      36.622  31.611  30.836  1.00  0.00     0.198 A 
ATOM     66  F   UNL A   1      37.792  31.333  28.814  1.00  0.00    -0.203 F 
ATOM     67  F   UNL A   1      37.547  30.762  34.236  1.00  0.00    -0.200 F 
ATOM     68  C   UNL A   1      36.554  31.470  32.214  1.00  0.00     0.200 A 
ATOM     69  F   UNL A   1      35.595  32.150  30.166  1.00  0.00    -0.200 F 
ATOM     70  F   UNL A   1      35.455  31.860  32.875  1.00  0.00    -0.200 F 
ENDBRANCH  46  60
BRANCH  47  71
ATOM     71  C   UNL A   1      47.025  27.564  25.996  1.00  0.00     0.064 A 
ATOM     72  C   UNL A   1      48.112  27.041  26.710  1.00  0.00     0.173 A 
ATOM     73  C   UNL A   1      47.138  27.646  24.601  1.00  0.00     0.173 A 
ATOM     74  F   UNL A   1      48.063  26.971  28.048  1.00  0.00    -0.203 F 
ATOM     75  C   UNL A   1      49.268  26.623  26.054  1.00  0.00     0.198 A 
ATOM     76  C   UNL A   1      48.285  27.204  23.944  1.00  0.00     0.198 A 
ATOM     77  F   UNL A   1      46.127  28.146  23.874  1.00  0.00    -0.203 F 
ATOM     78  F   UNL A   1      50.308  26.161  26.763  1.00  0.00    -0.200 F 
ATOM     79  C   UNL A   1      49.350  26.698  24.672  1.00  0.00     0.200 A 
ATOM     80  F   UNL A   1      48.357  27.272  22.607  1.00  0.00    -0.200 F 
ATOM     81  F   UNL A   1      50.460  26.290  24.041  1.00  0.00    -0.200 F 
ENDBRANCH  47  71
BRANCH  59  82
ATOM     82  C   UNL A   1      45.140  33.605  28.927  1.00  0.00     0.064 A 
ATOM     83  C   UNL A   1      46.039  33.865  29.971  1.00  0.00     0.173 A 
ATOM     84  C   UNL A   1      44.948  34.603  27.959  1.00  0.00     0.173 A 
ATOM     85  F   UNL A   1      46.246  32.947  30.927  1.00  0.00    -0.203 F 
ATOM     86  C   UNL A   1      46.711  35.082  30.051  1.00  0.00     0.198 A 
ATOM     87  C   UNL A   1      45.642  35.808  28.027  1.00  0.00     0.198 A 
ATOM     88  F   UNL A   1      44.105  34.400  26.937  1.00  0.00    -0.203 F 
ATOM     89  F   UNL A   1      47.540  35.321  31.075  1.00  0.00    -0.200 F 
ATOM     90  C   UNL A   1      46.519  36.049  29.075  1.00  0.00     0.200 A 
ATOM     91  F   UNL A   1      45.466  36.735  27.075  1.00  0.00    -0.200 F 
ATOM     92  F   UNL A   1      47.177  37.214  29.145  1.00  0.00    -0.200 F 
ENDBRANCH  59  82
ENDBRANCH  33  34
ENDBRANCH  26  28
ENDBRANCH  25  26
ENDBRANCH  24  25
ENDBRANCH   1  24
TORSDOF 15
ENDMDL
MODEL 3
REMARK VINA RESULT:      -9.4      4.509      7.920
REMARK SMILES Cc1cc(C)c2c(c1)C=C(C(=O)OCCOCCOC(=O)c1ccc(-c3c4nc(c(-c5c(F)c(F)c(F)c(F)c5F)c5ccc([nH]5)c(-c5c(F)c(F)c(F)c(F)c5F)c5nc(c(-c6c(F)c(F)c(F)c(F)c6F)c6ccc3[nH]6)C=C5)C=C4)cc1)[C@@H](C(F)(F)F)O2
REMARK SMILES IDX 17 1 16 2 15 3 14 4 13 5 11 6 12 7 10 8 1 9 2 10 3 11 8 12
REMARK SMILES IDX 4 13 7 14 5 15 6 16 9 17 90 18 85 19 86 20 87 21 88 22 89 23
REMARK SMILES IDX 18 24 19 25 20 26 21 27 22 28 23 29 84 30 24 31 83 32 25 33
REMARK SMILES IDX 26 34 27 35 77 36 28 37 82 38 76 39 78 40 29 41 81 42 75 43
REMARK SMILES IDX 74 44 30 46 62 47 42 48 61 49 43 50 46 51 60 52 79 53 44 54
REMARK SMILES IDX 45 55 59 57 80 58 47 59 31 60 32 61 40 62 33 63 34 64 38 65
REMARK SMILES IDX 41 66 35 67 36 68 39 69 37 70 63 71 64 72 72 73 65 74 66 75
REMARK SMILES IDX 70 76 73 77 67 78 68 79 71 80 69 81 48 82 49 83 57 84 50 85
REMARK SMILES IDX 51 86 55 87 58 88 52 89 53 90 56 91 54 92
REMARK H PARENT 78 45 46 56
REMARK Flexibility Score: inf
ROOT
ATOM      1  C   UNL A   1      35.655  21.600  25.010  1.00  0.00     0.202 C 
ENDROOT
BRANCH   1   2
ATOM      2  O   UNL A   1      34.426  20.930  25.301  1.00  0.00    -0.374 OA
BRANCH   2   3
ATOM      3  C   UNL A   1      33.283  21.277  24.523  1.00  0.00     0.202 C 
BRANCH   3   4
ATOM      4  C   UNL A   1      31.953  21.378  25.275  1.00  0.00     0.261 C 
BRANCH   4   5
ATOM      5  O   UNL A   1      31.307  22.637  25.031  1.00  0.00    -0.460 OA
BRANCH   5   6
ATOM      6  C   UNL A   1      31.056  23.364  26.145  1.00  0.00     0.338 C 
ATOM      7  O   UNL A   1      30.861  22.933  27.270  1.00  0.00    -0.246 OA
BRANCH   6   8
ATOM      8  C   UNL A   1      31.163  24.803  25.842  1.00  0.00     0.087 C 
ATOM      9  C   UNL A   1      28.399  29.080  22.388  1.00  0.00     0.044 C 
ATOM     10  C   UNL A   1      29.433  28.512  23.315  1.00  0.00    -0.050 A 
ATOM     11  C   UNL A   1      30.561  29.266  23.663  1.00  0.00     0.010 A 
ATOM     12  C   UNL A   1      29.288  27.226  23.842  1.00  0.00     0.015 A 
ATOM     13  C   UNL A   1      31.541  28.747  24.527  1.00  0.00    -0.008 A 
ATOM     14  C   UNL A   1      30.266  26.691  24.687  1.00  0.00     0.018 A 
ATOM     15  C   UNL A   1      32.757  29.566  24.855  1.00  0.00     0.048 C 
ATOM     16  C   UNL A   1      31.379  27.454  25.047  1.00  0.00     0.130 A 
ATOM     17  C   UNL A   1      30.153  25.314  25.129  1.00  0.00     0.027 C 
ATOM     18  O   UNL A   1      32.342  27.002  25.908  1.00  0.00    -0.475 OA
ATOM     19  C   UNL A   1      32.355  25.598  26.292  1.00  0.00     0.316 C 
BRANCH  19  20
ATOM     20  C   UNL A   1      33.685  24.986  25.828  1.00  0.00     0.430 C 
ATOM     21  F   UNL A   1      33.597  24.526  24.556  1.00  0.00    -0.167 F 
ATOM     22  F   UNL A   1      34.686  25.897  25.837  1.00  0.00    -0.167 F 
ATOM     23  F   UNL A   1      34.072  23.952  26.609  1.00  0.00    -0.167 F 
ENDBRANCH  19  20
ENDBRANCH   6   8
ENDBRANCH   5   6
ENDBRANCH   4   5
ENDBRANCH   3   4
ENDBRANCH   2   3
ENDBRANCH   1   2
BRANCH   1  24
ATOM     24  C   UNL A   1      36.935  20.762  25.106  1.00  0.00     0.261 C 
BRANCH  24  25
ATOM     25  O   UNL A   1      38.118  21.580  25.036  1.00  0.00    -0.460 OA
BRANCH  25  26
ATOM     26  C   UNL A   1      39.066  21.284  25.956  1.00  0.00     0.338 C 
ATOM     27  O   UNL A   1      39.590  20.200  26.163  1.00  0.00    -0.246 OA
BRANCH  26  28
ATOM     28  C   UNL A   1      39.545  22.517  26.604  1.00  0.00     0.060 A 
ATOM     29  C   UNL A   1      39.021  23.733  26.148  1.00  0.00     0.016 A 
ATOM     30  C   UNL A   1      40.564  22.491  27.558  1.00  0.00     0.016 A 
ATOM     31  C   UNL A   1      39.557  24.935  26.602  1.00  0.00     0.010 A 
ATOM     32  C   UNL A   1      41.113  23.699  28.000  1.00  0.00     0.010 A 
ATOM     33  C   UNL A   1      40.639  24.923  27.491  1.00  0.00    -0.014 A 
BRANCH  33  34
ATOM     34  C   UNL A   1      41.395  26.175  27.731  1.00  0.00     0.031 A 
ATOM     35  C   UNL A   1      40.729  27.281  28.499  1.00  0.00     0.074 A 
ATOM     36  C   UNL A   1      42.668  26.306  27.321  1.00  0.00     0.049 A 
ATOM     37  N   UNL A   1      41.177  28.473  28.800  1.00  0.00    -0.248 NA
ATOM     38  C   UNL A   1      39.372  27.004  29.002  1.00  0.00     0.031 C 
ATOM     39  C   UNL A   1      43.442  25.279  26.628  1.00  0.00     0.029 A 
ATOM     40  N   UNL A   1      43.533  27.364  27.433  1.00  0.00    -0.354 N 
ATOM     41  C   UNL A   1      40.164  29.083  29.528  1.00  0.00     0.074 A 
ATOM     42  C   UNL A   1      39.065  28.145  29.599  1.00  0.00     0.031 C 
ATOM     43  C   UNL A   1      44.671  25.758  26.374  1.00  0.00     0.029 A 
ATOM     44  C   UNL A   1      44.757  27.137  26.856  1.00  0.00     0.049 A 
ATOM     45  H   UNL A   1      43.300  28.206  27.887  1.00  0.00     0.167 HD
ATOM     46  C   UNL A   1      40.157  30.312  30.096  1.00  0.00     0.037 A 
ATOM     47  C   UNL A   1      45.816  27.958  26.716  1.00  0.00     0.037 A 
ATOM     48  C   UNL A   1      41.248  31.246  30.019  1.00  0.00     0.049 A 
ATOM     49  C   UNL A   1      45.744  29.360  27.264  1.00  0.00     0.074 A 
ATOM     50  C   UNL A   1      41.333  32.519  30.555  1.00  0.00     0.029 A 
ATOM     51  N   UNL A   1      42.445  31.007  29.360  1.00  0.00    -0.354 N 
ATOM     52  N   UNL A   1      44.779  29.935  27.941  1.00  0.00    -0.248 NA
ATOM     53  C   UNL A   1      46.904  30.228  27.021  1.00  0.00     0.031 C 
ATOM     54  C   UNL A   1      42.565  33.066  30.183  1.00  0.00     0.029 A 
ATOM     55  C   UNL A   1      43.266  32.118  29.455  1.00  0.00     0.049 A 
ATOM     56  H   UNL A   1      42.676  30.170  28.895  1.00  0.00     0.167 HD
ATOM     57  C   UNL A   1      45.220  31.223  28.218  1.00  0.00     0.074 A 
ATOM     58  C   UNL A   1      46.547  31.340  27.650  1.00  0.00     0.031 C 
ATOM     59  C   UNL A   1      44.582  32.219  28.880  1.00  0.00     0.037 A 
BRANCH  46  60
ATOM     60  C   UNL A   1      38.922  30.726  30.837  1.00  0.00     0.064 A 
ATOM     61  C   UNL A   1      37.815  31.269  30.170  1.00  0.00     0.173 A 
ATOM     62  C   UNL A   1      38.826  30.534  32.223  1.00  0.00     0.173 A 
ATOM     63  F   UNL A   1      37.864  31.487  28.847  1.00  0.00    -0.203 F 
ATOM     64  C   UNL A   1      36.661  31.619  30.866  1.00  0.00     0.198 A 
ATOM     65  C   UNL A   1      37.662  30.863  32.913  1.00  0.00     0.198 A 
ATOM     66  F   UNL A   1      39.858  30.018  32.907  1.00  0.00    -0.203 F 
ATOM     67  F   UNL A   1      35.627  32.168  30.214  1.00  0.00    -0.200 F 
ATOM     68  C   UNL A   1      36.583  31.408  32.235  1.00  0.00     0.200 A 
ATOM     69  F   UNL A   1      37.585  30.650  34.234  1.00  0.00    -0.200 F 
ATOM     70  F   UNL A   1      35.467  31.735  32.901  1.00  0.00    -0.200 F 
ENDBRANCH  46  60
BRANCH  47  71
ATOM     71  C   UNL A   1      47.035  27.479  26.015  1.00  0.00     0.064 A 
ATOM     72  C   UNL A   1      48.114  26.943  26.731  1.00  0.00     0.173 A 
ATOM     73  C   UNL A   1      47.148  27.550  24.619  1.00  0.00     0.173 A 
ATOM     74  F   UNL A   1      48.064  26.881  28.070  1.00  0.00    -0.203 F 
ATOM     75  C   UNL A   1      49.262  26.502  26.077  1.00  0.00     0.198 A 
ATOM     76  C   UNL A   1      48.287  27.086  23.964  1.00  0.00     0.198 A 
ATOM     77  F   UNL A   1      46.145  28.062  23.889  1.00  0.00    -0.203 F 
ATOM     78  F   UNL A   1      50.294  26.026  26.788  1.00  0.00    -0.200 F 
ATOM     79  C   UNL A   1      49.344  26.567  24.694  1.00  0.00     0.200 A 
ATOM     80  F   UNL A   1      48.359  27.144  22.627  1.00  0.00    -0.200 F 
ATOM     81  F   UNL A   1      50.447  26.136  24.065  1.00  0.00    -0.200 F 
ENDBRANCH  47  71
BRANCH  59  82
ATOM     82  C   UNL A   1      45.308  33.523  29.036  1.00  0.00     0.064 A 
ATOM     83  C   UNL A   1      46.173  33.753  30.115  1.00  0.00     0.173 A 
ATOM     84  C   UNL A   1      45.188  34.526  28.062  1.00  0.00     0.173 A 
ATOM     85  F   UNL A   1      46.311  32.829  31.078  1.00  0.00    -0.203 F 
ATOM     86  C   UNL A   1      46.882  34.947  30.222  1.00  0.00     0.198 A 
ATOM     87  C   UNL A   1      45.920  35.708  28.158  1.00  0.00     0.198 A 
ATOM     88  F   UNL A   1      44.380  34.351  27.006  1.00  0.00    -0.203 F 
ATOM     89  F   UNL A   1      47.677  35.159  31.279  1.00  0.00    -0.200 F 
ATOM     90  C   UNL A   1      46.761  35.919  29.240  1.00  0.00     0.200 A 
ATOM     91  F   UNL A   1      45.812  36.640  27.201  1.00  0.00    -0.200 F 
ATOM     92  F   UNL A   1      47.454  37.062  29.338  1.00  0.00    -0.200 F 
ENDBRANCH  59  82
ENDBRANCH  33  34
ENDBRANCH  26  28
ENDBRANCH  25  26
ENDBRANCH  24  25
ENDBRANCH   1  24
TORSDOF 15
ENDMDL
