MODEL 1
REMARK VINA RESULT:     -11.6      0.000      0.000
REMARK SMILES O=C(CSc1ccc2ccccc2c1)OCCOCCOC(=O)c1ccc(-c2c3nc(c(-c4c(F)c(F)c(F)c(F)c4F)c4ccc([nH]4)c(-c4c(F)c(F)c(F)c(F)c4F)c4nc(c(-c5c(F)c(F)c(F)c(F)c5F)c5ccc2[nH]5)C=C4)C=C3)cc1
REMARK SMILES IDX 18 1 17 2 16 3 15 4 2 5 1 6 3 7 4 8 5 9 6 10 14 11 7 12
REMARK SMILES IDX 13 13 8 14 12 15 9 16 11 17 10 18 19 19 20 20 21 21 22 22
REMARK SMILES IDX 23 23 24 24 25 25 86 26 26 27 85 28 27 29 28 30 29 31 79 32
REMARK SMILES IDX 30 33 84 34 78 35 80 36 31 37 83 38 77 39 76 40 32 42 64 43
REMARK SMILES IDX 44 44 63 45 45 46 48 47 62 48 81 49 46 50 47 51 61 53 82 54
REMARK SMILES IDX 49 55 33 56 34 57 42 58 35 59 36 60 40 61 43 62 37 63 38 64
REMARK SMILES IDX 41 65 39 66 65 67 66 68 74 69 67 70 68 71 72 72 75 73 69 74
REMARK SMILES IDX 70 75 73 76 71 77 50 78 51 79 59 80 52 81 53 82 57 83 60 84
REMARK SMILES IDX 54 85 55 86 58 87 56 88
REMARK H PARENT 80 41 48 52
REMARK Flexibility Score: inf
ROOT
ATOM      1  O   UNL A   1      44.208  20.012  24.616  1.00  0.00    -0.374 OA
ENDROOT
BRANCH   1   2
ATOM      2  C   UNL A   1      43.855  18.779  25.243  1.00  0.00     0.202 C 
BRANCH   2   3
ATOM      3  C   UNL A   1      42.622  18.859  26.136  1.00  0.00     0.261 C 
BRANCH   3   4
ATOM      4  O   UNL A   1      41.628  19.748  25.601  1.00  0.00    -0.463 OA
BRANCH   4   5
ATOM      5  C   UNL A   1      40.621  20.293  26.320  1.00  0.00     0.316 C 
ATOM      6  O   UNL A   1      40.768  20.453  27.534  1.00  0.00    -0.251 OA
BRANCH   5   7
ATOM      7  C   UNL A   1      39.308  20.641  25.656  1.00  0.00     0.197 C 
BRANCH   7   8
ATOM      8  S   UNL A   1      38.699  22.317  25.999  1.00  0.00    -0.114 SA
BRANCH   8   9
ATOM      9  C   UNL A   1      37.130  22.280  25.169  1.00  0.00     0.008 A 
ATOM     10  C   UNL A   1      36.710  23.333  24.358  1.00  0.00     0.016 A 
ATOM     11  C   UNL A   1      36.293  21.179  25.370  1.00  0.00     0.023 A 
ATOM     12  C   UNL A   1      35.459  23.292  23.748  1.00  0.00     0.010 A 
ATOM     13  C   UNL A   1      35.019  21.137  24.785  1.00  0.00    -0.017 A 
ATOM     14  C   UNL A   1      34.596  22.212  23.970  1.00  0.00    -0.018 A 
ATOM     15  C   UNL A   1      34.148  20.061  25.009  1.00  0.00     0.009 A 
ATOM     16  C   UNL A   1      33.312  22.192  23.415  1.00  0.00     0.009 A 
ATOM     17  C   UNL A   1      32.865  20.063  24.462  1.00  0.00     0.001 A 
ATOM     18  C   UNL A   1      32.446  21.129  23.671  1.00  0.00     0.001 A 
ENDBRANCH   8   9
ENDBRANCH   7   8
ENDBRANCH   5   7
ENDBRANCH   4   5
ENDBRANCH   3   4
ENDBRANCH   2   3
ENDBRANCH   1   2
BRANCH   1  19
ATOM     19  C   UNL A   1      45.468  20.561  25.019  1.00  0.00     0.202 C 
BRANCH  19  20
ATOM     20  C   UNL A   1      45.371  21.919  25.721  1.00  0.00     0.261 C 
BRANCH  20  21
ATOM     21  O   UNL A   1      44.025  22.181  26.142  1.00  0.00    -0.460 OA
BRANCH  21  22
ATOM     22  C   UNL A   1      43.359  23.103  25.410  1.00  0.00     0.338 C 
ATOM     23  O   UNL A   1      43.030  23.030  24.238  1.00  0.00    -0.246 OA
BRANCH  22  24
ATOM     24  C   UNL A   1      42.880  24.160  26.323  1.00  0.00     0.060 A 
ATOM     25  C   UNL A   1      43.400  25.453  26.163  1.00  0.00     0.016 A 
ATOM     26  C   UNL A   1      41.922  23.893  27.301  1.00  0.00     0.016 A 
ATOM     27  C   UNL A   1      42.981  26.481  27.004  1.00  0.00     0.010 A 
ATOM     28  C   UNL A   1      41.514  24.918  28.152  1.00  0.00     0.010 A 
ATOM     29  C   UNL A   1      42.061  26.208  28.022  1.00  0.00    -0.014 A 
BRANCH  29  30
ATOM     30  C   UNL A   1      41.769  27.218  29.061  1.00  0.00     0.031 A 
ATOM     31  C   UNL A   1      42.566  27.181  30.332  1.00  0.00     0.074 A 
ATOM     32  C   UNL A   1      40.781  28.113  28.890  1.00  0.00     0.049 A 
ATOM     33  N   UNL A   1      42.392  27.846  31.441  1.00  0.00    -0.248 NA
ATOM     34  C   UNL A   1      43.708  26.251  30.358  1.00  0.00     0.031 C 
ATOM     35  C   UNL A   1      39.970  28.253  27.682  1.00  0.00     0.029 A 
ATOM     36  N   UNL A   1      40.271  29.050  29.752  1.00  0.00    -0.354 N 
ATOM     37  C   UNL A   1      43.382  27.398  32.306  1.00  0.00     0.074 A 
ATOM     38  C   UNL A   1      44.146  26.394  31.600  1.00  0.00     0.031 C 
ATOM     39  C   UNL A   1      39.038  29.198  27.893  1.00  0.00     0.029 A 
ATOM     40  C   UNL A   1      39.160  29.692  29.262  1.00  0.00     0.049 A 
ATOM     41  H   UNL A   1      40.663  29.242  30.634  1.00  0.00     0.167 HD
ATOM     42  C   UNL A   1      43.621  27.792  33.578  1.00  0.00     0.037 A 
ATOM     43  C   UNL A   1      38.313  30.544  29.875  1.00  0.00     0.037 A 
ATOM     44  C   UNL A   1      42.859  28.804  34.259  1.00  0.00     0.049 A 
ATOM     45  C   UNL A   1      38.570  30.919  31.314  1.00  0.00     0.074 A 
ATOM     46  C   UNL A   1      43.057  29.325  35.524  1.00  0.00     0.029 A 
ATOM     47  N   UNL A   1      41.741  29.435  33.734  1.00  0.00    -0.354 N 
ATOM     48  N   UNL A   1      39.539  30.538  32.110  1.00  0.00    -0.248 NA
ATOM     49  C   UNL A   1      37.611  31.840  31.941  1.00  0.00     0.031 C 
ATOM     50  C   UNL A   1      42.018  30.220  35.792  1.00  0.00     0.029 A 
ATOM     51  C   UNL A   1      41.210  30.307  34.669  1.00  0.00     0.049 A 
ATOM     52  H   UNL A   1      41.378  29.284  32.831  1.00  0.00     0.167 HD
ATOM     53  C   UNL A   1      39.322  31.188  33.318  1.00  0.00     0.074 A 
ATOM     54  C   UNL A   1      38.139  32.004  33.145  1.00  0.00     0.031 C 
ATOM     55  C   UNL A   1      40.035  31.115  34.469  1.00  0.00     0.037 A 
BRANCH  42  56
ATOM     56  C   UNL A   1      44.724  27.112  34.332  1.00  0.00     0.064 A 
ATOM     57  C   UNL A   1      46.036  27.609  34.343  1.00  0.00     0.173 A 
ATOM     58  C   UNL A   1      44.445  25.978  35.111  1.00  0.00     0.173 A 
ATOM     59  F   UNL A   1      46.358  28.682  33.604  1.00  0.00    -0.203 F 
ATOM     60  C   UNL A   1      47.030  26.988  35.095  1.00  0.00     0.198 A 
ATOM     61  C   UNL A   1      45.434  25.377  35.884  1.00  0.00     0.198 A 
ATOM     62  F   UNL A   1      43.207  25.462  35.136  1.00  0.00    -0.203 F 
ATOM     63  F   UNL A   1      48.284  27.459  35.063  1.00  0.00    -0.200 F 
ATOM     64  C   UNL A   1      46.726  25.880  35.873  1.00  0.00     0.200 A 
ATOM     65  F   UNL A   1      45.135  24.316  36.646  1.00  0.00    -0.200 F 
ATOM     66  F   UNL A   1      47.680  25.295  36.610  1.00  0.00    -0.200 F 
ENDBRANCH  42  56
BRANCH  43  67
ATOM     67  C   UNL A   1      37.120  31.063  29.153  1.00  0.00     0.064 A 
ATOM     68  C   UNL A   1      37.048  32.400  28.740  1.00  0.00     0.173 A 
ATOM     69  C   UNL A   1      36.011  30.242  28.896  1.00  0.00     0.173 A 
ATOM     70  F   UNL A   1      38.072  33.232  28.984  1.00  0.00    -0.203 F 
ATOM     71  C   UNL A   1      35.904  32.903  28.124  1.00  0.00     0.198 A 
ATOM     72  C   UNL A   1      34.881  30.738  28.249  1.00  0.00     0.198 A 
ATOM     73  F   UNL A   1      36.025  28.955  29.272  1.00  0.00    -0.203 F 
ATOM     74  F   UNL A   1      35.839  34.201  27.795  1.00  0.00    -0.200 F 
ATOM     75  C   UNL A   1      34.823  32.071  27.874  1.00  0.00     0.200 A 
ATOM     76  F   UNL A   1      33.845  29.926  27.998  1.00  0.00    -0.200 F 
ATOM     77  F   UNL A   1      33.722  32.556  27.284  1.00  0.00    -0.200 F 
ENDBRANCH  43  67
BRANCH  55  78
ATOM     78  C   UNL A   1      39.576  31.960  35.623  1.00  0.00     0.064 A 
ATOM     79  C   UNL A   1      40.111  33.234  35.860  1.00  0.00     0.173 A 
ATOM     80  C   UNL A   1      38.539  31.516  36.460  1.00  0.00     0.173 A 
ATOM     81  F   UNL A   1      41.114  33.698  35.098  1.00  0.00    -0.203 F 
ATOM     82  C   UNL A   1      39.636  34.026  36.902  1.00  0.00     0.198 A 
ATOM     83  C   UNL A   1      38.044  32.324  37.478  1.00  0.00     0.198 A 
ATOM     84  F   UNL A   1      37.987  30.308  36.269  1.00  0.00    -0.203 F 
ATOM     85  F   UNL A   1      40.190  35.224  37.136  1.00  0.00    -0.200 F 
ATOM     86  C   UNL A   1      38.597  33.576  37.702  1.00  0.00     0.200 A 
ATOM     87  F   UNL A   1      37.028  31.894  38.237  1.00  0.00    -0.200 F 
ATOM     88  F   UNL A   1      38.129  34.347  38.693  1.00  0.00    -0.200 F 
ENDBRANCH  55  78
ENDBRANCH  29  30
ENDBRANCH  22  24
ENDBRANCH  21  22
ENDBRANCH  20  21
ENDBRANCH  19  20
ENDBRANCH   1  19
TORSDOF 16
ENDMDL
MODEL 2
REMARK VINA RESULT:     -11.4      1.435      7.789
REMARK SMILES O=C(CSc1ccc2ccccc2c1)OCCOCCOC(=O)c1ccc(-c2c3nc(c(-c4c(F)c(F)c(F)c(F)c4F)c4ccc([nH]4)c(-c4c(F)c(F)c(F)c(F)c4F)c4nc(c(-c5c(F)c(F)c(F)c(F)c5F)c5ccc2[nH]5)C=C4)C=C3)cc1
REMARK SMILES IDX 18 1 17 2 16 3 15 4 2 5 1 6 3 7 4 8 5 9 6 10 14 11 7 12
REMARK SMILES IDX 13 13 8 14 12 15 9 16 11 17 10 18 19 19 20 20 21 21 22 22
REMARK SMILES IDX 23 23 24 24 25 25 86 26 26 27 85 28 27 29 28 30 29 31 79 32
REMARK SMILES IDX 30 33 84 34 78 35 80 36 31 37 83 38 77 39 76 40 32 42 64 43
REMARK SMILES IDX 44 44 63 45 45 46 48 47 62 48 81 49 46 50 47 51 61 53 82 54
REMARK SMILES IDX 49 55 33 56 34 57 42 58 35 59 36 60 40 61 43 62 37 63 38 64
REMARK SMILES IDX 41 65 39 66 65 67 66 68 74 69 67 70 68 71 72 72 75 73 69 74
REMARK SMILES IDX 70 75 73 76 71 77 50 78 51 79 59 80 52 81 53 82 57 83 60 84
REMARK SMILES IDX 54 85 55 86 58 87 56 88
REMARK H PARENT 80 41 48 52
REMARK Flexibility Score: inf
ROOT
ATOM      1  O   UNL A   1      46.062  21.257  25.396  1.00  0.00    -0.374 OA
ENDROOT
BRANCH   1   2
ATOM      2  C   UNL A   1      46.247  20.027  24.695  1.00  0.00     0.202 C 
BRANCH   2   3
ATOM      3  C   UNL A   1      45.642  18.812  25.388  1.00  0.00     0.261 C 
BRANCH   3   4
ATOM      4  O   UNL A   1      44.349  18.479  24.857  1.00  0.00    -0.463 OA
BRANCH   4   5
ATOM      5  C   UNL A   1      43.179  18.682  25.505  1.00  0.00     0.316 C 
ATOM      6  O   UNL A   1      42.480  17.711  25.799  1.00  0.00    -0.251 OA
BRANCH   5   7
ATOM      7  C   UNL A   1      42.706  20.086  25.808  1.00  0.00     0.197 C 
BRANCH   7   8
ATOM      8  S   UNL A   1      41.803  20.267  27.372  1.00  0.00    -0.114 SA
BRANCH   8   9
ATOM      9  C   UNL A   1      40.509  21.381  26.885  1.00  0.00     0.008 A 
ATOM     10  C   UNL A   1      40.420  22.668  27.413  1.00  0.00     0.016 A 
ATOM     11  C   UNL A   1      39.547  20.933  25.977  1.00  0.00     0.023 A 
ATOM     12  C   UNL A   1      39.374  23.508  27.039  1.00  0.00     0.010 A 
ATOM     13  C   UNL A   1      38.473  21.756  25.612  1.00  0.00    -0.017 A 
ATOM     14  C   UNL A   1      38.383  23.058  26.158  1.00  0.00    -0.018 A 
ATOM     15  C   UNL A   1      37.474  21.309  24.735  1.00  0.00     0.009 A 
ATOM     16  C   UNL A   1      37.292  23.870  25.827  1.00  0.00     0.009 A 
ATOM     17  C   UNL A   1      36.384  22.124  24.427  1.00  0.00     0.001 A 
ATOM     18  C   UNL A   1      36.292  23.401  24.976  1.00  0.00     0.001 A 
ENDBRANCH   8   9
ENDBRANCH   7   8
ENDBRANCH   5   7
ENDBRANCH   4   5
ENDBRANCH   3   4
ENDBRANCH   2   3
ENDBRANCH   1   2
BRANCH   1  19
ATOM     19  C   UNL A   1      46.152  22.438  24.590  1.00  0.00     0.202 C 
BRANCH  19  20
ATOM     20  C   UNL A   1      44.801  23.069  24.238  1.00  0.00     0.261 C 
BRANCH  20  21
ATOM     21  O   UNL A   1      44.284  23.819  25.347  1.00  0.00    -0.460 OA
BRANCH  21  22
ATOM     22  C   UNL A   1      44.686  25.109  25.410  1.00  0.00     0.338 C 
ATOM     23  O   UNL A   1      45.386  25.712  24.614  1.00  0.00    -0.246 OA
BRANCH  22  24
ATOM     24  C   UNL A   1      43.953  25.769  26.508  1.00  0.00     0.060 A 
ATOM     25  C   UNL A   1      44.224  27.121  26.762  1.00  0.00     0.016 A 
ATOM     26  C   UNL A   1      42.999  25.080  27.258  1.00  0.00     0.016 A 
ATOM     27  C   UNL A   1      43.560  27.784  27.791  1.00  0.00     0.010 A 
ATOM     28  C   UNL A   1      42.345  25.740  28.297  1.00  0.00     0.010 A 
ATOM     29  C   UNL A   1      42.642  27.084  28.582  1.00  0.00    -0.014 A 
BRANCH  29  30
ATOM     30  C   UNL A   1      42.092  27.695  29.810  1.00  0.00     0.031 A 
ATOM     31  C   UNL A   1      40.833  28.505  29.698  1.00  0.00     0.074 A 
ATOM     32  C   UNL A   1      42.731  27.570  30.986  1.00  0.00     0.049 A 
ATOM     33  N   UNL A   1      40.252  29.264  30.588  1.00  0.00    -0.248 NA
ATOM     34  C   UNL A   1      40.145  28.465  28.396  1.00  0.00     0.031 C 
ATOM     35  C   UNL A   1      43.941  26.780  31.207  1.00  0.00     0.029 A 
ATOM     36  N   UNL A   1      42.468  28.137  32.207  1.00  0.00    -0.354 N 
ATOM     37  C   UNL A   1      39.148  29.813  29.948  1.00  0.00     0.074 A 
ATOM     38  C   UNL A   1      39.146  29.312  28.591  1.00  0.00     0.031 C 
ATOM     39  C   UNL A   1      44.337  26.940  32.482  1.00  0.00     0.029 A 
ATOM     40  C   UNL A   1      43.435  27.879  33.147  1.00  0.00     0.049 A 
ATOM     41  H   UNL A   1      41.665  28.675  32.390  1.00  0.00     0.167 HD
ATOM     42  C   UNL A   1      38.226  30.663  30.455  1.00  0.00     0.037 A 
ATOM     43  C   UNL A   1      43.595  28.386  34.385  1.00  0.00     0.037 A 
ATOM     44  C   UNL A   1      38.236  31.138  31.812  1.00  0.00     0.049 A 
ATOM     45  C   UNL A   1      42.584  29.380  34.902  1.00  0.00     0.074 A 
ATOM     46  C   UNL A   1      37.314  31.950  32.447  1.00  0.00     0.029 A 
ATOM     47  N   UNL A   1      39.230  30.857  32.738  1.00  0.00    -0.354 N 
ATOM     48  N   UNL A   1      41.510  29.852  34.316  1.00  0.00    -0.248 NA
ATOM     49  C   UNL A   1      42.810  29.915  36.253  1.00  0.00     0.031 C 
ATOM     50  C   UNL A   1      37.786  32.217  33.735  1.00  0.00     0.029 A 
ATOM     51  C   UNL A   1      38.967  31.518  33.925  1.00  0.00     0.049 A 
ATOM     52  H   UNL A   1      40.007  30.274  32.574  1.00  0.00     0.167 HD
ATOM     53  C   UNL A   1      40.922  30.717  35.230  1.00  0.00     0.074 A 
ATOM     54  C   UNL A   1      41.747  30.690  36.420  1.00  0.00     0.031 C 
ATOM     55  C   UNL A   1      39.801  31.468  35.099  1.00  0.00     0.037 A 
BRANCH  42  56
ATOM     56  C   UNL A   1      37.149  31.163  29.540  1.00  0.00     0.064 A 
ATOM     57  C   UNL A   1      36.066  30.361  29.155  1.00  0.00     0.173 A 
ATOM     58  C   UNL A   1      37.171  32.494  29.093  1.00  0.00     0.173 A 
ATOM     59  F   UNL A   1      36.004  29.078  29.543  1.00  0.00    -0.203 F 
ATOM     60  C   UNL A   1      35.051  30.867  28.347  1.00  0.00     0.198 A 
ATOM     61  C   UNL A   1      36.141  33.006  28.310  1.00  0.00     0.198 A 
ATOM     62  F   UNL A   1      38.185  33.305  29.432  1.00  0.00    -0.203 F 
ATOM     63  F   UNL A   1      34.042  30.073  27.962  1.00  0.00    -0.200 F 
ATOM     64  C   UNL A   1      35.083  32.192  27.934  1.00  0.00     0.200 A 
ATOM     65  F   UNL A   1      36.168  34.289  27.925  1.00  0.00    -0.200 F 
ATOM     66  F   UNL A   1      34.097  32.682  27.172  1.00  0.00    -0.200 F 
ENDBRANCH  42  56
BRANCH  43  67
ATOM     67  C   UNL A   1      44.777  28.007  35.204  1.00  0.00     0.064 A 
ATOM     68  C   UNL A   1      44.780  26.836  35.975  1.00  0.00     0.173 A 
ATOM     69  C   UNL A   1      45.916  28.826  35.262  1.00  0.00     0.173 A 
ATOM     70  F   UNL A   1      43.706  26.031  35.973  1.00  0.00    -0.203 F 
ATOM     71  C   UNL A   1      45.860  26.515  36.793  1.00  0.00     0.198 A 
ATOM     72  C   UNL A   1      47.010  28.486  36.055  1.00  0.00     0.198 A 
ATOM     73  F   UNL A   1      45.966  29.959  34.548  1.00  0.00    -0.203 F 
ATOM     74  F   UNL A   1      45.810  25.421  37.567  1.00  0.00    -0.200 F 
ATOM     75  C   UNL A   1      46.977  27.336  36.830  1.00  0.00     0.200 A 
ATOM     76  F   UNL A   1      48.092  29.277  36.076  1.00  0.00    -0.200 F 
ATOM     77  F   UNL A   1      48.015  27.028  37.619  1.00  0.00    -0.200 F 
ENDBRANCH  43  67
BRANCH  55  78
ATOM     78  C   UNL A   1      39.382  32.301  36.277  1.00  0.00     0.064 A 
ATOM     79  C   UNL A   1      39.921  33.575  36.505  1.00  0.00     0.173 A 
ATOM     80  C   UNL A   1      38.378  31.845  37.147  1.00  0.00     0.173 A 
ATOM     81  F   UNL A   1      40.893  34.050  35.711  1.00  0.00    -0.203 F 
ATOM     82  C   UNL A   1      39.482  34.356  37.571  1.00  0.00     0.198 A 
ATOM     83  C   UNL A   1      37.918  32.643  38.190  1.00  0.00     0.198 A 
ATOM     84  F   UNL A   1      37.824  30.637  36.965  1.00  0.00    -0.203 F 
ATOM     85  F   UNL A   1      40.039  35.553  37.795  1.00  0.00    -0.200 F 
ATOM     86  C   UNL A   1      38.474  33.894  38.405  1.00  0.00     0.200 A 
ATOM     87  F   UNL A   1      36.932  32.202  38.982  1.00  0.00    -0.200 F 
ATOM     88  F   UNL A   1      38.040  34.655  39.419  1.00  0.00    -0.200 F 
ENDBRANCH  55  78
ENDBRANCH  29  30
ENDBRANCH  22  24
ENDBRANCH  21  22
ENDBRANCH  20  21
ENDBRANCH  19  20
ENDBRANCH   1  19
TORSDOF 16
ENDMDL
MODEL 3
REMARK VINA RESULT:     -11.3      3.865      8.656
REMARK SMILES O=C(CSc1ccc2ccccc2c1)OCCOCCOC(=O)c1ccc(-c2c3nc(c(-c4c(F)c(F)c(F)c(F)c4F)c4ccc([nH]4)c(-c4c(F)c(F)c(F)c(F)c4F)c4nc(c(-c5c(F)c(F)c(F)c(F)c5F)c5ccc2[nH]5)C=C4)C=C3)cc1
REMARK SMILES IDX 18 1 17 2 16 3 15 4 2 5 1 6 3 7 4 8 5 9 6 10 14 11 7 12
REMARK SMILES IDX 13 13 8 14 12 15 9 16 11 17 10 18 19 19 20 20 21 21 22 22
REMARK SMILES IDX 23 23 24 24 25 25 86 26 26 27 85 28 27 29 28 30 29 31 79 32
REMARK SMILES IDX 30 33 84 34 78 35 80 36 31 37 83 38 77 39 76 40 32 42 64 43
REMARK SMILES IDX 44 44 63 45 45 46 48 47 62 48 81 49 46 50 47 51 61 53 82 54
REMARK SMILES IDX 49 55 33 56 34 57 42 58 35 59 36 60 40 61 43 62 37 63 38 64
REMARK SMILES IDX 41 65 39 66 65 67 66 68 74 69 67 70 68 71 72 72 75 73 69 74
REMARK SMILES IDX 70 75 73 76 71 77 50 78 51 79 59 80 52 81 53 82 57 83 60 84
REMARK SMILES IDX 54 85 55 86 58 87 56 88
REMARK H PARENT 80 41 48 52
REMARK Flexibility Score: inf
ROOT
ATOM      1  O   UNL A   1      33.184  28.718  24.792  1.00  0.00    -0.374 OA
ENDROOT
BRANCH   1   2
ATOM      2  C   UNL A   1      33.973  28.792  23.605  1.00  0.00     0.202 C 
BRANCH   2   3
ATOM      3  C   UNL A   1      33.340  28.130  22.387  1.00  0.00     0.261 C 
BRANCH   3   4
ATOM      4  O   UNL A   1      33.816  26.788  22.197  1.00  0.00    -0.463 OA
BRANCH   4   5
ATOM      5  C   UNL A   1      33.062  25.767  21.729  1.00  0.00     0.316 C 
ATOM      6  O   UNL A   1      33.274  25.337  20.593  1.00  0.00    -0.251 OA
BRANCH   5   7
ATOM      7  C   UNL A   1      31.935  25.203  22.563  1.00  0.00     0.197 C 
BRANCH   7   8
ATOM      8  S   UNL A   1      32.247  25.178  24.351  1.00  0.00    -0.114 SA
BRANCH   8   9
ATOM      9  C   UNL A   1      33.514  23.939  24.453  1.00  0.00     0.008 A 
ATOM     10  C   UNL A   1      33.259  22.608  24.125  1.00  0.00     0.016 A 
ATOM     11  C   UNL A   1      34.782  24.314  24.905  1.00  0.00     0.023 A 
ATOM     12  C   UNL A   1      34.263  21.651  24.248  1.00  0.00     0.010 A 
ATOM     13  C   UNL A   1      35.794  23.357  25.061  1.00  0.00    -0.017 A 
ATOM     14  C   UNL A   1      35.527  22.007  24.734  1.00  0.00    -0.018 A 
ATOM     15  C   UNL A   1      37.060  23.706  25.554  1.00  0.00     0.009 A 
ATOM     16  C   UNL A   1      36.522  21.042  24.924  1.00  0.00     0.009 A 
ATOM     17  C   UNL A   1      38.037  22.730  25.752  1.00  0.00     0.001 A 
ATOM     18  C   UNL A   1      37.767  21.400  25.442  1.00  0.00     0.001 A 
ENDBRANCH   8   9
ENDBRANCH   7   8
ENDBRANCH   5   7
ENDBRANCH   4   5
ENDBRANCH   3   4
ENDBRANCH   2   3
ENDBRANCH   1   2
BRANCH   1  19
ATOM     19  C   UNL A   1      31.892  29.331  24.706  1.00  0.00     0.202 C 
BRANCH  19  20
ATOM     20  C   UNL A   1      31.652  30.448  25.725  1.00  0.00     0.261 C 
BRANCH  20  21
ATOM     21  O   UNL A   1      32.577  30.349  26.818  1.00  0.00    -0.460 OA
BRANCH  21  22
ATOM     22  C   UNL A   1      33.146  31.516  27.202  1.00  0.00     0.338 C 
ATOM     23  O   UNL A   1      32.627  32.618  27.251  1.00  0.00    -0.246 OA
BRANCH  22  24
ATOM     24  C   UNL A   1      34.471  31.216  27.779  1.00  0.00     0.060 A 
ATOM     25  C   UNL A   1      34.772  29.880  28.078  1.00  0.00     0.016 A 
ATOM     26  C   UNL A   1      35.409  32.225  28.001  1.00  0.00     0.016 A 
ATOM     27  C   UNL A   1      36.009  29.550  28.628  1.00  0.00     0.010 A 
ATOM     28  C   UNL A   1      36.641  31.897  28.564  1.00  0.00     0.010 A 
ATOM     29  C   UNL A   1      36.934  30.564  28.903  1.00  0.00    -0.014 A 
BRANCH  29  30
ATOM     30  C   UNL A   1      38.153  30.274  29.685  1.00  0.00     0.031 A 
ATOM     31  C   UNL A   1      39.146  29.301  29.118  1.00  0.00     0.074 A 
ATOM     32  C   UNL A   1      38.342  30.829  30.894  1.00  0.00     0.049 A 
ATOM     33  N   UNL A   1      40.198  28.767  29.677  1.00  0.00    -0.248 NA
ATOM     34  C   UNL A   1      38.907  28.859  27.733  1.00  0.00     0.031 C 
ATOM     35  C   UNL A   1      37.456  31.808  31.520  1.00  0.00     0.029 A 
ATOM     36  N   UNL A   1      39.327  30.618  31.826  1.00  0.00    -0.354 N 
ATOM     37  C   UNL A   1      40.731  27.906  28.726  1.00  0.00     0.074 A 
ATOM     38  C   UNL A   1      39.881  27.978  27.559  1.00  0.00     0.031 C 
ATOM     39  C   UNL A   1      37.919  32.088  32.751  1.00  0.00     0.029 A 
ATOM     40  C   UNL A   1      39.103  31.274  33.012  1.00  0.00     0.049 A 
ATOM     41  H   UNL A   1      40.115  30.053  31.660  1.00  0.00     0.167 HD
ATOM     42  C   UNL A   1      41.831  27.126  28.829  1.00  0.00     0.037 A 
ATOM     43  C   UNL A   1      39.758  31.182  34.187  1.00  0.00     0.037 A 
ATOM     44  C   UNL A   1      42.673  27.079  29.994  1.00  0.00     0.049 A 
ATOM     45  C   UNL A   1      40.945  30.257  34.291  1.00  0.00     0.074 A 
ATOM     46  C   UNL A   1      43.847  26.373  30.180  1.00  0.00     0.029 A 
ATOM     47  N   UNL A   1      42.418  27.757  31.178  1.00  0.00    -0.354 N 
ATOM     48  N   UNL A   1      41.480  29.489  33.373  1.00  0.00    -0.248 NA
ATOM     49  C   UNL A   1      41.616  30.183  35.597  1.00  0.00     0.031 C 
ATOM     50  C   UNL A   1      44.265  26.566  31.500  1.00  0.00     0.029 A 
ATOM     51  C   UNL A   1      43.389  27.447  32.115  1.00  0.00     0.049 A 
ATOM     52  H   UNL A   1      41.660  28.366  31.329  1.00  0.00     0.167 HD
ATOM     53  C   UNL A   1      42.561  28.861  33.980  1.00  0.00     0.074 A 
ATOM     54  C   UNL A   1      42.618  29.352  35.341  1.00  0.00     0.031 C 
ATOM     55  C   UNL A   1      43.428  27.957  33.462  1.00  0.00     0.037 A 
BRANCH  42  56
ATOM     56  C   UNL A   1      42.174  26.233  27.675  1.00  0.00     0.064 A 
ATOM     57  C   UNL A   1      43.180  26.558  26.754  1.00  0.00     0.173 A 
ATOM     58  C   UNL A   1      41.524  24.997  27.527  1.00  0.00     0.173 A 
ATOM     59  F   UNL A   1      43.822  27.733  26.843  1.00  0.00    -0.203 F 
ATOM     60  C   UNL A   1      43.515  25.686  25.722  1.00  0.00     0.198 A 
ATOM     61  C   UNL A   1      41.881  24.115  26.512  1.00  0.00     0.198 A 
ATOM     62  F   UNL A   1      40.553  24.637  28.380  1.00  0.00    -0.203 F 
ATOM     63  F   UNL A   1      44.456  26.032  24.833  1.00  0.00    -0.200 F 
ATOM     64  C   UNL A   1      42.874  24.461  25.608  1.00  0.00     0.200 A 
ATOM     65  F   UNL A   1      41.269  22.927  26.413  1.00  0.00    -0.200 F 
ATOM     66  F   UNL A   1      43.210  23.615  24.625  1.00  0.00    -0.200 F 
ENDBRANCH  42  56
BRANCH  43  67
ATOM     67  C   UNL A   1      39.282  31.947  35.371  1.00  0.00     0.064 A 
ATOM     68  C   UNL A   1      39.680  33.274  35.585  1.00  0.00     0.173 A 
ATOM     69  C   UNL A   1      38.449  31.355  36.333  1.00  0.00     0.173 A 
ATOM     70  F   UNL A   1      40.496  33.878  34.707  1.00  0.00    -0.203 F 
ATOM     71  C   UNL A   1      39.288  33.968  36.728  1.00  0.00     0.198 A 
ATOM     72  C   UNL A   1      38.031  32.061  37.459  1.00  0.00     0.198 A 
ATOM     73  F   UNL A   1      38.041  30.087  36.180  1.00  0.00    -0.203 F 
ATOM     74  F   UNL A   1      39.734  35.214  36.937  1.00  0.00    -0.200 F 
ATOM     75  C   UNL A   1      38.460  33.364  37.662  1.00  0.00     0.200 A 
ATOM     76  F   UNL A   1      37.219  31.478  38.351  1.00  0.00    -0.200 F 
ATOM     77  F   UNL A   1      38.086  34.032  38.761  1.00  0.00    -0.200 F 
ENDBRANCH  43  67
BRANCH  55  78
ATOM     78  C   UNL A   1      44.529  27.461  34.354  1.00  0.00     0.064 A 
ATOM     79  C   UNL A   1      44.391  26.288  35.110  1.00  0.00     0.173 A 
ATOM     80  C   UNL A   1      45.763  28.130  34.397  1.00  0.00     0.173 A 
ATOM     81  F   UNL A   1      43.227  25.621  35.115  1.00  0.00    -0.203 F 
ATOM     82  C   UNL A   1      45.441  25.813  35.890  1.00  0.00     0.198 A 
ATOM     83  C   UNL A   1      46.822  27.632  35.151  1.00  0.00     0.198 A 
ATOM     84  F   UNL A   1      45.950  29.251  33.684  1.00  0.00    -0.203 F 
ATOM     85  F   UNL A   1      45.274  24.713  36.638  1.00  0.00    -0.200 F 
ATOM     86  C   UNL A   1      46.659  26.478  35.902  1.00  0.00     0.200 A 
ATOM     87  F   UNL A   1      48.002  28.267  35.145  1.00  0.00    -0.200 F 
ATOM     88  F   UNL A   1      47.674  26.009  36.639  1.00  0.00    -0.200 F 
ENDBRANCH  55  78
ENDBRANCH  29  30
ENDBRANCH  22  24
ENDBRANCH  21  22
ENDBRANCH  20  21
ENDBRANCH  19  20
ENDBRANCH   1  19
TORSDOF 16
ENDMDL
