MODEL 1
REMARK VINA RESULT:     -10.8      0.000      0.000
REMARK SMILES CCOc1cccc(OCC)c1-c1ccc([C@@H](C)C(=O)OCCOCCOC(=O)c2ccc(-c3c4nc(c(-c5c(F)c(F)c(F)c(F)c5F)c5ccc([nH]5)c(-c5c(F)c(F)c(F)c(F)c5F)c5nc(c(-c6c(F)c(F)c(F)c(F)c6F)c6ccc3[nH]6)C=C5)C=C4)cc2)cc1F
REMARK SMILES IDX 23 1 22 2 21 3 19 4 20 5 17 6 18 7 16 8 13 9 14 10 94 11
REMARK SMILES IDX 15 12 93 13 95 14 12 15 4 16 5 17 6 18 8 19 7 20 3 21 2 22
REMARK SMILES IDX 1 23 9 24 10 25 11 26 24 27 25 28 26 29 27 30 28 31 29 32
REMARK SMILES IDX 30 33 31 34 92 35 32 36 91 37 33 38 34 39 35 40 85 41 36 42
REMARK SMILES IDX 90 43 84 44 86 45 37 46 89 47 83 48 82 49 38 51 70 52 50 53
REMARK SMILES IDX 69 54 51 55 54 56 68 57 87 58 52 59 53 60 67 62 88 63 55 64
REMARK SMILES IDX 39 65 40 66 48 67 41 68 42 69 46 70 49 71 43 72 44 73 47 74
REMARK SMILES IDX 45 75 71 76 72 77 80 78 73 79 74 80 78 81 81 82 75 83 76 84
REMARK SMILES IDX 79 85 77 86 56 87 57 88 65 89 58 90 59 91 63 92 66 93 60 94
REMARK SMILES IDX 61 95 64 96 62 97
REMARK H PARENT 86 50 54 61
REMARK Flexibility Score: inf
ROOT
ATOM      1  C   UNL A   1      34.869  19.988  24.851  1.00  0.00     0.202 C 
ENDROOT
BRANCH   1   2
ATOM      2  C   UNL A   1      33.561  20.631  24.382  1.00  0.00     0.261 C 
BRANCH   2   3
ATOM      3  O   UNL A   1      33.765  21.929  23.784  1.00  0.00    -0.463 OA
BRANCH   3   4
ATOM      4  C   UNL A   1      32.966  22.926  24.246  1.00  0.00     0.313 C 
ATOM      5  O   UNL A   1      31.964  23.324  23.655  1.00  0.00    -0.252 OA
BRANCH   4   6
ATOM      6  C   UNL A   1      33.420  23.589  25.536  1.00  0.00     0.126 C 
ATOM      7  C   UNL A   1      32.834  22.799  26.708  1.00  0.00     0.025 C 
BRANCH   6   8
ATOM      8  C   UNL A   1      33.244  25.086  25.781  1.00  0.00    -0.031 A 
ATOM      9  C   UNL A   1      32.504  27.846  25.951  1.00  0.00     0.025 A 
ATOM     10  C   UNL A   1      33.681  27.436  25.303  1.00  0.00     0.012 A 
ATOM     11  C   UNL A   1      31.756  26.856  26.590  1.00  0.00     0.131 A 
ATOM     12  C   UNL A   1      34.028  26.079  25.187  1.00  0.00     0.005 A 
ATOM     13  C   UNL A   1      32.118  25.506  26.516  1.00  0.00     0.044 A 
ATOM     14  F   UNL A   1      30.629  27.172  27.246  1.00  0.00    -0.206 F 
BRANCH   9  15
ATOM     15  C   UNL A   1      32.088  29.265  25.947  1.00  0.00     0.069 A 
ATOM     16  C   UNL A   1      31.107  29.669  24.999  1.00  0.00     0.130 A 
ATOM     17  C   UNL A   1      30.593  30.970  24.952  1.00  0.00     0.047 A 
ATOM     18  C   UNL A   1      31.028  31.910  25.868  1.00  0.00     0.008 A 
ATOM     19  C   UNL A   1      32.561  30.255  26.839  1.00  0.00     0.130 A 
ATOM     20  C   UNL A   1      32.009  31.554  26.788  1.00  0.00     0.047 A 
BRANCH  16  21
ATOM     21  O   UNL A   1      30.726  28.776  24.027  1.00  0.00    -0.493 OA
BRANCH  21  22
ATOM     22  C   UNL A   1      30.099  29.388  22.898  1.00  0.00     0.226 C 
ATOM     23  C   UNL A   1      28.728  28.762  22.768  1.00  0.00     0.049 C 
ENDBRANCH  21  22
ENDBRANCH  16  21
BRANCH  19  24
ATOM     24  O   UNL A   1      33.533  30.222  27.799  1.00  0.00    -0.493 OA
BRANCH  24  25
ATOM     25  C   UNL A   1      34.859  30.689  27.628  1.00  0.00     0.226 C 
ATOM     26  C   UNL A   1      35.816  29.515  27.725  1.00  0.00     0.049 C 
ENDBRANCH  24  25
ENDBRANCH  19  24
ENDBRANCH   9  15
ENDBRANCH   6   8
ENDBRANCH   4   6
ENDBRANCH   3   4
ENDBRANCH   2   3
ENDBRANCH   1   2
BRANCH   1  27
ATOM     27  O   UNL A   1      35.798  20.848  25.512  1.00  0.00    -0.374 OA
BRANCH  27  28
ATOM     28  C   UNL A   1      37.039  21.098  24.861  1.00  0.00     0.202 C 
BRANCH  28  29
ATOM     29  C   UNL A   1      38.229  20.263  25.338  1.00  0.00     0.261 C 
BRANCH  29  30
ATOM     30  O   UNL A   1      39.447  21.022  25.437  1.00  0.00    -0.460 OA
BRANCH  30  31
ATOM     31  C   UNL A   1      40.063  20.954  26.638  1.00  0.00     0.338 C 
ATOM     32  O   UNL A   1      40.418  19.948  27.243  1.00  0.00    -0.246 OA
BRANCH  31  33
ATOM     33  C   UNL A   1      40.366  22.305  27.136  1.00  0.00     0.060 A 
ATOM     34  C   UNL A   1      39.716  23.396  26.549  1.00  0.00     0.016 A 
ATOM     35  C   UNL A   1      41.391  22.504  28.063  1.00  0.00     0.016 A 
ATOM     36  C   UNL A   1      40.115  24.697  26.867  1.00  0.00     0.010 A 
ATOM     37  C   UNL A   1      41.784  23.810  28.385  1.00  0.00     0.010 A 
ATOM     38  C   UNL A   1      41.172  24.914  27.764  1.00  0.00    -0.014 A 
BRANCH  38  39
ATOM     39  C   UNL A   1      41.705  26.288  27.962  1.00  0.00     0.031 A 
ATOM     40  C   UNL A   1      43.071  26.641  27.437  1.00  0.00     0.074 A 
ATOM     41  C   UNL A   1      40.972  27.227  28.590  1.00  0.00     0.049 A 
ATOM     42  N   UNL A   1      43.717  27.780  27.499  1.00  0.00    -0.248 NA
ATOM     43  C   UNL A   1      43.810  25.571  26.750  1.00  0.00     0.031 C 
ATOM     44  C   UNL A   1      39.633  27.024  29.137  1.00  0.00     0.029 A 
ATOM     45  N   UNL A   1      41.259  28.539  28.878  1.00  0.00    -0.354 N 
ATOM     46  C   UNL A   1      44.935  27.562  26.870  1.00  0.00     0.074 A 
ATOM     47  C   UNL A   1      44.951  26.176  26.451  1.00  0.00     0.031 C 
ATOM     48  C   UNL A   1      39.217  28.168  29.706  1.00  0.00     0.029 A 
ATOM     49  C   UNL A   1      40.267  29.178  29.582  1.00  0.00     0.049 A 
ATOM     50  H   UNL A   1      42.095  28.980  28.605  1.00  0.00     0.167 HD
ATOM     51  C   UNL A   1      45.945  28.439  26.652  1.00  0.00     0.037 A 
ATOM     52  C   UNL A   1      40.220  30.428  30.084  1.00  0.00     0.037 A 
ATOM     53  C   UNL A   1      45.928  29.824  27.045  1.00  0.00     0.049 A 
ATOM     54  C   UNL A   1      41.373  31.371  29.857  1.00  0.00     0.074 A 
ATOM     55  C   UNL A   1      46.881  30.799  26.803  1.00  0.00     0.029 A 
ATOM     56  N   UNL A   1      44.914  30.428  27.768  1.00  0.00    -0.354 N 
ATOM     57  N   UNL A   1      42.490  31.171  29.200  1.00  0.00    -0.248 NA
ATOM     58  C   UNL A   1      41.255  32.717  30.439  1.00  0.00     0.031 C 
ATOM     59  C   UNL A   1      46.466  31.982  27.423  1.00  0.00     0.029 A 
ATOM     60  C   UNL A   1      45.232  31.754  28.011  1.00  0.00     0.049 A 
ATOM     61  H   UNL A   1      44.088  29.981  28.066  1.00  0.00     0.167 HD
ATOM     62  C   UNL A   1      43.191  32.369  29.267  1.00  0.00     0.074 A 
ATOM     63  C   UNL A   1      42.370  33.295  30.017  1.00  0.00     0.031 C 
ATOM     64  C   UNL A   1      44.407  32.672  28.751  1.00  0.00     0.037 A 
BRANCH  51  65
ATOM     65  C   UNL A   1      47.173  27.930  25.960  1.00  0.00     0.064 A 
ATOM     66  C   UNL A   1      48.297  27.498  26.679  1.00  0.00     0.173 A 
ATOM     67  C   UNL A   1      47.197  27.808  24.563  1.00  0.00     0.173 A 
ATOM     68  F   UNL A   1      48.324  27.603  28.016  1.00  0.00    -0.203 F 
ATOM     69  C   UNL A   1      49.406  26.972  26.022  1.00  0.00     0.198 A 
ATOM     70  C   UNL A   1      48.300  27.261  23.911  1.00  0.00     0.198 A 
ATOM     71  F   UNL A   1      46.144  28.200  23.831  1.00  0.00    -0.203 F 
ATOM     72  F   UNL A   1      50.481  26.589  26.726  1.00  0.00    -0.200 F 
ATOM     73  C   UNL A   1      49.404  26.847  24.640  1.00  0.00     0.200 A 
ATOM     74  F   UNL A   1      48.291  27.130  22.577  1.00  0.00    -0.200 F 
ATOM     75  F   UNL A   1      50.468  26.329  24.011  1.00  0.00    -0.200 F 
ENDBRANCH  51  65
BRANCH  52  76
ATOM     76  C   UNL A   1      39.036  30.868  30.867  1.00  0.00     0.064 A 
ATOM     77  C   UNL A   1      38.966  30.666  32.252  1.00  0.00     0.173 A 
ATOM     78  C   UNL A   1      37.935  31.465  30.236  1.00  0.00     0.173 A 
ATOM     79  F   UNL A   1      39.984  30.073  32.894  1.00  0.00    -0.203 F 
ATOM     80  C   UNL A   1      37.830  31.025  32.974  1.00  0.00     0.198 A 
ATOM     81  C   UNL A   1      36.810  31.848  30.963  1.00  0.00     0.198 A 
ATOM     82  F   UNL A   1      37.952  31.676  28.913  1.00  0.00    -0.203 F 
ATOM     83  F   UNL A   1      37.768  30.774  34.289  1.00  0.00    -0.200 F 
ATOM     84  C   UNL A   1      36.755  31.619  32.330  1.00  0.00     0.200 A 
ATOM     85  F   UNL A   1      35.777  32.429  30.339  1.00  0.00    -0.200 F 
ATOM     86  F   UNL A   1      35.661  31.960  33.024  1.00  0.00    -0.200 F 
ENDBRANCH  52  76
BRANCH  64  87
ATOM     87  C   UNL A   1      44.915  34.070  28.949  1.00  0.00     0.064 A 
ATOM     88  C   UNL A   1      44.615  35.097  28.043  1.00  0.00     0.173 A 
ATOM     89  C   UNL A   1      45.676  34.395  30.083  1.00  0.00     0.173 A 
ATOM     90  F   UNL A   1      43.905  34.834  26.937  1.00  0.00    -0.203 F 
ATOM     91  C   UNL A   1      45.076  36.395  28.253  1.00  0.00     0.198 A 
ATOM     92  C   UNL A   1      46.114  35.699  30.303  1.00  0.00     0.198 A 
ATOM     93  F   UNL A   1      45.986  33.451  30.984  1.00  0.00    -0.203 F 
ATOM     94  F   UNL A   1      44.811  37.352  27.353  1.00  0.00    -0.200 F 
ATOM     95  C   UNL A   1      45.818  36.696  29.386  1.00  0.00     0.200 A 
ATOM     96  F   UNL A   1      46.820  35.990  31.404  1.00  0.00    -0.200 F 
ATOM     97  F   UNL A   1      46.254  37.946  29.590  1.00  0.00    -0.200 F 
ENDBRANCH  64  87
ENDBRANCH  38  39
ENDBRANCH  31  33
ENDBRANCH  30  31
ENDBRANCH  29  30
ENDBRANCH  28  29
ENDBRANCH  27  28
ENDBRANCH   1  27
TORSDOF 20
ENDMDL
MODEL 2
REMARK VINA RESULT:     -10.8      0.786      2.301
REMARK SMILES CCOc1cccc(OCC)c1-c1ccc([C@@H](C)C(=O)OCCOCCOC(=O)c2ccc(-c3c4nc(c(-c5c(F)c(F)c(F)c(F)c5F)c5ccc([nH]5)c(-c5c(F)c(F)c(F)c(F)c5F)c5nc(c(-c6c(F)c(F)c(F)c(F)c6F)c6ccc3[nH]6)C=C5)C=C4)cc2)cc1F
REMARK SMILES IDX 23 1 22 2 21 3 19 4 20 5 17 6 18 7 16 8 13 9 14 10 94 11
REMARK SMILES IDX 15 12 93 13 95 14 12 15 4 16 5 17 6 18 8 19 7 20 3 21 2 22
REMARK SMILES IDX 1 23 9 24 10 25 11 26 24 27 25 28 26 29 27 30 28 31 29 32
REMARK SMILES IDX 30 33 31 34 92 35 32 36 91 37 33 38 34 39 35 40 85 41 36 42
REMARK SMILES IDX 90 43 84 44 86 45 37 46 89 47 83 48 82 49 38 51 70 52 50 53
REMARK SMILES IDX 69 54 51 55 54 56 68 57 87 58 52 59 53 60 67 62 88 63 55 64
REMARK SMILES IDX 39 65 40 66 48 67 41 68 42 69 46 70 49 71 43 72 44 73 47 74
REMARK SMILES IDX 45 75 71 76 72 77 80 78 73 79 74 80 78 81 81 82 75 83 76 84
REMARK SMILES IDX 79 85 77 86 56 87 57 88 65 89 58 90 59 91 63 92 66 93 60 94
REMARK SMILES IDX 61 95 64 96 62 97
REMARK H PARENT 86 50 54 61
REMARK Flexibility Score: inf
ROOT
ATOM      1  C   UNL A   1      35.374  20.076  24.994  1.00  0.00     0.202 C 
ENDROOT
BRANCH   1   2
ATOM      2  C   UNL A   1      34.394  21.200  24.644  1.00  0.00     0.261 C 
BRANCH   2   3
ATOM      3  O   UNL A   1      34.995  22.224  23.823  1.00  0.00    -0.463 OA
BRANCH   3   4
ATOM      4  C   UNL A   1      34.831  23.501  24.255  1.00  0.00     0.313 C 
ATOM      5  O   UNL A   1      35.662  24.102  24.933  1.00  0.00    -0.252 OA
BRANCH   4   6
ATOM      6  C   UNL A   1      33.501  24.149  23.904  1.00  0.00     0.126 C 
ATOM      7  C   UNL A   1      33.270  23.975  22.402  1.00  0.00     0.025 C 
BRANCH   6   8
ATOM      8  C   UNL A   1      33.166  25.580  24.317  1.00  0.00    -0.031 A 
ATOM      9  C   UNL A   1      32.083  28.168  24.890  1.00  0.00     0.025 A 
ATOM     10  C   UNL A   1      33.136  27.994  23.976  1.00  0.00     0.012 A 
ATOM     11  C   UNL A   1      31.648  27.033  25.578  1.00  0.00     0.131 A 
ATOM     12  C   UNL A   1      33.644  26.721  23.666  1.00  0.00     0.005 A 
ATOM     13  C   UNL A   1      32.179  25.768  25.306  1.00  0.00     0.044 A 
ATOM     14  F   UNL A   1      30.660  27.123  26.481  1.00  0.00    -0.206 F 
BRANCH   9  15
ATOM     15  C   UNL A   1      31.472  29.497  25.103  1.00  0.00     0.069 A 
ATOM     16  C   UNL A   1      31.912  30.263  26.218  1.00  0.00     0.130 A 
ATOM     17  C   UNL A   1      31.450  31.559  26.475  1.00  0.00     0.047 A 
ATOM     18  C   UNL A   1      30.543  32.144  25.610  1.00  0.00     0.008 A 
ATOM     19  C   UNL A   1      30.503  30.092  24.262  1.00  0.00     0.130 A 
ATOM     20  C   UNL A   1      30.070  31.410  24.528  1.00  0.00     0.047 A 
BRANCH  16  21
ATOM     21  O   UNL A   1      32.746  29.668  27.134  1.00  0.00    -0.493 OA
BRANCH  21  22
ATOM     22  C   UNL A   1      33.935  30.415  27.399  1.00  0.00     0.226 C 
ATOM     23  C   UNL A   1      35.061  29.413  27.527  1.00  0.00     0.049 C 
ENDBRANCH  21  22
ENDBRANCH  16  21
BRANCH  19  24
ATOM     24  O   UNL A   1      29.827  29.613  23.176  1.00  0.00    -0.493 OA
BRANCH  24  25
ATOM     25  C   UNL A   1      29.169  28.360  23.116  1.00  0.00     0.226 C 
ATOM     26  C   UNL A   1      27.669  28.583  23.170  1.00  0.00     0.049 C 
ENDBRANCH  24  25
ENDBRANCH  19  24
ENDBRANCH   9  15
ENDBRANCH   6   8
ENDBRANCH   4   6
ENDBRANCH   3   4
ENDBRANCH   2   3
ENDBRANCH   1   2
BRANCH   1  27
ATOM     27  O   UNL A   1      36.678  20.479  25.411  1.00  0.00    -0.374 OA
BRANCH  27  28
ATOM     28  C   UNL A   1      37.790  19.895  24.740  1.00  0.00     0.202 C 
BRANCH  28  29
ATOM     29  C   UNL A   1      38.995  19.544  25.615  1.00  0.00     0.261 C 
BRANCH  29  30
ATOM     30  O   UNL A   1      39.885  20.656  25.822  1.00  0.00    -0.460 OA
BRANCH  30  31
ATOM     31  C   UNL A   1      40.495  20.680  27.028  1.00  0.00     0.338 C 
ATOM     32  O   UNL A   1      40.893  19.723  27.685  1.00  0.00    -0.246 OA
BRANCH  31  33
ATOM     33  C   UNL A   1      40.729  22.066  27.457  1.00  0.00     0.060 A 
ATOM     34  C   UNL A   1      40.093  23.099  26.760  1.00  0.00     0.016 A 
ATOM     35  C   UNL A   1      41.684  22.354  28.435  1.00  0.00     0.016 A 
ATOM     36  C   UNL A   1      40.437  24.429  27.020  1.00  0.00     0.010 A 
ATOM     37  C   UNL A   1      42.021  23.687  28.698  1.00  0.00     0.010 A 
ATOM     38  C   UNL A   1      41.425  24.733  27.968  1.00  0.00    -0.014 A 
BRANCH  38  39
ATOM     39  C   UNL A   1      41.908  26.131  28.112  1.00  0.00     0.031 A 
ATOM     40  C   UNL A   1      43.251  26.518  27.550  1.00  0.00     0.074 A 
ATOM     41  C   UNL A   1      41.152  27.062  28.723  1.00  0.00     0.049 A 
ATOM     42  N   UNL A   1      43.853  27.682  27.564  1.00  0.00    -0.248 NA
ATOM     43  C   UNL A   1      44.018  25.455  26.883  1.00  0.00     0.031 C 
ATOM     44  C   UNL A   1      39.831  26.827  29.303  1.00  0.00     0.029 A 
ATOM     45  N   UNL A   1      41.393  28.393  28.964  1.00  0.00    -0.354 N 
ATOM     46  C   UNL A   1      45.068  27.489  26.919  1.00  0.00     0.074 A 
ATOM     47  C   UNL A   1      45.130  26.093  26.544  1.00  0.00     0.031 C 
ATOM     48  C   UNL A   1      39.382  27.972  29.842  1.00  0.00     0.029 A 
ATOM     49  C   UNL A   1      40.391  29.017  29.666  1.00  0.00     0.049 A 
ATOM     50  H   UNL A   1      42.207  28.856  28.662  1.00  0.00     0.167 HD
ATOM     51  C   UNL A   1      46.039  28.396  26.654  1.00  0.00     0.037 A 
ATOM     52  C   UNL A   1      40.304  30.279  30.129  1.00  0.00     0.037 A 
ATOM     53  C   UNL A   1      45.977  29.791  27.002  1.00  0.00     0.049 A 
ATOM     54  C   UNL A   1      41.417  31.257  29.850  1.00  0.00     0.074 A 
ATOM     55  C   UNL A   1      46.888  30.794  26.712  1.00  0.00     0.029 A 
ATOM     56  N   UNL A   1      44.953  30.380  27.726  1.00  0.00    -0.354 N 
ATOM     57  N   UNL A   1      42.529  31.078  29.179  1.00  0.00    -0.248 NA
ATOM     58  C   UNL A   1      41.258  32.616  30.391  1.00  0.00     0.031 C 
ATOM     59  C   UNL A   1      46.439  31.979  27.301  1.00  0.00     0.029 A 
ATOM     60  C   UNL A   1      45.225  31.725  27.920  1.00  0.00     0.049 A 
ATOM     61  H   UNL A   1      44.151  29.912  28.053  1.00  0.00     0.167 HD
ATOM     62  C   UNL A   1      43.185  32.303  29.195  1.00  0.00     0.074 A 
ATOM     63  C   UNL A   1      42.343  33.222  29.930  1.00  0.00     0.031 C 
ATOM     64  C   UNL A   1      44.378  32.635  28.646  1.00  0.00     0.037 A 
BRANCH  51  65
ATOM     65  C   UNL A   1      47.274  27.911  25.955  1.00  0.00     0.064 A 
ATOM     66  C   UNL A   1      48.404  27.488  26.668  1.00  0.00     0.173 A 
ATOM     67  C   UNL A   1      47.298  27.804  24.557  1.00  0.00     0.173 A 
ATOM     68  F   UNL A   1      48.431  27.579  28.007  1.00  0.00    -0.203 F 
ATOM     69  C   UNL A   1      49.520  26.984  26.005  1.00  0.00     0.198 A 
ATOM     70  C   UNL A   1      48.407  27.279  23.898  1.00  0.00     0.198 A 
ATOM     71  F   UNL A   1      46.238  28.189  23.831  1.00  0.00    -0.203 F 
ATOM     72  F   UNL A   1      50.601  26.609  26.703  1.00  0.00    -0.200 F 
ATOM     73  C   UNL A   1      49.517  26.873  24.622  1.00  0.00     0.200 A 
ATOM     74  F   UNL A   1      48.398  27.162  22.563  1.00  0.00    -0.200 F 
ATOM     75  F   UNL A   1      50.588  26.377  23.986  1.00  0.00    -0.200 F 
ENDBRANCH  51  65
BRANCH  52  76
ATOM     76  C   UNL A   1      39.119  30.700  30.920  1.00  0.00     0.064 A 
ATOM     77  C   UNL A   1      39.110  30.610  32.319  1.00  0.00     0.173 A 
ATOM     78  C   UNL A   1      37.957  31.165  30.287  1.00  0.00     0.173 A 
ATOM     79  F   UNL A   1      40.190  30.144  32.966  1.00  0.00    -0.203 F 
ATOM     80  C   UNL A   1      37.976  30.948  33.054  1.00  0.00     0.198 A 
ATOM     81  C   UNL A   1      36.832  31.527  31.025  1.00  0.00     0.198 A 
ATOM     82  F   UNL A   1      37.914  31.266  28.951  1.00  0.00    -0.203 F 
ATOM     83  F   UNL A   1      37.977  30.803  34.385  1.00  0.00    -0.200 F 
ATOM     84  C   UNL A   1      36.840  31.410  32.407  1.00  0.00     0.200 A 
ATOM     85  F   UNL A   1      35.740  31.982  30.397  1.00  0.00    -0.200 F 
ATOM     86  F   UNL A   1      35.748  31.731  33.114  1.00  0.00    -0.200 F 
ENDBRANCH  52  76
BRANCH  64  87
ATOM     87  C   UNL A   1      44.837  34.056  28.790  1.00  0.00     0.064 A 
ATOM     88  C   UNL A   1      45.652  34.460  29.858  1.00  0.00     0.173 A 
ATOM     89  C   UNL A   1      44.492  35.016  27.826  1.00  0.00     0.173 A 
ATOM     90  F   UNL A   1      45.996  33.584  30.812  1.00  0.00    -0.203 F 
ATOM     91  C   UNL A   1      46.088  35.779  29.966  1.00  0.00     0.198 A 
ATOM     92  C   UNL A   1      44.951  36.328  27.924  1.00  0.00     0.198 A 
ATOM     93  F   UNL A   1      43.719  34.680  26.782  1.00  0.00    -0.203 F 
ATOM     94  F   UNL A   1      46.833  36.152  31.015  1.00  0.00    -0.200 F 
ATOM     95  C   UNL A   1      45.744  36.709  28.996  1.00  0.00     0.200 A 
ATOM     96  F   UNL A   1      44.627  37.221  26.980  1.00  0.00    -0.200 F 
ATOM     97  F   UNL A   1      46.170  37.975  29.098  1.00  0.00    -0.200 F 
ENDBRANCH  64  87
ENDBRANCH  38  39
ENDBRANCH  31  33
ENDBRANCH  30  31
ENDBRANCH  29  30
ENDBRANCH  28  29
ENDBRANCH  27  28
ENDBRANCH   1  27
TORSDOF 20
ENDMDL
MODEL 3
REMARK VINA RESULT:     -10.6      2.380      4.678
REMARK SMILES CCOc1cccc(OCC)c1-c1ccc([C@@H](C)C(=O)OCCOCCOC(=O)c2ccc(-c3c4nc(c(-c5c(F)c(F)c(F)c(F)c5F)c5ccc([nH]5)c(-c5c(F)c(F)c(F)c(F)c5F)c5nc(c(-c6c(F)c(F)c(F)c(F)c6F)c6ccc3[nH]6)C=C5)C=C4)cc2)cc1F
REMARK SMILES IDX 23 1 22 2 21 3 19 4 20 5 17 6 18 7 16 8 13 9 14 10 94 11
REMARK SMILES IDX 15 12 93 13 95 14 12 15 4 16 5 17 6 18 8 19 7 20 3 21 2 22
REMARK SMILES IDX 1 23 9 24 10 25 11 26 24 27 25 28 26 29 27 30 28 31 29 32
REMARK SMILES IDX 30 33 31 34 92 35 32 36 91 37 33 38 34 39 35 40 85 41 36 42
REMARK SMILES IDX 90 43 84 44 86 45 37 46 89 47 83 48 82 49 38 51 70 52 50 53
REMARK SMILES IDX 69 54 51 55 54 56 68 57 87 58 52 59 53 60 67 62 88 63 55 64
REMARK SMILES IDX 39 65 40 66 48 67 41 68 42 69 46 70 49 71 43 72 44 73 47 74
REMARK SMILES IDX 45 75 71 76 72 77 80 78 73 79 74 80 78 81 81 82 75 83 76 84
REMARK SMILES IDX 79 85 77 86 56 87 57 88 65 89 58 90 59 91 63 92 66 93 60 94
REMARK SMILES IDX 61 95 64 96 62 97
REMARK H PARENT 86 50 54 61
REMARK Flexibility Score: inf
ROOT
ATOM      1  C   UNL A   1      41.647  20.584  27.332  1.00  0.00     0.202 C 
ENDROOT
BRANCH   1   2
ATOM      2  C   UNL A   1      40.982  21.783  26.649  1.00  0.00     0.261 C 
BRANCH   2   3
ATOM      3  O   UNL A   1      39.701  21.452  26.072  1.00  0.00    -0.463 OA
BRANCH   3   4
ATOM      4  C   UNL A   1      38.742  22.409  26.172  1.00  0.00     0.313 C 
ATOM      5  O   UNL A   1      38.963  23.555  26.558  1.00  0.00    -0.252 OA
BRANCH   4   6
ATOM      6  C   UNL A   1      37.329  21.963  25.835  1.00  0.00     0.126 C 
ATOM      7  C   UNL A   1      37.402  21.031  24.624  1.00  0.00     0.025 C 
BRANCH   6   8
ATOM      8  C   UNL A   1      36.188  22.962  25.651  1.00  0.00    -0.031 A 
ATOM      9  C   UNL A   1      33.764  24.426  25.229  1.00  0.00     0.025 A 
ATOM     10  C   UNL A   1      34.846  24.516  24.337  1.00  0.00     0.012 A 
ATOM     11  C   UNL A   1      33.957  23.661  26.382  1.00  0.00     0.131 A 
ATOM     12  C   UNL A   1      36.023  23.770  24.523  1.00  0.00     0.005 A 
ATOM     13  C   UNL A   1      35.142  22.950  26.596  1.00  0.00     0.044 A 
ATOM     14  F   UNL A   1      32.977  23.542  27.290  1.00  0.00    -0.206 F 
BRANCH   9  15
ATOM     15  C   UNL A   1      32.486  25.112  24.947  1.00  0.00     0.069 A 
ATOM     16  C   UNL A   1      32.371  26.483  25.305  1.00  0.00     0.130 A 
ATOM     17  C   UNL A   1      31.232  27.247  25.024  1.00  0.00     0.047 A 
ATOM     18  C   UNL A   1      30.171  26.666  24.353  1.00  0.00     0.008 A 
ATOM     19  C   UNL A   1      31.368  24.523  24.311  1.00  0.00     0.130 A 
ATOM     20  C   UNL A   1      30.240  25.319  24.016  1.00  0.00     0.047 A 
BRANCH  16  21
ATOM     21  O   UNL A   1      33.378  27.053  26.048  1.00  0.00    -0.493 OA
BRANCH  21  22
ATOM     22  C   UNL A   1      32.909  27.947  27.060  1.00  0.00     0.226 C 
ATOM     23  C   UNL A   1      33.984  28.994  27.249  1.00  0.00     0.049 C 
ENDBRANCH  21  22
ENDBRANCH  16  21
BRANCH  19  24
ATOM     24  O   UNL A   1      31.123  23.239  23.913  1.00  0.00    -0.493 OA
BRANCH  24  25
ATOM     25  C   UNL A   1      31.943  22.490  23.034  1.00  0.00     0.226 C 
ATOM     26  C   UNL A   1      32.541  21.318  23.790  1.00  0.00     0.049 C 
ENDBRANCH  24  25
ENDBRANCH  19  24
ENDBRANCH   9  15
ENDBRANCH   6   8
ENDBRANCH   4   6
ENDBRANCH   3   4
ENDBRANCH   2   3
ENDBRANCH   1   2
BRANCH   1  27
ATOM     27  O   UNL A   1      41.596  19.344  26.626  1.00  0.00    -0.374 OA
BRANCH  27  28
ATOM     28  C   UNL A   1      42.743  18.503  26.694  1.00  0.00     0.202 C 
BRANCH  28  29
ATOM     29  C   UNL A   1      43.387  18.134  25.356  1.00  0.00     0.261 C 
BRANCH  29  30
ATOM     30  O   UNL A   1      44.681  18.735  25.168  1.00  0.00    -0.460 OA
BRANCH  30  31
ATOM     31  C   UNL A   1      44.723  19.715  24.239  1.00  0.00     0.338 C 
ATOM     32  O   UNL A   1      44.802  19.591  23.021  1.00  0.00    -0.246 OA
BRANCH  31  33
ATOM     33  C   UNL A   1      44.562  21.031  24.876  1.00  0.00     0.060 A 
ATOM     34  C   UNL A   1      44.035  22.082  24.116  1.00  0.00     0.016 A 
ATOM     35  C   UNL A   1      45.067  21.266  26.156  1.00  0.00     0.016 A 
ATOM     36  C   UNL A   1      44.042  23.382  24.629  1.00  0.00     0.010 A 
ATOM     37  C   UNL A   1      45.066  22.569  26.669  1.00  0.00     0.010 A 
ATOM     38  C   UNL A   1      44.584  23.641  25.896  1.00  0.00    -0.014 A 
BRANCH  38  39
ATOM     39  C   UNL A   1      44.748  25.045  26.359  1.00  0.00     0.031 A 
ATOM     40  C   UNL A   1      46.106  25.693  26.310  1.00  0.00     0.074 A 
ATOM     41  C   UNL A   1      43.692  25.750  26.804  1.00  0.00     0.049 A 
ATOM     42  N   UNL A   1      46.462  26.905  26.660  1.00  0.00    -0.248 NA
ATOM     43  C   UNL A   1      47.212  24.869  25.799  1.00  0.00     0.031 C 
ATOM     44  C   UNL A   1      42.322  25.251  26.895  1.00  0.00     0.029 A 
ATOM     45  N   UNL A   1      43.612  27.040  27.272  1.00  0.00    -0.354 N 
ATOM     46  C   UNL A   1      47.827  26.984  26.420  1.00  0.00     0.074 A 
ATOM     47  C   UNL A   1      48.244  25.693  25.916  1.00  0.00     0.031 C 
ATOM     48  C   UNL A   1      41.538  26.218  27.399  1.00  0.00     0.029 A 
ATOM     49  C   UNL A   1      42.352  27.399  27.686  1.00  0.00     0.049 A 
ATOM     50  H   UNL A   1      44.384  27.649  27.307  1.00  0.00     0.167 HD
ATOM     51  C   UNL A   1      48.658  28.041  26.595  1.00  0.00     0.037 A 
ATOM     52  C   UNL A   1      41.911  28.541  28.248  1.00  0.00     0.037 A 
ATOM     53  C   UNL A   1      48.249  29.336  27.074  1.00  0.00     0.049 A 
ATOM     54  C   UNL A   1      42.864  29.687  28.465  1.00  0.00     0.074 A 
ATOM     55  C   UNL A   1      49.013  30.482  27.218  1.00  0.00     0.029 A 
ATOM     56  N   UNL A   1      46.969  29.654  27.497  1.00  0.00    -0.354 N 
ATOM     57  N   UNL A   1      44.139  29.772  28.170  1.00  0.00    -0.248 NA
ATOM     58  C   UNL A   1      42.314  30.901  29.089  1.00  0.00     0.031 C 
ATOM     59  C   UNL A   1      48.207  31.480  27.773  1.00  0.00     0.029 A 
ATOM     60  C   UNL A   1      46.929  30.969  27.933  1.00  0.00     0.049 A 
ATOM     61  H   UNL A   1      46.202  29.037  27.490  1.00  0.00     0.167 HD
ATOM     62  C   UNL A   1      44.534  31.050  28.546  1.00  0.00     0.074 A 
ATOM     63  C   UNL A   1      43.362  31.712  29.078  1.00  0.00     0.031 C 
ATOM     64  C   UNL A   1      45.758  31.623  28.454  1.00  0.00     0.037 A 
BRANCH  51  65
ATOM     65  C   UNL A   1      50.110  27.848  26.276  1.00  0.00     0.064 A 
ATOM     66  C   UNL A   1      50.586  27.895  24.958  1.00  0.00     0.173 A 
ATOM     67  C   UNL A   1      51.044  27.684  27.309  1.00  0.00     0.173 A 
ATOM     68  F   UNL A   1      49.729  28.042  23.936  1.00  0.00    -0.203 F 
ATOM     69  C   UNL A   1      51.946  27.774  24.685  1.00  0.00     0.198 A 
ATOM     70  C   UNL A   1      52.406  27.585  27.034  1.00  0.00     0.198 A 
ATOM     71  F   UNL A   1      50.638  27.640  28.587  1.00  0.00    -0.203 F 
ATOM     72  F   UNL A   1      52.378  27.795  23.416  1.00  0.00    -0.200 F 
ATOM     73  C   UNL A   1      52.854  27.626  25.723  1.00  0.00     0.200 A 
ATOM     74  F   UNL A   1      53.283  27.454  28.039  1.00  0.00    -0.200 F 
ATOM     75  F   UNL A   1      54.165  27.522  25.459  1.00  0.00    -0.200 F 
ENDBRANCH  51  65
BRANCH  52  76
ATOM     76  C   UNL A   1      40.489  28.662  28.663  1.00  0.00     0.064 A 
ATOM     77  C   UNL A   1      39.506  29.107  27.767  1.00  0.00     0.173 A 
ATOM     78  C   UNL A   1      40.093  28.373  29.977  1.00  0.00     0.173 A 
ATOM     79  F   UNL A   1      39.843  29.422  26.508  1.00  0.00    -0.203 F 
ATOM     80  C   UNL A   1      38.186  29.278  28.177  1.00  0.00     0.198 A 
ATOM     81  C   UNL A   1      38.767  28.520  30.378  1.00  0.00     0.198 A 
ATOM     82  F   UNL A   1      40.996  27.948  30.872  1.00  0.00    -0.203 F 
ATOM     83  F   UNL A   1      37.277  29.754  27.315  1.00  0.00    -0.200 F 
ATOM     84  C   UNL A   1      37.817  28.981  29.480  1.00  0.00     0.200 A 
ATOM     85  F   UNL A   1      38.413  28.223  31.635  1.00  0.00    -0.200 F 
ATOM     86  F   UNL A   1      36.547  29.149  29.873  1.00  0.00    -0.200 F 
ENDBRANCH  52  76
BRANCH  64  87
ATOM     87  C   UNL A   1      45.894  33.045  28.912  1.00  0.00     0.064 A 
ATOM     88  C   UNL A   1      46.325  33.361  30.209  1.00  0.00     0.173 A 
ATOM     89  C   UNL A   1      45.632  34.104  28.030  1.00  0.00     0.173 A 
ATOM     90  F   UNL A   1      46.573  32.385  31.094  1.00  0.00    -0.203 F 
ATOM     91  C   UNL A   1      46.468  34.687  30.613  1.00  0.00     0.198 A 
ATOM     92  C   UNL A   1      45.801  35.428  28.429  1.00  0.00     0.198 A 
ATOM     93  F   UNL A   1      45.223  33.856  26.777  1.00  0.00    -0.203 F 
ATOM     94  F   UNL A   1      46.842  34.966  31.869  1.00  0.00    -0.200 F 
ATOM     95  C   UNL A   1      46.213  35.719  29.721  1.00  0.00     0.200 A 
ATOM     96  F   UNL A   1      45.566  36.423  27.562  1.00  0.00    -0.200 F 
ATOM     97  F   UNL A   1      46.359  36.993  30.108  1.00  0.00    -0.200 F 
ENDBRANCH  64  87
ENDBRANCH  38  39
ENDBRANCH  31  33
ENDBRANCH  30  31
ENDBRANCH  29  30
ENDBRANCH  28  29
ENDBRANCH  27  28
ENDBRANCH   1  27
TORSDOF 20
ENDMDL
