MODEL 1
REMARK VINA RESULT:     -12.3      0.000      0.000
REMARK SMILES C[C@H](Sc1ccccn1)C(=O)N[C@H](C(=O)OCCOCCOC(=O)c1ccc(-c2c3nc(c(-c4c(F)c(F)c(F)c(F)c4F)c4ccc([nH]4)c(-c4c(F)c(F)c(F)c(F)c4F)c4nc(c(-c5c(F)c(F)c(F)c(F)c5F)c5ccc2[nH]5)C=C4)C=C3)cc1)c1ccc(F)cc1
REMARK SMILES IDX 18 1 17 2 16 3 14 4 15 5 13 6 12 7 10 8 11 9 2 11 1 12 3 13
REMARK SMILES IDX 4 14 5 15 9 16 6 17 8 18 7 19 88 20 89 21 94 22 90 23 93 24
REMARK SMILES IDX 91 25 92 26 19 27 20 28 21 29 22 30 23 31 24 32 25 33 26 34
REMARK SMILES IDX 87 35 27 36 86 37 28 38 29 39 30 40 80 41 31 42 85 43 79 44
REMARK SMILES IDX 81 45 32 46 84 47 78 48 77 49 33 51 65 52 45 53 64 54 46 55
REMARK SMILES IDX 49 56 63 57 82 58 47 59 48 60 62 62 83 63 50 64 34 65 35 66
REMARK SMILES IDX 43 67 36 68 37 69 41 70 44 71 38 72 39 73 42 74 40 75 66 76
REMARK SMILES IDX 67 77 75 78 68 79 69 80 73 81 76 82 70 83 71 84 74 85 72 86
REMARK SMILES IDX 51 87 52 88 60 89 53 90 54 91 58 92 61 93 55 94 56 95 59 96
REMARK SMILES IDX 57 97
REMARK H PARENT 12 10 81 50 49 61
REMARK Flexibility Score: inf
ROOT
ATOM      1  C   UNL A   1      34.930  23.155  26.370  1.00  0.00     0.202 C 
ENDROOT
BRANCH   1   2
ATOM      2  C   UNL A   1      33.459  23.246  25.946  1.00  0.00     0.261 C 
BRANCH   2   3
ATOM      3  O   UNL A   1      32.532  23.412  27.029  1.00  0.00    -0.461 OA
BRANCH   3   4
ATOM      4  C   UNL A   1      31.402  24.098  26.678  1.00  0.00     0.333 C 
ATOM      5  O   UNL A   1      30.287  23.831  27.101  1.00  0.00    -0.249 OA
BRANCH   4   6
ATOM      6  C   UNL A   1      31.681  25.215  25.660  1.00  0.00     0.223 C 
BRANCH   6   7
ATOM      7  N   UNL A   1      30.580  25.265  24.677  1.00  0.00    -0.338 N 
ATOM      8  C   UNL A   1      30.166  26.278  23.857  1.00  0.00     0.234 C 
ATOM      9  O   UNL A   1      28.954  26.528  23.961  1.00  0.00    -0.274 OA
ATOM     10  H   UNL A   1      30.059  24.434  24.598  1.00  0.00     0.164 HD
BRANCH   8  11
ATOM     11  C   UNL A   1      30.983  26.967  22.749  1.00  0.00     0.139 C 
ATOM     12  C   UNL A   1      31.808  26.050  21.863  1.00  0.00     0.030 C 
BRANCH  11  13
ATOM     13  S   UNL A   1      31.448  28.725  23.060  1.00  0.00    -0.093 SA
BRANCH  13  14
ATOM     14  C   UNL A   1      30.016  29.737  22.796  1.00  0.00     0.097 A 
ATOM     15  C   UNL A   1      29.430  30.500  23.800  1.00  0.00     0.035 A 
ATOM     16  N   UNL A   1      29.560  29.784  21.523  1.00  0.00    -0.250 NA
ATOM     17  C   UNL A   1      28.319  31.292  23.493  1.00  0.00     0.004 A 
ATOM     18  C   UNL A   1      28.502  30.575  21.240  1.00  0.00     0.112 A 
ATOM     19  C   UNL A   1      27.839  31.329  22.189  1.00  0.00     0.020 A 
ENDBRANCH  13  14
ENDBRANCH  11  13
ENDBRANCH   8  11
ENDBRANCH   6   7
BRANCH   6  20
ATOM     20  C   UNL A   1      32.182  26.547  26.185  1.00  0.00    -0.014 A 
ATOM     21  C   UNL A   1      33.490  27.002  25.935  1.00  0.00     0.009 A 
ATOM     22  C   UNL A   1      31.358  27.382  26.935  1.00  0.00     0.009 A 
ATOM     23  C   UNL A   1      33.912  28.268  26.373  1.00  0.00     0.039 A 
ATOM     24  C   UNL A   1      31.748  28.659  27.340  1.00  0.00     0.039 A 
ATOM     25  C   UNL A   1      33.025  29.096  27.048  1.00  0.00     0.123 A 
ATOM     26  F   UNL A   1      33.406  30.323  27.423  1.00  0.00    -0.207 F 
ENDBRANCH   6  20
ENDBRANCH   4   6
ENDBRANCH   3   4
ENDBRANCH   2   3
ENDBRANCH   1   2
BRANCH   1  27
ATOM     27  O   UNL A   1      35.907  22.646  25.470  1.00  0.00    -0.374 OA
BRANCH  27  28
ATOM     28  C   UNL A   1      36.005  21.240  25.284  1.00  0.00     0.202 C 
BRANCH  28  29
ATOM     29  C   UNL A   1      37.387  20.595  25.132  1.00  0.00     0.261 C 
BRANCH  29  30
ATOM     30  O   UNL A   1      38.473  21.532  25.152  1.00  0.00    -0.460 OA
BRANCH  30  31
ATOM     31  C   UNL A   1      39.424  21.250  26.071  1.00  0.00     0.338 C 
ATOM     32  O   UNL A   1      40.018  20.186  26.229  1.00  0.00    -0.246 OA
BRANCH  31  33
ATOM     33  C   UNL A   1      39.813  22.467  26.798  1.00  0.00     0.060 A 
ATOM     34  C   UNL A   1      39.174  23.660  26.439  1.00  0.00     0.016 A 
ATOM     35  C   UNL A   1      40.842  22.461  27.742  1.00  0.00     0.016 A 
ATOM     36  C   UNL A   1      39.603  24.865  26.979  1.00  0.00     0.010 A 
ATOM     37  C   UNL A   1      41.283  23.677  28.275  1.00  0.00     0.010 A 
ATOM     38  C   UNL A   1      40.693  24.884  27.861  1.00  0.00    -0.014 A 
BRANCH  38  39
ATOM     39  C   UNL A   1      41.304  26.190  28.194  1.00  0.00     0.031 A 
ATOM     40  C   UNL A   1      42.696  26.480  27.706  1.00  0.00     0.074 A 
ATOM     41  C   UNL A   1      40.596  27.128  28.843  1.00  0.00     0.049 A 
ATOM     42  N   UNL A   1      43.397  27.580  27.803  1.00  0.00    -0.248 NA
ATOM     43  C   UNL A   1      43.390  25.382  27.013  1.00  0.00     0.031 C 
ATOM     44  C   UNL A   1      39.229  26.963  29.332  1.00  0.00     0.029 A 
ATOM     45  N   UNL A   1      40.930  28.411  29.192  1.00  0.00    -0.354 N 
ATOM     46  C   UNL A   1      44.607  27.311  27.175  1.00  0.00     0.074 A 
ATOM     47  C   UNL A   1      44.562  25.934  26.737  1.00  0.00     0.031 C 
ATOM     48  C   UNL A   1      38.836  28.107  29.917  1.00  0.00     0.029 A 
ATOM     49  C   UNL A   1      39.929  29.076  29.855  1.00  0.00     0.049 A 
ATOM     50  H   UNL A   1      41.803  28.816  28.986  1.00  0.00     0.167 HD
ATOM     51  C   UNL A   1      45.654  28.144  26.972  1.00  0.00     0.037 A 
ATOM     52  C   UNL A   1      39.905  30.326  30.353  1.00  0.00     0.037 A 
ATOM     53  C   UNL A   1      45.694  29.512  27.414  1.00  0.00     0.049 A 
ATOM     54  C   UNL A   1      41.103  31.218  30.156  1.00  0.00     0.074 A 
ATOM     55  C   UNL A   1      46.702  30.446  27.250  1.00  0.00     0.029 A 
ATOM     56  N   UNL A   1      44.676  30.141  28.117  1.00  0.00    -0.354 N 
ATOM     57  N   UNL A   1      42.228  30.967  29.532  1.00  0.00    -0.248 NA
ATOM     58  C   UNL A   1      41.021  32.570  30.725  1.00  0.00     0.031 C 
ATOM     59  C   UNL A   1      46.312  31.627  27.891  1.00  0.00     0.029 A 
ATOM     60  C   UNL A   1      45.041  31.443  28.414  1.00  0.00     0.049 A 
ATOM     61  H   UNL A   1      43.820  29.723  28.367  1.00  0.00     0.167 HD
ATOM     62  C   UNL A   1      42.977  32.133  29.611  1.00  0.00     0.074 A 
ATOM     63  C   UNL A   1      42.171  33.098  30.330  1.00  0.00     0.031 C 
ATOM     64  C   UNL A   1      44.221  32.386  29.132  1.00  0.00     0.037 A 
BRANCH  51  65
ATOM     65  C   UNL A   1      46.849  27.588  26.258  1.00  0.00     0.064 A 
ATOM     66  C   UNL A   1      46.990  27.696  24.865  1.00  0.00     0.173 A 
ATOM     67  C   UNL A   1      47.879  26.960  26.974  1.00  0.00     0.173 A 
ATOM     68  F   UNL A   1      46.026  28.273  24.132  1.00  0.00    -0.203 F 
ATOM     69  C   UNL A   1      48.107  27.175  24.216  1.00  0.00     0.198 A 
ATOM     70  C   UNL A   1      49.005  26.463  26.325  1.00  0.00     0.198 A 
ATOM     71  F   UNL A   1      47.792  26.831  28.307  1.00  0.00    -0.203 F 
ATOM     72  F   UNL A   1      48.200  27.251  22.881  1.00  0.00    -0.200 F 
ATOM     73  C   UNL A   1      49.116  26.565  24.946  1.00  0.00     0.200 A 
ATOM     74  F   UNL A   1      49.982  25.880  27.033  1.00  0.00    -0.200 F 
ATOM     75  F   UNL A   1      50.191  26.067  24.321  1.00  0.00    -0.200 F 
ENDBRANCH  51  65
BRANCH  52  76
ATOM     76  C   UNL A   1      38.702  30.811  31.076  1.00  0.00     0.064 A 
ATOM     77  C   UNL A   1      37.598  31.329  30.384  1.00  0.00     0.173 A 
ATOM     78  C   UNL A   1      38.634  30.771  32.476  1.00  0.00     0.173 A 
ATOM     79  F   UNL A   1      37.625  31.409  29.045  1.00  0.00    -0.203 F 
ATOM     80  C   UNL A   1      36.480  31.802  31.066  1.00  0.00     0.198 A 
ATOM     81  C   UNL A   1      37.505  31.221  33.156  1.00  0.00     0.198 A 
ATOM     82  F   UNL A   1      39.665  30.285  33.184  1.00  0.00    -0.203 F 
ATOM     83  F   UNL A   1      35.455  32.331  30.383  1.00  0.00    -0.200 F 
ATOM     84  C   UNL A   1      36.431  31.742  32.452  1.00  0.00     0.200 A 
ATOM     85  F   UNL A   1      37.459  31.152  34.494  1.00  0.00    -0.200 F 
ATOM     86  F   UNL A   1      35.354  32.195  33.107  1.00  0.00    -0.200 F 
ENDBRANCH  52  76
BRANCH  64  87
ATOM     87  C   UNL A   1      44.771  33.764  29.351  1.00  0.00     0.064 A 
ATOM     88  C   UNL A   1      44.548  34.797  28.429  1.00  0.00     0.173 A 
ATOM     89  C   UNL A   1      45.501  34.063  30.511  1.00  0.00     0.173 A 
ATOM     90  F   UNL A   1      43.868  34.557  27.297  1.00  0.00    -0.203 F 
ATOM     91  C   UNL A   1      45.062  36.073  28.647  1.00  0.00     0.198 A 
ATOM     92  C   UNL A   1      45.989  35.346  30.739  1.00  0.00     0.198 A 
ATOM     93  F   UNL A   1      45.733  33.111  31.427  1.00  0.00    -0.203 F 
ATOM     94  F   UNL A   1      44.880  37.033  27.730  1.00  0.00    -0.200 F 
ATOM     95  C   UNL A   1      45.777  36.347  29.803  1.00  0.00     0.200 A 
ATOM     96  F   UNL A   1      46.668  35.613  31.863  1.00  0.00    -0.200 F 
ATOM     97  F   UNL A   1      46.268  37.576  30.013  1.00  0.00    -0.200 F 
ENDBRANCH  64  87
ENDBRANCH  38  39
ENDBRANCH  31  33
ENDBRANCH  30  31
ENDBRANCH  29  30
ENDBRANCH  28  29
ENDBRANCH  27  28
ENDBRANCH   1  27
TORSDOF 19
ENDMDL
MODEL 2
REMARK VINA RESULT:     -11.9      4.196      9.771
REMARK SMILES C[C@H](Sc1ccccn1)C(=O)N[C@H](C(=O)OCCOCCOC(=O)c1ccc(-c2c3nc(c(-c4c(F)c(F)c(F)c(F)c4F)c4ccc([nH]4)c(-c4c(F)c(F)c(F)c(F)c4F)c4nc(c(-c5c(F)c(F)c(F)c(F)c5F)c5ccc2[nH]5)C=C4)C=C3)cc1)c1ccc(F)cc1
REMARK SMILES IDX 18 1 17 2 16 3 14 4 15 5 13 6 12 7 10 8 11 9 2 11 1 12 3 13
REMARK SMILES IDX 4 14 5 15 9 16 6 17 8 18 7 19 88 20 89 21 94 22 90 23 93 24
REMARK SMILES IDX 91 25 92 26 19 27 20 28 21 29 22 30 23 31 24 32 25 33 26 34
REMARK SMILES IDX 87 35 27 36 86 37 28 38 29 39 30 40 80 41 31 42 85 43 79 44
REMARK SMILES IDX 81 45 32 46 84 47 78 48 77 49 33 51 65 52 45 53 64 54 46 55
REMARK SMILES IDX 49 56 63 57 82 58 47 59 48 60 62 62 83 63 50 64 34 65 35 66
REMARK SMILES IDX 43 67 36 68 37 69 41 70 44 71 38 72 39 73 42 74 40 75 66 76
REMARK SMILES IDX 67 77 75 78 68 79 69 80 73 81 76 82 70 83 71 84 74 85 72 86
REMARK SMILES IDX 51 87 52 88 60 89 53 90 54 91 58 92 61 93 55 94 56 95 59 96
REMARK SMILES IDX 57 97
REMARK H PARENT 12 10 81 50 49 61
REMARK Flexibility Score: inf
ROOT
ATOM      1  C   UNL A   1      33.711  28.576  25.482  1.00  0.00     0.202 C 
ENDROOT
BRANCH   1   2
ATOM      2  C   UNL A   1      33.591  28.043  24.049  1.00  0.00     0.261 C 
BRANCH   2   3
ATOM      3  O   UNL A   1      33.079  26.705  23.949  1.00  0.00    -0.461 OA
BRANCH   3   4
ATOM      4  C   UNL A   1      32.113  26.563  22.991  1.00  0.00     0.333 C 
ATOM      5  O   UNL A   1      32.353  26.369  21.808  1.00  0.00    -0.249 OA
BRANCH   4   6
ATOM      6  C   UNL A   1      30.693  26.716  23.557  1.00  0.00     0.223 C 
BRANCH   6   7
ATOM      7  N   UNL A   1      30.726  26.511  25.020  1.00  0.00    -0.338 N 
ATOM      8  C   UNL A   1      30.638  25.364  25.759  1.00  0.00     0.234 C 
ATOM      9  O   UNL A   1      29.762  25.412  26.636  1.00  0.00    -0.274 OA
ATOM     10  H   UNL A   1      30.827  27.334  25.550  1.00  0.00     0.164 HD
BRANCH   8  11
ATOM     11  C   UNL A   1      31.600  24.162  25.722  1.00  0.00     0.139 C 
ATOM     12  C   UNL A   1      32.916  24.339  26.457  1.00  0.00     0.030 C 
BRANCH  11  13
ATOM     13  S   UNL A   1      31.416  23.023  24.281  1.00  0.00    -0.093 SA
BRANCH  13  14
ATOM     14  C   UNL A   1      32.528  21.659  24.503  1.00  0.00     0.097 A 
ATOM     15  C   UNL A   1      33.911  21.794  24.475  1.00  0.00     0.035 A 
ATOM     16  N   UNL A   1      31.944  20.469  24.779  1.00  0.00    -0.250 NA
ATOM     17  C   UNL A   1      34.710  20.666  24.689  1.00  0.00     0.004 A 
ATOM     18  C   UNL A   1      32.733  19.396  25.009  1.00  0.00     0.112 A 
ATOM     19  C   UNL A   1      34.113  19.440  24.957  1.00  0.00     0.020 A 
ENDBRANCH  13  14
ENDBRANCH  11  13
ENDBRANCH   8  11
ENDBRANCH   6   7
BRANCH   6  20
ATOM     20  C   UNL A   1      29.847  27.871  23.054  1.00  0.00    -0.014 A 
ATOM     21  C   UNL A   1      28.458  27.929  23.275  1.00  0.00     0.009 A 
ATOM     22  C   UNL A   1      30.418  28.931  22.356  1.00  0.00     0.009 A 
ATOM     23  C   UNL A   1      27.706  29.038  22.860  1.00  0.00     0.039 A 
ATOM     24  C   UNL A   1      29.691  30.060  21.975  1.00  0.00     0.039 A 
ATOM     25  C   UNL A   1      28.336  30.107  22.238  1.00  0.00     0.123 A 
ATOM     26  F   UNL A   1      27.632  31.190  21.885  1.00  0.00    -0.207 F 
ENDBRANCH   6  20
ENDBRANCH   4   6
ENDBRANCH   3   4
ENDBRANCH   2   3
ENDBRANCH   1   2
BRANCH   1  27
ATOM     27  O   UNL A   1      32.547  28.956  26.206  1.00  0.00    -0.374 OA
BRANCH  27  28
ATOM     28  C   UNL A   1      31.754  30.031  25.721  1.00  0.00     0.202 C 
BRANCH  28  29
ATOM     29  C   UNL A   1      31.794  31.383  26.441  1.00  0.00     0.261 C 
BRANCH  29  30
ATOM     30  O   UNL A   1      32.590  31.384  27.634  1.00  0.00    -0.460 OA
BRANCH  30  31
ATOM     31  C   UNL A   1      33.467  32.410  27.708  1.00  0.00     0.338 C 
ATOM     32  O   UNL A   1      33.214  33.613  27.682  1.00  0.00    -0.246 OA
BRANCH  31  33
ATOM     33  C   UNL A   1      34.818  31.912  28.002  1.00  0.00     0.060 A 
ATOM     34  C   UNL A   1      34.947  30.551  28.307  1.00  0.00     0.016 A 
ATOM     35  C   UNL A   1      35.919  32.769  28.070  1.00  0.00     0.016 A 
ATOM     36  C   UNL A   1      36.168  30.051  28.741  1.00  0.00     0.010 A 
ATOM     37  C   UNL A   1      37.144  32.267  28.521  1.00  0.00     0.010 A 
ATOM     38  C   UNL A   1      37.258  30.918  28.899  1.00  0.00    -0.014 A 
BRANCH  38  39
ATOM     39  C   UNL A   1      38.448  30.424  29.626  1.00  0.00     0.031 A 
ATOM     40  C   UNL A   1      38.653  30.853  31.052  1.00  0.00     0.074 A 
ATOM     41  C   UNL A   1      39.281  29.541  29.049  1.00  0.00     0.049 A 
ATOM     42  N   UNL A   1      39.571  30.481  31.907  1.00  0.00    -0.248 NA
ATOM     43  C   UNL A   1      37.691  31.830  31.587  1.00  0.00     0.031 C 
ATOM     44  C   UNL A   1      39.157  29.035  27.685  1.00  0.00     0.029 A 
ATOM     45  N   UNL A   1      40.388  28.907  29.549  1.00  0.00    -0.354 N 
ATOM     46  C   UNL A   1      39.290  31.169  33.081  1.00  0.00     0.074 A 
ATOM     47  C   UNL A   1      38.144  32.010  32.818  1.00  0.00     0.031 C 
ATOM     48  C   UNL A   1      40.152  28.161  27.454  1.00  0.00     0.029 A 
ATOM     49  C   UNL A   1      40.987  28.061  28.649  1.00  0.00     0.049 A 
ATOM     50  H   UNL A   1      40.723  29.046  30.464  1.00  0.00     0.167 HD
ATOM     51  C   UNL A   1      39.926  31.094  34.273  1.00  0.00     0.037 A 
ATOM     52  C   UNL A   1      42.085  27.294  28.783  1.00  0.00     0.037 A 
ATOM     53  C   UNL A   1      41.069  30.258  34.527  1.00  0.00     0.049 A 
ATOM     54  C   UNL A   1      42.804  27.265  30.107  1.00  0.00     0.074 A 
ATOM     55  C   UNL A   1      41.781  30.099  35.703  1.00  0.00     0.029 A 
ATOM     56  N   UNL A   1      41.671  29.442  33.580  1.00  0.00    -0.354 N 
ATOM     57  N   UNL A   1      42.512  27.892  31.221  1.00  0.00    -0.248 NA
ATOM     58  C   UNL A   1      43.998  26.414  30.192  1.00  0.00     0.031 C 
ATOM     59  C   UNL A   1      42.841  29.220  35.455  1.00  0.00     0.029 A 
ATOM     60  C   UNL A   1      42.761  28.795  34.138  1.00  0.00     0.049 A 
ATOM     61  H   UNL A   1      41.369  29.338  32.649  1.00  0.00     0.167 HD
ATOM     62  C   UNL A   1      43.468  27.494  32.145  1.00  0.00     0.074 A 
ATOM     63  C   UNL A   1      44.340  26.558  31.464  1.00  0.00     0.031 C 
ATOM     64  C   UNL A   1      43.615  27.867  33.441  1.00  0.00     0.037 A 
BRANCH  51  65
ATOM     65  C   UNL A   1      39.409  31.956  35.386  1.00  0.00     0.064 A 
ATOM     66  C   UNL A   1      39.782  33.304  35.507  1.00  0.00     0.173 A 
ATOM     67  C   UNL A   1      38.512  31.435  36.331  1.00  0.00     0.173 A 
ATOM     68  F   UNL A   1      40.649  33.844  34.639  1.00  0.00    -0.203 F 
ATOM     69  C   UNL A   1      39.292  34.091  36.547  1.00  0.00     0.198 A 
ATOM     70  C   UNL A   1      38.007  32.232  37.354  1.00  0.00     0.198 A 
ATOM     71  F   UNL A   1      38.126  30.152  36.261  1.00  0.00    -0.203 F 
ATOM     72  F   UNL A   1      39.695  35.364  36.667  1.00  0.00    -0.200 F 
ATOM     73  C   UNL A   1      38.401  33.557  37.465  1.00  0.00     0.200 A 
ATOM     74  F   UNL A   1      37.140  31.717  38.236  1.00  0.00    -0.200 F 
ATOM     75  F   UNL A   1      37.928  34.317  38.462  1.00  0.00    -0.200 F 
ENDBRANCH  51  65
BRANCH  52  76
ATOM     76  C   UNL A   1      42.565  26.483  27.635  1.00  0.00     0.064 A 
ATOM     77  C   UNL A   1      42.090  25.183  27.416  1.00  0.00     0.173 A 
ATOM     78  C   UNL A   1      43.514  26.992  26.737  1.00  0.00     0.173 A 
ATOM     79  F   UNL A   1      41.199  24.643  28.261  1.00  0.00    -0.203 F 
ATOM     80  C   UNL A   1      42.558  24.417  26.350  1.00  0.00     0.198 A 
ATOM     81  C   UNL A   1      43.962  26.235  25.657  1.00  0.00     0.198 A 
ATOM     82  F   UNL A   1      44.000  28.231  26.904  1.00  0.00    -0.203 F 
ATOM     83  F   UNL A   1      42.119  23.162  26.186  1.00  0.00    -0.200 F 
ATOM     84  C   UNL A   1      43.489  24.946  25.468  1.00  0.00     0.200 A 
ATOM     85  F   UNL A   1      44.855  26.754  24.802  1.00  0.00    -0.200 F 
ATOM     86  F   UNL A   1      43.937  24.210  24.441  1.00  0.00    -0.200 F 
ENDBRANCH  52  76
BRANCH  64  87
ATOM     87  C   UNL A   1      44.743  27.245  34.209  1.00  0.00     0.064 A 
ATOM     88  C   UNL A   1      46.002  27.857  34.287  1.00  0.00     0.173 A 
ATOM     89  C   UNL A   1      44.552  26.040  34.901  1.00  0.00     0.173 A 
ATOM     90  F   UNL A   1      46.237  29.004  33.631  1.00  0.00    -0.203 F 
ATOM     91  C   UNL A   1      47.039  27.269  35.007  1.00  0.00     0.198 A 
ATOM     92  C   UNL A   1      45.583  25.469  35.643  1.00  0.00     0.198 A 
ATOM     93  F   UNL A   1      43.363  25.419  34.865  1.00  0.00    -0.203 F 
ATOM     94  F   UNL A   1      48.248  27.846  35.028  1.00  0.00    -0.200 F 
ATOM     95  C   UNL A   1      46.827  26.080  35.688  1.00  0.00     0.200 A 
ATOM     96  F   UNL A   1      45.373  24.327  36.311  1.00  0.00    -0.200 F 
ATOM     97  F   UNL A   1      47.826  25.518  36.383  1.00  0.00    -0.200 F 
ENDBRANCH  64  87
ENDBRANCH  38  39
ENDBRANCH  31  33
ENDBRANCH  30  31
ENDBRANCH  29  30
ENDBRANCH  28  29
ENDBRANCH  27  28
ENDBRANCH   1  27
TORSDOF 19
ENDMDL
MODEL 3
REMARK VINA RESULT:     -11.9      4.212      9.766
REMARK SMILES C[C@H](Sc1ccccn1)C(=O)N[C@H](C(=O)OCCOCCOC(=O)c1ccc(-c2c3nc(c(-c4c(F)c(F)c(F)c(F)c4F)c4ccc([nH]4)c(-c4c(F)c(F)c(F)c(F)c4F)c4nc(c(-c5c(F)c(F)c(F)c(F)c5F)c5ccc2[nH]5)C=C4)C=C3)cc1)c1ccc(F)cc1
REMARK SMILES IDX 18 1 17 2 16 3 14 4 15 5 13 6 12 7 10 8 11 9 2 11 1 12 3 13
REMARK SMILES IDX 4 14 5 15 9 16 6 17 8 18 7 19 88 20 89 21 94 22 90 23 93 24
REMARK SMILES IDX 91 25 92 26 19 27 20 28 21 29 22 30 23 31 24 32 25 33 26 34
REMARK SMILES IDX 87 35 27 36 86 37 28 38 29 39 30 40 80 41 31 42 85 43 79 44
REMARK SMILES IDX 81 45 32 46 84 47 78 48 77 49 33 51 65 52 45 53 64 54 46 55
REMARK SMILES IDX 49 56 63 57 82 58 47 59 48 60 62 62 83 63 50 64 34 65 35 66
REMARK SMILES IDX 43 67 36 68 37 69 41 70 44 71 38 72 39 73 42 74 40 75 66 76
REMARK SMILES IDX 67 77 75 78 68 79 69 80 73 81 76 82 70 83 71 84 74 85 72 86
REMARK SMILES IDX 51 87 52 88 60 89 53 90 54 91 58 92 61 93 55 94 56 95 59 96
REMARK SMILES IDX 57 97
REMARK H PARENT 12 10 81 50 49 61
REMARK Flexibility Score: inf
ROOT
ATOM      1  C   UNL A   1      33.759  28.598  25.289  1.00  0.00     0.202 C 
ENDROOT
BRANCH   1   2
ATOM      2  C   UNL A   1      34.001  27.999  23.898  1.00  0.00     0.261 C 
BRANCH   2   3
ATOM      3  O   UNL A   1      33.979  26.564  23.851  1.00  0.00    -0.461 OA
BRANCH   3   4
ATOM      4  C   UNL A   1      33.260  26.065  22.800  1.00  0.00     0.333 C 
ATOM      5  O   UNL A   1      33.676  26.028  21.651  1.00  0.00    -0.249 OA
BRANCH   4   6
ATOM      6  C   UNL A   1      31.856  25.597  23.214  1.00  0.00     0.223 C 
BRANCH   6   7
ATOM      7  N   UNL A   1      31.951  24.816  24.464  1.00  0.00    -0.338 N 
ATOM      8  C   UNL A   1      31.831  23.472  24.684  1.00  0.00     0.234 C 
ATOM      9  O   UNL A   1      31.004  23.192  25.567  1.00  0.00    -0.274 OA
ATOM     10  H   UNL A   1      32.130  25.350  25.271  1.00  0.00     0.164 HD
BRANCH   8  11
ATOM     11  C   UNL A   1      32.713  22.355  24.098  1.00  0.00     0.139 C 
ATOM     12  C   UNL A   1      32.291  21.813  22.744  1.00  0.00     0.030 C 
BRANCH  11  13
ATOM     13  S   UNL A   1      33.650  21.339  25.322  1.00  0.00    -0.093 SA
BRANCH  13  14
ATOM     14  C   UNL A   1      35.286  22.008  25.466  1.00  0.00     0.097 A 
ATOM     15  C   UNL A   1      35.547  23.270  25.987  1.00  0.00     0.035 A 
ATOM     16  N   UNL A   1      36.291  21.178  25.101  1.00  0.00    -0.250 NA
ATOM     17  C   UNL A   1      36.873  23.703  26.090  1.00  0.00     0.004 A 
ATOM     18  C   UNL A   1      37.567  21.605  25.232  1.00  0.00     0.112 A 
ATOM     19  C   UNL A   1      37.906  22.859  25.701  1.00  0.00     0.020 A 
ENDBRANCH  13  14
ENDBRANCH  11  13
ENDBRANCH   8  11
ENDBRANCH   6   7
BRANCH   6  20
ATOM     20  C   UNL A   1      30.718  26.597  23.124  1.00  0.00    -0.014 A 
ATOM     21  C   UNL A   1      29.485  26.380  23.767  1.00  0.00     0.009 A 
ATOM     22  C   UNL A   1      30.853  27.779  22.402  1.00  0.00     0.009 A 
ATOM     23  C   UNL A   1      28.469  27.349  23.726  1.00  0.00     0.039 A 
ATOM     24  C   UNL A   1      29.869  28.769  22.388  1.00  0.00     0.039 A 
ATOM     25  C   UNL A   1      28.683  28.547  23.059  1.00  0.00     0.123 A 
ATOM     26  F   UNL A   1      27.737  29.494  23.060  1.00  0.00    -0.207 F 
ENDBRANCH   6  20
ENDBRANCH   4   6
ENDBRANCH   3   4
ENDBRANCH   2   3
ENDBRANCH   1   2
BRANCH   1  27
ATOM     27  O   UNL A   1      32.433  28.809  25.758  1.00  0.00    -0.374 OA
BRANCH  27  28
ATOM     28  C   UNL A   1      31.751  29.999  25.385  1.00  0.00     0.202 C 
BRANCH  28  29
ATOM     29  C   UNL A   1      31.749  31.198  26.339  1.00  0.00     0.261 C 
BRANCH  29  30
ATOM     30  O   UNL A   1      32.652  31.063  27.446  1.00  0.00    -0.460 OA
BRANCH  30  31
ATOM     31  C   UNL A   1      33.477  32.121  27.613  1.00  0.00     0.338 C 
ATOM     32  O   UNL A   1      33.169  33.310  27.651  1.00  0.00    -0.246 OA
BRANCH  31  33
ATOM     33  C   UNL A   1      34.839  31.666  27.926  1.00  0.00     0.060 A 
ATOM     34  C   UNL A   1      35.022  30.296  28.148  1.00  0.00     0.016 A 
ATOM     35  C   UNL A   1      35.895  32.566  28.089  1.00  0.00     0.016 A 
ATOM     36  C   UNL A   1      36.250  29.824  28.595  1.00  0.00     0.010 A 
ATOM     37  C   UNL A   1      37.126  32.092  28.552  1.00  0.00     0.010 A 
ATOM     38  C   UNL A   1      37.291  30.727  28.848  1.00  0.00    -0.014 A 
BRANCH  38  39
ATOM     39  C   UNL A   1      38.478  30.241  29.585  1.00  0.00     0.031 A 
ATOM     40  C   UNL A   1      38.681  30.693  31.005  1.00  0.00     0.074 A 
ATOM     41  C   UNL A   1      39.310  29.347  29.026  1.00  0.00     0.049 A 
ATOM     42  N   UNL A   1      39.595  30.332  31.868  1.00  0.00    -0.248 NA
ATOM     43  C   UNL A   1      37.720  31.681  31.521  1.00  0.00     0.031 C 
ATOM     44  C   UNL A   1      39.188  28.819  27.669  1.00  0.00     0.029 A 
ATOM     45  N   UNL A   1      40.414  28.718  29.538  1.00  0.00    -0.354 N 
ATOM     46  C   UNL A   1      39.314  31.040  33.030  1.00  0.00     0.074 A 
ATOM     47  C   UNL A   1      38.170  31.880  32.751  1.00  0.00     0.031 C 
ATOM     48  C   UNL A   1      40.181  27.939  27.455  1.00  0.00     0.029 A 
ATOM     49  C   UNL A   1      41.012  27.855  28.654  1.00  0.00     0.049 A 
ATOM     50  H   UNL A   1      40.746  28.870  30.452  1.00  0.00     0.167 HD
ATOM     51  C   UNL A   1      39.946  30.982  34.226  1.00  0.00     0.037 A 
ATOM     52  C   UNL A   1      42.108  27.087  28.803  1.00  0.00     0.037 A 
ATOM     53  C   UNL A   1      41.085  30.147  34.496  1.00  0.00     0.049 A 
ATOM     54  C   UNL A   1      42.823  27.078  30.129  1.00  0.00     0.074 A 
ATOM     55  C   UNL A   1      41.794  30.004  35.676  1.00  0.00     0.029 A 
ATOM     56  N   UNL A   1      41.688  29.314  33.564  1.00  0.00    -0.354 N 
ATOM     57  N   UNL A   1      42.530  27.723  31.232  1.00  0.00    -0.248 NA
ATOM     58  C   UNL A   1      44.014  26.224  30.231  1.00  0.00     0.031 C 
ATOM     59  C   UNL A   1      42.851  29.118  35.446  1.00  0.00     0.029 A 
ATOM     60  C   UNL A   1      42.774  28.672  34.135  1.00  0.00     0.049 A 
ATOM     61  H   UNL A   1      41.388  29.196  32.634  1.00  0.00     0.167 HD
ATOM     62  C   UNL A   1      43.483  27.337  32.165  1.00  0.00     0.074 A 
ATOM     63  C   UNL A   1      44.354  26.388  31.502  1.00  0.00     0.031 C 
ATOM     64  C   UNL A   1      43.627  27.731  33.455  1.00  0.00     0.037 A 
BRANCH  51  65
ATOM     65  C   UNL A   1      39.429  31.863  35.323  1.00  0.00     0.064 A 
ATOM     66  C   UNL A   1      39.819  33.207  35.434  1.00  0.00     0.173 A 
ATOM     67  C   UNL A   1      38.514  31.366  36.263  1.00  0.00     0.173 A 
ATOM     68  F   UNL A   1      40.704  33.726  34.570  1.00  0.00    -0.203 F 
ATOM     69  C   UNL A   1      39.329  34.013  36.459  1.00  0.00     0.198 A 
ATOM     70  C   UNL A   1      38.008  32.181  37.272  1.00  0.00     0.198 A 
ATOM     71  F   UNL A   1      38.110  30.088  36.202  1.00  0.00    -0.203 F 
ATOM     72  F   UNL A   1      39.749  35.281  36.571  1.00  0.00    -0.200 F 
ATOM     73  C   UNL A   1      38.420  33.501  37.373  1.00  0.00     0.200 A 
ATOM     74  F   UNL A   1      37.124  31.687  38.149  1.00  0.00    -0.200 F 
ATOM     75  F   UNL A   1      37.946  34.278  38.356  1.00  0.00    -0.200 F 
ENDBRANCH  51  65
BRANCH  52  76
ATOM     76  C   UNL A   1      42.588  26.257  27.670  1.00  0.00     0.064 A 
ATOM     77  C   UNL A   1      43.587  26.719  26.802  1.00  0.00     0.173 A 
ATOM     78  C   UNL A   1      42.054  24.983  27.429  1.00  0.00     0.173 A 
ATOM     79  F   UNL A   1      44.113  27.941  26.977  1.00  0.00    -0.203 F 
ATOM     80  C   UNL A   1      44.021  25.946  25.727  1.00  0.00     0.198 A 
ATOM     81  C   UNL A   1      42.506  24.200  26.371  1.00  0.00     0.198 A 
ATOM     82  F   UNL A   1      41.096  24.495  28.231  1.00  0.00    -0.203 F 
ATOM     83  F   UNL A   1      44.946  26.429  24.888  1.00  0.00    -0.200 F 
ATOM     84  C   UNL A   1      43.484  24.684  25.516  1.00  0.00     0.200 A 
ATOM     85  F   UNL A   1      41.991  22.977  26.176  1.00  0.00    -0.200 F 
ATOM     86  F   UNL A   1      43.904  23.939  24.484  1.00  0.00    -0.200 F 
ENDBRANCH  52  76
BRANCH  64  87
ATOM     87  C   UNL A   1      44.751  27.117  34.236  1.00  0.00     0.064 A 
ATOM     88  C   UNL A   1      46.009  27.732  34.315  1.00  0.00     0.173 A 
ATOM     89  C   UNL A   1      44.558  25.920  34.940  1.00  0.00     0.173 A 
ATOM     90  F   UNL A   1      46.247  28.872  33.649  1.00  0.00    -0.203 F 
ATOM     91  C   UNL A   1      47.043  27.153  35.047  1.00  0.00     0.198 A 
ATOM     92  C   UNL A   1      45.585  25.358  35.693  1.00  0.00     0.198 A 
ATOM     93  F   UNL A   1      43.369  25.297  34.902  1.00  0.00    -0.203 F 
ATOM     94  F   UNL A   1      48.251  27.731  35.070  1.00  0.00    -0.200 F 
ATOM     95  C   UNL A   1      46.828  25.971  35.739  1.00  0.00     0.200 A 
ATOM     96  F   UNL A   1      45.372  24.222  36.372  1.00  0.00    -0.200 F 
ATOM     97  F   UNL A   1      47.823  25.417  36.446  1.00  0.00    -0.200 F 
ENDBRANCH  64  87
ENDBRANCH  38  39
ENDBRANCH  31  33
ENDBRANCH  30  31
ENDBRANCH  29  30
ENDBRANCH  28  29
ENDBRANCH  27  28
ENDBRANCH   1  27
TORSDOF 19
ENDMDL
