MODEL 1
REMARK VINA RESULT:     -12.3      0.000      0.000
REMARK SMILES Cn1c(=O)c2c(-c3ccc(Cl)cc3)n(CC(=O)OCCOCCOC(=O)c3ccc(-c4c5nc(c(-c6c(F)c(F)c(F)c(F)c6F)c6ccc([nH]6)c(-c6c(F)c(F)c(F)c(F)c6F)c6nc(c(-c7c(F)c(F)c(F)c(F)c7F)c7ccc4[nH]7)C=C6)C=C5)cc3)cc2n(C)c1=O
REMARK SMILES IDX 21 1 20 2 19 3 18 4 16 5 17 6 15 7 14 8 1 9 2 10 3 11 94 12
REMARK SMILES IDX 4 13 5 14 92 15 95 16 6 17 91 18 93 19 90 20 7 21 8 22 13 23
REMARK SMILES IDX 9 24 12 25 10 26 11 27 22 28 23 29 24 30 25 31 26 32 27 33
REMARK SMILES IDX 28 34 89 35 29 36 88 37 30 38 31 39 32 40 82 41 33 42 87 43
REMARK SMILES IDX 81 44 83 45 34 46 86 47 80 48 79 49 35 51 67 52 47 53 66 54
REMARK SMILES IDX 48 55 51 56 65 57 84 58 49 59 50 60 64 62 85 63 52 64 36 65
REMARK SMILES IDX 37 66 45 67 38 68 39 69 43 70 46 71 40 72 41 73 44 74 42 75
REMARK SMILES IDX 68 76 69 77 77 78 70 79 71 80 75 81 78 82 72 83 73 84 76 85
REMARK SMILES IDX 74 86 53 87 54 88 62 89 55 90 56 91 60 92 63 93 57 94 58 95
REMARK SMILES IDX 61 96 59 97
REMARK H PARENT 83 50 51 61
REMARK Flexibility Score: inf
ROOT
ATOM      1  O   UNL A   1      40.338  20.616  26.162  1.00  0.00    -0.374 OA
ENDROOT
BRANCH   1   2
ATOM      2  C   UNL A   1      39.755  21.916  26.104  1.00  0.00     0.202 C 
BRANCH   2   3
ATOM      3  C   UNL A   1      38.235  22.023  25.965  1.00  0.00     0.261 C 
BRANCH   3   4
ATOM      4  O   UNL A   1      37.775  21.813  24.615  1.00  0.00    -0.462 OA
BRANCH   4   5
ATOM      5  C   UNL A   1      36.786  22.655  24.213  1.00  0.00     0.326 C 
ATOM      6  O   UNL A   1      36.529  22.905  23.037  1.00  0.00    -0.250 OA
BRANCH   5   7
ATOM      7  C   UNL A   1      35.903  23.190  25.306  1.00  0.00     0.244 C 
BRANCH   7   8
ATOM      8  N   UNL A   1      34.723  23.975  24.939  1.00  0.00    -0.333 N 
ATOM      9  C   UNL A   1      29.333  26.250  23.989  1.00  0.00     0.158 C 
ATOM     10  N   UNL A   1      30.753  26.045  24.205  1.00  0.00    -0.263 N 
ATOM     11  C   UNL A   1      31.224  24.725  24.183  1.00  0.00     0.265 A 
ATOM     12  C   UNL A   1      31.533  27.206  24.343  1.00  0.00     0.330 A 
ATOM     13  O   UNL A   1      30.521  23.758  23.911  1.00  0.00    -0.268 OA
ATOM     14  C   UNL A   1      32.634  24.613  24.487  1.00  0.00     0.090 A 
ATOM     15  N   UNL A   1      32.889  27.038  24.642  1.00  0.00    -0.295 N 
ATOM     16  O   UNL A   1      31.040  28.328  24.187  1.00  0.00    -0.248 OA
ATOM     17  C   UNL A   1      33.447  23.493  24.661  1.00  0.00     0.064 A 
ATOM     18  C   UNL A   1      33.408  25.757  24.724  1.00  0.00     0.076 A 
ATOM     19  C   UNL A   1      33.723  28.218  24.821  1.00  0.00     0.155 C 
ATOM     20  C   UNL A   1      34.673  25.349  25.056  1.00  0.00     0.114 A 
BRANCH  17  21
ATOM     21  C   UNL A   1      33.109  22.069  24.620  1.00  0.00    -0.001 A 
ATOM     22  C   UNL A   1      33.124  21.307  25.798  1.00  0.00     0.012 A 
ATOM     23  C   UNL A   1      32.782  21.446  23.413  1.00  0.00     0.012 A 
ATOM     24  C   UNL A   1      32.901  19.931  25.758  1.00  0.00     0.021 A 
ATOM     25  C   UNL A   1      32.525  20.071  23.376  1.00  0.00     0.021 A 
ATOM     26  C   UNL A   1      32.606  19.317  24.545  1.00  0.00     0.041 A 
ATOM     27  Cl  UNL A   1      32.343  17.618  24.491  1.00  0.00    -0.084 Cl
ENDBRANCH  17  21
ENDBRANCH   7   8
ENDBRANCH   5   7
ENDBRANCH   4   5
ENDBRANCH   3   4
ENDBRANCH   2   3
ENDBRANCH   1   2
BRANCH   1  28
ATOM     28  C   UNL A   1      41.731  20.467  26.403  1.00  0.00     0.202 C 
BRANCH  28  29
ATOM     29  C   UNL A   1      42.490  19.402  25.623  1.00  0.00     0.261 C 
BRANCH  29  30
ATOM     30  O   UNL A   1      43.890  19.636  25.601  1.00  0.00    -0.460 OA
BRANCH  30  31
ATOM     31  C   UNL A   1      44.304  20.257  24.472  1.00  0.00     0.338 C 
ATOM     32  O   UNL A   1      44.515  19.747  23.387  1.00  0.00    -0.246 OA
BRANCH  31  33
ATOM     33  C   UNL A   1      44.617  21.654  24.771  1.00  0.00     0.060 A 
ATOM     34  C   UNL A   1      45.533  21.861  25.806  1.00  0.00     0.016 A 
ATOM     35  C   UNL A   1      43.777  22.670  24.297  1.00  0.00     0.016 A 
ATOM     36  C   UNL A   1      45.435  23.019  26.535  1.00  0.00     0.010 A 
ATOM     37  C   UNL A   1      43.657  23.813  25.045  1.00  0.00     0.010 A 
ATOM     38  C   UNL A   1      44.429  23.928  26.199  1.00  0.00    -0.014 A 
BRANCH  38  39
ATOM     39  C   UNL A   1      44.267  25.086  27.045  1.00  0.00     0.031 A 
ATOM     40  C   UNL A   1      45.380  26.047  26.893  1.00  0.00     0.074 A 
ATOM     41  C   UNL A   1      43.158  25.259  27.785  1.00  0.00     0.049 A 
ATOM     42  N   UNL A   1      46.243  26.409  27.783  1.00  0.00    -0.248 NA
ATOM     43  C   UNL A   1      45.689  26.514  25.529  1.00  0.00     0.031 C 
ATOM     44  C   UNL A   1      41.927  24.465  27.766  1.00  0.00     0.029 A 
ATOM     45  N   UNL A   1      42.858  26.264  28.649  1.00  0.00    -0.354 N 
ATOM     46  C   UNL A   1      47.080  27.309  27.133  1.00  0.00     0.074 A 
ATOM     47  C   UNL A   1      46.834  27.164  25.725  1.00  0.00     0.031 C 
ATOM     48  C   UNL A   1      40.947  25.148  28.400  1.00  0.00     0.029 A 
ATOM     49  C   UNL A   1      41.508  26.362  28.961  1.00  0.00     0.049 A 
ATOM     50  H   UNL A   1      43.539  26.871  29.020  1.00  0.00     0.167 HD
ATOM     51  C   UNL A   1      47.691  28.310  27.818  1.00  0.00     0.037 A 
ATOM     52  C   UNL A   1      40.914  27.437  29.540  1.00  0.00     0.037 A 
ATOM     53  C   UNL A   1      47.772  28.002  29.221  1.00  0.00     0.049 A 
ATOM     54  C   UNL A   1      41.994  28.235  30.185  1.00  0.00     0.074 A 
ATOM     55  C   UNL A   1      48.375  26.993  29.947  1.00  0.00     0.029 A 
ATOM     56  N   UNL A   1      46.845  28.570  30.061  1.00  0.00    -0.354 N 
ATOM     57  N   UNL A   1      42.687  27.821  31.211  1.00  0.00    -0.248 NA
ATOM     58  C   UNL A   1      42.624  29.278  29.386  1.00  0.00     0.031 C 
ATOM     59  C   UNL A   1      47.466  26.701  31.002  1.00  0.00     0.029 A 
ATOM     60  C   UNL A   1      46.394  27.591  30.909  1.00  0.00     0.049 A 
ATOM     61  H   UNL A   1      46.554  29.510  30.055  1.00  0.00     0.167 HD
ATOM     62  C   UNL A   1      43.987  28.234  30.952  1.00  0.00     0.074 A 
ATOM     63  C   UNL A   1      43.875  29.182  29.847  1.00  0.00     0.031 C 
ATOM     64  C   UNL A   1      45.055  27.549  31.454  1.00  0.00     0.037 A 
BRANCH  51  65
ATOM     65  C   UNL A   1      47.857  29.703  27.267  1.00  0.00     0.064 A 
ATOM     66  C   UNL A   1      49.121  30.315  27.325  1.00  0.00     0.173 A 
ATOM     67  C   UNL A   1      46.782  30.561  26.937  1.00  0.00     0.173 A 
ATOM     68  F   UNL A   1      50.208  29.606  27.666  1.00  0.00    -0.203 F 
ATOM     69  C   UNL A   1      49.285  31.688  27.122  1.00  0.00     0.198 A 
ATOM     70  C   UNL A   1      46.957  31.915  26.675  1.00  0.00     0.198 A 
ATOM     71  F   UNL A   1      45.505  30.161  26.967  1.00  0.00    -0.203 F 
ATOM     72  F   UNL A   1      50.488  32.247  27.307  1.00  0.00    -0.200 F 
ATOM     73  C   UNL A   1      48.203  32.487  26.796  1.00  0.00     0.200 A 
ATOM     74  F   UNL A   1      45.889  32.673  26.385  1.00  0.00    -0.200 F 
ATOM     75  F   UNL A   1      48.350  33.810  26.650  1.00  0.00    -0.200 F 
ENDBRANCH  51  65
BRANCH  52  76
ATOM     76  C   UNL A   1      39.574  28.004  29.236  1.00  0.00     0.064 A 
ATOM     77  C   UNL A   1      38.608  28.165  30.245  1.00  0.00     0.173 A 
ATOM     78  C   UNL A   1      39.299  28.645  28.010  1.00  0.00     0.173 A 
ATOM     79  F   UNL A   1      38.810  27.635  31.460  1.00  0.00    -0.203 F 
ATOM     80  C   UNL A   1      37.455  28.933  30.045  1.00  0.00     0.198 A 
ATOM     81  C   UNL A   1      38.144  29.402  27.809  1.00  0.00     0.198 A 
ATOM     82  F   UNL A   1      40.191  28.633  27.010  1.00  0.00    -0.203 F 
ATOM     83  F   UNL A   1      36.589  29.115  31.053  1.00  0.00    -0.200 F 
ATOM     84  C   UNL A   1      37.228  29.558  28.830  1.00  0.00     0.200 A 
ATOM     85  F   UNL A   1      37.957  30.031  26.640  1.00  0.00    -0.200 F 
ATOM     86  F   UNL A   1      36.153  30.339  28.656  1.00  0.00    -0.200 F 
ENDBRANCH  52  76
BRANCH  64  87
ATOM     87  C   UNL A   1      44.800  26.488  32.490  1.00  0.00     0.064 A 
ATOM     88  C   UNL A   1      44.567  26.763  33.849  1.00  0.00     0.173 A 
ATOM     89  C   UNL A   1      44.571  25.178  32.049  1.00  0.00     0.173 A 
ATOM     90  F   UNL A   1      44.675  28.008  34.329  1.00  0.00    -0.203 F 
ATOM     91  C   UNL A   1      44.136  25.766  34.724  1.00  0.00     0.198 A 
ATOM     92  C   UNL A   1      44.105  24.195  32.916  1.00  0.00     0.198 A 
ATOM     93  F   UNL A   1      44.728  24.872  30.751  1.00  0.00    -0.203 F 
ATOM     94  F   UNL A   1      43.908  26.055  36.014  1.00  0.00    -0.200 F 
ATOM     95  C   UNL A   1      43.889  24.487  34.253  1.00  0.00     0.200 A 
ATOM     96  F   UNL A   1      43.818  22.974  32.443  1.00  0.00    -0.200 F 
ATOM     97  F   UNL A   1      43.412  23.545  35.078  1.00  0.00    -0.200 F 
ENDBRANCH  64  87
ENDBRANCH  38  39
ENDBRANCH  31  33
ENDBRANCH  30  31
ENDBRANCH  29  30
ENDBRANCH  28  29
ENDBRANCH   1  28
TORSDOF 16
ENDMDL
MODEL 2
REMARK VINA RESULT:     -12.1      4.584      8.362
REMARK SMILES Cn1c(=O)c2c(-c3ccc(Cl)cc3)n(CC(=O)OCCOCCOC(=O)c3ccc(-c4c5nc(c(-c6c(F)c(F)c(F)c(F)c6F)c6ccc([nH]6)c(-c6c(F)c(F)c(F)c(F)c6F)c6nc(c(-c7c(F)c(F)c(F)c(F)c7F)c7ccc4[nH]7)C=C6)C=C5)cc3)cc2n(C)c1=O
REMARK SMILES IDX 21 1 20 2 19 3 18 4 16 5 17 6 15 7 14 8 1 9 2 10 3 11 94 12
REMARK SMILES IDX 4 13 5 14 92 15 95 16 6 17 91 18 93 19 90 20 7 21 8 22 13 23
REMARK SMILES IDX 9 24 12 25 10 26 11 27 22 28 23 29 24 30 25 31 26 32 27 33
REMARK SMILES IDX 28 34 89 35 29 36 88 37 30 38 31 39 32 40 82 41 33 42 87 43
REMARK SMILES IDX 81 44 83 45 34 46 86 47 80 48 79 49 35 51 67 52 47 53 66 54
REMARK SMILES IDX 48 55 51 56 65 57 84 58 49 59 50 60 64 62 85 63 52 64 36 65
REMARK SMILES IDX 37 66 45 67 38 68 39 69 43 70 46 71 40 72 41 73 44 74 42 75
REMARK SMILES IDX 68 76 69 77 77 78 70 79 71 80 75 81 78 82 72 83 73 84 76 85
REMARK SMILES IDX 74 86 53 87 54 88 62 89 55 90 56 91 60 92 63 93 57 94 58 95
REMARK SMILES IDX 61 96 59 97
REMARK H PARENT 83 50 51 61
REMARK Flexibility Score: inf
ROOT
ATOM      1  O   UNL A   1      43.043  21.255  26.757  1.00  0.00    -0.374 OA
ENDROOT
BRANCH   1   2
ATOM      2  C   UNL A   1      43.796  22.203  26.003  1.00  0.00     0.202 C 
BRANCH   2   3
ATOM      3  C   UNL A   1      43.051  23.086  24.999  1.00  0.00     0.261 C 
BRANCH   3   4
ATOM      4  O   UNL A   1      43.802  24.252  24.606  1.00  0.00    -0.462 OA
BRANCH   4   5
ATOM      5  C   UNL A   1      43.353  25.423  25.132  1.00  0.00     0.326 C 
ATOM      6  O   UNL A   1      42.523  26.148  24.587  1.00  0.00    -0.250 OA
BRANCH   5   7
ATOM      7  C   UNL A   1      43.836  25.742  26.519  1.00  0.00     0.244 C 
BRANCH   7   8
ATOM      8  N   UNL A   1      45.271  25.928  26.740  1.00  0.00    -0.333 N 
ATOM      9  C   UNL A   1      50.968  25.715  28.361  1.00  0.00     0.158 C 
ATOM     10  N   UNL A   1      49.713  25.930  27.667  1.00  0.00    -0.263 N 
ATOM     11  C   UNL A   1      48.531  25.677  28.379  1.00  0.00     0.265 A 
ATOM     12  C   UNL A   1      49.806  26.444  26.361  1.00  0.00     0.330 A 
ATOM     13  O   UNL A   1      48.507  25.370  29.566  1.00  0.00    -0.268 OA
ATOM     14  C   UNL A   1      47.334  25.841  27.582  1.00  0.00     0.090 A 
ATOM     15  N   UNL A   1      48.617  26.576  25.636  1.00  0.00    -0.295 N 
ATOM     16  O   UNL A   1      50.894  26.782  25.886  1.00  0.00    -0.248 OA
ATOM     17  C   UNL A   1      45.995  25.594  27.881  1.00  0.00     0.064 A 
ATOM     18  C   UNL A   1      47.415  26.260  26.247  1.00  0.00     0.076 A 
ATOM     19  C   UNL A   1      48.676  27.078  24.271  1.00  0.00     0.155 C 
ATOM     20  C   UNL A   1      46.148  26.254  25.726  1.00  0.00     0.114 A 
BRANCH  17  21
ATOM     21  C   UNL A   1      45.386  25.056  29.099  1.00  0.00    -0.001 A 
ATOM     22  C   UNL A   1      45.265  25.861  30.242  1.00  0.00     0.012 A 
ATOM     23  C   UNL A   1      44.932  23.735  29.148  1.00  0.00     0.012 A 
ATOM     24  C   UNL A   1      44.779  25.332  31.437  1.00  0.00     0.021 A 
ATOM     25  C   UNL A   1      44.412  23.212  30.338  1.00  0.00     0.021 A 
ATOM     26  C   UNL A   1      44.358  24.007  31.481  1.00  0.00     0.041 A 
ATOM     27  Cl  UNL A   1      43.770  23.349  32.958  1.00  0.00    -0.084 Cl
ENDBRANCH  17  21
ENDBRANCH   7   8
ENDBRANCH   5   7
ENDBRANCH   4   5
ENDBRANCH   3   4
ENDBRANCH   2   3
ENDBRANCH   1   2
BRANCH   1  28
ATOM     28  C   UNL A   1      42.004  20.510  26.135  1.00  0.00     0.202 C 
BRANCH  28  29
ATOM     29  C   UNL A   1      40.591  20.638  26.689  1.00  0.00     0.261 C 
BRANCH  29  30
ATOM     30  O   UNL A   1      40.438  21.768  27.534  1.00  0.00    -0.460 OA
BRANCH  30  31
ATOM     31  C   UNL A   1      39.682  22.744  26.978  1.00  0.00     0.338 C 
ATOM     32  O   UNL A   1      38.658  22.605  26.334  1.00  0.00    -0.246 OA
BRANCH  31  33
ATOM     33  C   UNL A   1      40.357  24.032  27.135  1.00  0.00     0.060 A 
ATOM     34  C   UNL A   1      41.304  24.098  28.160  1.00  0.00     0.016 A 
ATOM     35  C   UNL A   1      39.812  25.177  26.540  1.00  0.00     0.016 A 
ATOM     36  C   UNL A   1      41.523  25.312  28.761  1.00  0.00     0.010 A 
ATOM     37  C   UNL A   1      40.006  26.384  27.160  1.00  0.00     0.010 A 
ATOM     38  C   UNL A   1      40.791  26.414  28.311  1.00  0.00    -0.014 A 
BRANCH  38  39
ATOM     39  C   UNL A   1      40.949  27.656  29.028  1.00  0.00     0.031 A 
ATOM     40  C   UNL A   1      42.060  28.471  28.490  1.00  0.00     0.074 A 
ATOM     41  C   UNL A   1      40.089  28.018  29.995  1.00  0.00     0.049 A 
ATOM     42  N   UNL A   1      43.151  28.819  29.087  1.00  0.00    -0.248 NA
ATOM     43  C   UNL A   1      42.041  28.772  27.046  1.00  0.00     0.031 C 
ATOM     44  C   UNL A   1      38.835  27.365  30.378  1.00  0.00     0.029 A 
ATOM     45  N   UNL A   1      40.107  29.127  30.780  1.00  0.00    -0.354 N 
ATOM     46  C   UNL A   1      43.860  29.557  28.146  1.00  0.00     0.074 A 
ATOM     47  C   UNL A   1      43.247  29.308  26.872  1.00  0.00     0.031 C 
ATOM     48  C   UNL A   1      38.112  28.207  31.151  1.00  0.00     0.029 A 
ATOM     49  C   UNL A   1      38.897  29.400  31.406  1.00  0.00     0.049 A 
ATOM     50  H   UNL A   1      40.908  29.688  30.896  1.00  0.00     0.167 HD
ATOM     51  C   UNL A   1      44.708  30.545  28.534  1.00  0.00     0.037 A 
ATOM     52  C   UNL A   1      38.563  30.583  31.983  1.00  0.00     0.037 A 
ATOM     53  C   UNL A   1      45.125  30.363  29.899  1.00  0.00     0.049 A 
ATOM     54  C   UNL A   1      39.835  31.315  32.239  1.00  0.00     0.074 A 
ATOM     55  C   UNL A   1      45.812  29.366  30.565  1.00  0.00     0.029 A 
ATOM     56  N   UNL A   1      44.498  31.104  30.870  1.00  0.00    -0.354 N 
ATOM     57  N   UNL A   1      40.735  30.926  33.102  1.00  0.00    -0.248 NA
ATOM     58  C   UNL A   1      40.320  32.204  31.190  1.00  0.00     0.031 C 
ATOM     59  C   UNL A   1      45.187  29.276  31.841  1.00  0.00     0.029 A 
ATOM     60  C   UNL A   1      44.205  30.265  31.913  1.00  0.00     0.049 A 
ATOM     61  H   UNL A   1      44.294  32.067  30.825  1.00  0.00     0.167 HD
ATOM     62  C   UNL A   1      41.952  31.168  32.479  1.00  0.00     0.074 A 
ATOM     63  C   UNL A   1      41.635  32.015  31.333  1.00  0.00     0.031 C 
ATOM     64  C   UNL A   1      43.055  30.421  32.776  1.00  0.00     0.037 A 
BRANCH  51  65
ATOM     65  C   UNL A   1      44.839  31.853  27.798  1.00  0.00     0.064 A 
ATOM     66  C   UNL A   1      46.011  32.113  27.067  1.00  0.00     0.173 A 
ATOM     67  C   UNL A   1      43.990  32.967  27.999  1.00  0.00     0.173 A 
ATOM     68  F   UNL A   1      46.909  31.140  26.848  1.00  0.00    -0.203 F 
ATOM     69  C   UNL A   1      46.332  33.398  26.622  1.00  0.00     0.198 A 
ATOM     70  C   UNL A   1      44.282  34.233  27.501  1.00  0.00     0.198 A 
ATOM     71  F   UNL A   1      42.905  32.914  28.780  1.00  0.00    -0.203 F 
ATOM     72  F   UNL A   1      47.516  33.620  26.037  1.00  0.00    -0.200 F 
ATOM     73  C   UNL A   1      45.467  34.456  26.838  1.00  0.00     0.200 A 
ATOM     74  F   UNL A   1      43.440  35.246  27.746  1.00  0.00    -0.200 F 
ATOM     75  F   UNL A   1      45.797  35.697  26.456  1.00  0.00    -0.200 F 
ENDBRANCH  51  65
BRANCH  52  76
ATOM     76  C   UNL A   1      37.241  31.262  31.958  1.00  0.00     0.064 A 
ATOM     77  C   UNL A   1      36.666  31.775  33.134  1.00  0.00     0.173 A 
ATOM     78  C   UNL A   1      36.633  31.659  30.749  1.00  0.00     0.173 A 
ATOM     79  F   UNL A   1      37.210  31.493  34.326  1.00  0.00    -0.203 F 
ATOM     80  C   UNL A   1      35.568  32.644  33.099  1.00  0.00     0.198 A 
ATOM     81  C   UNL A   1      35.532  32.516  30.716  1.00  0.00     0.198 A 
ATOM     82  F   UNL A   1      37.151  31.303  29.566  1.00  0.00    -0.203 F 
ATOM     83  F   UNL A   1      35.089  33.161  34.239  1.00  0.00    -0.200 F 
ATOM     84  C   UNL A   1      35.007  33.020  31.890  1.00  0.00     0.200 A 
ATOM     85  F   UNL A   1      35.024  32.901  29.537  1.00  0.00    -0.200 F 
ATOM     86  F   UNL A   1      33.993  33.895  31.853  1.00  0.00    -0.200 F 
ENDBRANCH  52  76
BRANCH  64  87
ATOM     87  C   UNL A   1      42.992  29.496  33.961  1.00  0.00     0.064 A 
ATOM     88  C   UNL A   1      42.593  28.150  33.882  1.00  0.00     0.173 A 
ATOM     89  C   UNL A   1      43.561  29.929  35.166  1.00  0.00     0.173 A 
ATOM     90  F   UNL A   1      42.124  27.637  32.738  1.00  0.00    -0.203 F 
ATOM     91  C   UNL A   1      42.746  27.286  34.966  1.00  0.00     0.198 A 
ATOM     92  C   UNL A   1      43.748  29.056  36.233  1.00  0.00     0.198 A 
ATOM     93  F   UNL A   1      44.007  31.191  35.281  1.00  0.00    -0.203 F 
ATOM     94  F   UNL A   1      42.369  26.003  34.862  1.00  0.00    -0.200 F 
ATOM     95  C   UNL A   1      43.339  27.736  36.134  1.00  0.00     0.200 A 
ATOM     96  F   UNL A   1      44.369  29.483  37.341  1.00  0.00    -0.200 F 
ATOM     97  F   UNL A   1      43.548  26.890  37.152  1.00  0.00    -0.200 F 
ENDBRANCH  64  87
ENDBRANCH  38  39
ENDBRANCH  31  33
ENDBRANCH  30  31
ENDBRANCH  29  30
ENDBRANCH  28  29
ENDBRANCH   1  28
TORSDOF 16
ENDMDL
MODEL 3
REMARK VINA RESULT:     -12.1      4.680     10.164
REMARK SMILES Cn1c(=O)c2c(-c3ccc(Cl)cc3)n(CC(=O)OCCOCCOC(=O)c3ccc(-c4c5nc(c(-c6c(F)c(F)c(F)c(F)c6F)c6ccc([nH]6)c(-c6c(F)c(F)c(F)c(F)c6F)c6nc(c(-c7c(F)c(F)c(F)c(F)c7F)c7ccc4[nH]7)C=C6)C=C5)cc3)cc2n(C)c1=O
REMARK SMILES IDX 21 1 20 2 19 3 18 4 16 5 17 6 15 7 14 8 1 9 2 10 3 11 94 12
REMARK SMILES IDX 4 13 5 14 92 15 95 16 6 17 91 18 93 19 90 20 7 21 8 22 13 23
REMARK SMILES IDX 9 24 12 25 10 26 11 27 22 28 23 29 24 30 25 31 26 32 27 33
REMARK SMILES IDX 28 34 89 35 29 36 88 37 30 38 31 39 32 40 82 41 33 42 87 43
REMARK SMILES IDX 81 44 83 45 34 46 86 47 80 48 79 49 35 51 67 52 47 53 66 54
REMARK SMILES IDX 48 55 51 56 65 57 84 58 49 59 50 60 64 62 85 63 52 64 36 65
REMARK SMILES IDX 37 66 45 67 38 68 39 69 43 70 46 71 40 72 41 73 44 74 42 75
REMARK SMILES IDX 68 76 69 77 77 78 70 79 71 80 75 81 78 82 72 83 73 84 76 85
REMARK SMILES IDX 74 86 53 87 54 88 62 89 55 90 56 91 60 92 63 93 57 94 58 95
REMARK SMILES IDX 61 96 59 97
REMARK H PARENT 83 50 51 61
REMARK Flexibility Score: inf
ROOT
ATOM      1  O   UNL A   1      34.604  33.667  28.051  1.00  0.00    -0.374 OA
ENDROOT
BRANCH   1   2
ATOM      2  C   UNL A   1      34.054  32.438  28.523  1.00  0.00     0.202 C 
BRANCH   2   3
ATOM      3  C   UNL A   1      34.164  31.203  27.627  1.00  0.00     0.261 C 
BRANCH   3   4
ATOM      4  O   UNL A   1      32.898  30.549  27.408  1.00  0.00    -0.462 OA
BRANCH   4   5
ATOM      5  C   UNL A   1      32.892  29.648  26.390  1.00  0.00     0.326 C 
ATOM      6  O   UNL A   1      33.648  29.698  25.421  1.00  0.00    -0.250 OA
BRANCH   5   7
ATOM      7  C   UNL A   1      31.974  28.471  26.568  1.00  0.00     0.244 C 
BRANCH   7   8
ATOM      8  N   UNL A   1      32.229  27.254  25.796  1.00  0.00    -0.333 N 
ATOM      9  C   UNL A   1      33.140  23.059  21.709  1.00  0.00     0.158 C 
ATOM     10  N   UNL A   1      33.119  23.862  22.917  1.00  0.00    -0.263 N 
ATOM     11  C   UNL A   1      32.258  24.968  22.941  1.00  0.00     0.265 A 
ATOM     12  C   UNL A   1      33.918  23.404  23.980  1.00  0.00     0.330 A 
ATOM     13  O   UNL A   1      31.472  25.236  22.038  1.00  0.00    -0.268 OA
ATOM     14  C   UNL A   1      32.364  25.753  24.152  1.00  0.00     0.090 A 
ATOM     15  N   UNL A   1      33.987  24.206  25.124  1.00  0.00    -0.295 N 
ATOM     16  O   UNL A   1      34.517  22.327  23.908  1.00  0.00    -0.248 OA
ATOM     17  C   UNL A   1      31.766  26.959  24.517  1.00  0.00     0.064 A 
ATOM     18  C   UNL A   1      33.230  25.364  25.183  1.00  0.00     0.076 A 
ATOM     19  C   UNL A   1      34.828  23.780  26.233  1.00  0.00     0.155 C 
ATOM     20  C   UNL A   1      33.180  26.323  26.160  1.00  0.00     0.114 A 
BRANCH  17  21
ATOM     21  C   UNL A   1      30.860  27.826  23.762  1.00  0.00    -0.001 A 
ATOM     22  C   UNL A   1      29.472  27.635  23.840  1.00  0.00     0.012 A 
ATOM     23  C   UNL A   1      31.360  28.844  22.944  1.00  0.00     0.012 A 
ATOM     24  C   UNL A   1      28.604  28.388  23.051  1.00  0.00     0.021 A 
ATOM     25  C   UNL A   1      30.487  29.624  22.177  1.00  0.00     0.021 A 
ATOM     26  C   UNL A   1      29.116  29.378  22.218  1.00  0.00     0.041 A 
ATOM     27  Cl  UNL A   1      28.048  30.300  21.234  1.00  0.00    -0.084 Cl
ENDBRANCH  17  21
ENDBRANCH   7   8
ENDBRANCH   5   7
ENDBRANCH   4   5
ENDBRANCH   3   4
ENDBRANCH   2   3
ENDBRANCH   1   2
BRANCH   1  28
ATOM     28  C   UNL A   1      34.580  34.824  28.876  1.00  0.00     0.202 C 
BRANCH  28  29
ATOM     29  C   UNL A   1      33.326  35.104  29.694  1.00  0.00     0.261 C 
BRANCH  29  30
ATOM     30  O   UNL A   1      33.607  35.793  30.902  1.00  0.00    -0.460 OA
BRANCH  30  31
ATOM     31  C   UNL A   1      33.272  35.085  32.005  1.00  0.00     0.338 C 
ATOM     32  O   UNL A   1      32.210  35.107  32.601  1.00  0.00    -0.246 OA
BRANCH  31  33
ATOM     33  C   UNL A   1      34.447  34.364  32.496  1.00  0.00     0.060 A 
ATOM     34  C   UNL A   1      35.589  35.140  32.704  1.00  0.00     0.016 A 
ATOM     35  C   UNL A   1      34.494  32.967  32.398  1.00  0.00     0.016 A 
ATOM     36  C   UNL A   1      36.814  34.537  32.567  1.00  0.00     0.010 A 
ATOM     37  C   UNL A   1      35.717  32.371  32.230  1.00  0.00     0.010 A 
ATOM     38  C   UNL A   1      36.850  33.182  32.233  1.00  0.00    -0.014 A 
BRANCH  38  39
ATOM     39  C   UNL A   1      38.142  32.591  31.981  1.00  0.00     0.031 A 
ATOM     40  C   UNL A   1      38.981  32.547  33.198  1.00  0.00     0.074 A 
ATOM     41  C   UNL A   1      38.449  32.068  30.781  1.00  0.00     0.049 A 
ATOM     42  N   UNL A   1      40.100  33.154  33.415  1.00  0.00    -0.248 NA
ATOM     43  C   UNL A   1      38.405  31.900  34.392  1.00  0.00     0.031 C 
ATOM     44  C   UNL A   1      37.561  31.861  29.634  1.00  0.00     0.029 A 
ATOM     45  N   UNL A   1      39.615  31.506  30.369  1.00  0.00    -0.354 N 
ATOM     46  C   UNL A   1      40.463  32.796  34.708  1.00  0.00     0.074 A 
ATOM     47  C   UNL A   1      39.300  32.222  35.324  1.00  0.00     0.031 C 
ATOM     48  C   UNL A   1      38.156  31.021  28.756  1.00  0.00     0.029 A 
ATOM     49  C   UNL A   1      39.498  30.727  29.224  1.00  0.00     0.049 A 
ATOM     50  H   UNL A   1      40.469  31.638  30.842  1.00  0.00     0.167 HD
ATOM     51  C   UNL A   1      41.771  32.728  35.069  1.00  0.00     0.037 A 
ATOM     52  C   UNL A   1      40.420  29.830  28.789  1.00  0.00     0.037 A 
ATOM     53  C   UNL A   1      42.592  33.516  34.188  1.00  0.00     0.049 A 
ATOM     54  C   UNL A   1      41.708  30.176  29.452  1.00  0.00     0.074 A 
ATOM     55  C   UNL A   1      42.639  34.859  33.870  1.00  0.00     0.029 A 
ATOM     56  N   UNL A   1      43.275  32.866  33.190  1.00  0.00    -0.354 N 
ATOM     57  N   UNL A   1      42.376  31.272  29.212  1.00  0.00    -0.248 NA
ATOM     58  C   UNL A   1      41.997  29.537  30.729  1.00  0.00     0.031 C 
ATOM     59  C   UNL A   1      42.931  34.900  32.477  1.00  0.00     0.029 A 
ATOM     60  C   UNL A   1      43.115  33.589  32.036  1.00  0.00     0.049 A 
ATOM     61  H   UNL A   1      43.786  32.030  33.284  1.00  0.00     0.167 HD
ATOM     62  C   UNL A   1      42.843  31.683  30.453  1.00  0.00     0.074 A 
ATOM     63  C   UNL A   1      42.633  30.541  31.339  1.00  0.00     0.031 C 
ATOM     64  C   UNL A   1      43.078  33.002  30.714  1.00  0.00     0.037 A 
BRANCH  51  65
ATOM     65  C   UNL A   1      42.321  31.653  35.970  1.00  0.00     0.064 A 
ATOM     66  C   UNL A   1      43.079  32.025  37.095  1.00  0.00     0.173 A 
ATOM     67  C   UNL A   1      42.369  30.280  35.633  1.00  0.00     0.173 A 
ATOM     68  F   UNL A   1      43.139  33.307  37.484  1.00  0.00    -0.203 F 
ATOM     69  C   UNL A   1      43.866  31.103  37.790  1.00  0.00     0.198 A 
ATOM     70  C   UNL A   1      43.104  29.353  36.365  1.00  0.00     0.198 A 
ATOM     71  F   UNL A   1      41.809  29.791  34.521  1.00  0.00    -0.203 F 
ATOM     72  F   UNL A   1      44.665  31.526  38.778  1.00  0.00    -0.200 F 
ATOM     73  C   UNL A   1      43.877  29.768  37.426  1.00  0.00     0.200 A 
ATOM     74  F   UNL A   1      43.118  28.071  35.977  1.00  0.00    -0.200 F 
ATOM     75  F   UNL A   1      44.668  28.893  38.060  1.00  0.00    -0.200 F 
ENDBRANCH  51  65
BRANCH  52  76
ATOM     76  C   UNL A   1      40.170  28.501  28.172  1.00  0.00     0.064 A 
ATOM     77  C   UNL A   1      40.772  28.142  26.954  1.00  0.00     0.173 A 
ATOM     78  C   UNL A   1      39.549  27.455  28.887  1.00  0.00     0.173 A 
ATOM     79  F   UNL A   1      41.430  29.060  26.232  1.00  0.00    -0.203 F 
ATOM     80  C   UNL A   1      40.770  26.820  26.493  1.00  0.00     0.198 A 
ATOM     81  C   UNL A   1      39.539  26.140  28.421  1.00  0.00     0.198 A 
ATOM     82  F   UNL A   1      39.022  27.667  30.101  1.00  0.00    -0.203 F 
ATOM     83  F   UNL A   1      41.410  26.506  25.358  1.00  0.00    -0.200 F 
ATOM     84  C   UNL A   1      40.161  25.819  27.231  1.00  0.00     0.200 A 
ATOM     85  F   UNL A   1      38.978  25.176  29.165  1.00  0.00    -0.200 F 
ATOM     86  F   UNL A   1      40.208  24.545  26.819  1.00  0.00    -0.200 F 
ENDBRANCH  52  76
BRANCH  64  87
ATOM     87  C   UNL A   1      43.057  33.972  29.564  1.00  0.00     0.064 A 
ATOM     88  C   UNL A   1      44.148  34.187  28.703  1.00  0.00     0.173 A 
ATOM     89  C   UNL A   1      41.827  34.533  29.198  1.00  0.00     0.173 A 
ATOM     90  F   UNL A   1      45.333  33.610  28.936  1.00  0.00    -0.203 F 
ATOM     91  C   UNL A   1      44.011  34.940  27.537  1.00  0.00     0.198 A 
ATOM     92  C   UNL A   1      41.684  35.252  28.015  1.00  0.00     0.198 A 
ATOM     93  F   UNL A   1      40.740  34.317  29.956  1.00  0.00    -0.203 F 
ATOM     94  F   UNL A   1      45.063  35.121  26.726  1.00  0.00    -0.200 F 
ATOM     95  C   UNL A   1      42.775  35.458  27.187  1.00  0.00     0.200 A 
ATOM     96  F   UNL A   1      40.474  35.705  27.655  1.00  0.00    -0.200 F 
ATOM     97  F   UNL A   1      42.626  36.124  26.034  1.00  0.00    -0.200 F 
ENDBRANCH  64  87
ENDBRANCH  38  39
ENDBRANCH  31  33
ENDBRANCH  30  31
ENDBRANCH  29  30
ENDBRANCH  28  29
ENDBRANCH   1  28
TORSDOF 16
ENDMDL
