MODEL 1
REMARK VINA RESULT:     -11.7      0.000      0.000
REMARK SMILES Cn1cc(S(=O)(=O)NC[C@H]2CC[C@@H](C(=O)OCCOCCOC(=O)c3ccc(-c4c5nc(c(-c6c(F)c(F)c(F)c(F)c6F)c6ccc([nH]6)c(-c6c(F)c(F)c(F)c(F)c6F)c6nc(c(-c7c(F)c(F)c(F)c(F)c7F)c7ccc4[nH]7)C=C6)C=C5)cc3)CC2)cn1
REMARK SMILES IDX 18 1 17 2 16 3 14 4 15 5 13 6 10 7 11 8 89 9 12 10 88 11
REMARK SMILES IDX 9 12 8 13 5 15 6 16 7 17 4 18 1 19 2 20 3 21 91 22 90 23
REMARK SMILES IDX 19 24 20 25 21 26 22 27 23 28 24 29 25 30 26 31 87 32 27 33
REMARK SMILES IDX 86 34 28 35 29 36 30 37 80 38 31 39 85 40 79 41 81 42 32 43
REMARK SMILES IDX 84 44 78 45 77 46 33 48 65 49 45 50 64 51 46 52 49 53 63 54
REMARK SMILES IDX 82 55 47 56 48 57 62 59 83 60 50 61 34 62 35 63 43 64 36 65
REMARK SMILES IDX 37 66 41 67 44 68 38 69 39 70 42 71 40 72 66 73 67 74 75 75
REMARK SMILES IDX 68 76 69 77 73 78 76 79 70 80 71 81 74 82 72 83 51 84 52 85
REMARK SMILES IDX 60 86 53 87 54 88 58 89 61 90 55 91 56 92 59 93 57 94
REMARK H PARENT 8 14 81 47 49 58
REMARK Flexibility Score: inf
ROOT
ATOM      1  C   UNL A   1      30.108  29.599  23.502  1.00  0.00     0.202 C 
ENDROOT
BRANCH   1   2
ATOM      2  C   UNL A   1      31.185  28.539  23.257  1.00  0.00     0.261 C 
BRANCH   2   3
ATOM      3  O   UNL A   1      30.839  27.258  23.812  1.00  0.00    -0.463 OA
BRANCH   3   4
ATOM      4  C   UNL A   1      31.813  26.630  24.522  1.00  0.00     0.309 C 
ATOM      5  O   UNL A   1      31.982  26.741  25.732  1.00  0.00    -0.252 OA
BRANCH   4   6
ATOM      6  C   UNL A   1      32.713  25.743  23.660  1.00  0.00     0.099 C 
ATOM      7  C   UNL A   1      32.220  22.944  24.541  1.00  0.00     0.004 C 
ATOM      8  C   UNL A   1      31.227  23.709  23.655  1.00  0.00     0.006 C 
ATOM      9  C   UNL A   1      33.288  23.803  25.232  1.00  0.00     0.006 C 
ATOM     10  C   UNL A   1      31.864  24.803  22.809  1.00  0.00     0.015 C 
ATOM     11  C   UNL A   1      33.811  24.944  24.365  1.00  0.00     0.015 C 
BRANCH   7  12
ATOM     12  C   UNL A   1      31.515  21.998  25.526  1.00  0.00     0.102 C 
BRANCH  12  13
ATOM     13  N   UNL A   1      31.840  20.566  25.409  1.00  0.00    -0.211 NA
ATOM     14  H   UNL A   1      32.238  20.300  26.310  1.00  0.00     0.141 HD
BRANCH  13  15
ATOM     15  S   UNL A   1      32.870  19.921  24.249  1.00  0.00     0.243 S 
ATOM     16  O   UNL A   1      34.202  20.394  24.523  1.00  0.00    -0.207 OA
ATOM     17  O   UNL A   1      32.259  20.166  22.959  1.00  0.00    -0.207 OA
BRANCH  15  18
ATOM     18  C   UNL A   1      32.978  18.226  24.346  1.00  0.00     0.120 A 
ATOM     19  C   UNL A   1      32.620  14.906  25.657  1.00  0.00     0.173 C 
ATOM     20  N   UNL A   1      32.856  16.133  24.937  1.00  0.00    -0.274 N 
ATOM     21  C   UNL A   1      32.434  17.381  25.288  1.00  0.00     0.130 A 
ATOM     22  N   UNL A   1      33.590  16.109  23.808  1.00  0.00    -0.180 NA
ATOM     23  C   UNL A   1      33.653  17.394  23.443  1.00  0.00     0.156 A 
ENDBRANCH  15  18
ENDBRANCH  13  15
ENDBRANCH  12  13
ENDBRANCH   7  12
ENDBRANCH   4   6
ENDBRANCH   3   4
ENDBRANCH   2   3
ENDBRANCH   1   2
BRANCH   1  24
ATOM     24  O   UNL A   1      30.323  30.544  24.543  1.00  0.00    -0.374 OA
BRANCH  24  25
ATOM     25  C   UNL A   1      31.449  30.363  25.395  1.00  0.00     0.202 C 
BRANCH  25  26
ATOM     26  C   UNL A   1      31.703  31.409  26.491  1.00  0.00     0.261 C 
BRANCH  26  27
ATOM     27  O   UNL A   1      32.789  31.085  27.381  1.00  0.00    -0.460 OA
BRANCH  27  28
ATOM     28  C   UNL A   1      33.628  32.122  27.632  1.00  0.00     0.338 C 
ATOM     29  O   UNL A   1      33.335  33.301  27.743  1.00  0.00    -0.246 OA
BRANCH  28  30
ATOM     30  C   UNL A   1      34.996  31.647  27.903  1.00  0.00     0.060 A 
ATOM     31  C   UNL A   1      35.182  30.267  28.051  1.00  0.00     0.016 A 
ATOM     32  C   UNL A   1      36.030  32.538  28.193  1.00  0.00     0.016 A 
ATOM     33  C   UNL A   1      36.383  29.777  28.557  1.00  0.00     0.010 A 
ATOM     34  C   UNL A   1      37.238  32.041  28.700  1.00  0.00     0.010 A 
ATOM     35  C   UNL A   1      37.403  30.663  28.933  1.00  0.00    -0.014 A 
BRANCH  35  36
ATOM     36  C   UNL A   1      38.570  30.148  29.698  1.00  0.00     0.031 A 
ATOM     37  C   UNL A   1      38.791  30.605  31.113  1.00  0.00     0.074 A 
ATOM     38  C   UNL A   1      39.397  29.236  29.156  1.00  0.00     0.049 A 
ATOM     39  N   UNL A   1      39.748  30.291  31.950  1.00  0.00    -0.248 NA
ATOM     40  C   UNL A   1      37.801  31.546  31.661  1.00  0.00     0.031 C 
ATOM     41  C   UNL A   1      39.263  28.680  27.816  1.00  0.00     0.029 A 
ATOM     42  N   UNL A   1      40.512  28.620  29.667  1.00  0.00    -0.354 N 
ATOM     43  C   UNL A   1      39.482  30.998  33.117  1.00  0.00     0.074 A 
ATOM     44  C   UNL A   1      38.294  31.787  32.868  1.00  0.00     0.031 C 
ATOM     45  C   UNL A   1      40.261  27.809  27.599  1.00  0.00     0.029 A 
ATOM     46  C   UNL A   1      41.122  27.769  28.778  1.00  0.00     0.049 A 
ATOM     47  H   UNL A   1      40.844  28.774  30.581  1.00  0.00     0.167 HD
ATOM     48  C   UNL A   1      40.159  30.981  34.290  1.00  0.00     0.037 A 
ATOM     49  C   UNL A   1      42.258  27.055  28.895  1.00  0.00     0.037 A 
ATOM     50  C   UNL A   1      41.335  30.185  34.537  1.00  0.00     0.049 A 
ATOM     51  C   UNL A   1      43.028  27.101  30.189  1.00  0.00     0.074 A 
ATOM     52  C   UNL A   1      42.078  30.084  35.700  1.00  0.00     0.029 A 
ATOM     53  N   UNL A   1      41.944  29.360  33.603  1.00  0.00    -0.354 N 
ATOM     54  N   UNL A   1      42.758  27.757  31.291  1.00  0.00    -0.248 NA
ATOM     55  C   UNL A   1      44.258  26.300  30.256  1.00  0.00     0.031 C 
ATOM     56  C   UNL A   1      43.171  29.248  35.451  1.00  0.00     0.029 A 
ATOM     57  C   UNL A   1      43.072  28.770  34.155  1.00  0.00     0.049 A 
ATOM     58  H   UNL A   1      41.622  29.214  32.683  1.00  0.00     0.167 HD
ATOM     59  C   UNL A   1      43.761  27.421  32.192  1.00  0.00     0.074 A 
ATOM     60  C   UNL A   1      44.637  26.492  31.511  1.00  0.00     0.031 C 
ATOM     61  C   UNL A   1      43.936  27.842  33.470  1.00  0.00     0.037 A 
BRANCH  48  62
ATOM     62  C   UNL A   1      39.664  31.873  35.393  1.00  0.00     0.064 A 
ATOM     63  C   UNL A   1      40.111  33.195  35.539  1.00  0.00     0.173 A 
ATOM     64  C   UNL A   1      38.696  31.408  36.297  1.00  0.00     0.173 A 
ATOM     65  F   UNL A   1      41.044  33.687  34.709  1.00  0.00    -0.203 F 
ATOM     66  C   UNL A   1      39.629  34.007  36.562  1.00  0.00     0.198 A 
ATOM     67  C   UNL A   1      38.191  32.233  37.298  1.00  0.00     0.198 A 
ATOM     68  F   UNL A   1      38.228  30.154  36.203  1.00  0.00    -0.203 F 
ATOM     69  F   UNL A   1      40.108  35.251  36.711  1.00  0.00    -0.200 F 
ATOM     70  C   UNL A   1      38.664  33.529  37.436  1.00  0.00     0.200 A 
ATOM     71  F   UNL A   1      37.248  31.772  38.132  1.00  0.00    -0.200 F 
ATOM     72  F   UNL A   1      38.194  34.315  38.415  1.00  0.00    -0.200 F 
ENDBRANCH  48  62
BRANCH  49  73
ATOM     73  C   UNL A   1      42.740  26.237  27.750  1.00  0.00     0.064 A 
ATOM     74  C   UNL A   1      43.689  26.737  26.848  1.00  0.00     0.173 A 
ATOM     75  C   UNL A   1      42.245  24.943  27.524  1.00  0.00     0.173 A 
ATOM     76  F   UNL A   1      44.172  27.979  27.003  1.00  0.00    -0.203 F 
ATOM     77  C   UNL A   1      44.107  25.985  25.751  1.00  0.00     0.198 A 
ATOM     78  C   UNL A   1      42.689  24.179  26.447  1.00  0.00     0.198 A 
ATOM     79  F   UNL A   1      41.329  24.419  28.352  1.00  0.00    -0.203 F 
ATOM     80  F   UNL A   1      44.969  26.511  24.871  1.00  0.00    -0.200 F 
ATOM     81  C   UNL A   1      43.610  24.705  25.555  1.00  0.00     0.200 A 
ATOM     82  F   UNL A   1      42.211  22.940  26.266  1.00  0.00    -0.200 F 
ATOM     83  F   UNL A   1      44.009  23.983  24.498  1.00  0.00    -0.200 F 
ENDBRANCH  49  73
BRANCH  61  84
ATOM     84  C   UNL A   1      45.098  27.268  34.233  1.00  0.00     0.064 A 
ATOM     85  C   UNL A   1      44.982  26.092  34.989  1.00  0.00     0.173 A 
ATOM     86  C   UNL A   1      46.355  27.891  34.183  1.00  0.00     0.173 A 
ATOM     87  F   UNL A   1      43.800  25.463  35.082  1.00  0.00    -0.203 F 
ATOM     88  C   UNL A   1      46.068  25.584  35.697  1.00  0.00     0.198 A 
ATOM     89  C   UNL A   1      47.449  27.359  34.860  1.00  0.00     0.198 A 
ATOM     90  F   UNL A   1      46.528  29.011  33.466  1.00  0.00    -0.203 F 
ATOM     91  F   UNL A   1      45.917  24.494  36.462  1.00  0.00    -0.200 F 
ATOM     92  C   UNL A   1      47.302  26.213  35.626  1.00  0.00     0.200 A 
ATOM     93  F   UNL A   1      48.644  27.959  34.775  1.00  0.00    -0.200 F 
ATOM     94  F   UNL A   1      48.348  25.719  36.303  1.00  0.00    -0.200 F 
ENDBRANCH  61  84
ENDBRANCH  35  36
ENDBRANCH  28  30
ENDBRANCH  27  28
ENDBRANCH  26  27
ENDBRANCH  25  26
ENDBRANCH  24  25
ENDBRANCH   1  24
TORSDOF 18
ENDMDL
MODEL 2
REMARK VINA RESULT:     -11.6      4.694      9.804
REMARK SMILES Cn1cc(S(=O)(=O)NC[C@H]2CC[C@@H](C(=O)OCCOCCOC(=O)c3ccc(-c4c5nc(c(-c6c(F)c(F)c(F)c(F)c6F)c6ccc([nH]6)c(-c6c(F)c(F)c(F)c(F)c6F)c6nc(c(-c7c(F)c(F)c(F)c(F)c7F)c7ccc4[nH]7)C=C6)C=C5)cc3)CC2)cn1
REMARK SMILES IDX 18 1 17 2 16 3 14 4 15 5 13 6 10 7 11 8 89 9 12 10 88 11
REMARK SMILES IDX 9 12 8 13 5 15 6 16 7 17 4 18 1 19 2 20 3 21 91 22 90 23
REMARK SMILES IDX 19 24 20 25 21 26 22 27 23 28 24 29 25 30 26 31 87 32 27 33
REMARK SMILES IDX 86 34 28 35 29 36 30 37 80 38 31 39 85 40 79 41 81 42 32 43
REMARK SMILES IDX 84 44 78 45 77 46 33 48 65 49 45 50 64 51 46 52 49 53 63 54
REMARK SMILES IDX 82 55 47 56 48 57 62 59 83 60 50 61 34 62 35 63 43 64 36 65
REMARK SMILES IDX 37 66 41 67 44 68 38 69 39 70 42 71 40 72 66 73 67 74 75 75
REMARK SMILES IDX 68 76 69 77 73 78 76 79 70 80 71 81 74 82 72 83 51 84 52 85
REMARK SMILES IDX 60 86 53 87 54 88 58 89 61 90 55 91 56 92 59 93 57 94
REMARK H PARENT 8 14 81 47 49 58
REMARK Flexibility Score: inf
ROOT
ATOM      1  C   UNL A   1      37.794  23.374  25.756  1.00  0.00     0.202 C 
ENDROOT
BRANCH   1   2
ATOM      2  C   UNL A   1      36.635  23.355  24.756  1.00  0.00     0.261 C 
BRANCH   2   3
ATOM      3  O   UNL A   1      35.653  24.369  25.026  1.00  0.00    -0.463 OA
BRANCH   3   4
ATOM      4  C   UNL A   1      34.634  24.471  24.131  1.00  0.00     0.309 C 
ATOM      5  O   UNL A   1      34.628  23.965  23.014  1.00  0.00    -0.252 OA
BRANCH   4   6
ATOM      6  C   UNL A   1      33.457  25.299  24.648  1.00  0.00     0.099 C 
ATOM      7  C   UNL A   1      31.369  23.353  25.487  1.00  0.00     0.004 C 
ATOM      8  C   UNL A   1      32.619  23.627  26.334  1.00  0.00     0.006 C 
ATOM      9  C   UNL A   1      31.427  23.859  24.039  1.00  0.00     0.006 C 
ATOM     10  C   UNL A   1      33.220  25.010  26.127  1.00  0.00     0.015 C 
ATOM     11  C   UNL A   1      32.131  25.203  23.889  1.00  0.00     0.015 C 
BRANCH   7  12
ATOM     12  C   UNL A   1      30.920  21.885  25.567  1.00  0.00     0.102 C 
BRANCH  12  13
ATOM     13  N   UNL A   1      31.987  20.877  25.691  1.00  0.00    -0.211 NA
ATOM     14  H   UNL A   1      32.666  21.274  26.341  1.00  0.00     0.141 HD
BRANCH  13  15
ATOM     15  S   UNL A   1      32.886  20.287  24.401  1.00  0.00     0.243 S 
ATOM     16  O   UNL A   1      34.254  20.698  24.585  1.00  0.00    -0.207 OA
ATOM     17  O   UNL A   1      32.173  20.644  23.191  1.00  0.00    -0.207 OA
BRANCH  15  18
ATOM     18  C   UNL A   1      32.940  18.587  24.369  1.00  0.00     0.120 A 
ATOM     19  C   UNL A   1      32.817  15.199  25.542  1.00  0.00     0.173 C 
ATOM     20  N   UNL A   1      32.896  16.464  24.853  1.00  0.00    -0.274 N 
ATOM     21  C   UNL A   1      32.647  17.697  25.379  1.00  0.00     0.130 A 
ATOM     22  N   UNL A   1      33.278  16.494  23.562  1.00  0.00    -0.180 NA
ATOM     23  C   UNL A   1      33.294  17.798  23.266  1.00  0.00     0.156 A 
ENDBRANCH  15  18
ENDBRANCH  13  15
ENDBRANCH  12  13
ENDBRANCH   7  12
ENDBRANCH   4   6
ENDBRANCH   3   4
ENDBRANCH   2   3
ENDBRANCH   1   2
BRANCH   1  24
ATOM     24  O   UNL A   1      38.537  22.175  25.942  1.00  0.00    -0.374 OA
BRANCH  24  25
ATOM     25  C   UNL A   1      38.176  21.032  25.174  1.00  0.00     0.202 C 
BRANCH  25  26
ATOM     26  C   UNL A   1      38.985  19.741  25.374  1.00  0.00     0.261 C 
BRANCH  26  27
ATOM     27  O   UNL A   1      39.862  19.762  26.518  1.00  0.00    -0.460 OA
BRANCH  27  28
ATOM     28  C   UNL A   1      41.164  19.521  26.221  1.00  0.00     0.338 C 
ATOM     29  O   UNL A   1      41.639  18.502  25.749  1.00  0.00    -0.246 OA
BRANCH  28  30
ATOM     30  C   UNL A   1      41.986  20.729  26.413  1.00  0.00     0.060 A 
ATOM     31  C   UNL A   1      42.240  21.133  27.730  1.00  0.00     0.016 A 
ATOM     32  C   UNL A   1      42.337  21.547  25.338  1.00  0.00     0.016 A 
ATOM     33  C   UNL A   1      42.783  22.391  27.979  1.00  0.00     0.010 A 
ATOM     34  C   UNL A   1      42.886  22.811  25.593  1.00  0.00     0.010 A 
ATOM     35  C   UNL A   1      43.065  23.260  26.915  1.00  0.00    -0.014 A 
BRANCH  35  36
ATOM     36  C   UNL A   1      43.405  24.678  27.205  1.00  0.00     0.031 A 
ATOM     37  C   UNL A   1      44.792  25.183  26.918  1.00  0.00     0.074 A 
ATOM     38  C   UNL A   1      42.471  25.527  27.669  1.00  0.00     0.049 A 
ATOM     39  N   UNL A   1      45.301  26.376  27.107  1.00  0.00    -0.248 NA
ATOM     40  C   UNL A   1      45.737  24.214  26.340  1.00  0.00     0.031 C 
ATOM     41  C   UNL A   1      41.084  25.173  27.942  1.00  0.00     0.029 A 
ATOM     42  N   UNL A   1      42.549  26.858  27.994  1.00  0.00    -0.354 N 
ATOM     43  C   UNL A   1      46.621  26.299  26.681  1.00  0.00     0.074 A 
ATOM     44  C   UNL A   1      46.848  24.934  26.258  1.00  0.00     0.031 C 
ATOM     45  C   UNL A   1      40.436  26.254  28.403  1.00  0.00     0.029 A 
ATOM     46  C   UNL A   1      41.373  27.372  28.484  1.00  0.00     0.049 A 
ATOM     47  H   UNL A   1      43.368  27.394  27.886  1.00  0.00     0.167 HD
ATOM     48  C   UNL A   1      47.554  27.280  26.636  1.00  0.00     0.037 A 
ATOM     49  C   UNL A   1      41.091  28.598  28.963  1.00  0.00     0.037 A 
ATOM     50  C   UNL A   1      47.321  28.642  27.047  1.00  0.00     0.049 A 
ATOM     51  C   UNL A   1      42.164  29.656  28.960  1.00  0.00     0.074 A 
ATOM     52  C   UNL A   1      48.197  29.712  27.018  1.00  0.00     0.029 A 
ATOM     53  N   UNL A   1      46.128  29.118  27.570  1.00  0.00    -0.354 N 
ATOM     54  N   UNL A   1      43.403  29.579  28.538  1.00  0.00    -0.248 NA
ATOM     55  C   UNL A   1      41.795  30.974  29.495  1.00  0.00     0.031 C 
ATOM     56  C   UNL A   1      47.555  30.820  27.582  1.00  0.00     0.029 A 
ATOM     57  C   UNL A   1      46.255  30.460  27.896  1.00  0.00     0.049 A 
ATOM     58  H   UNL A   1      45.310  28.582  27.691  1.00  0.00     0.167 HD
ATOM     59  C   UNL A   1      43.949  30.844  28.722  1.00  0.00     0.074 A 
ATOM     60  C   UNL A   1      42.902  31.671  29.281  1.00  0.00     0.031 C 
ATOM     61  C   UNL A   1      45.205  31.278  28.448  1.00  0.00     0.037 A 
BRANCH  48  62
ATOM     62  C   UNL A   1      48.928  26.914  26.150  1.00  0.00     0.064 A 
ATOM     63  C   UNL A   1      49.300  27.039  24.803  1.00  0.00     0.173 A 
ATOM     64  C   UNL A   1      49.902  26.466  27.057  1.00  0.00     0.173 A 
ATOM     65  F   UNL A   1      48.405  27.452  23.892  1.00  0.00    -0.203 F 
ATOM     66  C   UNL A   1      50.583  26.705  24.378  1.00  0.00     0.198 A 
ATOM     67  C   UNL A   1      51.193  26.165  26.635  1.00  0.00     0.198 A 
ATOM     68  F   UNL A   1      49.604  26.332  28.358  1.00  0.00    -0.203 F 
ATOM     69  F   UNL A   1      50.899  26.785  23.078  1.00  0.00    -0.200 F 
ATOM     70  C   UNL A   1      51.531  26.276  25.295  1.00  0.00     0.200 A 
ATOM     71  F   UNL A   1      52.112  25.764  27.526  1.00  0.00    -0.200 F 
ATOM     72  F   UNL A   1      52.769  25.962  24.886  1.00  0.00    -0.200 F 
ENDBRANCH  48  62
BRANCH  49  73
ATOM     73  C   UNL A   1      39.732  28.893  29.492  1.00  0.00     0.064 A 
ATOM     74  C   UNL A   1      39.402  28.636  30.829  1.00  0.00     0.173 A 
ATOM     75  C   UNL A   1      38.730  29.420  28.663  1.00  0.00     0.173 A 
ATOM     76  F   UNL A   1      40.314  28.104  31.656  1.00  0.00    -0.203 F 
ATOM     77  C   UNL A   1      38.114  28.871  31.311  1.00  0.00     0.198 A 
ATOM     78  C   UNL A   1      37.455  29.688  29.153  1.00  0.00     0.198 A 
ATOM     79  F   UNL A   1      38.991  29.677  27.372  1.00  0.00    -0.203 F 
ATOM     80  F   UNL A   1      37.809  28.559  32.577  1.00  0.00    -0.200 F 
ATOM     81  C   UNL A   1      37.144  29.403  30.474  1.00  0.00     0.200 A 
ATOM     82  F   UNL A   1      36.522  30.208  28.342  1.00  0.00    -0.200 F 
ATOM     83  F   UNL A   1      35.906  29.626  30.936  1.00  0.00    -0.200 F 
ENDBRANCH  49  73
BRANCH  61  84
ATOM     84  C   UNL A   1      45.505  32.729  28.708  1.00  0.00     0.064 A 
ATOM     85  C   UNL A   1      46.012  33.174  29.938  1.00  0.00     0.173 A 
ATOM     86  C   UNL A   1      45.306  33.684  27.699  1.00  0.00     0.173 A 
ATOM     87  F   UNL A   1      46.209  32.305  30.941  1.00  0.00    -0.203 F 
ATOM     88  C   UNL A   1      46.272  34.524  30.161  1.00  0.00     0.198 A 
ATOM     89  C   UNL A   1      45.603  35.028  27.912  1.00  0.00     0.198 A 
ATOM     90  F   UNL A   1      44.834  33.314  26.500  1.00  0.00    -0.203 F 
ATOM     91  F   UNL A   1      46.698  34.933  31.364  1.00  0.00    -0.200 F 
ATOM     92  C   UNL A   1      46.075  35.448  29.146  1.00  0.00     0.200 A 
ATOM     93  F   UNL A   1      45.429  35.916  26.924  1.00  0.00    -0.200 F 
ATOM     94  F   UNL A   1      46.331  36.746  29.360  1.00  0.00    -0.200 F 
ENDBRANCH  61  84
ENDBRANCH  35  36
ENDBRANCH  28  30
ENDBRANCH  27  28
ENDBRANCH  26  27
ENDBRANCH  25  26
ENDBRANCH  24  25
ENDBRANCH   1  24
TORSDOF 18
ENDMDL
MODEL 3
REMARK VINA RESULT:     -11.5      4.743      8.065
REMARK SMILES Cn1cc(S(=O)(=O)NC[C@H]2CC[C@@H](C(=O)OCCOCCOC(=O)c3ccc(-c4c5nc(c(-c6c(F)c(F)c(F)c(F)c6F)c6ccc([nH]6)c(-c6c(F)c(F)c(F)c(F)c6F)c6nc(c(-c7c(F)c(F)c(F)c(F)c7F)c7ccc4[nH]7)C=C6)C=C5)cc3)CC2)cn1
REMARK SMILES IDX 18 1 17 2 16 3 14 4 15 5 13 6 10 7 11 8 89 9 12 10 88 11
REMARK SMILES IDX 9 12 8 13 5 15 6 16 7 17 4 18 1 19 2 20 3 21 91 22 90 23
REMARK SMILES IDX 19 24 20 25 21 26 22 27 23 28 24 29 25 30 26 31 87 32 27 33
REMARK SMILES IDX 86 34 28 35 29 36 30 37 80 38 31 39 85 40 79 41 81 42 32 43
REMARK SMILES IDX 84 44 78 45 77 46 33 48 65 49 45 50 64 51 46 52 49 53 63 54
REMARK SMILES IDX 82 55 47 56 48 57 62 59 83 60 50 61 34 62 35 63 43 64 36 65
REMARK SMILES IDX 37 66 41 67 44 68 38 69 39 70 42 71 40 72 66 73 67 74 75 75
REMARK SMILES IDX 68 76 69 77 73 78 76 79 70 80 71 81 74 82 72 83 51 84 52 85
REMARK SMILES IDX 60 86 53 87 54 88 58 89 61 90 55 91 56 92 59 93 57 94
REMARK H PARENT 8 14 81 47 49 58
REMARK Flexibility Score: inf
ROOT
ATOM      1  C   UNL A   1      37.869  23.337  25.813  1.00  0.00     0.202 C 
ENDROOT
BRANCH   1   2
ATOM      2  C   UNL A   1      36.582  23.215  24.992  1.00  0.00     0.261 C 
BRANCH   2   3
ATOM      3  O   UNL A   1      35.744  24.378  25.098  1.00  0.00    -0.463 OA
BRANCH   3   4
ATOM      4  C   UNL A   1      34.729  24.469  24.198  1.00  0.00     0.309 C 
ATOM      5  O   UNL A   1      34.703  23.906  23.110  1.00  0.00    -0.252 OA
BRANCH   4   6
ATOM      6  C   UNL A   1      33.582  25.365  24.670  1.00  0.00     0.099 C 
ATOM      7  C   UNL A   1      31.347  23.544  25.407  1.00  0.00     0.004 C 
ATOM      8  C   UNL A   1      32.574  23.738  26.308  1.00  0.00     0.006 C 
ATOM      9  C   UNL A   1      31.497  24.053  23.966  1.00  0.00     0.006 C 
ATOM     10  C   UNL A   1      33.265  25.084  26.136  1.00  0.00     0.015 C 
ATOM     11  C   UNL A   1      32.287  25.352  23.855  1.00  0.00     0.015 C 
BRANCH   7  12
ATOM     12  C   UNL A   1      30.808  22.106  25.457  1.00  0.00     0.102 C 
BRANCH  12  13
ATOM     13  N   UNL A   1      31.807  21.034  25.608  1.00  0.00    -0.211 NA
ATOM     14  H   UNL A   1      32.442  21.351  26.340  1.00  0.00     0.141 HD
BRANCH  13  15
ATOM     15  S   UNL A   1      32.790  20.476  24.365  1.00  0.00     0.243 S 
ATOM     16  O   UNL A   1      34.142  20.883  24.649  1.00  0.00    -0.207 OA
ATOM     17  O   UNL A   1      32.158  20.861  23.120  1.00  0.00    -0.207 OA
BRANCH  15  18
ATOM     18  C   UNL A   1      32.850  18.777  24.296  1.00  0.00     0.120 A 
ATOM     19  C   UNL A   1      33.018  15.373  25.414  1.00  0.00     0.173 C 
ATOM     20  N   UNL A   1      32.931  16.647  24.745  1.00  0.00    -0.274 N 
ATOM     21  C   UNL A   1      32.796  17.870  25.332  1.00  0.00     0.130 A 
ATOM     22  N   UNL A   1      33.017  16.699  23.402  1.00  0.00    -0.180 NA
ATOM     23  C   UNL A   1      32.956  18.007  23.130  1.00  0.00     0.156 A 
ENDBRANCH  15  18
ENDBRANCH  13  15
ENDBRANCH  12  13
ENDBRANCH   7  12
ENDBRANCH   4   6
ENDBRANCH   3   4
ENDBRANCH   2   3
ENDBRANCH   1   2
BRANCH   1  24
ATOM     24  O   UNL A   1      38.660  22.169  25.996  1.00  0.00    -0.374 OA
BRANCH  24  25
ATOM     25  C   UNL A   1      38.357  21.020  25.212  1.00  0.00     0.202 C 
BRANCH  25  26
ATOM     26  C   UNL A   1      39.188  19.748  25.440  1.00  0.00     0.261 C 
BRANCH  26  27
ATOM     27  O   UNL A   1      40.095  19.825  26.558  1.00  0.00    -0.460 OA
BRANCH  27  28
ATOM     28  C   UNL A   1      41.387  19.559  26.241  1.00  0.00     0.338 C 
ATOM     29  O   UNL A   1      41.821  18.576  25.662  1.00  0.00    -0.246 OA
BRANCH  28  30
ATOM     30  C   UNL A   1      42.262  20.699  26.567  1.00  0.00     0.060 A 
ATOM     31  C   UNL A   1      42.252  21.162  27.889  1.00  0.00     0.016 A 
ATOM     32  C   UNL A   1      42.926  21.414  25.569  1.00  0.00     0.016 A 
ATOM     33  C   UNL A   1      42.848  22.381  28.204  1.00  0.00     0.010 A 
ATOM     34  C   UNL A   1      43.527  22.638  25.891  1.00  0.00     0.010 A 
ATOM     35  C   UNL A   1      43.447  23.152  27.199  1.00  0.00    -0.014 A 
BRANCH  35  36
ATOM     36  C   UNL A   1      43.853  24.551  27.500  1.00  0.00     0.031 A 
ATOM     37  C   UNL A   1      42.807  25.566  27.869  1.00  0.00     0.074 A 
ATOM     38  C   UNL A   1      45.151  24.903  27.499  1.00  0.00     0.049 A 
ATOM     39  N   UNL A   1      42.943  26.837  28.155  1.00  0.00    -0.248 NA
ATOM     40  C   UNL A   1      41.417  25.086  27.922  1.00  0.00     0.031 C 
ATOM     41  C   UNL A   1      46.260  24.004  27.206  1.00  0.00     0.029 A 
ATOM     42  N   UNL A   1      45.754  26.111  27.752  1.00  0.00    -0.354 N 
ATOM     43  C   UNL A   1      41.662  27.309  28.413  1.00  0.00     0.074 A 
ATOM     44  C   UNL A   1      40.756  26.198  28.214  1.00  0.00     0.031 C 
ATOM     45  C   UNL A   1      47.413  24.687  27.284  1.00  0.00     0.029 A 
ATOM     46  C   UNL A   1      47.119  26.082  27.606  1.00  0.00     0.049 A 
ATOM     47  H   UNL A   1      45.256  26.919  28.012  1.00  0.00     0.167 HD
ATOM     48  C   UNL A   1      41.279  28.552  28.793  1.00  0.00     0.037 A 
ATOM     49  C   UNL A   1      48.027  27.071  27.701  1.00  0.00     0.037 A 
ATOM     50  C   UNL A   1      42.185  29.653  29.002  1.00  0.00     0.049 A 
ATOM     51  C   UNL A   1      47.568  28.460  28.064  1.00  0.00     0.074 A 
ATOM     52  C   UNL A   1      41.894  30.943  29.409  1.00  0.00     0.029 A 
ATOM     53  N   UNL A   1      43.558  29.595  28.813  1.00  0.00    -0.354 N 
ATOM     54  N   UNL A   1      46.358  28.892  28.324  1.00  0.00    -0.248 NA
ATOM     55  C   UNL A   1      48.605  29.497  28.153  1.00  0.00     0.031 C 
ATOM     56  C   UNL A   1      43.081  31.683  29.405  1.00  0.00     0.029 A 
ATOM     57  C   UNL A   1      44.124  30.836  29.065  1.00  0.00     0.049 A 
ATOM     58  H   UNL A   1      44.058  28.791  28.540  1.00  0.00     0.167 HD
ATOM     59  C   UNL A   1      46.492  30.238  28.643  1.00  0.00     0.074 A 
ATOM     60  C   UNL A   1      47.903  30.547  28.555  1.00  0.00     0.031 C 
ATOM     61  C   UNL A   1      45.532  31.134  28.980  1.00  0.00     0.037 A 
BRANCH  48  62
ATOM     62  C   UNL A   1      39.809  28.800  28.981  1.00  0.00     0.064 A 
ATOM     63  C   UNL A   1      39.179  28.637  30.225  1.00  0.00     0.173 A 
ATOM     64  C   UNL A   1      39.025  29.248  27.906  1.00  0.00     0.173 A 
ATOM     65  F   UNL A   1      39.879  28.200  31.283  1.00  0.00    -0.203 F 
ATOM     66  C   UNL A   1      37.818  28.885  30.378  1.00  0.00     0.198 A 
ATOM     67  C   UNL A   1      37.671  29.528  28.071  1.00  0.00     0.198 A 
ATOM     68  F   UNL A   1      39.575  29.427  26.696  1.00  0.00    -0.203 F 
ATOM     69  F   UNL A   1      37.228  28.673  31.563  1.00  0.00    -0.200 F 
ATOM     70  C   UNL A   1      37.066  29.338  29.304  1.00  0.00     0.200 A 
ATOM     71  F   UNL A   1      36.951  29.980  27.034  1.00  0.00    -0.200 F 
ATOM     72  F   UNL A   1      35.757  29.585  29.455  1.00  0.00    -0.200 F 
ENDBRANCH  48  62
BRANCH  49  73
ATOM     73  C   UNL A   1      49.464  26.787  27.442  1.00  0.00     0.064 A 
ATOM     74  C   UNL A   1      50.336  26.442  28.484  1.00  0.00     0.173 A 
ATOM     75  C   UNL A   1      49.999  26.875  26.148  1.00  0.00     0.173 A 
ATOM     76  F   UNL A   1      49.881  26.373  29.744  1.00  0.00    -0.203 F 
ATOM     77  C   UNL A   1      51.691  26.219  28.245  1.00  0.00     0.198 A 
ATOM     78  C   UNL A   1      51.345  26.618  25.904  1.00  0.00     0.198 A 
ATOM     79  F   UNL A   1      49.210  27.209  25.115  1.00  0.00    -0.203 F 
ATOM     80  F   UNL A   1      52.514  25.950  29.267  1.00  0.00    -0.200 F 
ATOM     81  C   UNL A   1      52.194  26.301  26.954  1.00  0.00     0.200 A 
ATOM     82  F   UNL A   1      51.824  26.692  24.654  1.00  0.00    -0.200 F 
ATOM     83  F   UNL A   1      53.497  26.090  26.725  1.00  0.00    -0.200 F 
ENDBRANCH  49  73
BRANCH  61  84
ATOM     84  C   UNL A   1      45.979  32.528  29.324  1.00  0.00     0.064 A 
ATOM     85  C   UNL A   1      46.279  32.908  30.641  1.00  0.00     0.173 A 
ATOM     86  C   UNL A   1      46.135  33.491  28.314  1.00  0.00     0.173 A 
ATOM     87  F   UNL A   1      46.134  32.032  31.646  1.00  0.00    -0.203 F 
ATOM     88  C   UNL A   1      46.680  34.208  30.938  1.00  0.00     0.198 A 
ATOM     89  C   UNL A   1      46.574  34.778  28.610  1.00  0.00     0.198 A 
ATOM     90  F   UNL A   1      45.874  33.180  27.036  1.00  0.00    -0.203 F 
ATOM     91  F   UNL A   1      46.901  34.565  32.211  1.00  0.00    -0.200 F 
ATOM     92  C   UNL A   1      46.835  35.140  29.923  1.00  0.00     0.200 A 
ATOM     93  F   UNL A   1      46.740  35.671  27.624  1.00  0.00    -0.200 F 
ATOM     94  F   UNL A   1      47.227  36.389  30.210  1.00  0.00    -0.200 F 
ENDBRANCH  61  84
ENDBRANCH  35  36
ENDBRANCH  28  30
ENDBRANCH  27  28
ENDBRANCH  26  27
ENDBRANCH  25  26
ENDBRANCH  24  25
ENDBRANCH   1  24
TORSDOF 18
ENDMDL
