MODEL 1
REMARK VINA RESULT:     -11.2      0.000      0.000
REMARK SMILES COc1ccc(-c2cc(C(=O)OCCOCCOC(=O)c3ccc(-c4c5nc(c(-c6c(F)c(F)c(F)c(F)c6F)c6ccc([nH]6)c(-c6c(F)c(F)c(F)c(F)c6F)c6nc(c(-c7c(F)c(F)c(F)c(F)c7F)c7ccc4[nH]7)C=C6)C=C5)cc3)nn2C)cc1
REMARK SMILES IDX 15 1 14 2 13 3 12 4 10 5 11 6 9 7 7 8 8 9 85 10 84 11 86 12
REMARK SMILES IDX 6 13 3 14 4 15 88 16 5 17 87 18 2 19 1 20 16 21 17 22 18 23
REMARK SMILES IDX 19 24 20 25 21 26 22 27 83 28 23 29 82 30 24 31 25 32 26 33
REMARK SMILES IDX 76 34 27 35 81 36 75 37 77 38 28 39 80 40 74 41 73 42 29 44
REMARK SMILES IDX 61 45 41 46 60 47 42 48 45 49 59 50 78 51 43 52 44 53 58 55
REMARK SMILES IDX 79 56 46 57 30 58 31 59 39 60 32 61 33 62 37 63 40 64 34 65
REMARK SMILES IDX 35 66 38 67 36 68 62 69 63 70 71 71 64 72 65 73 69 74 72 75
REMARK SMILES IDX 66 76 67 77 70 78 68 79 47 80 48 81 56 82 49 83 50 84 54 85
REMARK SMILES IDX 57 86 51 87 52 88 55 89 53 90
REMARK H PARENT 77 43 45 54
REMARK Flexibility Score: inf
ROOT
ATOM      1  O   UNL A   1      41.930  21.141  27.130  1.00  0.00    -0.374 OA
ENDROOT
BRANCH   1   2
ATOM      2  C   UNL A   1      40.603  21.662  27.036  1.00  0.00     0.202 C 
BRANCH   2   3
ATOM      3  C   UNL A   1      39.704  20.928  26.035  1.00  0.00     0.261 C 
BRANCH   3   4
ATOM      4  O   UNL A   1      38.533  21.713  25.751  1.00  0.00    -0.458 OA
BRANCH   4   5
ATOM      5  C   UNL A   1      37.514  21.047  25.125  1.00  0.00     0.358 C 
ATOM      6  O   UNL A   1      37.544  19.853  24.844  1.00  0.00    -0.244 OA
BRANCH   5   7
ATOM      7  C   UNL A   1      36.345  21.915  24.914  1.00  0.00     0.170 A 
ATOM      8  C   UNL A   1      34.955  23.670  24.746  1.00  0.00     0.069 A 
ATOM      9  C   UNL A   1      36.260  23.325  25.051  1.00  0.00     0.066 A 
ATOM     10  N   UNL A   1      34.329  22.473  24.498  1.00  0.00    -0.267 N 
ATOM     11  N   UNL A   1      35.142  21.407  24.597  1.00  0.00    -0.165 NA
ATOM     12  C   UNL A   1      32.949  22.233  24.139  1.00  0.00     0.174 C 
BRANCH   8  13
ATOM     13  C   UNL A   1      34.356  24.993  24.597  1.00  0.00     0.000 A 
ATOM     14  C   UNL A   1      33.170  27.510  24.234  1.00  0.00     0.118 A 
ATOM     15  C   UNL A   1      33.439  26.700  23.134  1.00  0.00     0.047 A 
ATOM     16  C   UNL A   1      33.471  27.060  25.520  1.00  0.00     0.047 A 
ATOM     17  C   UNL A   1      34.042  25.454  23.314  1.00  0.00     0.014 A 
ATOM     18  C   UNL A   1      34.069  25.806  25.701  1.00  0.00     0.014 A 
BRANCH  14  19
ATOM     19  O   UNL A   1      32.553  28.700  23.968  1.00  0.00    -0.497 OA
ATOM     20  C   UNL A   1      31.399  28.933  24.771  1.00  0.00     0.278 C 
ENDBRANCH  14  19
ENDBRANCH   8  13
ENDBRANCH   5   7
ENDBRANCH   4   5
ENDBRANCH   3   4
ENDBRANCH   2   3
ENDBRANCH   1   2
BRANCH   1  21
ATOM     21  C   UNL A   1      42.591  20.863  25.891  1.00  0.00     0.202 C 
BRANCH  21  22
ATOM     22  C   UNL A   1      43.660  21.887  25.500  1.00  0.00     0.261 C 
BRANCH  22  23
ATOM     23  O   UNL A   1      43.055  23.060  24.918  1.00  0.00    -0.460 OA
BRANCH  23  24
ATOM     24  C   UNL A   1      43.782  24.197  25.036  1.00  0.00     0.338 C 
ATOM     25  O   UNL A   1      44.747  24.534  24.373  1.00  0.00    -0.246 OA
BRANCH  24  26
ATOM     26  C   UNL A   1      43.134  25.100  26.008  1.00  0.00     0.060 A 
ATOM     27  C   UNL A   1      43.755  26.330  26.256  1.00  0.00     0.016 A 
ATOM     28  C   UNL A   1      41.974  24.741  26.701  1.00  0.00     0.016 A 
ATOM     29  C   UNL A   1      43.245  27.188  27.228  1.00  0.00     0.010 A 
ATOM     30  C   UNL A   1      41.466  25.601  27.682  1.00  0.00     0.010 A 
ATOM     31  C   UNL A   1      42.115  26.815  27.969  1.00  0.00    -0.014 A 
BRANCH  31  32
ATOM     32  C   UNL A   1      41.685  27.647  29.119  1.00  0.00     0.031 A 
ATOM     33  C   UNL A   1      42.430  27.549  30.420  1.00  0.00     0.074 A 
ATOM     34  C   UNL A   1      40.649  28.497  28.997  1.00  0.00     0.049 A 
ATOM     35  N   UNL A   1      42.207  28.165  31.553  1.00  0.00    -0.248 NA
ATOM     36  C   UNL A   1      43.581  26.633  30.448  1.00  0.00     0.031 C 
ATOM     37  C   UNL A   1      39.861  28.699  27.783  1.00  0.00     0.029 A 
ATOM     38  N   UNL A   1      40.075  29.340  29.916  1.00  0.00    -0.354 N 
ATOM     39  C   UNL A   1      43.183  27.708  32.429  1.00  0.00     0.074 A 
ATOM     40  C   UNL A   1      43.986  26.745  31.705  1.00  0.00     0.031 C 
ATOM     41  C   UNL A   1      38.894  29.597  28.035  1.00  0.00     0.029 A 
ATOM     42  C   UNL A   1      38.980  30.012  29.435  1.00  0.00     0.049 A 
ATOM     43  H   UNL A   1      40.417  29.452  30.832  1.00  0.00     0.167 HD
ATOM     44  C   UNL A   1      43.394  28.066  33.718  1.00  0.00     0.037 A 
ATOM     45  C   UNL A   1      38.129  30.850  30.061  1.00  0.00     0.037 A 
ATOM     46  C   UNL A   1      42.603  29.030  34.435  1.00  0.00     0.049 A 
ATOM     47  C   UNL A   1      38.357  31.192  31.510  1.00  0.00     0.074 A 
ATOM     48  C   UNL A   1      42.769  29.492  35.729  1.00  0.00     0.029 A 
ATOM     49  N   UNL A   1      41.488  29.676  33.921  1.00  0.00    -0.354 N 
ATOM     50  N   UNL A   1      39.309  30.790  32.316  1.00  0.00    -0.248 NA
ATOM     51  C   UNL A   1      37.391  32.108  32.135  1.00  0.00     0.031 C 
ATOM     52  C   UNL A   1      41.727  30.380  36.015  1.00  0.00     0.029 A 
ATOM     53  C   UNL A   1      40.938  30.508  34.883  1.00  0.00     0.049 A 
ATOM     54  H   UNL A   1      41.140  29.560  33.008  1.00  0.00     0.167 HD
ATOM     55  C   UNL A   1      39.071  31.418  33.532  1.00  0.00     0.074 A 
ATOM     56  C   UNL A   1      37.893  32.241  33.355  1.00  0.00     0.031 C 
ATOM     57  C   UNL A   1      39.766  31.321  34.692  1.00  0.00     0.037 A 
BRANCH  44  58
ATOM     58  C   UNL A   1      44.517  27.396  34.450  1.00  0.00     0.064 A 
ATOM     59  C   UNL A   1      44.346  26.158  35.088  1.00  0.00     0.173 A 
ATOM     60  C   UNL A   1      45.795  27.974  34.468  1.00  0.00     0.173 A 
ATOM     61  F   UNL A   1      43.140  25.571  35.109  1.00  0.00    -0.203 F 
ATOM     62  C   UNL A   1      45.411  25.532  35.731  1.00  0.00     0.198 A 
ATOM     63  C   UNL A   1      46.863  27.333  35.090  1.00  0.00     0.198 A 
ATOM     64  F   UNL A   1      46.012  29.154  33.869  1.00  0.00    -0.203 F 
ATOM     65  F   UNL A   1      45.218  24.366  36.361  1.00  0.00    -0.200 F 
ATOM     66  C   UNL A   1      46.670  26.116  35.724  1.00  0.00     0.200 A 
ATOM     67  F   UNL A   1      48.080  27.893  35.074  1.00  0.00    -0.200 F 
ATOM     68  F   UNL A   1      47.696  25.506  36.334  1.00  0.00    -0.200 F 
ENDBRANCH  44  58
BRANCH  45  69
ATOM     69  C   UNL A   1      36.967  31.410  29.325  1.00  0.00     0.064 A 
ATOM     70  C   UNL A   1      36.922  32.761  28.958  1.00  0.00     0.173 A 
ATOM     71  C   UNL A   1      35.865  30.607  28.997  1.00  0.00     0.173 A 
ATOM     72  F   UNL A   1      37.941  33.575  29.274  1.00  0.00    -0.203 F 
ATOM     73  C   UNL A   1      35.812  33.293  28.305  1.00  0.00     0.198 A 
ATOM     74  C   UNL A   1      34.766  31.133  28.320  1.00  0.00     0.198 A 
ATOM     75  F   UNL A   1      35.856  29.308  29.330  1.00  0.00    -0.203 F 
ATOM     76  F   UNL A   1      35.775  34.598  28.006  1.00  0.00    -0.200 F 
ATOM     77  C   UNL A   1      34.737  32.477  27.982  1.00  0.00     0.200 A 
ATOM     78  F   UNL A   1      33.735  30.339  28.002  1.00  0.00    -0.200 F 
ATOM     79  F   UNL A   1      33.670  32.988  27.353  1.00  0.00    -0.200 F 
ENDBRANCH  45  69
BRANCH  57  80
ATOM     80  C   UNL A   1      39.286  32.140  35.854  1.00  0.00     0.064 A 
ATOM     81  C   UNL A   1      39.727  33.457  36.055  1.00  0.00     0.173 A 
ATOM     82  C   UNL A   1      38.343  31.618  36.752  1.00  0.00     0.173 A 
ATOM     83  F   UNL A   1      40.639  33.996  35.232  1.00  0.00    -0.203 F 
ATOM     84  C   UNL A   1      39.257  34.212  37.126  1.00  0.00     0.198 A 
ATOM     85  C   UNL A   1      37.855  32.386  37.806  1.00  0.00     0.198 A 
ATOM     86  F   UNL A   1      37.886  30.367  36.600  1.00  0.00    -0.203 F 
ATOM     87  F   UNL A   1      39.724  35.454  37.323  1.00  0.00    -0.200 F 
ATOM     88  C   UNL A   1      38.317  33.680  37.995  1.00  0.00     0.200 A 
ATOM     89  F   UNL A   1      36.938  31.875  38.638  1.00  0.00    -0.200 F 
ATOM     90  F   UNL A   1      37.860  34.412  39.021  1.00  0.00    -0.200 F 
ENDBRANCH  57  80
ENDBRANCH  31  32
ENDBRANCH  24  26
ENDBRANCH  23  24
ENDBRANCH  22  23
ENDBRANCH  21  22
ENDBRANCH   1  21
TORSDOF 16
ENDMDL
MODEL 2
REMARK VINA RESULT:     -11.1      2.554      8.958
REMARK SMILES COc1ccc(-c2cc(C(=O)OCCOCCOC(=O)c3ccc(-c4c5nc(c(-c6c(F)c(F)c(F)c(F)c6F)c6ccc([nH]6)c(-c6c(F)c(F)c(F)c(F)c6F)c6nc(c(-c7c(F)c(F)c(F)c(F)c7F)c7ccc4[nH]7)C=C6)C=C5)cc3)nn2C)cc1
REMARK SMILES IDX 15 1 14 2 13 3 12 4 10 5 11 6 9 7 7 8 8 9 85 10 84 11 86 12
REMARK SMILES IDX 6 13 3 14 4 15 88 16 5 17 87 18 2 19 1 20 16 21 17 22 18 23
REMARK SMILES IDX 19 24 20 25 21 26 22 27 83 28 23 29 82 30 24 31 25 32 26 33
REMARK SMILES IDX 76 34 27 35 81 36 75 37 77 38 28 39 80 40 74 41 73 42 29 44
REMARK SMILES IDX 61 45 41 46 60 47 42 48 45 49 59 50 78 51 43 52 44 53 58 55
REMARK SMILES IDX 79 56 46 57 30 58 31 59 39 60 32 61 33 62 37 63 40 64 34 65
REMARK SMILES IDX 35 66 38 67 36 68 62 69 63 70 71 71 64 72 65 73 69 74 72 75
REMARK SMILES IDX 66 76 67 77 70 78 68 79 47 80 48 81 56 82 49 83 50 84 54 85
REMARK SMILES IDX 57 86 51 87 52 88 55 89 53 90
REMARK H PARENT 77 43 45 54
REMARK Flexibility Score: inf
ROOT
ATOM      1  O   UNL A   1      31.437  30.492  26.639  1.00  0.00    -0.374 OA
ENDROOT
BRANCH   1   2
ATOM      2  C   UNL A   1      31.940  29.551  25.689  1.00  0.00     0.202 C 
BRANCH   2   3
ATOM      3  C   UNL A   1      31.190  29.538  24.353  1.00  0.00     0.261 C 
BRANCH   3   4
ATOM      4  O   UNL A   1      31.943  28.808  23.368  1.00  0.00    -0.458 OA
BRANCH   4   5
ATOM      5  C   UNL A   1      31.297  27.741  22.804  1.00  0.00     0.358 C 
ATOM      6  O   UNL A   1      30.284  27.835  22.119  1.00  0.00    -0.244 OA
BRANCH   5   7
ATOM      7  C   UNL A   1      32.018  26.481  23.040  1.00  0.00     0.170 A 
ATOM      8  C   UNL A   1      33.587  24.933  23.469  1.00  0.00     0.069 A 
ATOM      9  C   UNL A   1      33.395  26.296  23.331  1.00  0.00     0.066 A 
ATOM     10  N   UNL A   1      32.356  24.381  23.209  1.00  0.00    -0.267 N 
ATOM     11  N   UNL A   1      31.402  25.290  22.945  1.00  0.00    -0.165 NA
ATOM     12  C   UNL A   1      31.974  22.987  23.201  1.00  0.00     0.174 C 
BRANCH   8  13
ATOM     13  C   UNL A   1      34.775  24.202  23.899  1.00  0.00     0.000 A 
ATOM     14  C   UNL A   1      37.030  22.802  24.809  1.00  0.00     0.118 A 
ATOM     15  C   UNL A   1      36.324  23.628  25.679  1.00  0.00     0.047 A 
ATOM     16  C   UNL A   1      36.602  22.652  23.489  1.00  0.00     0.047 A 
ATOM     17  C   UNL A   1      35.211  24.335  25.223  1.00  0.00     0.014 A 
ATOM     18  C   UNL A   1      35.481  23.356  23.033  1.00  0.00     0.014 A 
BRANCH  14  19
ATOM     19  O   UNL A   1      38.089  22.126  25.349  1.00  0.00    -0.497 OA
ATOM     20  C   UNL A   1      37.952  20.709  25.280  1.00  0.00     0.278 C 
ENDBRANCH  14  19
ENDBRANCH   8  13
ENDBRANCH   5   7
ENDBRANCH   4   5
ENDBRANCH   3   4
ENDBRANCH   2   3
ENDBRANCH   1   2
BRANCH   1  21
ATOM     21  C   UNL A   1      31.101  31.787  26.131  1.00  0.00     0.202 C 
BRANCH  21  22
ATOM     22  C   UNL A   1      31.766  32.950  26.871  1.00  0.00     0.261 C 
BRANCH  22  23
ATOM     23  O   UNL A   1      32.896  32.489  27.638  1.00  0.00    -0.460 OA
BRANCH  23  24
ATOM     24  C   UNL A   1      33.914  33.375  27.747  1.00  0.00     0.338 C 
ATOM     25  O   UNL A   1      33.861  34.587  27.625  1.00  0.00    -0.246 OA
BRANCH  24  26
ATOM     26  C   UNL A   1      35.130  32.679  28.214  1.00  0.00     0.060 A 
ATOM     27  C   UNL A   1      34.994  31.343  28.608  1.00  0.00     0.016 A 
ATOM     28  C   UNL A   1      36.366  33.324  28.313  1.00  0.00     0.016 A 
ATOM     29  C   UNL A   1      36.082  30.657  29.143  1.00  0.00     0.010 A 
ATOM     30  C   UNL A   1      37.457  32.636  28.857  1.00  0.00     0.010 A 
ATOM     31  C   UNL A   1      37.313  31.309  29.300  1.00  0.00    -0.014 A 
BRANCH  31  32
ATOM     32  C   UNL A   1      38.412  30.634  30.031  1.00  0.00     0.031 A 
ATOM     33  C   UNL A   1      38.660  30.979  31.472  1.00  0.00     0.074 A 
ATOM     34  C   UNL A   1      39.172  29.708  29.419  1.00  0.00     0.049 A 
ATOM     35  N   UNL A   1      39.579  30.529  32.288  1.00  0.00    -0.248 NA
ATOM     36  C   UNL A   1      37.749  31.964  32.075  1.00  0.00     0.031 C 
ATOM     37  C   UNL A   1      39.017  29.270  28.034  1.00  0.00     0.029 A 
ATOM     38  N   UNL A   1      40.236  28.977  29.887  1.00  0.00    -0.354 N 
ATOM     39  C   UNL A   1      39.363  31.178  33.496  1.00  0.00     0.074 A 
ATOM     40  C   UNL A   1      38.240  32.072  33.302  1.00  0.00     0.031 C 
ATOM     41  C   UNL A   1      39.964  28.358  27.756  1.00  0.00     0.029 A 
ATOM     42  C   UNL A   1      40.805  28.167  28.936  1.00  0.00     0.049 A 
ATOM     43  H   UNL A   1      40.559  29.028  30.815  1.00  0.00     0.167 HD
ATOM     44  C   UNL A   1      40.035  31.035  34.663  1.00  0.00     0.037 A 
ATOM     45  C   UNL A   1      41.896  27.378  29.006  1.00  0.00     0.037 A 
ATOM     46  C   UNL A   1      41.144  30.139  34.859  1.00  0.00     0.049 A 
ATOM     47  C   UNL A   1      42.656  27.276  30.302  1.00  0.00     0.074 A 
ATOM     48  C   UNL A   1      41.858  29.892  36.018  1.00  0.00     0.029 A 
ATOM     49  N   UNL A   1      41.706  29.349  33.867  1.00  0.00    -0.354 N 
ATOM     50  N   UNL A   1      42.416  27.859  31.451  1.00  0.00    -0.248 NA
ATOM     51  C   UNL A   1      43.839  26.403  30.310  1.00  0.00     0.031 C 
ATOM     52  C   UNL A   1      42.883  28.989  35.717  1.00  0.00     0.029 A 
ATOM     53  C   UNL A   1      42.778  28.638  34.381  1.00  0.00     0.049 A 
ATOM     54  H   UNL A   1      41.389  29.302  32.937  1.00  0.00     0.167 HD
ATOM     55  C   UNL A   1      43.401  27.409  32.321  1.00  0.00     0.074 A 
ATOM     56  C   UNL A   1      44.233  26.491  31.573  1.00  0.00     0.031 C 
ATOM     57  C   UNL A   1      43.597  27.727  33.624  1.00  0.00     0.037 A 
BRANCH  44  58
ATOM     58  C   UNL A   1      39.604  31.883  35.822  1.00  0.00     0.064 A 
ATOM     59  C   UNL A   1      40.214  33.116  36.099  1.00  0.00     0.173 A 
ATOM     60  C   UNL A   1      38.532  31.482  36.632  1.00  0.00     0.173 A 
ATOM     61  F   UNL A   1      41.251  33.537  35.360  1.00  0.00    -0.203 F 
ATOM     62  C   UNL A   1      39.775  33.909  37.156  1.00  0.00     0.198 A 
ATOM     63  C   UNL A   1      38.080  32.288  37.673  1.00  0.00     0.198 A 
ATOM     64  F   UNL A   1      37.913  30.314  36.406  1.00  0.00    -0.203 F 
ATOM     65  F   UNL A   1      40.392  35.067  37.424  1.00  0.00    -0.200 F 
ATOM     66  C   UNL A   1      38.703  33.498  37.937  1.00  0.00     0.200 A 
ATOM     67  F   UNL A   1      37.039  31.895  38.419  1.00  0.00    -0.200 F 
ATOM     68  F   UNL A   1      38.275  34.267  38.947  1.00  0.00    -0.200 F 
ENDBRANCH  44  58
BRANCH  45  69
ATOM     69  C   UNL A   1      42.350  26.635  27.802  1.00  0.00     0.064 A 
ATOM     70  C   UNL A   1      41.876  25.347  27.521  1.00  0.00     0.173 A 
ATOM     71  C   UNL A   1      43.288  27.193  26.921  1.00  0.00     0.173 A 
ATOM     72  F   UNL A   1      40.998  24.762  28.350  1.00  0.00    -0.203 F 
ATOM     73  C   UNL A   1      42.336  24.637  26.414  1.00  0.00     0.198 A 
ATOM     74  C   UNL A   1      43.728  26.493  25.799  1.00  0.00     0.198 A 
ATOM     75  F   UNL A   1      43.776  28.421  27.147  1.00  0.00    -0.203 F 
ATOM     76  F   UNL A   1      41.901  23.389  26.194  1.00  0.00    -0.200 F 
ATOM     77  C   UNL A   1      43.257  25.212  25.552  1.00  0.00     0.200 A 
ATOM     78  F   UNL A   1      44.610  27.056  24.963  1.00  0.00    -0.200 F 
ATOM     79  F   UNL A   1      43.698  24.529  24.486  1.00  0.00    -0.200 F 
ENDBRANCH  45  69
BRANCH  57  80
ATOM     80  C   UNL A   1      44.742  27.064  34.332  1.00  0.00     0.064 A 
ATOM     81  C   UNL A   1      44.597  25.812  34.947  1.00  0.00     0.173 A 
ATOM     82  C   UNL A   1      46.009  27.666  34.357  1.00  0.00     0.173 A 
ATOM     83  F   UNL A   1      43.402  25.202  34.963  1.00  0.00    -0.203 F 
ATOM     84  C   UNL A   1      45.674  25.198  35.582  1.00  0.00     0.198 A 
ATOM     85  C   UNL A   1      47.090  27.037  34.969  1.00  0.00     0.198 A 
ATOM     86  F   UNL A   1      46.201  28.860  33.777  1.00  0.00    -0.203 F 
ATOM     87  F   UNL A   1      45.502  24.021  36.200  1.00  0.00    -0.200 F 
ATOM     88  C   UNL A   1      46.920  25.807  35.586  1.00  0.00     0.200 A 
ATOM     89  F   UNL A   1      48.296  27.621  34.962  1.00  0.00    -0.200 F 
ATOM     90  F   UNL A   1      47.957  25.211  36.191  1.00  0.00    -0.200 F 
ENDBRANCH  57  80
ENDBRANCH  31  32
ENDBRANCH  24  26
ENDBRANCH  23  24
ENDBRANCH  22  23
ENDBRANCH  21  22
ENDBRANCH   1  21
TORSDOF 16
ENDMDL
MODEL 3
REMARK VINA RESULT:     -11.1      1.669      2.810
REMARK SMILES COc1ccc(-c2cc(C(=O)OCCOCCOC(=O)c3ccc(-c4c5nc(c(-c6c(F)c(F)c(F)c(F)c6F)c6ccc([nH]6)c(-c6c(F)c(F)c(F)c(F)c6F)c6nc(c(-c7c(F)c(F)c(F)c(F)c7F)c7ccc4[nH]7)C=C6)C=C5)cc3)nn2C)cc1
REMARK SMILES IDX 15 1 14 2 13 3 12 4 10 5 11 6 9 7 7 8 8 9 85 10 84 11 86 12
REMARK SMILES IDX 6 13 3 14 4 15 88 16 5 17 87 18 2 19 1 20 16 21 17 22 18 23
REMARK SMILES IDX 19 24 20 25 21 26 22 27 83 28 23 29 82 30 24 31 25 32 26 33
REMARK SMILES IDX 76 34 27 35 81 36 75 37 77 38 28 39 80 40 74 41 73 42 29 44
REMARK SMILES IDX 61 45 41 46 60 47 42 48 45 49 59 50 78 51 43 52 44 53 58 55
REMARK SMILES IDX 79 56 46 57 30 58 31 59 39 60 32 61 33 62 37 63 40 64 34 65
REMARK SMILES IDX 35 66 38 67 36 68 62 69 63 70 71 71 64 72 65 73 69 74 72 75
REMARK SMILES IDX 66 76 67 77 70 78 68 79 47 80 48 81 56 82 49 83 50 84 54 85
REMARK SMILES IDX 57 86 51 87 52 88 55 89 53 90
REMARK H PARENT 77 43 45 54
REMARK Flexibility Score: inf
ROOT
ATOM      1  O   UNL A   1      44.448  20.410  25.244  1.00  0.00    -0.374 OA
ENDROOT
BRANCH   1   2
ATOM      2  C   UNL A   1      43.779  19.208  24.861  1.00  0.00     0.202 C 
BRANCH   2   3
ATOM      3  C   UNL A   1      42.726  18.723  25.863  1.00  0.00     0.261 C 
BRANCH   3   4
ATOM      4  O   UNL A   1      41.526  19.506  25.742  1.00  0.00    -0.458 OA
BRANCH   4   5
ATOM      5  C   UNL A   1      41.256  20.338  26.795  1.00  0.00     0.358 C 
ATOM      6  O   UNL A   1      41.920  20.380  27.825  1.00  0.00    -0.244 OA
BRANCH   5   7
ATOM      7  C   UNL A   1      40.130  21.239  26.502  1.00  0.00     0.170 A 
ATOM      8  C   UNL A   1      38.203  22.126  25.766  1.00  0.00     0.069 A 
ATOM      9  C   UNL A   1      38.952  20.962  25.759  1.00  0.00     0.066 A 
ATOM     10  N   UNL A   1      38.976  23.032  26.451  1.00  0.00    -0.267 N 
ATOM     11  N   UNL A   1      40.137  22.523  26.897  1.00  0.00    -0.165 NA
ATOM     12  C   UNL A   1      38.690  24.417  26.752  1.00  0.00     0.174 C 
BRANCH   8  13
ATOM     13  C   UNL A   1      36.850  22.361  25.272  1.00  0.00     0.000 A 
ATOM     14  C   UNL A   1      34.283  22.838  24.242  1.00  0.00     0.118 A 
ATOM     15  C   UNL A   1      35.389  23.474  23.683  1.00  0.00     0.047 A 
ATOM     16  C   UNL A   1      34.455  21.944  25.301  1.00  0.00     0.047 A 
ATOM     17  C   UNL A   1      36.663  23.248  24.205  1.00  0.00     0.014 A 
ATOM     18  C   UNL A   1      35.736  21.712  25.818  1.00  0.00     0.014 A 
BRANCH  14  19
ATOM     19  O   UNL A   1      33.078  23.096  23.651  1.00  0.00    -0.497 OA
ATOM     20  C   UNL A   1      32.989  22.618  22.311  1.00  0.00     0.278 C 
ENDBRANCH  14  19
ENDBRANCH   8  13
ENDBRANCH   5   7
ENDBRANCH   4   5
ENDBRANCH   3   4
ENDBRANCH   2   3
ENDBRANCH   1   2
BRANCH   1  21
ATOM     21  C   UNL A   1      44.986  21.203  24.181  1.00  0.00     0.202 C 
BRANCH  21  22
ATOM     22  C   UNL A   1      44.288  22.552  23.982  1.00  0.00     0.261 C 
BRANCH  22  23
ATOM     23  O   UNL A   1      44.111  23.228  25.242  1.00  0.00    -0.460 OA
BRANCH  23  24
ATOM     24  C   UNL A   1      44.636  24.475  25.303  1.00  0.00     0.338 C 
ATOM     25  O   UNL A   1      45.514  24.946  24.600  1.00  0.00    -0.246 OA
BRANCH  24  26
ATOM     26  C   UNL A   1      43.869  25.290  26.265  1.00  0.00     0.060 A 
ATOM     27  C   UNL A   1      44.232  26.635  26.402  1.00  0.00     0.016 A 
ATOM     28  C   UNL A   1      42.849  24.749  27.053  1.00  0.00     0.016 A 
ATOM     29  C   UNL A   1      43.608  27.435  27.356  1.00  0.00     0.010 A 
ATOM     30  C   UNL A   1      42.227  25.551  28.016  1.00  0.00     0.010 A 
ATOM     31  C   UNL A   1      42.623  26.890  28.192  1.00  0.00    -0.014 A 
BRANCH  31  32
ATOM     32  C   UNL A   1      42.092  27.693  29.320  1.00  0.00     0.031 A 
ATOM     33  C   UNL A   1      42.795  27.654  30.647  1.00  0.00     0.074 A 
ATOM     34  C   UNL A   1      41.001  28.463  29.156  1.00  0.00     0.049 A 
ATOM     35  N   UNL A   1      42.487  28.256  31.768  1.00  0.00    -0.248 NA
ATOM     36  C   UNL A   1      44.008  26.826  30.722  1.00  0.00     0.031 C 
ATOM     37  C   UNL A   1      40.245  28.602  27.913  1.00  0.00     0.029 A 
ATOM     38  N   UNL A   1      40.335  29.266  30.048  1.00  0.00    -0.354 N 
ATOM     39  C   UNL A   1      43.461  27.875  32.680  1.00  0.00     0.074 A 
ATOM     40  C   UNL A   1      44.358  26.972  31.992  1.00  0.00     0.031 C 
ATOM     41  C   UNL A   1      39.206  29.428  28.125  1.00  0.00     0.029 A 
ATOM     42  C   UNL A   1      39.211  29.854  29.524  1.00  0.00     0.049 A 
ATOM     43  H   UNL A   1      40.634  29.406  30.975  1.00  0.00     0.167 HD
ATOM     44  C   UNL A   1      43.599  28.253  33.974  1.00  0.00     0.037 A 
ATOM     45  C   UNL A   1      38.280  30.629  30.114  1.00  0.00     0.037 A 
ATOM     46  C   UNL A   1      42.714  29.160  34.656  1.00  0.00     0.049 A 
ATOM     47  C   UNL A   1      38.430  30.992  31.568  1.00  0.00     0.074 A 
ATOM     48  C   UNL A   1      42.800  29.638  35.952  1.00  0.00     0.029 A 
ATOM     49  N   UNL A   1      41.574  29.720  34.098  1.00  0.00    -0.354 N 
ATOM     50  N   UNL A   1      39.378  30.665  32.410  1.00  0.00    -0.248 NA
ATOM     51  C   UNL A   1      37.377  31.837  32.153  1.00  0.00     0.031 C 
ATOM     52  C   UNL A   1      41.686  30.447  36.195  1.00  0.00     0.029 A 
ATOM     53  C   UNL A   1      40.931  30.512  35.035  1.00  0.00     0.049 A 
ATOM     54  H   UNL A   1      41.268  29.575  33.174  1.00  0.00     0.167 HD
ATOM     55  C   UNL A   1      39.051  31.278  33.613  1.00  0.00     0.074 A 
ATOM     56  C   UNL A   1      37.824  32.011  33.388  1.00  0.00     0.031 C 
ATOM     57  C   UNL A   1      39.710  31.237  34.797  1.00  0.00     0.037 A 
BRANCH  44  58
ATOM     58  C   UNL A   1      44.741  27.670  34.750  1.00  0.00     0.064 A 
ATOM     59  C   UNL A   1      44.607  26.475  35.472  1.00  0.00     0.173 A 
ATOM     60  C   UNL A   1      46.001  28.287  34.727  1.00  0.00     0.173 A 
ATOM     61  F   UNL A   1      43.420  25.854  35.534  1.00  0.00    -0.203 F 
ATOM     62  C   UNL A   1      45.690  25.927  36.155  1.00  0.00     0.198 A 
ATOM     63  C   UNL A   1      47.087  27.724  35.391  1.00  0.00     0.198 A 
ATOM     64  F   UNL A   1      46.182  29.430  34.048  1.00  0.00    -0.203 F 
ATOM     65  F   UNL A   1      45.532  24.802  36.865  1.00  0.00    -0.200 F 
ATOM     66  C   UNL A   1      46.930  26.548  36.108  1.00  0.00     0.200 A 
ATOM     67  F   UNL A   1      48.286  28.319  35.336  1.00  0.00    -0.200 F 
ATOM     68  F   UNL A   1      47.973  26.014  36.757  1.00  0.00    -0.200 F 
ENDBRANCH  44  58
BRANCH  45  69
ATOM     69  C   UNL A   1      37.106  31.100  29.334  1.00  0.00     0.064 A 
ATOM     70  C   UNL A   1      36.040  30.240  29.036  1.00  0.00     0.173 A 
ATOM     71  C   UNL A   1      37.040  32.415  28.851  1.00  0.00     0.173 A 
ATOM     72  F   UNL A   1      36.072  28.966  29.454  1.00  0.00    -0.203 F 
ATOM     73  C   UNL A   1      34.960  30.673  28.269  1.00  0.00     0.198 A 
ATOM     74  C   UNL A   1      35.947  32.855  28.106  1.00  0.00     0.198 A 
ATOM     75  F   UNL A   1      38.036  33.276  29.105  1.00  0.00    -0.203 F 
ATOM     76  F   UNL A   1      33.977  29.818  27.959  1.00  0.00    -0.200 F 
ATOM     77  C   UNL A   1      34.912  31.980  27.809  1.00  0.00     0.200 A 
ATOM     78  F   UNL A   1      35.900  34.121  27.673  1.00  0.00    -0.200 F 
ATOM     79  F   UNL A   1      33.873  32.396  27.073  1.00  0.00    -0.200 F 
ENDBRANCH  45  69
BRANCH  57  80
ATOM     80  C   UNL A   1      39.130  32.023  35.936  1.00  0.00     0.064 A 
ATOM     81  C   UNL A   1      38.242  31.440  36.853  1.00  0.00     0.173 A 
ATOM     82  C   UNL A   1      39.500  33.361  36.140  1.00  0.00     0.173 A 
ATOM     83  F   UNL A   1      37.847  30.168  36.692  1.00  0.00    -0.203 F 
ATOM     84  C   UNL A   1      37.728  32.175  37.917  1.00  0.00     0.198 A 
ATOM     85  C   UNL A   1      39.006  34.085  37.221  1.00  0.00     0.198 A 
ATOM     86  F   UNL A   1      40.351  33.963  35.296  1.00  0.00    -0.203 F 
ATOM     87  F   UNL A   1      36.849  31.610  38.757  1.00  0.00    -0.200 F 
ATOM     88  C   UNL A   1      38.116  33.493  38.105  1.00  0.00     0.200 A 
ATOM     89  F   UNL A   1      39.390  35.355  37.409  1.00  0.00    -0.200 F 
ATOM     90  F   UNL A   1      37.626  34.197  39.136  1.00  0.00    -0.200 F 
ENDBRANCH  57  80
ENDBRANCH  31  32
ENDBRANCH  24  26
ENDBRANCH  23  24
ENDBRANCH  22  23
ENDBRANCH  21  22
ENDBRANCH   1  21
TORSDOF 16
ENDMDL
