MODEL 1
REMARK VINA RESULT:     -12.1      0.000      0.000
REMARK SMILES CCOc1ccc(-c2nn(-c3ccccc3)cc2/C=C2/SC(=S)N(CC(=O)OCCOCCOC(=O)c3ccc(-c4c5nc(c(-c6c(F)c(F)c(F)c(F)c6F)c6ccc([nH]6)c(-c6c(F)c(F)c(F)c(F)c6F)c6nc(c(-c7c(F)c(F)c(F)c(F)c7F)c7ccc4[nH]7)C=C6)C=C5)cc3)C2=O)cc1F
REMARK SMILES IDX 29 1 28 2 26 3 27 4 25 5 24 6 19 7 20 8 21 9 100 10 22 11
REMARK SMILES IDX 101 12 23 13 18 14 8 15 9 16 10 17 17 18 7 19 4 20 5 21
REMARK SMILES IDX 103 22 6 23 102 24 104 25 3 26 2 27 1 28 11 29 12 30 16 31
REMARK SMILES IDX 13 32 15 33 14 34 30 35 31 36 32 37 33 38 34 39 35 40 36 41
REMARK SMILES IDX 37 42 38 43 99 44 39 45 98 46 40 47 41 48 42 49 92 50 43 51
REMARK SMILES IDX 97 52 91 53 93 54 44 55 96 56 90 57 89 58 45 60 77 61 57 62
REMARK SMILES IDX 76 63 58 64 61 65 75 66 94 67 59 68 60 69 74 71 95 72 62 73
REMARK SMILES IDX 46 74 47 75 55 76 48 77 49 78 53 79 56 80 50 81 51 82 54 83
REMARK SMILES IDX 52 84 78 85 79 86 87 87 80 88 81 89 85 90 88 91 82 92 83 93
REMARK SMILES IDX 86 94 84 95 63 96 64 97 72 98 65 99 66 100 70 101 73 102
REMARK SMILES IDX 67 103 68 104 71 105 69 106
REMARK H PARENT 93 59 61 70
REMARK Flexibility Score: inf
ROOT
ATOM      1  C   UNL A   1      32.794  35.995  30.291  1.00  0.00     0.261 C 
ENDROOT
BRANCH   1   2
ATOM      2  O   UNL A   1      33.836  35.381  29.495  1.00  0.00    -0.462 OA
BRANCH   2   3
ATOM      3  C   UNL A   1      33.839  34.018  29.509  1.00  0.00     0.326 C 
ATOM      4  O   UNL A   1      33.914  33.338  30.528  1.00  0.00    -0.250 OA
BRANCH   3   5
ATOM      5  C   UNL A   1      33.630  33.360  28.146  1.00  0.00     0.250 C 
BRANCH   5   6
ATOM      6  N   UNL A   1      34.357  32.131  27.804  1.00  0.00    -0.282 N 
ATOM      7  C   UNL A   1      34.347  28.757  26.407  1.00  0.00     0.033 C 
ATOM      8  C   UNL A   1      34.587  29.872  27.119  1.00  0.00     0.081 C 
ATOM      9  S   UNL A   1      36.150  30.276  27.734  1.00  0.00    -0.054 SA
ATOM     10  C   UNL A   1      33.652  31.004  27.410  1.00  0.00     0.266 C 
ATOM     11  C   UNL A   1      35.706  31.959  28.021  1.00  0.00     0.148 C 
ATOM     12  O   UNL A   1      32.434  30.906  27.391  1.00  0.00    -0.268 OA
ATOM     13  S   UNL A   1      36.824  33.102  28.488  1.00  0.00    -0.052 S 
BRANCH   7  14
ATOM     14  C   UNL A   1      33.155  28.478  25.679  1.00  0.00     0.022 A 
ATOM     15  C   UNL A   1      32.411  27.288  25.508  1.00  0.00     0.100 A 
ATOM     16  N   UNL A   1      31.247  27.541  24.891  1.00  0.00    -0.167 NA
ATOM     17  N   UNL A   1      31.339  28.817  24.474  1.00  0.00    -0.240 N 
ATOM     18  C   UNL A   1      32.555  29.366  24.815  1.00  0.00     0.123 A 
BRANCH  15  19
ATOM     19  C   UNL A   1      32.817  25.910  25.728  1.00  0.00     0.006 A 
ATOM     20  C   UNL A   1      33.826  23.347  26.195  1.00  0.00     0.154 A 
ATOM     21  C   UNL A   1      32.500  23.649  26.523  1.00  0.00     0.050 A 
ATOM     22  C   UNL A   1      34.619  24.310  25.581  1.00  0.00     0.165 A 
ATOM     23  C   UNL A   1      31.992  24.938  26.297  1.00  0.00     0.014 A 
ATOM     24  C   UNL A   1      34.132  25.585  25.366  1.00  0.00     0.053 A 
ATOM     25  F   UNL A   1      35.863  24.031  25.172  1.00  0.00    -0.203 F 
BRANCH  20  26
ATOM     26  O   UNL A   1      34.278  22.070  26.378  1.00  0.00    -0.491 OA
BRANCH  26  27
ATOM     27  C   UNL A   1      33.917  21.190  25.304  1.00  0.00     0.226 C 
ATOM     28  C   UNL A   1      33.126  19.977  25.771  1.00  0.00     0.049 C 
ENDBRANCH  26  27
ENDBRANCH  20  26
ENDBRANCH  15  19
BRANCH  17  29
ATOM     29  C   UNL A   1      30.243  29.486  23.881  1.00  0.00     0.065 A 
ATOM     30  C   UNL A   1      29.342  28.738  23.108  1.00  0.00     0.028 A 
ATOM     31  C   UNL A   1      29.983  30.832  24.159  1.00  0.00     0.028 A 
ATOM     32  C   UNL A   1      28.155  29.322  22.669  1.00  0.00     0.002 A 
ATOM     33  C   UNL A   1      28.815  31.423  23.670  1.00  0.00     0.002 A 
ATOM     34  C   UNL A   1      27.894  30.664  22.947  1.00  0.00     0.000 A 
ENDBRANCH  17  29
ENDBRANCH   7  14
ENDBRANCH   5   6
ENDBRANCH   3   5
ENDBRANCH   2   3
ENDBRANCH   1   2
BRANCH   1  35
ATOM     35  C   UNL A   1      33.191  37.309  30.976  1.00  0.00     0.202 C 
BRANCH  35  36
ATOM     36  O   UNL A   1      32.949  37.443  32.369  1.00  0.00    -0.374 OA
BRANCH  36  37
ATOM     37  C   UNL A   1      34.015  37.208  33.280  1.00  0.00     0.202 C 
BRANCH  37  38
ATOM     38  C   UNL A   1      34.303  35.769  33.670  1.00  0.00     0.261 C 
BRANCH  38  39
ATOM     39  O   UNL A   1      35.664  35.360  33.514  1.00  0.00    -0.460 OA
BRANCH  39  40
ATOM     40  C   UNL A   1      35.900  34.077  33.875  1.00  0.00     0.338 C 
ATOM     41  O   UNL A   1      35.641  33.555  34.957  1.00  0.00    -0.246 OA
BRANCH  40  42
ATOM     42  C   UNL A   1      36.743  33.414  32.874  1.00  0.00     0.060 A 
ATOM     43  C   UNL A   1      36.494  32.053  32.685  1.00  0.00     0.016 A 
ATOM     44  C   UNL A   1      37.939  34.008  32.454  1.00  0.00     0.016 A 
ATOM     45  C   UNL A   1      37.541  31.240  32.323  1.00  0.00     0.010 A 
ATOM     46  C   UNL A   1      38.997  33.191  32.120  1.00  0.00     0.010 A 
ATOM     47  C   UNL A   1      38.805  31.812  32.148  1.00  0.00    -0.014 A 
BRANCH  47  48
ATOM     48  C   UNL A   1      39.907  30.921  31.859  1.00  0.00     0.031 A 
ATOM     49  C   UNL A   1      40.639  30.521  33.085  1.00  0.00     0.074 A 
ATOM     50  C   UNL A   1      40.158  30.456  30.621  1.00  0.00     0.049 A 
ATOM     51  N   UNL A   1      41.857  30.798  33.411  1.00  0.00    -0.248 NA
ATOM     52  C   UNL A   1      39.852  29.897  34.162  1.00  0.00     0.031 C 
ATOM     53  C   UNL A   1      39.356  30.591  29.404  1.00  0.00     0.029 A 
ATOM     54  N   UNL A   1      41.192  29.675  30.214  1.00  0.00    -0.354 N 
ATOM     55  C   UNL A   1      42.042  30.232  34.669  1.00  0.00     0.074 A 
ATOM     56  C   UNL A   1      40.738  29.870  35.155  1.00  0.00     0.031 C 
ATOM     57  C   UNL A   1      39.816  29.731  28.464  1.00  0.00     0.029 A 
ATOM     58  C   UNL A   1      41.020  29.093  28.964  1.00  0.00     0.049 A 
ATOM     59  H   UNL A   1      41.999  29.534  30.761  1.00  0.00     0.167 HD
ATOM     60  C   UNL A   1      43.277  29.880  35.114  1.00  0.00     0.037 A 
ATOM     61  C   UNL A   1      41.786  28.093  28.458  1.00  0.00     0.037 A 
ATOM     62  C   UNL A   1      44.307  30.575  34.392  1.00  0.00     0.049 A 
ATOM     63  C   UNL A   1      43.066  28.106  29.220  1.00  0.00     0.074 A 
ATOM     64  C   UNL A   1      44.682  31.899  34.279  1.00  0.00     0.029 A 
ATOM     65  N   UNL A   1      44.905  29.926  33.341  1.00  0.00    -0.354 N 
ATOM     66  N   UNL A   1      43.930  29.083  29.161  1.00  0.00    -0.248 NA
ATOM     67  C   UNL A   1      43.146  27.268  30.409  1.00  0.00     0.031 C 
ATOM     68  C   UNL A   1      45.075  32.057  32.920  1.00  0.00     0.029 A 
ATOM     69  C   UNL A   1      44.977  30.812  32.296  1.00  0.00     0.049 A 
ATOM     70  H   UNL A   1      45.226  28.995  33.336  1.00  0.00     0.167 HD
ATOM     71  C   UNL A   1      44.390  29.231  30.462  1.00  0.00     0.074 A 
ATOM     72  C   UNL A   1      43.908  28.051  31.177  1.00  0.00     0.031 C 
ATOM     73  C   UNL A   1      44.868  30.428  30.909  1.00  0.00     0.037 A 
BRANCH  60  74
ATOM     74  C   UNL A   1      43.545  28.647  35.944  1.00  0.00     0.064 A 
ATOM     75  C   UNL A   1      43.382  27.324  35.473  1.00  0.00     0.173 A 
ATOM     76  C   UNL A   1      44.264  28.776  37.147  1.00  0.00     0.173 A 
ATOM     77  F   UNL A   1      42.816  27.043  34.295  1.00  0.00    -0.203 F 
ATOM     78  C   UNL A   1      43.904  26.221  36.144  1.00  0.00     0.198 A 
ATOM     79  C   UNL A   1      44.836  27.672  37.786  1.00  0.00     0.198 A 
ATOM     80  F   UNL A   1      44.501  29.985  37.678  1.00  0.00    -0.203 F 
ATOM     81  F   UNL A   1      43.735  24.997  35.625  1.00  0.00    -0.200 F 
ATOM     82  C   UNL A   1      44.658  26.396  37.283  1.00  0.00     0.200 A 
ATOM     83  F   UNL A   1      45.616  27.857  38.859  1.00  0.00    -0.200 F 
ATOM     84  F   UNL A   1      45.252  25.345  37.859  1.00  0.00    -0.200 F 
ENDBRANCH  60  74
BRANCH  61  85
ATOM     85  C   UNL A   1      41.329  26.899  27.701  1.00  0.00     0.064 A 
ATOM     86  C   UNL A   1      40.322  26.052  28.202  1.00  0.00     0.173 A 
ATOM     87  C   UNL A   1      42.077  26.402  26.618  1.00  0.00     0.173 A 
ATOM     88  F   UNL A   1      39.603  26.398  29.280  1.00  0.00    -0.203 F 
ATOM     89  C   UNL A   1      40.092  24.780  27.672  1.00  0.00     0.198 A 
ATOM     90  C   UNL A   1      41.849  25.124  26.092  1.00  0.00     0.198 A 
ATOM     91  F   UNL A   1      43.087  27.123  26.111  1.00  0.00    -0.203 F 
ATOM     92  F   UNL A   1      39.163  23.989  28.227  1.00  0.00    -0.200 F 
ATOM     93  C   UNL A   1      40.865  24.311  26.627  1.00  0.00     0.200 A 
ATOM     94  F   UNL A   1      42.626  24.659  25.103  1.00  0.00    -0.200 F 
ATOM     95  F   UNL A   1      40.691  23.063  26.171  1.00  0.00    -0.200 F 
ENDBRANCH  61  85
BRANCH  73  96
ATOM     96  C   UNL A   1      45.071  31.526  29.902  1.00  0.00     0.064 A 
ATOM     97  C   UNL A   1      43.994  32.375  29.617  1.00  0.00     0.173 A 
ATOM     98  C   UNL A   1      46.205  31.621  29.076  1.00  0.00     0.173 A 
ATOM     99  F   UNL A   1      42.866  32.288  30.339  1.00  0.00    -0.203 F 
ATOM    100  C   UNL A   1      44.036  33.260  28.544  1.00  0.00     0.198 A 
ATOM    101  C   UNL A   1      46.259  32.534  28.022  1.00  0.00     0.198 A 
ATOM    102  F   UNL A   1      47.239  30.783  29.227  1.00  0.00    -0.203 F 
ATOM    103  F   UNL A   1      42.959  34.002  28.252  1.00  0.00    -0.200 F 
ATOM    104  C   UNL A   1      45.169  33.342  27.749  1.00  0.00     0.200 A 
ATOM    105  F   UNL A   1      47.347  32.593  27.238  1.00  0.00    -0.200 F 
ATOM    106  F   UNL A   1      45.192  34.172  26.697  1.00  0.00    -0.200 F 
ENDBRANCH  73  96
ENDBRANCH  47  48
ENDBRANCH  40  42
ENDBRANCH  39  40
ENDBRANCH  38  39
ENDBRANCH  37  38
ENDBRANCH  36  37
ENDBRANCH  35  36
ENDBRANCH   1  35
TORSDOF 20
ENDMDL
MODEL 2
REMARK VINA RESULT:     -11.4      1.943      6.142
REMARK SMILES CCOc1ccc(-c2nn(-c3ccccc3)cc2/C=C2/SC(=S)N(CC(=O)OCCOCCOC(=O)c3ccc(-c4c5nc(c(-c6c(F)c(F)c(F)c(F)c6F)c6ccc([nH]6)c(-c6c(F)c(F)c(F)c(F)c6F)c6nc(c(-c7c(F)c(F)c(F)c(F)c7F)c7ccc4[nH]7)C=C6)C=C5)cc3)C2=O)cc1F
REMARK SMILES IDX 29 1 28 2 26 3 27 4 25 5 24 6 19 7 20 8 21 9 100 10 22 11
REMARK SMILES IDX 101 12 23 13 18 14 8 15 9 16 10 17 17 18 7 19 4 20 5 21
REMARK SMILES IDX 103 22 6 23 102 24 104 25 3 26 2 27 1 28 11 29 12 30 16 31
REMARK SMILES IDX 13 32 15 33 14 34 30 35 31 36 32 37 33 38 34 39 35 40 36 41
REMARK SMILES IDX 37 42 38 43 99 44 39 45 98 46 40 47 41 48 42 49 92 50 43 51
REMARK SMILES IDX 97 52 91 53 93 54 44 55 96 56 90 57 89 58 45 60 77 61 57 62
REMARK SMILES IDX 76 63 58 64 61 65 75 66 94 67 59 68 60 69 74 71 95 72 62 73
REMARK SMILES IDX 46 74 47 75 55 76 48 77 49 78 53 79 56 80 50 81 51 82 54 83
REMARK SMILES IDX 52 84 78 85 79 86 87 87 80 88 81 89 85 90 88 91 82 92 83 93
REMARK SMILES IDX 86 94 84 95 63 96 64 97 72 98 65 99 66 100 70 101 73 102
REMARK SMILES IDX 67 103 68 104 71 105 69 106
REMARK H PARENT 93 59 61 70
REMARK Flexibility Score: inf
ROOT
ATOM      1  C   UNL A   1      32.932  35.990  29.900  1.00  0.00     0.261 C 
ENDROOT
BRANCH   1   2
ATOM      2  O   UNL A   1      34.051  35.289  29.306  1.00  0.00    -0.462 OA
BRANCH   2   3
ATOM      3  C   UNL A   1      33.972  33.930  29.362  1.00  0.00     0.326 C 
ATOM      4  O   UNL A   1      34.019  33.278  30.402  1.00  0.00    -0.250 OA
BRANCH   3   5
ATOM      5  C   UNL A   1      33.703  33.246  28.023  1.00  0.00     0.250 C 
BRANCH   5   6
ATOM      6  N   UNL A   1      34.387  31.989  27.689  1.00  0.00    -0.282 N 
ATOM      7  C   UNL A   1      34.254  28.599  26.340  1.00  0.00     0.033 C 
ATOM      8  C   UNL A   1      34.537  29.716  27.034  1.00  0.00     0.081 C 
ATOM      9  S   UNL A   1      36.120  30.078  27.625  1.00  0.00    -0.054 SA
ATOM     10  C   UNL A   1      33.642  30.880  27.320  1.00  0.00     0.266 C 
ATOM     11  C   UNL A   1      35.732  31.778  27.894  1.00  0.00     0.148 C 
ATOM     12  O   UNL A   1      32.422  30.821  27.315  1.00  0.00    -0.268 OA
ATOM     13  S   UNL A   1      36.891  32.891  28.333  1.00  0.00    -0.052 S 
BRANCH   7  14
ATOM     14  C   UNL A   1      33.046  28.349  25.629  1.00  0.00     0.022 A 
ATOM     15  C   UNL A   1      32.229  27.198  25.535  1.00  0.00     0.100 A 
ATOM     16  N   UNL A   1      31.081  27.483  24.900  1.00  0.00    -0.167 NA
ATOM     17  N   UNL A   1      31.252  28.722  24.402  1.00  0.00    -0.240 N 
ATOM     18  C   UNL A   1      32.500  29.215  24.708  1.00  0.00     0.123 A 
BRANCH  15  19
ATOM     19  C   UNL A   1      32.548  25.816  25.844  1.00  0.00     0.006 A 
ATOM     20  C   UNL A   1      32.927  23.100  26.382  1.00  0.00     0.154 A 
ATOM     21  C   UNL A   1      33.982  23.869  25.880  1.00  0.00     0.050 A 
ATOM     22  C   UNL A   1      31.709  23.707  26.667  1.00  0.00     0.165 A 
ATOM     23  C   UNL A   1      33.793  25.232  25.602  1.00  0.00     0.014 A 
ATOM     24  C   UNL A   1      31.509  25.045  26.385  1.00  0.00     0.053 A 
ATOM     25  F   UNL A   1      30.705  23.023  27.231  1.00  0.00    -0.203 F 
BRANCH  20  26
ATOM     26  O   UNL A   1      33.154  21.788  26.693  1.00  0.00    -0.491 OA
BRANCH  26  27
ATOM     27  C   UNL A   1      34.077  21.154  25.796  1.00  0.00     0.226 C 
ATOM     28  C   UNL A   1      33.386  20.327  24.721  1.00  0.00     0.049 C 
ENDBRANCH  26  27
ENDBRANCH  20  26
ENDBRANCH  15  19
BRANCH  17  29
ATOM     29  C   UNL A   1      30.198  29.417  23.764  1.00  0.00     0.065 A 
ATOM     30  C   UNL A   1      29.390  28.719  22.855  1.00  0.00     0.028 A 
ATOM     31  C   UNL A   1      29.881  30.732  24.122  1.00  0.00     0.028 A 
ATOM     32  C   UNL A   1      28.233  29.317  22.355  1.00  0.00     0.002 A 
ATOM     33  C   UNL A   1      28.749  31.341  23.576  1.00  0.00     0.002 A 
ATOM     34  C   UNL A   1      27.916  30.628  22.713  1.00  0.00     0.000 A 
ENDBRANCH  17  29
ENDBRANCH   7  14
ENDBRANCH   5   6
ENDBRANCH   3   5
ENDBRANCH   2   3
ENDBRANCH   1   2
BRANCH   1  35
ATOM     35  C   UNL A   1      33.271  37.355  30.513  1.00  0.00     0.202 C 
BRANCH  35  36
ATOM     36  O   UNL A   1      32.985  37.567  31.888  1.00  0.00    -0.374 OA
BRANCH  36  37
ATOM     37  C   UNL A   1      33.953  37.194  32.859  1.00  0.00     0.202 C 
BRANCH  37  38
ATOM     38  C   UNL A   1      34.088  35.718  33.188  1.00  0.00     0.261 C 
BRANCH  38  39
ATOM     39  O   UNL A   1      35.202  35.383  34.019  1.00  0.00    -0.460 OA
BRANCH  39  40
ATOM     40  C   UNL A   1      35.756  34.179  33.742  1.00  0.00     0.338 C 
ATOM     41  O   UNL A   1      35.247  33.075  33.920  1.00  0.00    -0.246 OA
BRANCH  40  42
ATOM     42  C   UNL A   1      37.175  34.336  33.408  1.00  0.00     0.060 A 
ATOM     43  C   UNL A   1      37.455  34.543  32.055  1.00  0.00     0.016 A 
ATOM     44  C   UNL A   1      38.163  33.915  34.306  1.00  0.00     0.016 A 
ATOM     45  C   UNL A   1      38.645  34.074  31.552  1.00  0.00     0.010 A 
ATOM     46  C   UNL A   1      39.344  33.418  33.800  1.00  0.00     0.010 A 
ATOM     47  C   UNL A   1      39.527  33.423  32.419  1.00  0.00    -0.014 A 
BRANCH  47  48
ATOM     48  C   UNL A   1      40.729  32.857  31.846  1.00  0.00     0.031 A 
ATOM     49  C   UNL A   1      40.508  31.488  31.321  1.00  0.00     0.074 A 
ATOM     50  C   UNL A   1      41.876  33.552  31.737  1.00  0.00     0.049 A 
ATOM     51  N   UNL A   1      41.021  30.381  31.742  1.00  0.00    -0.248 NA
ATOM     52  C   UNL A   1      39.435  31.318  30.326  1.00  0.00     0.031 C 
ATOM     53  C   UNL A   1      42.125  34.971  31.993  1.00  0.00     0.029 A 
ATOM     54  N   UNL A   1      43.080  33.114  31.283  1.00  0.00    -0.354 N 
ATOM     55  C   UNL A   1      40.459  29.386  30.946  1.00  0.00     0.074 A 
ATOM     56  C   UNL A   1      39.364  29.991  30.240  1.00  0.00     0.031 C 
ATOM     57  C   UNL A   1      43.328  35.319  31.478  1.00  0.00     0.029 A 
ATOM     58  C   UNL A   1      43.987  34.123  30.984  1.00  0.00     0.049 A 
ATOM     59  H   UNL A   1      43.293  32.159  31.176  1.00  0.00     0.167 HD
ATOM     60  C   UNL A   1      41.091  28.199  30.743  1.00  0.00     0.037 A 
ATOM     61  C   UNL A   1      45.144  33.953  30.293  1.00  0.00     0.037 A 
ATOM     62  C   UNL A   1      42.065  27.947  31.770  1.00  0.00     0.049 A 
ATOM     63  C   UNL A   1      45.481  32.504  30.374  1.00  0.00     0.074 A 
ATOM     64  C   UNL A   1      41.997  27.723  33.131  1.00  0.00     0.029 A 
ATOM     65  N   UNL A   1      43.374  28.267  31.508  1.00  0.00    -0.354 N 
ATOM     66  N   UNL A   1      45.809  31.901  31.484  1.00  0.00    -0.248 NA
ATOM     67  C   UNL A   1      44.977  31.639  29.315  1.00  0.00     0.031 C 
ATOM     68  C   UNL A   1      43.137  28.385  33.671  1.00  0.00     0.029 A 
ATOM     69  C   UNL A   1      43.866  28.922  32.609  1.00  0.00     0.049 A 
ATOM     70  H   UNL A   1      43.870  28.065  30.682  1.00  0.00     0.167 HD
ATOM     71  C   UNL A   1      45.190  30.661  31.413  1.00  0.00     0.074 A 
ATOM     72  C   UNL A   1      44.734  30.538  30.030  1.00  0.00     0.031 C 
ATOM     73  C   UNL A   1      44.850  29.976  32.543  1.00  0.00     0.037 A 
BRANCH  60  74
ATOM     74  C   UNL A   1      41.076  27.461  29.427  1.00  0.00     0.064 A 
ATOM     75  C   UNL A   1      40.070  26.544  29.043  1.00  0.00     0.173 A 
ATOM     76  C   UNL A   1      41.929  27.890  28.392  1.00  0.00     0.173 A 
ATOM     77  F   UNL A   1      39.120  26.124  29.884  1.00  0.00    -0.203 F 
ATOM     78  C   UNL A   1      39.922  26.102  27.731  1.00  0.00     0.198 A 
ATOM     79  C   UNL A   1      41.739  27.489  27.067  1.00  0.00     0.198 A 
ATOM     80  F   UNL A   1      42.906  28.776  28.633  1.00  0.00    -0.203 F 
ATOM     81  F   UNL A   1      38.927  25.254  27.434  1.00  0.00    -0.200 F 
ATOM     82  C   UNL A   1      40.734  26.598  26.737  1.00  0.00     0.200 A 
ATOM     83  F   UNL A   1      42.497  28.021  26.098  1.00  0.00    -0.200 F 
ATOM     84  F   UNL A   1      40.514  26.258  25.461  1.00  0.00    -0.200 F 
ENDBRANCH  60  74
BRANCH  61  85
ATOM     85  C   UNL A   1      45.708  34.838  29.242  1.00  0.00     0.064 A 
ATOM     86  C   UNL A   1      45.109  34.945  27.972  1.00  0.00     0.173 A 
ATOM     87  C   UNL A   1      47.007  35.364  29.363  1.00  0.00     0.173 A 
ATOM     88  F   UNL A   1      43.905  34.408  27.730  1.00  0.00    -0.203 F 
ATOM     89  C   UNL A   1      45.774  35.517  26.885  1.00  0.00     0.198 A 
ATOM     90  C   UNL A   1      47.674  35.933  28.272  1.00  0.00     0.198 A 
ATOM     91  F   UNL A   1      47.668  35.261  30.525  1.00  0.00    -0.203 F 
ATOM     92  F   UNL A   1      45.184  35.538  25.682  1.00  0.00    -0.200 F 
ATOM     93  C   UNL A   1      47.062  35.998  27.031  1.00  0.00     0.200 A 
ATOM     94  F   UNL A   1      48.937  36.363  28.409  1.00  0.00    -0.200 F 
ATOM     95  F   UNL A   1      47.724  36.479  25.970  1.00  0.00    -0.200 F 
ENDBRANCH  61  85
BRANCH  73  96
ATOM     96  C   UNL A   1      45.341  30.504  33.862  1.00  0.00     0.064 A 
ATOM     97  C   UNL A   1      46.463  29.900  34.443  1.00  0.00     0.173 A 
ATOM     98  C   UNL A   1      44.622  31.423  34.647  1.00  0.00     0.173 A 
ATOM     99  F   UNL A   1      47.155  28.976  33.758  1.00  0.00    -0.203 F 
ATOM    100  C   UNL A   1      46.837  30.181  35.754  1.00  0.00     0.198 A 
ATOM    101  C   UNL A   1      45.018  31.728  35.949  1.00  0.00     0.198 A 
ATOM    102  F   UNL A   1      43.488  31.974  34.195  1.00  0.00    -0.203 F 
ATOM    103  F   UNL A   1      47.868  29.527  36.305  1.00  0.00    -0.200 F 
ATOM    104  C   UNL A   1      46.116  31.096  36.506  1.00  0.00     0.200 A 
ATOM    105  F   UNL A   1      44.304  32.596  36.684  1.00  0.00    -0.200 F 
ATOM    106  F   UNL A   1      46.460  31.339  37.778  1.00  0.00    -0.200 F 
ENDBRANCH  73  96
ENDBRANCH  47  48
ENDBRANCH  40  42
ENDBRANCH  39  40
ENDBRANCH  38  39
ENDBRANCH  37  38
ENDBRANCH  36  37
ENDBRANCH  35  36
ENDBRANCH   1  35
TORSDOF 20
ENDMDL
MODEL 3
REMARK VINA RESULT:     -11.0      5.689     11.048
REMARK SMILES CCOc1ccc(-c2nn(-c3ccccc3)cc2/C=C2/SC(=S)N(CC(=O)OCCOCCOC(=O)c3ccc(-c4c5nc(c(-c6c(F)c(F)c(F)c(F)c6F)c6ccc([nH]6)c(-c6c(F)c(F)c(F)c(F)c6F)c6nc(c(-c7c(F)c(F)c(F)c(F)c7F)c7ccc4[nH]7)C=C6)C=C5)cc3)C2=O)cc1F
REMARK SMILES IDX 29 1 28 2 26 3 27 4 25 5 24 6 19 7 20 8 21 9 100 10 22 11
REMARK SMILES IDX 101 12 23 13 18 14 8 15 9 16 10 17 17 18 7 19 4 20 5 21
REMARK SMILES IDX 103 22 6 23 102 24 104 25 3 26 2 27 1 28 11 29 12 30 16 31
REMARK SMILES IDX 13 32 15 33 14 34 30 35 31 36 32 37 33 38 34 39 35 40 36 41
REMARK SMILES IDX 37 42 38 43 99 44 39 45 98 46 40 47 41 48 42 49 92 50 43 51
REMARK SMILES IDX 97 52 91 53 93 54 44 55 96 56 90 57 89 58 45 60 77 61 57 62
REMARK SMILES IDX 76 63 58 64 61 65 75 66 94 67 59 68 60 69 74 71 95 72 62 73
REMARK SMILES IDX 46 74 47 75 55 76 48 77 49 78 53 79 56 80 50 81 51 82 54 83
REMARK SMILES IDX 52 84 78 85 79 86 87 87 80 88 81 89 85 90 88 91 82 92 83 93
REMARK SMILES IDX 86 94 84 95 63 96 64 97 72 98 65 99 66 100 70 101 73 102
REMARK SMILES IDX 67 103 68 104 71 105 69 106
REMARK H PARENT 93 59 61 70
REMARK Flexibility Score: inf
ROOT
ATOM      1  C   UNL A   1      47.634  32.436  26.914  1.00  0.00     0.261 C 
ENDROOT
BRANCH   1   2
ATOM      2  O   UNL A   1      46.701  31.677  26.108  1.00  0.00    -0.462 OA
BRANCH   2   3
ATOM      3  C   UNL A   1      45.386  31.906  26.384  1.00  0.00     0.326 C 
ATOM      4  O   UNL A   1      44.809  32.967  26.161  1.00  0.00    -0.250 OA
BRANCH   3   5
ATOM      5  C   UNL A   1      44.617  30.694  26.907  1.00  0.00     0.250 C 
BRANCH   5   6
ATOM      6  N   UNL A   1      45.340  29.579  27.532  1.00  0.00    -0.282 N 
ATOM      7  C   UNL A   1      47.149  26.423  27.201  1.00  0.00     0.033 C 
ATOM      8  C   UNL A   1      46.386  27.453  27.612  1.00  0.00     0.081 C 
ATOM      9  S   UNL A   1      46.221  27.892  29.275  1.00  0.00    -0.054 SA
ATOM     10  C   UNL A   1      45.663  28.461  26.777  1.00  0.00     0.266 C 
ATOM     11  C   UNL A   1      45.569  29.484  28.887  1.00  0.00     0.148 C 
ATOM     12  O   UNL A   1      45.327  28.274  25.617  1.00  0.00    -0.268 OA
ATOM     13  S   UNL A   1      45.299  30.639  30.056  1.00  0.00    -0.052 S 
BRANCH   7  14
ATOM     14  C   UNL A   1      47.515  26.151  25.852  1.00  0.00     0.022 A 
ATOM     15  C   UNL A   1      46.903  25.363  24.850  1.00  0.00     0.100 A 
ATOM     16  N   UNL A   1      47.503  25.553  23.664  1.00  0.00    -0.167 NA
ATOM     17  N   UNL A   1      48.610  26.267  23.941  1.00  0.00    -0.240 N 
ATOM     18  C   UNL A   1      48.717  26.520  25.290  1.00  0.00     0.123 A 
BRANCH  15  19
ATOM     19  C   UNL A   1      45.911  24.311  24.985  1.00  0.00     0.006 A 
ATOM     20  C   UNL A   1      44.168  22.163  25.384  1.00  0.00     0.154 A 
ATOM     21  C   UNL A   1      43.663  23.461  25.252  1.00  0.00     0.050 A 
ATOM     22  C   UNL A   1      45.535  21.941  25.256  1.00  0.00     0.165 A 
ATOM     23  C   UNL A   1      44.536  24.543  25.059  1.00  0.00     0.014 A 
ATOM     24  C   UNL A   1      46.403  23.002  25.078  1.00  0.00     0.053 A 
ATOM     25  F   UNL A   1      46.046  20.704  25.287  1.00  0.00    -0.203 F 
BRANCH  20  26
ATOM     26  O   UNL A   1      43.292  21.122  25.519  1.00  0.00    -0.491 OA
BRANCH  26  27
ATOM     27  C   UNL A   1      42.007  21.534  26.005  1.00  0.00     0.226 C 
ATOM     28  C   UNL A   1      41.504  20.673  27.155  1.00  0.00     0.049 C 
ENDBRANCH  26  27
ENDBRANCH  20  26
ENDBRANCH  15  19
BRANCH  17  29
ATOM     29  C   UNL A   1      49.444  26.770  22.915  1.00  0.00     0.065 A 
ATOM     30  C   UNL A   1      50.726  27.224  23.258  1.00  0.00     0.028 A 
ATOM     31  C   UNL A   1      49.058  26.699  21.572  1.00  0.00     0.028 A 
ATOM     32  C   UNL A   1      51.639  27.546  22.254  1.00  0.00     0.002 A 
ATOM     33  C   UNL A   1      49.963  27.073  20.575  1.00  0.00     0.002 A 
ATOM     34  C   UNL A   1      51.255  27.475  20.914  1.00  0.00     0.000 A 
ENDBRANCH  17  29
ENDBRANCH   7  14
ENDBRANCH   5   6
ENDBRANCH   3   5
ENDBRANCH   2   3
ENDBRANCH   1   2
BRANCH   1  35
ATOM     35  C   UNL A   1      48.423  33.510  26.155  1.00  0.00     0.202 C 
BRANCH  35  36
ATOM     36  O   UNL A   1      47.698  34.486  25.420  1.00  0.00    -0.374 OA
BRANCH  36  37
ATOM     37  C   UNL A   1      47.828  35.855  25.778  1.00  0.00     0.202 C 
BRANCH  37  38
ATOM     38  C   UNL A   1      47.399  36.260  27.177  1.00  0.00     0.261 C 
BRANCH  38  39
ATOM     39  O   UNL A   1      46.192  35.650  27.641  1.00  0.00    -0.460 OA
BRANCH  39  40
ATOM     40  C   UNL A   1      45.360  36.495  28.293  1.00  0.00     0.338 C 
ATOM     41  O   UNL A   1      45.211  37.696  28.078  1.00  0.00    -0.246 OA
BRANCH  40  42
ATOM     42  C   UNL A   1      44.802  35.843  29.482  1.00  0.00     0.060 A 
ATOM     43  C   UNL A   1      44.621  34.462  29.382  1.00  0.00     0.016 A 
ATOM     44  C   UNL A   1      44.146  36.601  30.460  1.00  0.00     0.016 A 
ATOM     45  C   UNL A   1      43.587  33.884  30.080  1.00  0.00     0.010 A 
ATOM     46  C   UNL A   1      43.091  36.030  31.137  1.00  0.00     0.010 A 
ATOM     47  C   UNL A   1      42.772  34.702  30.868  1.00  0.00    -0.014 A 
BRANCH  47  48
ATOM     48  C   UNL A   1      41.636  34.083  31.517  1.00  0.00     0.031 A 
ATOM     49  C   UNL A   1      41.955  33.632  32.893  1.00  0.00     0.074 A 
ATOM     50  C   UNL A   1      40.420  34.020  30.944  1.00  0.00     0.049 A 
ATOM     51  N   UNL A   1      41.990  32.424  33.346  1.00  0.00    -0.248 NA
ATOM     52  C   UNL A   1      42.485  34.643  33.824  1.00  0.00     0.031 C 
ATOM     53  C   UNL A   1      39.947  34.649  29.710  1.00  0.00     0.029 A 
ATOM     54  N   UNL A   1      39.302  33.412  31.418  1.00  0.00    -0.354 N 
ATOM     55  C   UNL A   1      42.384  32.539  34.676  1.00  0.00     0.074 A 
ATOM     56  C   UNL A   1      42.857  33.885  34.852  1.00  0.00     0.031 C 
ATOM     57  C   UNL A   1      38.595  34.577  29.657  1.00  0.00     0.029 A 
ATOM     58  C   UNL A   1      38.126  33.781  30.776  1.00  0.00     0.049 A 
ATOM     59  H   UNL A   1      39.323  32.762  32.158  1.00  0.00     0.167 HD
ATOM     60  C   UNL A   1      42.064  31.590  35.596  1.00  0.00     0.037 A 
ATOM     61  C   UNL A   1      36.874  33.505  31.224  1.00  0.00     0.037 A 
ATOM     62  C   UNL A   1      41.745  30.339  34.962  1.00  0.00     0.049 A 
ATOM     63  C   UNL A   1      37.000  32.368  32.178  1.00  0.00     0.074 A 
ATOM     64  C   UNL A   1      42.460  29.428  34.211  1.00  0.00     0.029 A 
ATOM     65  N   UNL A   1      40.422  30.048  34.744  1.00  0.00    -0.354 N 
ATOM     66  N   UNL A   1      37.365  31.166  31.822  1.00  0.00    -0.248 NA
ATOM     67  C   UNL A   1      37.195  32.693  33.585  1.00  0.00     0.031 C 
ATOM     68  C   UNL A   1      41.544  28.964  33.224  1.00  0.00     0.029 A 
ATOM     69  C   UNL A   1      40.310  29.571  33.463  1.00  0.00     0.049 A 
ATOM     70  H   UNL A   1      39.686  30.161  35.389  1.00  0.00     0.167 HD
ATOM     71  C   UNL A   1      38.191  30.727  32.847  1.00  0.00     0.074 A 
ATOM     72  C   UNL A   1      38.007  31.691  33.929  1.00  0.00     0.031 C 
ATOM     73  C   UNL A   1      39.159  29.793  32.620  1.00  0.00     0.037 A 
BRANCH  60  74
ATOM     74  C   UNL A   1      41.693  31.904  37.025  1.00  0.00     0.064 A 
ATOM     75  C   UNL A   1      42.585  31.801  38.117  1.00  0.00     0.173 A 
ATOM     76  C   UNL A   1      40.501  32.606  37.283  1.00  0.00     0.173 A 
ATOM     77  F   UNL A   1      43.801  31.257  38.005  1.00  0.00    -0.203 F 
ATOM     78  C   UNL A   1      42.313  32.364  39.361  1.00  0.00     0.198 A 
ATOM     79  C   UNL A   1      40.258  33.219  38.516  1.00  0.00     0.198 A 
ATOM     80  F   UNL A   1      39.589  32.787  36.316  1.00  0.00    -0.203 F 
ATOM     81  F   UNL A   1      43.217  32.251  40.344  1.00  0.00    -0.200 F 
ATOM     82  C   UNL A   1      41.165  33.101  39.552  1.00  0.00     0.200 A 
ATOM     83  F   UNL A   1      39.168  33.982  38.674  1.00  0.00    -0.200 F 
ATOM     84  F   UNL A   1      40.963  33.734  40.713  1.00  0.00    -0.200 F 
ENDBRANCH  60  74
BRANCH  61  85
ATOM     85  C   UNL A   1      35.695  34.410  31.223  1.00  0.00     0.064 A 
ATOM     86  C   UNL A   1      35.338  35.153  32.365  1.00  0.00     0.173 A 
ATOM     87  C   UNL A   1      34.728  34.333  30.205  1.00  0.00     0.173 A 
ATOM     88  F   UNL A   1      36.157  35.225  33.424  1.00  0.00    -0.203 F 
ATOM     89  C   UNL A   1      34.087  35.760  32.492  1.00  0.00     0.198 A 
ATOM     90  C   UNL A   1      33.472  34.938  30.336  1.00  0.00     0.198 A 
ATOM     91  F   UNL A   1      34.967  33.605  29.104  1.00  0.00    -0.203 F 
ATOM     92  F   UNL A   1      33.775  36.404  33.626  1.00  0.00    -0.200 F 
ATOM     93  C   UNL A   1      33.149  35.641  31.484  1.00  0.00     0.200 A 
ATOM     94  F   UNL A   1      32.552  34.787  29.372  1.00  0.00    -0.200 F 
ATOM     95  F   UNL A   1      31.924  36.162  31.641  1.00  0.00    -0.200 F 
ENDBRANCH  61  85
BRANCH  73  96
ATOM     96  C   UNL A   1      39.177  29.106  31.283  1.00  0.00     0.064 A 
ATOM     97  C   UNL A   1      38.734  27.780  31.211  1.00  0.00     0.173 A 
ATOM     98  C   UNL A   1      39.808  29.640  30.145  1.00  0.00     0.173 A 
ATOM     99  F   UNL A   1      38.174  27.202  32.286  1.00  0.00    -0.203 F 
ATOM    100  C   UNL A   1      38.931  27.013  30.066  1.00  0.00     0.198 A 
ATOM    101  C   UNL A   1      39.974  28.882  28.986  1.00  0.00     0.198 A 
ATOM    102  F   UNL A   1      40.339  30.869  30.166  1.00  0.00    -0.203 F 
ATOM    103  F   UNL A   1      38.565  25.724  30.058  1.00  0.00    -0.200 F 
ATOM    104  C   UNL A   1      39.548  27.564  28.953  1.00  0.00     0.200 A 
ATOM    105  F   UNL A   1      40.594  29.409  27.920  1.00  0.00    -0.200 F 
ATOM    106  F   UNL A   1      39.765  26.814  27.865  1.00  0.00    -0.200 F 
ENDBRANCH  73  96
ENDBRANCH  47  48
ENDBRANCH  40  42
ENDBRANCH  39  40
ENDBRANCH  38  39
ENDBRANCH  37  38
ENDBRANCH  36  37
ENDBRANCH  35  36
ENDBRANCH   1  35
TORSDOF 20
ENDMDL
