MODEL 1
REMARK VINA RESULT:     -11.6      0.000      0.000
REMARK SMILES Cc1cc([C@H](C(=O)OCCOCCOC(=O)c2ccc(-c3c4nc(c(-c5c(F)c(F)c(F)c(F)c5F)c5ccc([nH]5)c(-c5c(F)c(F)c(F)c(F)c5F)c5nc(c(-c6c(F)c(F)c(F)c(F)c6F)c6ccc3[nH]6)C=C5)C=C4)cc2)[NH+]2CC[NH+](C)CC2)ccc1Br
REMARK SMILES IDX 12 1 11 2 10 3 9 4 8 5 6 6 7 7 5 8 4 9 1 10 2 11 3 12 89 13
REMARK SMILES IDX 88 14 90 15 87 16 80 17 81 18 86 19 82 21 85 22 83 23 84 24
REMARK SMILES IDX 13 26 14 27 15 28 16 29 17 30 18 31 79 32 19 33 78 34 20 35
REMARK SMILES IDX 21 36 22 37 72 38 23 39 77 40 71 41 73 42 24 43 76 44 70 45
REMARK SMILES IDX 69 46 25 48 57 49 37 50 56 51 38 52 41 53 55 54 74 55 39 56
REMARK SMILES IDX 40 57 54 59 75 60 42 61 26 62 27 63 35 64 28 65 29 66 33 67
REMARK SMILES IDX 36 68 30 69 31 70 34 71 32 72 58 73 59 74 67 75 60 76 61 77
REMARK SMILES IDX 65 78 68 79 62 80 63 81 66 82 64 83 43 84 44 85 52 86 45 87
REMARK SMILES IDX 46 88 50 89 53 90 47 91 48 92 51 93 49 94
REMARK H PARENT 80 20 83 25 73 47 41 58
REMARK Flexibility Score: inf
ROOT
ATOM      1  C   UNL A   1      31.408  31.616  26.497  1.00  0.00     0.202 C 
ENDROOT
BRANCH   1   2
ATOM      2  O   UNL A   1      32.338  30.529  26.543  1.00  0.00    -0.374 OA
BRANCH   2   3
ATOM      3  C   UNL A   1      31.935  29.335  27.217  1.00  0.00     0.202 C 
BRANCH   3   4
ATOM      4  C   UNL A   1      32.786  28.092  26.940  1.00  0.00     0.261 C 
BRANCH   4   5
ATOM      5  O   UNL A   1      32.357  27.486  25.717  1.00  0.00    -0.459 OA
BRANCH   5   6
ATOM      6  C   UNL A   1      31.655  26.330  25.818  1.00  0.00     0.369 C 
ATOM      7  O   UNL A   1      31.472  25.751  26.886  1.00  0.00    -0.245 OA
BRANCH   6   8
ATOM      8  C   UNL A   1      31.014  25.864  24.470  1.00  0.00     0.326 C 
BRANCH   8   9
ATOM      9  C   UNL A   1      30.450  27.101  23.735  1.00  0.00     0.021 A 
ATOM     10  C   UNL A   1      27.011  28.672  23.194  1.00  0.00     0.045 C 
ATOM     11  C   UNL A   1      28.499  28.473  23.120  1.00  0.00    -0.036 A 
ATOM     12  C   UNL A   1      29.081  27.415  23.842  1.00  0.00     0.015 A 
ATOM     13  C   UNL A   1      29.335  29.299  22.357  1.00  0.00     0.020 A 
ATOM     14  C   UNL A   1      30.700  29.022  22.259  1.00  0.00     0.016 A 
ATOM     15  Br  UNL A   1      28.674  30.818  21.429  1.00  0.00    -0.051 Br
ATOM     16  C   UNL A   1      31.248  27.917  22.916  1.00  0.00     0.012 A 
ENDBRANCH   8   9
BRANCH   8  17
ATOM     17  N   UNL A   1      31.894  25.021  23.564  1.00  0.00    -0.310 N 
ATOM     18  C   UNL A   1      31.396  23.617  23.518  1.00  0.00     0.325 C 
ATOM     19  C   UNL A   1      33.311  24.989  24.000  1.00  0.00     0.325 C 
ATOM     20  H   UNL A   1      31.848  25.457  22.643  1.00  0.00     0.349 HD
ATOM     21  C   UNL A   1      32.300  22.604  22.775  1.00  0.00     0.324 C 
ATOM     22  C   UNL A   1      34.184  24.008  23.175  1.00  0.00     0.324 C 
ATOM     23  N   UNL A   1      33.714  22.615  23.178  1.00  0.00    -0.328 N 
ATOM     24  C   UNL A   1      33.924  21.972  24.471  1.00  0.00     0.333 C 
ATOM     25  H   UNL A   1      34.258  22.069  22.509  1.00  0.00     0.348 HD
ENDBRANCH   8  17
ENDBRANCH   6   8
ENDBRANCH   5   6
ENDBRANCH   4   5
ENDBRANCH   3   4
ENDBRANCH   2   3
ENDBRANCH   1   2
BRANCH   1  26
ATOM     26  C   UNL A   1      31.968  33.018  26.770  1.00  0.00     0.261 C 
BRANCH  26  27
ATOM     27  O   UNL A   1      32.661  33.104  28.031  1.00  0.00    -0.460 OA
BRANCH  27  28
ATOM     28  C   UNL A   1      33.746  33.912  28.030  1.00  0.00     0.338 C 
ATOM     29  O   UNL A   1      33.767  35.133  27.927  1.00  0.00    -0.246 OA
BRANCH  28  30
ATOM     30  C   UNL A   1      34.958  33.142  28.357  1.00  0.00     0.060 A 
ATOM     31  C   UNL A   1      34.782  31.837  28.835  1.00  0.00     0.016 A 
ATOM     32  C   UNL A   1      36.232  33.710  28.299  1.00  0.00     0.016 A 
ATOM     33  C   UNL A   1      35.874  31.110  29.302  1.00  0.00     0.010 A 
ATOM     34  C   UNL A   1      37.329  32.979  28.776  1.00  0.00     0.010 A 
ATOM     35  C   UNL A   1      37.149  31.690  29.313  1.00  0.00    -0.014 A 
BRANCH  35  36
ATOM     36  C   UNL A   1      38.253  30.998  30.027  1.00  0.00     0.031 A 
ATOM     37  C   UNL A   1      38.492  31.305  31.481  1.00  0.00     0.074 A 
ATOM     38  C   UNL A   1      39.000  30.067  29.408  1.00  0.00     0.049 A 
ATOM     39  N   UNL A   1      39.392  30.818  32.298  1.00  0.00    -0.248 NA
ATOM     40  C   UNL A   1      37.592  32.294  32.097  1.00  0.00     0.031 C 
ATOM     41  C   UNL A   1      38.841  29.644  28.019  1.00  0.00     0.029 A 
ATOM     42  N   UNL A   1      40.043  29.305  29.876  1.00  0.00    -0.354 N 
ATOM     43  C   UNL A   1      39.167  31.438  33.520  1.00  0.00     0.074 A 
ATOM     44  C   UNL A   1      38.069  32.361  33.332  1.00  0.00     0.031 C 
ATOM     45  C   UNL A   1      39.758  28.702  27.743  1.00  0.00     0.029 A 
ATOM     46  C   UNL A   1      40.586  28.475  28.927  1.00  0.00     0.049 A 
ATOM     47  H   UNL A   1      40.370  29.351  30.803  1.00  0.00     0.167 HD
ATOM     48  C   UNL A   1      39.809  31.246  34.698  1.00  0.00     0.037 A 
ATOM     49  C   UNL A   1      41.643  27.642  29.002  1.00  0.00     0.037 A 
ATOM     50  C   UNL A   1      40.900  30.327  34.890  1.00  0.00     0.049 A 
ATOM     51  C   UNL A   1      42.392  27.506  30.303  1.00  0.00     0.074 A 
ATOM     52  C   UNL A   1      41.600  30.049  36.052  1.00  0.00     0.029 A 
ATOM     53  N   UNL A   1      41.453  29.538  33.893  1.00  0.00    -0.354 N 
ATOM     54  N   UNL A   1      42.155  28.075  31.460  1.00  0.00    -0.248 NA
ATOM     55  C   UNL A   1      43.556  26.607  30.308  1.00  0.00     0.031 C 
ATOM     56  C   UNL A   1      42.611  29.132  35.746  1.00  0.00     0.029 A 
ATOM     57  C   UNL A   1      42.506  28.797  34.405  1.00  0.00     0.049 A 
ATOM     58  H   UNL A   1      41.144  29.510  32.959  1.00  0.00     0.167 HD
ATOM     59  C   UNL A   1      43.118  27.585  32.333  1.00  0.00     0.074 A 
ATOM     60  C   UNL A   1      43.935  26.659  31.576  1.00  0.00     0.031 C 
ATOM     61  C   UNL A   1      43.309  27.875  33.644  1.00  0.00     0.037 A 
BRANCH  48  62
ATOM     62  C   UNL A   1      39.362  32.066  35.872  1.00  0.00     0.064 A 
ATOM     63  C   UNL A   1      38.409  31.589  36.784  1.00  0.00     0.173 A 
ATOM     64  C   UNL A   1      39.923  33.330  36.109  1.00  0.00     0.173 A 
ATOM     65  F   UNL A   1      37.834  30.391  36.596  1.00  0.00    -0.203 F 
ATOM     66  C   UNL A   1      38.017  32.357  37.877  1.00  0.00     0.198 A 
ATOM     67  C   UNL A   1      39.548  34.084  37.217  1.00  0.00     0.198 A 
ATOM     68  F   UNL A   1      40.841  33.831  35.269  1.00  0.00    -0.203 F 
ATOM     69  F   UNL A   1      37.074  31.900  38.712  1.00  0.00    -0.200 F 
ATOM     70  C   UNL A   1      38.591  33.601  38.097  1.00  0.00     0.200 A 
ATOM     71  F   UNL A   1      40.113  35.279  37.435  1.00  0.00    -0.200 F 
ATOM     72  F   UNL A   1      38.218  34.336  39.154  1.00  0.00    -0.200 F 
ENDBRANCH  48  62
BRANCH  49  73
ATOM     73  C   UNL A   1      42.071  26.875  27.803  1.00  0.00     0.064 A 
ATOM     74  C   UNL A   1      41.560  25.597  27.539  1.00  0.00     0.173 A 
ATOM     75  C   UNL A   1      43.023  27.393  26.913  1.00  0.00     0.173 A 
ATOM     76  F   UNL A   1      40.669  25.046  28.376  1.00  0.00    -0.203 F 
ATOM     77  C   UNL A   1      41.999  24.859  26.440  1.00  0.00     0.198 A 
ATOM     78  C   UNL A   1      43.441  26.667  25.800  1.00  0.00     0.198 A 
ATOM     79  F   UNL A   1      43.547  28.610  27.123  1.00  0.00    -0.203 F 
ATOM     80  F   UNL A   1      41.531  23.619  26.240  1.00  0.00    -0.200 F 
ATOM     81  C   UNL A   1      42.935  25.397  25.569  1.00  0.00     0.200 A 
ATOM     82  F   UNL A   1      44.337  27.195  24.956  1.00  0.00    -0.200 F 
ATOM     83  F   UNL A   1      43.356  24.687  24.514  1.00  0.00    -0.200 F 
ENDBRANCH  49  73
BRANCH  61  84
ATOM     84  C   UNL A   1      44.423  27.163  34.356  1.00  0.00     0.064 A 
ATOM     85  C   UNL A   1      45.704  27.723  34.467  1.00  0.00     0.173 A 
ATOM     86  C   UNL A   1      44.194  25.923  34.974  1.00  0.00     0.173 A 
ATOM     87  F   UNL A   1      45.978  28.900  33.881  1.00  0.00    -0.203 F 
ATOM     88  C   UNL A   1      46.720  27.058  35.147  1.00  0.00     0.198 A 
ATOM     89  C   UNL A   1      45.205  25.275  35.679  1.00  0.00     0.198 A 
ATOM     90  F   UNL A   1      42.985  25.346  34.905  1.00  0.00    -0.203 F 
ATOM     91  F   UNL A   1      47.949  27.592  35.200  1.00  0.00    -0.200 F 
ATOM     92  C   UNL A   1      46.468  25.839  35.759  1.00  0.00     0.200 A 
ATOM     93  F   UNL A   1      44.956  24.104  36.281  1.00  0.00    -0.200 F 
ATOM     94  F   UNL A   1      47.446  25.205  36.420  1.00  0.00    -0.200 F 
ENDBRANCH  61  84
ENDBRANCH  35  36
ENDBRANCH  28  30
ENDBRANCH  27  28
ENDBRANCH  26  27
ENDBRANCH   1  26
TORSDOF 16
ENDMDL
MODEL 2
REMARK VINA RESULT:     -11.5      0.646      1.713
REMARK SMILES Cc1cc([C@H](C(=O)OCCOCCOC(=O)c2ccc(-c3c4nc(c(-c5c(F)c(F)c(F)c(F)c5F)c5ccc([nH]5)c(-c5c(F)c(F)c(F)c(F)c5F)c5nc(c(-c6c(F)c(F)c(F)c(F)c6F)c6ccc3[nH]6)C=C5)C=C4)cc2)[NH+]2CC[NH+](C)CC2)ccc1Br
REMARK SMILES IDX 12 1 11 2 10 3 9 4 8 5 6 6 7 7 5 8 4 9 1 10 2 11 3 12 89 13
REMARK SMILES IDX 88 14 90 15 87 16 80 17 81 18 86 19 82 21 85 22 83 23 84 24
REMARK SMILES IDX 13 26 14 27 15 28 16 29 17 30 18 31 79 32 19 33 78 34 20 35
REMARK SMILES IDX 21 36 22 37 72 38 23 39 77 40 71 41 73 42 24 43 76 44 70 45
REMARK SMILES IDX 69 46 25 48 57 49 37 50 56 51 38 52 41 53 55 54 74 55 39 56
REMARK SMILES IDX 40 57 54 59 75 60 42 61 26 62 27 63 35 64 28 65 29 66 33 67
REMARK SMILES IDX 36 68 30 69 31 70 34 71 32 72 58 73 59 74 67 75 60 76 61 77
REMARK SMILES IDX 65 78 68 79 62 80 63 81 66 82 64 83 43 84 44 85 52 86 45 87
REMARK SMILES IDX 46 88 50 89 53 90 47 91 48 92 51 93 49 94
REMARK H PARENT 80 20 83 25 73 47 41 58
REMARK Flexibility Score: inf
ROOT
ATOM      1  C   UNL A   1      31.397  32.258  26.521  1.00  0.00     0.202 C 
ENDROOT
BRANCH   1   2
ATOM      2  O   UNL A   1      31.670  30.921  26.087  1.00  0.00    -0.374 OA
BRANCH   2   3
ATOM      3  C   UNL A   1      32.546  30.126  26.887  1.00  0.00     0.202 C 
BRANCH   3   4
ATOM      4  C   UNL A   1      32.072  28.700  27.183  1.00  0.00     0.261 C 
BRANCH   4   5
ATOM      5  O   UNL A   1      32.224  27.897  26.008  1.00  0.00    -0.459 OA
BRANCH   5   6
ATOM      6  C   UNL A   1      31.462  26.778  25.929  1.00  0.00     0.369 C 
ATOM      7  O   UNL A   1      30.981  26.225  26.915  1.00  0.00    -0.245 OA
BRANCH   6   8
ATOM      8  C   UNL A   1      31.167  26.323  24.462  1.00  0.00     0.326 C 
BRANCH   8   9
ATOM      9  C   UNL A   1      30.497  27.491  23.705  1.00  0.00     0.021 A 
ATOM     10  C   UNL A   1      26.934  28.737  23.126  1.00  0.00     0.045 C 
ATOM     11  C   UNL A   1      28.434  28.671  23.060  1.00  0.00    -0.036 A 
ATOM     12  C   UNL A   1      29.105  27.682  23.801  1.00  0.00     0.015 A 
ATOM     13  C   UNL A   1      29.195  29.556  22.286  1.00  0.00     0.020 A 
ATOM     14  C   UNL A   1      30.580  29.402  22.197  1.00  0.00     0.016 A 
ATOM     15  Br  UNL A   1      28.405  30.995  21.331  1.00  0.00    -0.051 Br
ATOM     16  C   UNL A   1      31.222  28.362  22.875  1.00  0.00     0.012 A 
ENDBRANCH   8   9
BRANCH   8  17
ATOM     17  N   UNL A   1      32.340  25.746  23.689  1.00  0.00    -0.310 N 
ATOM     18  C   UNL A   1      31.871  24.690  22.747  1.00  0.00     0.325 C 
ATOM     19  C   UNL A   1      33.374  25.148  24.567  1.00  0.00     0.325 C 
ATOM     20  H   UNL A   1      32.756  26.529  23.185  1.00  0.00     0.349 HD
ATOM     21  C   UNL A   1      32.981  23.891  22.022  1.00  0.00     0.324 C 
ATOM     22  C   UNL A   1      34.497  24.420  23.783  1.00  0.00     0.324 C 
ATOM     23  N   UNL A   1      34.030  23.346  22.895  1.00  0.00    -0.328 N 
ATOM     24  C   UNL A   1      33.573  22.179  23.646  1.00  0.00     0.333 C 
ATOM     25  H   UNL A   1      34.807  23.014  22.322  1.00  0.00     0.348 HD
ENDBRANCH   8  17
ENDBRANCH   6   8
ENDBRANCH   5   6
ENDBRANCH   4   5
ENDBRANCH   3   4
ENDBRANCH   2   3
ENDBRANCH   1   2
BRANCH   1  26
ATOM     26  C   UNL A   1      32.604  33.110  26.934  1.00  0.00     0.261 C 
BRANCH  26  27
ATOM     27  O   UNL A   1      32.405  33.782  28.195  1.00  0.00    -0.460 OA
BRANCH  27  28
ATOM     28  C   UNL A   1      33.441  34.551  28.599  1.00  0.00     0.338 C 
ATOM     29  O   UNL A   1      33.424  35.748  28.861  1.00  0.00    -0.246 OA
BRANCH  28  30
ATOM     30  C   UNL A   1      34.623  33.715  28.871  1.00  0.00     0.060 A 
ATOM     31  C   UNL A   1      34.403  32.455  29.443  1.00  0.00     0.016 A 
ATOM     32  C   UNL A   1      35.923  34.186  28.673  1.00  0.00     0.016 A 
ATOM     33  C   UNL A   1      35.480  31.679  29.862  1.00  0.00     0.010 A 
ATOM     34  C   UNL A   1      37.005  33.406  29.102  1.00  0.00     0.010 A 
ATOM     35  C   UNL A   1      36.788  32.167  29.731  1.00  0.00    -0.014 A 
BRANCH  35  36
ATOM     36  C   UNL A   1      37.901  31.438  30.393  1.00  0.00     0.031 A 
ATOM     37  C   UNL A   1      38.211  31.728  31.837  1.00  0.00     0.074 A 
ATOM     38  C   UNL A   1      38.594  30.491  29.737  1.00  0.00     0.049 A 
ATOM     39  N   UNL A   1      39.130  31.210  32.612  1.00  0.00    -0.248 NA
ATOM     40  C   UNL A   1      37.367  32.736  32.497  1.00  0.00     0.031 C 
ATOM     41  C   UNL A   1      38.364  30.083  28.353  1.00  0.00     0.029 A 
ATOM     42  N   UNL A   1      39.634  29.697  30.155  1.00  0.00    -0.354 N 
ATOM     43  C   UNL A   1      38.976  31.826  33.846  1.00  0.00     0.074 A 
ATOM     44  C   UNL A   1      37.897  32.781  33.710  1.00  0.00     0.031 C 
ATOM     45  C   UNL A   1      39.241  29.118  28.032  1.00  0.00     0.029 A 
ATOM     46  C   UNL A   1      40.113  28.859  29.178  1.00  0.00     0.049 A 
ATOM     47  H   UNL A   1      40.002  29.726  31.067  1.00  0.00     0.167 HD
ATOM     48  C   UNL A   1      39.662  31.607  34.994  1.00  0.00     0.037 A 
ATOM     49  C   UNL A   1      41.147  27.996  29.202  1.00  0.00     0.037 A 
ATOM     50  C   UNL A   1      40.733  30.656  35.133  1.00  0.00     0.049 A 
ATOM     51  C   UNL A   1      41.947  27.829  30.469  1.00  0.00     0.074 A 
ATOM     52  C   UNL A   1      41.474  30.351  36.262  1.00  0.00     0.029 A 
ATOM     53  N   UNL A   1      41.220  29.860  34.108  1.00  0.00    -0.354 N 
ATOM     54  N   UNL A   1      41.776  28.396  31.638  1.00  0.00    -0.248 NA
ATOM     55  C   UNL A   1      43.084  26.897  30.418  1.00  0.00     0.031 C 
ATOM     56  C   UNL A   1      42.445  29.408  35.907  1.00  0.00     0.029 A 
ATOM     57  C   UNL A   1      42.273  29.085  34.570  1.00  0.00     0.049 A 
ATOM     58  H   UNL A   1      40.871  29.847  33.188  1.00  0.00     0.167 HD
ATOM     59  C   UNL A   1      42.762  27.872  32.466  1.00  0.00     0.074 A 
ATOM     60  C   UNL A   1      43.519  26.930  31.669  1.00  0.00     0.031 C 
ATOM     61  C   UNL A   1      43.016  28.147  33.769  1.00  0.00     0.037 A 
BRANCH  48  62
ATOM     62  C   UNL A   1      39.289  32.431  36.191  1.00  0.00     0.064 A 
ATOM     63  C   UNL A   1      39.855  33.695  36.421  1.00  0.00     0.173 A 
ATOM     64  C   UNL A   1      38.326  31.967  37.100  1.00  0.00     0.173 A 
ATOM     65  F   UNL A   1      40.789  34.178  35.588  1.00  0.00    -0.203 F 
ATOM     66  C   UNL A   1      39.486  34.453  37.529  1.00  0.00     0.198 A 
ATOM     67  C   UNL A   1      37.941  32.739  38.192  1.00  0.00     0.198 A 
ATOM     68  F   UNL A   1      37.753  30.768  36.923  1.00  0.00    -0.203 F 
ATOM     69  F   UNL A   1      40.069  35.638  37.753  1.00  0.00    -0.200 F 
ATOM     70  C   UNL A   1      38.525  33.978  38.410  1.00  0.00     0.200 A 
ATOM     71  F   UNL A   1      37.003  32.284  39.034  1.00  0.00    -0.200 F 
ATOM     72  F   UNL A   1      38.166  34.712  39.473  1.00  0.00    -0.200 F 
ENDBRANCH  48  62
BRANCH  49  73
ATOM     73  C   UNL A   1      41.502  27.226  27.981  1.00  0.00     0.064 A 
ATOM     74  C   UNL A   1      40.992  25.939  27.761  1.00  0.00     0.173 A 
ATOM     75  C   UNL A   1      42.382  27.751  27.023  1.00  0.00     0.173 A 
ATOM     76  F   UNL A   1      40.170  25.382  28.662  1.00  0.00    -0.203 F 
ATOM     77  C   UNL A   1      41.364  25.199  26.639  1.00  0.00     0.198 A 
ATOM     78  C   UNL A   1      42.731  27.022  25.889  1.00  0.00     0.198 A 
ATOM     79  F   UNL A   1      42.902  28.977  27.189  1.00  0.00    -0.203 F 
ATOM     80  F   UNL A   1      40.901  23.952  26.480  1.00  0.00    -0.200 F 
ATOM     81  C   UNL A   1      42.229  25.743  25.701  1.00  0.00     0.200 A 
ATOM     82  F   UNL A   1      43.559  27.557  24.981  1.00  0.00    -0.200 F 
ATOM     83  F   UNL A   1      42.586  25.032  24.624  1.00  0.00    -0.200 F 
ENDBRANCH  49  73
BRANCH  61  84
ATOM     84  C   UNL A   1      44.138  27.399  34.429  1.00  0.00     0.064 A 
ATOM     85  C   UNL A   1      43.941  26.136  35.009  1.00  0.00     0.173 A 
ATOM     86  C   UNL A   1      45.438  27.931  34.443  1.00  0.00     0.173 A 
ATOM     87  F   UNL A   1      42.716  25.590  35.035  1.00  0.00    -0.203 F 
ATOM     88  C   UNL A   1      44.997  25.447  35.600  1.00  0.00     0.198 A 
ATOM     89  C   UNL A   1      46.496  27.225  35.008  1.00  0.00     0.198 A 
ATOM     90  F   UNL A   1      45.682  29.130  33.895  1.00  0.00    -0.203 F 
ATOM     91  F   UNL A   1      44.776  24.263  36.189  1.00  0.00    -0.200 F 
ATOM     92  C   UNL A   1      46.274  25.988  35.592  1.00  0.00     0.200 A 
ATOM     93  F   UNL A   1      47.732  27.743  34.987  1.00  0.00    -0.200 F 
ATOM     94  F   UNL A   1      47.290  25.320  36.155  1.00  0.00    -0.200 F 
ENDBRANCH  61  84
ENDBRANCH  35  36
ENDBRANCH  28  30
ENDBRANCH  27  28
ENDBRANCH  26  27
ENDBRANCH   1  26
TORSDOF 16
ENDMDL
MODEL 3
REMARK VINA RESULT:     -11.4      1.849      3.651
REMARK SMILES Cc1cc([C@H](C(=O)OCCOCCOC(=O)c2ccc(-c3c4nc(c(-c5c(F)c(F)c(F)c(F)c5F)c5ccc([nH]5)c(-c5c(F)c(F)c(F)c(F)c5F)c5nc(c(-c6c(F)c(F)c(F)c(F)c6F)c6ccc3[nH]6)C=C5)C=C4)cc2)[NH+]2CC[NH+](C)CC2)ccc1Br
REMARK SMILES IDX 12 1 11 2 10 3 9 4 8 5 6 6 7 7 5 8 4 9 1 10 2 11 3 12 89 13
REMARK SMILES IDX 88 14 90 15 87 16 80 17 81 18 86 19 82 21 85 22 83 23 84 24
REMARK SMILES IDX 13 26 14 27 15 28 16 29 17 30 18 31 79 32 19 33 78 34 20 35
REMARK SMILES IDX 21 36 22 37 72 38 23 39 77 40 71 41 73 42 24 43 76 44 70 45
REMARK SMILES IDX 69 46 25 48 57 49 37 50 56 51 38 52 41 53 55 54 74 55 39 56
REMARK SMILES IDX 40 57 54 59 75 60 42 61 26 62 27 63 35 64 28 65 29 66 33 67
REMARK SMILES IDX 36 68 30 69 31 70 34 71 32 72 58 73 59 74 67 75 60 76 61 77
REMARK SMILES IDX 65 78 68 79 62 80 63 81 66 82 64 83 43 84 44 85 52 86 45 87
REMARK SMILES IDX 46 88 50 89 53 90 47 91 48 92 51 93 49 94
REMARK H PARENT 80 20 83 25 73 47 41 58
REMARK Flexibility Score: inf
ROOT
ATOM      1  C   UNL A   1      31.361  30.852  25.913  1.00  0.00     0.202 C 
ENDROOT
BRANCH   1   2
ATOM      2  O   UNL A   1      32.177  29.724  26.250  1.00  0.00    -0.374 OA
BRANCH   2   3
ATOM      3  C   UNL A   1      31.635  28.755  27.148  1.00  0.00     0.202 C 
BRANCH   3   4
ATOM      4  C   UNL A   1      31.498  27.333  26.595  1.00  0.00     0.261 C 
BRANCH   4   5
ATOM      5  O   UNL A   1      32.694  26.599  26.875  1.00  0.00    -0.459 OA
BRANCH   5   6
ATOM      6  C   UNL A   1      32.924  25.494  26.123  1.00  0.00     0.369 C 
ATOM      7  O   UNL A   1      32.241  24.477  26.203  1.00  0.00    -0.245 OA
BRANCH   6   8
ATOM      8  C   UNL A   1      34.069  25.677  25.073  1.00  0.00     0.326 C 
BRANCH   8   9
ATOM      9  C   UNL A   1      34.870  24.360  24.977  1.00  0.00     0.021 A 
ATOM     10  C   UNL A   1      38.289  23.105  26.127  1.00  0.00     0.045 C 
ATOM     11  C   UNL A   1      36.924  23.104  25.497  1.00  0.00    -0.036 A 
ATOM     12  C   UNL A   1      36.113  24.246  25.629  1.00  0.00     0.015 A 
ATOM     13  C   UNL A   1      36.424  22.011  24.779  1.00  0.00     0.020 A 
ATOM     14  C   UNL A   1      35.182  22.091  24.147  1.00  0.00     0.016 A 
ATOM     15  Br  UNL A   1      37.386  20.381  24.627  1.00  0.00    -0.051 Br
ATOM     16  C   UNL A   1      34.425  23.264  24.218  1.00  0.00     0.012 A 
ENDBRANCH   8   9
BRANCH   8  17
ATOM     17  N   UNL A   1      33.651  26.186  23.705  1.00  0.00    -0.310 N 
ATOM     18  C   UNL A   1      33.754  27.672  23.650  1.00  0.00     0.325 C 
ATOM     19  C   UNL A   1      32.260  25.812  23.349  1.00  0.00     0.325 C 
ATOM     20  H   UNL A   1      34.285  25.749  23.036  1.00  0.00     0.349 HD
ATOM     21  C   UNL A   1      33.190  28.342  22.374  1.00  0.00     0.324 C 
ATOM     22  C   UNL A   1      31.772  26.457  22.026  1.00  0.00     0.324 C 
ATOM     23  N   UNL A   1      31.830  27.926  21.999  1.00  0.00    -0.328 N 
ATOM     24  C   UNL A   1      30.813  28.526  22.858  1.00  0.00     0.333 C 
ATOM     25  H   UNL A   1      31.624  28.260  21.057  1.00  0.00     0.348 HD
ENDBRANCH   8  17
ENDBRANCH   6   8
ENDBRANCH   5   6
ENDBRANCH   4   5
ENDBRANCH   3   4
ENDBRANCH   2   3
ENDBRANCH   1   2
BRANCH   1  26
ATOM     26  C   UNL A   1      31.776  32.206  26.502  1.00  0.00     0.261 C 
BRANCH  26  27
ATOM     27  O   UNL A   1      32.661  32.073  27.633  1.00  0.00    -0.460 OA
BRANCH  27  28
ATOM     28  C   UNL A   1      33.637  33.007  27.704  1.00  0.00     0.338 C 
ATOM     29  O   UNL A   1      33.514  34.223  27.629  1.00  0.00    -0.246 OA
BRANCH  28  30
ATOM     30  C   UNL A   1      34.918  32.379  28.075  1.00  0.00     0.060 A 
ATOM     31  C   UNL A   1      34.902  31.009  28.367  1.00  0.00     0.016 A 
ATOM     32  C   UNL A   1      36.086  33.126  28.236  1.00  0.00     0.016 A 
ATOM     33  C   UNL A   1      36.044  30.388  28.867  1.00  0.00     0.010 A 
ATOM     34  C   UNL A   1      37.232  32.501  28.746  1.00  0.00     0.010 A 
ATOM     35  C   UNL A   1      37.206  31.138  29.099  1.00  0.00    -0.014 A 
BRANCH  35  36
ATOM     36  C   UNL A   1      38.330  30.519  29.848  1.00  0.00     0.031 A 
ATOM     37  C   UNL A   1      38.552  30.905  31.285  1.00  0.00     0.074 A 
ATOM     38  C   UNL A   1      39.109  29.585  29.276  1.00  0.00     0.049 A 
ATOM     39  N   UNL A   1      39.465  30.488  32.128  1.00  0.00    -0.248 NA
ATOM     40  C   UNL A   1      37.617  31.890  31.850  1.00  0.00     0.031 C 
ATOM     41  C   UNL A   1      38.970  29.091  27.909  1.00  0.00     0.029 A 
ATOM     42  N   UNL A   1      40.176  28.883  29.783  1.00  0.00    -0.354 N 
ATOM     43  C   UNL A   1      39.214  31.158  33.317  1.00  0.00     0.074 A 
ATOM     44  C   UNL A   1      38.086  32.034  33.082  1.00  0.00     0.031 C 
ATOM     45  C   UNL A   1      39.920  28.168  27.681  1.00  0.00     0.029 A 
ATOM     46  C   UNL A   1      40.751  28.027  28.877  1.00  0.00     0.049 A 
ATOM     47  H   UNL A   1      40.498  28.984  30.708  1.00  0.00     0.167 HD
ATOM     48  C   UNL A   1      39.857  31.046  34.504  1.00  0.00     0.037 A 
ATOM     49  C   UNL A   1      41.835  27.235  28.994  1.00  0.00     0.037 A 
ATOM     50  C   UNL A   1      40.978  30.174  34.744  1.00  0.00     0.049 A 
ATOM     51  C   UNL A   1      42.583  27.187  30.302  1.00  0.00     0.074 A 
ATOM     52  C   UNL A   1      41.682  29.977  35.919  1.00  0.00     0.029 A 
ATOM     53  N   UNL A   1      41.561  29.358  33.787  1.00  0.00    -0.354 N 
ATOM     54  N   UNL A   1      42.323  27.803  31.429  1.00  0.00    -0.248 NA
ATOM     55  C   UNL A   1      43.776  26.329  30.353  1.00  0.00     0.031 C 
ATOM     56  C   UNL A   1      42.725  29.081  35.660  1.00  0.00     0.029 A 
ATOM     57  C   UNL A   1      42.637  28.678  34.337  1.00  0.00     0.049 A 
ATOM     58  H   UNL A   1      41.258  29.273  32.855  1.00  0.00     0.167 HD
ATOM     59  C   UNL A   1      43.298  27.389  32.328  1.00  0.00     0.074 A 
ATOM     60  C   UNL A   1      44.149  26.456  31.619  1.00  0.00     0.031 C 
ATOM     61  C   UNL A   1      43.474  27.748  33.623  1.00  0.00     0.037 A 
BRANCH  48  62
ATOM     62  C   UNL A   1      39.378  31.906  35.637  1.00  0.00     0.064 A 
ATOM     63  C   UNL A   1      38.415  31.452  36.550  1.00  0.00     0.173 A 
ATOM     64  C   UNL A   1      39.917  33.187  35.832  1.00  0.00     0.173 A 
ATOM     65  F   UNL A   1      37.860  30.240  36.400  1.00  0.00    -0.203 F 
ATOM     66  C   UNL A   1      37.993  32.258  37.604  1.00  0.00     0.198 A 
ATOM     67  C   UNL A   1      39.512  33.979  36.902  1.00  0.00     0.198 A 
ATOM     68  F   UNL A   1      40.844  33.665  34.988  1.00  0.00    -0.203 F 
ATOM     69  F   UNL A   1      37.042  31.822  38.441  1.00  0.00    -0.200 F 
ATOM     70  C   UNL A   1      38.546  33.518  37.783  1.00  0.00     0.200 A 
ATOM     71  F   UNL A   1      40.058  35.190  37.080  1.00  0.00    -0.200 F 
ATOM     72  F   UNL A   1      38.144  34.290  38.803  1.00  0.00    -0.200 F 
ENDBRANCH  48  62
BRANCH  49  73
ATOM     73  C   UNL A   1      42.294  26.425  27.835  1.00  0.00     0.064 A 
ATOM     74  C   UNL A   1      43.260  26.915  26.945  1.00  0.00     0.173 A 
ATOM     75  C   UNL A   1      41.753  25.157  27.577  1.00  0.00     0.173 A 
ATOM     76  F   UNL A   1      43.786  28.134  27.132  1.00  0.00    -0.203 F 
ATOM     77  C   UNL A   1      43.653  26.174  25.831  1.00  0.00     0.198 A 
ATOM     78  C   UNL A   1      42.167  24.406  26.480  1.00  0.00     0.198 A 
ATOM     79  F   UNL A   1      40.821  24.645  28.396  1.00  0.00    -0.203 F 
ATOM     80  F   UNL A   1      44.541  26.687  24.969  1.00  0.00    -0.200 F 
ATOM     81  C   UNL A   1      43.110  24.918  25.602  1.00  0.00     0.200 A 
ATOM     82  F   UNL A   1      41.646  23.189  26.269  1.00  0.00    -0.200 F 
ATOM     83  F   UNL A   1      43.489  24.208  24.532  1.00  0.00    -0.200 F 
ENDBRANCH  49  73
BRANCH  61  84
ATOM     84  C   UNL A   1      44.608  27.110  34.372  1.00  0.00     0.064 A 
ATOM     85  C   UNL A   1      44.453  25.885  35.039  1.00  0.00     0.173 A 
ATOM     86  C   UNL A   1      45.878  27.709  34.386  1.00  0.00     0.173 A 
ATOM     87  F   UNL A   1      43.256  25.279  35.068  1.00  0.00    -0.203 F 
ATOM     88  C   UNL A   1      45.521  25.297  35.713  1.00  0.00     0.198 A 
ATOM     89  C   UNL A   1      46.950  27.102  35.036  1.00  0.00     0.198 A 
ATOM     90  F   UNL A   1      46.081  28.875  33.757  1.00  0.00    -0.203 F 
ATOM     91  F   UNL A   1      45.338  24.150  36.383  1.00  0.00    -0.200 F 
ATOM     92  C   UNL A   1      46.769  25.902  35.704  1.00  0.00     0.200 A 
ATOM     93  F   UNL A   1      48.158  27.681  35.015  1.00  0.00    -0.200 F 
ATOM     94  F   UNL A   1      47.796  25.330  36.347  1.00  0.00    -0.200 F 
ENDBRANCH  61  84
ENDBRANCH  35  36
ENDBRANCH  28  30
ENDBRANCH  27  28
ENDBRANCH  26  27
ENDBRANCH   1  26
TORSDOF 16
ENDMDL
