MODEL 1
REMARK VINA RESULT:     -13.8      0.000      0.000
REMARK SMILES CCOC(=O)c1ccc(NC(=O)[C@@H]2[C@H]3c4ccccc4[C@H](c4ccccc43)[C@@H]2C(=O)OCCOCCOC(=O)c2ccc(-c3c4nc(c(-c5c(F)c(F)c(F)c(F)c5F)c5ccc([nH]5)c(-c5c(F)c(F)c(F)c(F)c5F)c5nc(c(-c6c(F)c(F)c(F)c(F)c6F)c6ccc3[nH]6)C=C5)C=C4)cc2)cc1
REMARK SMILES IDX 32 1 31 2 29 3 30 4 28 5 13 6 14 7 27 8 15 9 21 10 26 11
REMARK SMILES IDX 22 12 20 13 16 14 25 15 23 16 19 17 17 18 24 19 18 20 11 21
REMARK SMILES IDX 10 22 12 24 9 25 6 26 7 27 104 28 8 29 103 30 4 31 5 32 3 33
REMARK SMILES IDX 2 34 1 35 33 36 34 37 35 38 36 39 37 40 38 41 39 42 40 43
REMARK SMILES IDX 41 44 102 45 42 46 101 47 43 48 44 49 45 50 95 51 46 52
REMARK SMILES IDX 100 53 94 54 96 55 47 56 99 57 93 58 92 59 48 61 80 62 60 63
REMARK SMILES IDX 79 64 61 65 64 66 78 67 97 68 62 69 63 70 77 72 98 73 65 74
REMARK SMILES IDX 49 75 50 76 58 77 51 78 52 79 56 80 59 81 53 82 54 83 57 84
REMARK SMILES IDX 55 85 81 86 82 87 90 88 83 89 84 90 88 91 91 92 85 93 86 94
REMARK SMILES IDX 89 95 87 96 66 97 67 98 75 99 68 100 69 101 73 102 76 103
REMARK SMILES IDX 70 104 71 105 74 106 72 107
REMARK H PARENT 10 23 96 60 64 71
REMARK Flexibility Score: inf
ROOT
ATOM      1  C   UNL A   1      31.521  27.828  26.861  1.00  0.00     0.261 C 
ENDROOT
BRANCH   1   2
ATOM      2  O   UNL A   1      31.030  26.900  25.857  1.00  0.00    -0.463 OA
BRANCH   2   3
ATOM      3  C   UNL A   1      31.370  25.648  26.224  1.00  0.00     0.310 C 
ATOM      4  O   UNL A   1      30.531  24.916  26.710  1.00  0.00    -0.252 OA
BRANCH   3   5
ATOM      5  C   UNL A   1      32.523  25.038  25.528  1.00  0.00     0.124 C 
ATOM      6  C   UNL A   1      32.419  23.568  25.077  1.00  0.00     0.106 C 
ATOM      7  C   UNL A   1      33.421  23.588  23.774  1.00  0.00     0.063 C 
ATOM      8  C   UNL A   1      34.817  23.469  24.325  1.00  0.00    -0.036 A 
ATOM      9  C   UNL A   1      33.477  25.027  23.080  1.00  0.00    -0.036 A 
ATOM     10  C   UNL A   1      34.001  25.550  25.441  1.00  0.00     0.065 C 
ATOM     11  C   UNL A   1      35.792  22.616  23.821  1.00  0.00     0.004 A 
ATOM     12  C   UNL A   1      35.085  24.439  25.332  1.00  0.00    -0.036 A 
ATOM     13  C   UNL A   1      33.896  26.080  23.991  1.00  0.00    -0.036 A 
ATOM     14  C   UNL A   1      32.982  25.385  21.837  1.00  0.00     0.004 A 
ATOM     15  C   UNL A   1      37.048  22.638  24.410  1.00  0.00     0.000 A 
ATOM     16  C   UNL A   1      36.331  24.414  25.944  1.00  0.00     0.004 A 
ATOM     17  C   UNL A   1      33.771  27.430  23.688  1.00  0.00     0.004 A 
ATOM     18  C   UNL A   1      32.856  26.756  21.539  1.00  0.00     0.000 A 
ATOM     19  C   UNL A   1      37.300  23.497  25.491  1.00  0.00     0.000 A 
ATOM     20  C   UNL A   1      33.230  27.761  22.454  1.00  0.00     0.000 A 
BRANCH   6  21
ATOM     21  C   UNL A   1      32.681  22.675  26.364  1.00  0.00     0.229 C 
ATOM     22  N   UNL A   1      32.588  21.280  26.293  1.00  0.00    -0.326 N 
ATOM     23  H   UNL A   1      32.078  20.858  27.022  1.00  0.00     0.169 HD
ATOM     24  O   UNL A   1      32.813  23.161  27.487  1.00  0.00    -0.274 OA
BRANCH  22  25
ATOM     25  C   UNL A   1      33.117  20.378  25.328  1.00  0.00     0.041 A 
ATOM     26  C   UNL A   1      34.054  18.024  24.088  1.00  0.00     0.060 A 
ATOM     27  C   UNL A   1      32.739  18.469  23.886  1.00  0.00     0.018 A 
ATOM     28  C   UNL A   1      34.960  18.866  24.747  1.00  0.00     0.018 A 
ATOM     29  C   UNL A   1      32.265  19.621  24.528  1.00  0.00     0.027 A 
ATOM     30  C   UNL A   1      34.505  20.091  25.309  1.00  0.00     0.027 A 
BRANCH  26  31
ATOM     31  C   UNL A   1      34.364  16.636  23.637  1.00  0.00     0.338 C 
ATOM     32  O   UNL A   1      34.193  16.283  22.480  1.00  0.00    -0.246 OA
BRANCH  31  33
ATOM     33  O   UNL A   1      34.720  15.819  24.668  1.00  0.00    -0.462 OA
BRANCH  33  34
ATOM     34  C   UNL A   1      33.778  15.773  25.764  1.00  0.00     0.230 C 
ATOM     35  C   UNL A   1      32.533  14.956  25.441  1.00  0.00     0.049 C 
ENDBRANCH  33  34
ENDBRANCH  31  33
ENDBRANCH  26  31
ENDBRANCH  22  25
ENDBRANCH   6  21
ENDBRANCH   3   5
ENDBRANCH   2   3
ENDBRANCH   1   2
BRANCH   1  36
ATOM     36  C   UNL A   1      31.791  29.253  26.298  1.00  0.00     0.202 C 
BRANCH  36  37
ATOM     37  O   UNL A   1      32.198  30.303  27.187  1.00  0.00    -0.374 OA
BRANCH  37  38
ATOM     38  C   UNL A   1      33.605  30.462  27.408  1.00  0.00     0.202 C 
BRANCH  38  39
ATOM     39  C   UNL A   1      34.126  31.896  27.541  1.00  0.00     0.261 C 
BRANCH  39  40
ATOM     40  O   UNL A   1      33.025  32.803  27.642  1.00  0.00    -0.460 OA
BRANCH  40  41
ATOM     41  C   UNL A   1      33.314  33.957  28.302  1.00  0.00     0.338 C 
ATOM     42  O   UNL A   1      32.686  34.978  28.327  1.00  0.00    -0.246 OA
BRANCH  41  43
ATOM     43  C   UNL A   1      34.435  33.647  29.216  1.00  0.00     0.060 A 
ATOM     44  C   UNL A   1      35.704  34.125  28.860  1.00  0.00     0.016 A 
ATOM     45  C   UNL A   1      34.230  33.001  30.436  1.00  0.00     0.016 A 
ATOM     46  C   UNL A   1      36.775  33.984  29.734  1.00  0.00     0.010 A 
ATOM     47  C   UNL A   1      35.312  32.807  31.288  1.00  0.00     0.010 A 
ATOM     48  C   UNL A   1      36.588  33.272  30.923  1.00  0.00    -0.014 A 
BRANCH  48  49
ATOM     49  C   UNL A   1      37.769  32.721  31.612  1.00  0.00     0.031 A 
ATOM     50  C   UNL A   1      38.452  31.564  30.940  1.00  0.00     0.074 A 
ATOM     51  C   UNL A   1      38.210  33.217  32.777  1.00  0.00     0.049 A 
ATOM     52  N   UNL A   1      39.415  30.798  31.374  1.00  0.00    -0.248 NA
ATOM     53  C   UNL A   1      37.957  31.211  29.597  1.00  0.00     0.031 C 
ATOM     54  C   UNL A   1      37.648  34.368  33.479  1.00  0.00     0.029 A 
ATOM     55  N   UNL A   1      39.233  32.792  33.583  1.00  0.00    -0.354 N 
ATOM     56  C   UNL A   1      39.617  29.859  30.371  1.00  0.00     0.074 A 
ATOM     57  C   UNL A   1      38.662  30.128  29.324  1.00  0.00     0.031 C 
ATOM     58  C   UNL A   1      38.322  34.545  34.629  1.00  0.00     0.029 A 
ATOM     59  C   UNL A   1      39.334  33.498  34.755  1.00  0.00     0.049 A 
ATOM     60  H   UNL A   1      39.837  32.052  33.344  1.00  0.00     0.167 HD
ATOM     61  C   UNL A   1      40.528  28.862  30.331  1.00  0.00     0.037 A 
ATOM     62  C   UNL A   1      40.138  33.286  35.816  1.00  0.00     0.037 A 
ATOM     63  C   UNL A   1      41.479  28.617  31.379  1.00  0.00     0.049 A 
ATOM     64  C   UNL A   1      41.111  32.133  35.773  1.00  0.00     0.074 A 
ATOM     65  C   UNL A   1      42.468  27.655  31.440  1.00  0.00     0.029 A 
ATOM     66  N   UNL A   1      41.549  29.347  32.558  1.00  0.00    -0.354 N 
ATOM     67  N   UNL A   1      41.317  31.256  34.819  1.00  0.00    -0.248 NA
ATOM     68  C   UNL A   1      41.964  31.941  36.954  1.00  0.00     0.031 C 
ATOM     69  C   UNL A   1      43.103  27.768  32.680  1.00  0.00     0.029 A 
ATOM     70  C   UNL A   1      42.551  28.840  33.365  1.00  0.00     0.049 A 
ATOM     71  H   UNL A   1      40.972  30.112  32.784  1.00  0.00     0.167 HD
ATOM     72  C   UNL A   1      42.336  30.427  35.271  1.00  0.00     0.074 A 
ATOM     73  C   UNL A   1      42.717  30.917  36.580  1.00  0.00     0.031 C 
ATOM     74  C   UNL A   1      42.910  29.359  34.662  1.00  0.00     0.037 A 
BRANCH  61  75
ATOM     75  C   UNL A   1      40.502  27.953  29.139  1.00  0.00     0.064 A 
ATOM     76  C   UNL A   1      41.278  28.204  27.996  1.00  0.00     0.173 A 
ATOM     77  C   UNL A   1      39.677  26.819  29.134  1.00  0.00     0.173 A 
ATOM     78  F   UNL A   1      42.064  29.291  27.938  1.00  0.00    -0.203 F 
ATOM     79  C   UNL A   1      41.204  27.372  26.882  1.00  0.00     0.198 A 
ATOM     80  C   UNL A   1      39.631  25.970  28.032  1.00  0.00     0.198 A 
ATOM     81  F   UNL A   1      38.908  26.538  30.197  1.00  0.00    -0.203 F 
ATOM     82  F   UNL A   1      41.905  27.668  25.778  1.00  0.00    -0.200 F 
ATOM     83  C   UNL A   1      40.387  26.252  26.904  1.00  0.00     0.200 A 
ATOM     84  F   UNL A   1      38.847  24.883  28.058  1.00  0.00    -0.200 F 
ATOM     85  F   UNL A   1      40.318  25.451  25.832  1.00  0.00    -0.200 F 
ENDBRANCH  61  75
BRANCH  62  86
ATOM     86  C   UNL A   1      40.047  34.170  37.008  1.00  0.00     0.064 A 
ATOM     87  C   UNL A   1      40.844  35.317  37.119  1.00  0.00     0.173 A 
ATOM     88  C   UNL A   1      39.169  33.883  38.065  1.00  0.00     0.173 A 
ATOM     89  F   UNL A   1      41.715  35.623  36.146  1.00  0.00    -0.203 F 
ATOM     90  C   UNL A   1      40.780  36.134  38.247  1.00  0.00     0.198 A 
ATOM     91  C   UNL A   1      39.086  34.715  39.179  1.00  0.00     0.198 A 
ATOM     92  F   UNL A   1      38.384  32.797  38.010  1.00  0.00    -0.203 F 
ATOM     93  F   UNL A   1      41.585  37.201  38.345  1.00  0.00    -0.200 F 
ATOM     94  C   UNL A   1      39.896  35.836  39.273  1.00  0.00     0.200 A 
ATOM     95  F   UNL A   1      38.219  34.431  40.161  1.00  0.00    -0.200 F 
ATOM     96  F   UNL A   1      39.830  36.625  40.354  1.00  0.00    -0.200 F 
ENDBRANCH  62  86
BRANCH  74  97
ATOM     97  C   UNL A   1      44.033  28.672  35.384  1.00  0.00     0.064 A 
ATOM     98  C   UNL A   1      45.371  29.047  35.193  1.00  0.00     0.173 A 
ATOM     99  C   UNL A   1      43.758  27.671  36.328  1.00  0.00     0.173 A 
ATOM    100  F   UNL A   1      45.685  29.990  34.292  1.00  0.00    -0.203 F 
ATOM    101  C   UNL A   1      46.394  28.428  35.904  1.00  0.00     0.198 A 
ATOM    102  C   UNL A   1      44.780  27.078  37.063  1.00  0.00     0.198 A 
ATOM    103  F   UNL A   1      42.493  27.285  36.555  1.00  0.00    -0.203 F 
ATOM    104  F   UNL A   1      47.669  28.771  35.675  1.00  0.00    -0.200 F 
ATOM    105  C   UNL A   1      46.098  27.453  36.846  1.00  0.00     0.200 A 
ATOM    106  F   UNL A   1      44.490  26.151  37.984  1.00  0.00    -0.200 F 
ATOM    107  F   UNL A   1      47.084  26.869  37.541  1.00  0.00    -0.200 F 
ENDBRANCH  74  97
ENDBRANCH  48  49
ENDBRANCH  41  43
ENDBRANCH  40  41
ENDBRANCH  39  40
ENDBRANCH  38  39
ENDBRANCH  37  38
ENDBRANCH  36  37
ENDBRANCH   1  36
TORSDOF 19
ENDMDL
MODEL 2
REMARK VINA RESULT:     -13.6      5.535     11.142
REMARK SMILES CCOC(=O)c1ccc(NC(=O)[C@@H]2[C@H]3c4ccccc4[C@H](c4ccccc43)[C@@H]2C(=O)OCCOCCOC(=O)c2ccc(-c3c4nc(c(-c5c(F)c(F)c(F)c(F)c5F)c5ccc([nH]5)c(-c5c(F)c(F)c(F)c(F)c5F)c5nc(c(-c6c(F)c(F)c(F)c(F)c6F)c6ccc3[nH]6)C=C5)C=C4)cc2)cc1
REMARK SMILES IDX 32 1 31 2 29 3 30 4 28 5 13 6 14 7 27 8 15 9 21 10 26 11
REMARK SMILES IDX 22 12 20 13 16 14 25 15 23 16 19 17 17 18 24 19 18 20 11 21
REMARK SMILES IDX 10 22 12 24 9 25 6 26 7 27 104 28 8 29 103 30 4 31 5 32 3 33
REMARK SMILES IDX 2 34 1 35 33 36 34 37 35 38 36 39 37 40 38 41 39 42 40 43
REMARK SMILES IDX 41 44 102 45 42 46 101 47 43 48 44 49 45 50 95 51 46 52
REMARK SMILES IDX 100 53 94 54 96 55 47 56 99 57 93 58 92 59 48 61 80 62 60 63
REMARK SMILES IDX 79 64 61 65 64 66 78 67 97 68 62 69 63 70 77 72 98 73 65 74
REMARK SMILES IDX 49 75 50 76 58 77 51 78 52 79 56 80 59 81 53 82 54 83 57 84
REMARK SMILES IDX 55 85 81 86 82 87 90 88 83 89 84 90 88 91 91 92 85 93 86 94
REMARK SMILES IDX 89 95 87 96 66 97 67 98 75 99 68 100 69 101 73 102 76 103
REMARK SMILES IDX 70 104 71 105 74 106 72 107
REMARK H PARENT 10 23 96 60 64 71
REMARK Flexibility Score: inf
ROOT
ATOM      1  C   UNL A   1      35.721  22.877  23.433  1.00  0.00     0.261 C 
ENDROOT
BRANCH   1   2
ATOM      2  O   UNL A   1      35.189  24.078  22.812  1.00  0.00    -0.463 OA
BRANCH   2   3
ATOM      3  C   UNL A   1      33.850  24.089  22.974  1.00  0.00     0.310 C 
ATOM      4  O   UNL A   1      33.199  23.116  22.649  1.00  0.00    -0.252 OA
BRANCH   3   5
ATOM      5  C   UNL A   1      33.311  24.985  24.018  1.00  0.00     0.124 C 
ATOM      6  C   UNL A   1      32.106  25.881  23.672  1.00  0.00     0.106 C 
ATOM      7  C   UNL A   1      31.407  26.022  25.153  1.00  0.00     0.063 C 
ATOM      8  C   UNL A   1      32.180  27.096  25.873  1.00  0.00    -0.036 A 
ATOM      9  C   UNL A   1      31.697  24.751  26.078  1.00  0.00    -0.036 A 
ATOM     10  C   UNL A   1      33.970  25.426  25.369  1.00  0.00     0.065 C 
ATOM     11  C   UNL A   1      31.600  28.135  26.592  1.00  0.00     0.004 A 
ATOM     12  C   UNL A   1      33.582  26.850  25.865  1.00  0.00    -0.036 A 
ATOM     13  C   UNL A   1      33.116  24.499  26.267  1.00  0.00    -0.036 A 
ATOM     14  C   UNL A   1      30.791  23.795  26.505  1.00  0.00     0.004 A 
ATOM     15  C   UNL A   1      32.440  29.034  27.233  1.00  0.00     0.000 A 
ATOM     16  C   UNL A   1      34.410  27.785  26.470  1.00  0.00     0.004 A 
ATOM     17  C   UNL A   1      33.604  23.317  26.809  1.00  0.00     0.004 A 
ATOM     18  C   UNL A   1      31.294  22.597  27.052  1.00  0.00     0.000 A 
ATOM     19  C   UNL A   1      33.832  28.885  27.135  1.00  0.00     0.000 A 
ATOM     20  C   UNL A   1      32.676  22.356  27.188  1.00  0.00     0.000 A 
BRANCH   6  21
ATOM     21  C   UNL A   1      32.676  27.119  22.855  1.00  0.00     0.229 C 
ATOM     22  N   UNL A   1      31.809  28.084  22.328  1.00  0.00    -0.326 N 
ATOM     23  H   UNL A   1      31.988  28.340  21.394  1.00  0.00     0.169 HD
ATOM     24  O   UNL A   1      33.857  27.198  22.518  1.00  0.00    -0.274 OA
BRANCH  22  25
ATOM     25  C   UNL A   1      30.708  28.750  22.934  1.00  0.00     0.041 A 
ATOM     26  C   UNL A   1      28.712  30.660  23.502  1.00  0.00     0.060 A 
ATOM     27  C   UNL A   1      28.420  29.521  22.737  1.00  0.00     0.018 A 
ATOM     28  C   UNL A   1      29.950  30.740  24.153  1.00  0.00     0.018 A 
ATOM     29  C   UNL A   1      29.420  28.589  22.429  1.00  0.00     0.027 A 
ATOM     30  C   UNL A   1      30.933  29.738  23.926  1.00  0.00     0.027 A 
BRANCH  26  31
ATOM     31  C   UNL A   1      27.686  31.744  23.501  1.00  0.00     0.338 C 
ATOM     32  O   UNL A   1      26.545  31.548  23.892  1.00  0.00    -0.246 OA
BRANCH  31  33
ATOM     33  O   UNL A   1      28.134  32.887  22.910  1.00  0.00    -0.462 OA
BRANCH  33  34
ATOM     34  C   UNL A   1      28.706  32.712  21.594  1.00  0.00     0.230 C 
ATOM     35  C   UNL A   1      27.651  32.562  20.505  1.00  0.00     0.049 C 
ENDBRANCH  33  34
ENDBRANCH  31  33
ENDBRANCH  26  31
ENDBRANCH  22  25
ENDBRANCH   6  21
ENDBRANCH   3   5
ENDBRANCH   2   3
ENDBRANCH   1   2
BRANCH   1  36
ATOM     36  C   UNL A   1      36.797  23.174  24.517  1.00  0.00     0.202 C 
BRANCH  36  37
ATOM     37  O   UNL A   1      37.060  22.204  25.542  1.00  0.00    -0.374 OA
BRANCH  37  38
ATOM     38  C   UNL A   1      38.426  22.023  25.933  1.00  0.00     0.202 C 
BRANCH  38  39
ATOM     39  C   UNL A   1      39.078  20.686  25.568  1.00  0.00     0.261 C 
BRANCH  39  40
ATOM     40  O   UNL A   1      39.874  20.222  26.661  1.00  0.00    -0.460 OA
BRANCH  40  41
ATOM     41  C   UNL A   1      41.154  19.909  26.323  1.00  0.00     0.338 C 
ATOM     42  O   UNL A   1      41.557  18.930  25.759  1.00  0.00    -0.246 OA
BRANCH  41  43
ATOM     43  C   UNL A   1      41.958  21.131  26.546  1.00  0.00     0.060 A 
ATOM     44  C   UNL A   1      42.257  21.468  27.873  1.00  0.00     0.016 A 
ATOM     45  C   UNL A   1      42.490  21.863  25.483  1.00  0.00     0.016 A 
ATOM     46  C   UNL A   1      43.115  22.526  28.149  1.00  0.00     0.010 A 
ATOM     47  C   UNL A   1      43.302  22.958  25.757  1.00  0.00     0.010 A 
ATOM     48  C   UNL A   1      43.590  23.305  27.090  1.00  0.00    -0.014 A 
BRANCH  48  49
ATOM     49  C   UNL A   1      44.092  24.662  27.377  1.00  0.00     0.031 A 
ATOM     50  C   UNL A   1      43.070  25.672  27.813  1.00  0.00     0.074 A 
ATOM     51  C   UNL A   1      45.388  24.982  27.253  1.00  0.00     0.049 A 
ATOM     52  N   UNL A   1      43.194  26.958  27.996  1.00  0.00    -0.248 NA
ATOM     53  C   UNL A   1      41.710  25.156  28.050  1.00  0.00     0.031 C 
ATOM     54  C   UNL A   1      46.461  24.060  26.887  1.00  0.00     0.029 A 
ATOM     55  N   UNL A   1      46.014  26.191  27.406  1.00  0.00    -0.354 N 
ATOM     56  C   UNL A   1      41.925  27.403  28.341  1.00  0.00     0.074 A 
ATOM     57  C   UNL A   1      41.040  26.264  28.311  1.00  0.00     0.031 C 
ATOM     58  C   UNL A   1      47.616  24.745  26.822  1.00  0.00     0.029 A 
ATOM     59  C   UNL A   1      47.352  26.155  27.105  1.00  0.00     0.049 A 
ATOM     60  H   UNL A   1      45.549  27.005  27.704  1.00  0.00     0.167 HD
ATOM     61  C   UNL A   1      41.538  28.658  28.660  1.00  0.00     0.037 A 
ATOM     62  C   UNL A   1      48.242  27.165  27.037  1.00  0.00     0.037 A 
ATOM     63  C   UNL A   1      42.436  29.778  28.695  1.00  0.00     0.049 A 
ATOM     64  C   UNL A   1      47.776  28.568  27.344  1.00  0.00     0.074 A 
ATOM     65  C   UNL A   1      42.166  31.090  29.029  1.00  0.00     0.029 A 
ATOM     66  N   UNL A   1      43.786  29.708  28.377  1.00  0.00    -0.354 N 
ATOM     67  N   UNL A   1      46.581  28.989  27.687  1.00  0.00    -0.248 NA
ATOM     68  C   UNL A   1      48.782  29.634  27.254  1.00  0.00     0.031 C 
ATOM     69  C   UNL A   1      43.342  31.828  28.862  1.00  0.00     0.029 A 
ATOM     70  C   UNL A   1      44.359  30.963  28.483  1.00  0.00     0.049 A 
ATOM     71  H   UNL A   1      44.263  28.888  28.116  1.00  0.00     0.167 HD
ATOM     72  C   UNL A   1      46.697  30.359  27.880  1.00  0.00     0.074 A 
ATOM     73  C   UNL A   1      48.083  30.697  27.629  1.00  0.00     0.031 C 
ATOM     74  C   UNL A   1      45.747  31.261  28.234  1.00  0.00     0.037 A 
BRANCH  61  75
ATOM     75  C   UNL A   1      40.083  28.877  28.951  1.00  0.00     0.064 A 
ATOM     76  C   UNL A   1      39.167  29.220  27.944  1.00  0.00     0.173 A 
ATOM     77  C   UNL A   1      39.599  28.754  30.261  1.00  0.00     0.173 A 
ATOM     78  F   UNL A   1      39.584  29.379  26.677  1.00  0.00    -0.203 F 
ATOM     79  C   UNL A   1      37.830  29.464  28.244  1.00  0.00     0.198 A 
ATOM     80  C   UNL A   1      38.255  28.964  30.552  1.00  0.00     0.198 A 
ATOM     81  F   UNL A   1      40.433  28.436  31.263  1.00  0.00    -0.203 F 
ATOM     82  F   UNL A   1      36.988  29.854  27.276  1.00  0.00    -0.200 F 
ATOM     83  C   UNL A   1      37.373  29.328  29.545  1.00  0.00     0.200 A 
ATOM     84  F   UNL A   1      37.813  28.823  31.810  1.00  0.00    -0.200 F 
ATOM     85  F   UNL A   1      36.085  29.560  29.833  1.00  0.00    -0.200 F 
ENDBRANCH  61  75
BRANCH  62  86
ATOM     86  C   UNL A   1      49.651  26.892  26.650  1.00  0.00     0.064 A 
ATOM     87  C   UNL A   1      50.625  26.613  27.619  1.00  0.00     0.173 A 
ATOM     88  C   UNL A   1      50.057  26.912  25.307  1.00  0.00     0.173 A 
ATOM     89  F   UNL A   1      50.292  26.603  28.918  1.00  0.00    -0.203 F 
ATOM     90  C   UNL A   1      51.952  26.381  27.262  1.00  0.00     0.198 A 
ATOM     91  C   UNL A   1      51.379  26.653  24.949  1.00  0.00     0.198 A 
ATOM     92  F   UNL A   1      49.166  27.174  24.340  1.00  0.00    -0.203 F 
ATOM     93  F   UNL A   1      52.871  26.161  28.212  1.00  0.00    -0.200 F 
ATOM     94  C   UNL A   1      52.326  26.395  25.926  1.00  0.00     0.200 A 
ATOM     95  F   UNL A   1      51.732  26.653  23.656  1.00  0.00    -0.200 F 
ATOM     96  F   UNL A   1      53.601  26.167  25.584  1.00  0.00    -0.200 F 
ENDBRANCH  62  86
BRANCH  74  97
ATOM     97  C   UNL A   1      46.179  32.689  28.408  1.00  0.00     0.064 A 
ATOM     98  C   UNL A   1      46.131  33.608  27.351  1.00  0.00     0.173 A 
ATOM     99  C   UNL A   1      46.583  33.155  29.669  1.00  0.00     0.173 A 
ATOM    100  F   UNL A   1      45.762  33.208  26.124  1.00  0.00    -0.203 F 
ATOM    101  C   UNL A   1      46.493  34.938  27.544  1.00  0.00     0.198 A 
ATOM    102  C   UNL A   1      46.912  34.492  29.867  1.00  0.00     0.198 A 
ATOM    103  F   UNL A   1      46.635  32.317  30.715  1.00  0.00    -0.203 F 
ATOM    104  F   UNL A   1      46.482  35.790  26.510  1.00  0.00    -0.200 F 
ATOM    105  C   UNL A   1      46.873  35.381  28.803  1.00  0.00     0.200 A 
ATOM    106  F   UNL A   1      47.260  34.922  31.086  1.00  0.00    -0.200 F 
ATOM    107  F   UNL A   1      47.208  36.666  28.990  1.00  0.00    -0.200 F 
ENDBRANCH  74  97
ENDBRANCH  48  49
ENDBRANCH  41  43
ENDBRANCH  40  41
ENDBRANCH  39  40
ENDBRANCH  38  39
ENDBRANCH  37  38
ENDBRANCH  36  37
ENDBRANCH   1  36
TORSDOF 19
ENDMDL
MODEL 3
REMARK VINA RESULT:     -13.0      3.162      8.850
REMARK SMILES CCOC(=O)c1ccc(NC(=O)[C@@H]2[C@H]3c4ccccc4[C@H](c4ccccc43)[C@@H]2C(=O)OCCOCCOC(=O)c2ccc(-c3c4nc(c(-c5c(F)c(F)c(F)c(F)c5F)c5ccc([nH]5)c(-c5c(F)c(F)c(F)c(F)c5F)c5nc(c(-c6c(F)c(F)c(F)c(F)c6F)c6ccc3[nH]6)C=C5)C=C4)cc2)cc1
REMARK SMILES IDX 32 1 31 2 29 3 30 4 28 5 13 6 14 7 27 8 15 9 21 10 26 11
REMARK SMILES IDX 22 12 20 13 16 14 25 15 23 16 19 17 17 18 24 19 18 20 11 21
REMARK SMILES IDX 10 22 12 24 9 25 6 26 7 27 104 28 8 29 103 30 4 31 5 32 3 33
REMARK SMILES IDX 2 34 1 35 33 36 34 37 35 38 36 39 37 40 38 41 39 42 40 43
REMARK SMILES IDX 41 44 102 45 42 46 101 47 43 48 44 49 45 50 95 51 46 52
REMARK SMILES IDX 100 53 94 54 96 55 47 56 99 57 93 58 92 59 48 61 80 62 60 63
REMARK SMILES IDX 79 64 61 65 64 66 78 67 97 68 62 69 63 70 77 72 98 73 65 74
REMARK SMILES IDX 49 75 50 76 58 77 51 78 52 79 56 80 59 81 53 82 54 83 57 84
REMARK SMILES IDX 55 85 81 86 82 87 90 88 83 89 84 90 88 91 91 92 85 93 86 94
REMARK SMILES IDX 89 95 87 96 66 97 67 98 75 99 68 100 69 101 73 102 76 103
REMARK SMILES IDX 70 104 71 105 74 106 72 107
REMARK H PARENT 10 23 96 60 64 71
REMARK Flexibility Score: inf
ROOT
ATOM      1  C   UNL A   1      37.929  22.168  25.902  1.00  0.00     0.261 C 
ENDROOT
BRANCH   1   2
ATOM      2  O   UNL A   1      37.233  22.308  24.634  1.00  0.00    -0.463 OA
BRANCH   2   3
ATOM      3  C   UNL A   1      36.352  21.294  24.513  1.00  0.00     0.310 C 
ATOM      4  O   UNL A   1      36.712  20.156  24.739  1.00  0.00    -0.252 OA
BRANCH   3   5
ATOM      5  C   UNL A   1      34.922  21.631  24.677  1.00  0.00     0.124 C 
ATOM      6  C   UNL A   1      34.345  22.812  23.872  1.00  0.00     0.106 C 
ATOM      7  C   UNL A   1      32.780  22.330  23.722  1.00  0.00     0.063 C 
ATOM      8  C   UNL A   1      32.108  22.699  25.018  1.00  0.00    -0.036 A 
ATOM      9  C   UNL A   1      32.638  20.738  23.734  1.00  0.00    -0.036 A 
ATOM     10  C   UNL A   1      33.928  21.176  25.799  1.00  0.00     0.065 C 
ATOM     11  C   UNL A   1      30.872  23.328  25.112  1.00  0.00     0.004 A 
ATOM     12  C   UNL A   1      32.808  22.198  26.151  1.00  0.00    -0.036 A 
ATOM     13  C   UNL A   1      33.187  20.129  24.934  1.00  0.00    -0.036 A 
ATOM     14  C   UNL A   1      32.270  19.916  22.682  1.00  0.00     0.004 A 
ATOM     15  C   UNL A   1      30.359  23.576  26.377  1.00  0.00     0.000 A 
ATOM     16  C   UNL A   1      32.307  22.497  27.411  1.00  0.00     0.004 A 
ATOM     17  C   UNL A   1      33.407  18.762  25.050  1.00  0.00     0.004 A 
ATOM     18  C   UNL A   1      32.499  18.531  22.806  1.00  0.00     0.000 A 
ATOM     19  C   UNL A   1      31.093  23.204  27.515  1.00  0.00     0.000 A 
ATOM     20  C   UNL A   1      33.072  17.966  23.964  1.00  0.00     0.000 A 
BRANCH   6  21
ATOM     21  C   UNL A   1      34.779  24.138  24.632  1.00  0.00     0.229 C 
ATOM     22  N   UNL A   1      34.334  25.390  24.190  1.00  0.00    -0.326 N 
ATOM     23  H   UNL A   1      35.030  26.084  24.136  1.00  0.00     0.169 HD
ATOM     24  O   UNL A   1      35.633  24.140  25.519  1.00  0.00    -0.274 OA
BRANCH  22  25
ATOM     25  C   UNL A   1      33.031  25.811  23.807  1.00  0.00     0.041 A 
ATOM     26  C   UNL A   1      30.859  27.432  23.023  1.00  0.00     0.060 A 
ATOM     27  C   UNL A   1      31.597  26.709  22.073  1.00  0.00     0.018 A 
ATOM     28  C   UNL A   1      31.081  27.183  24.384  1.00  0.00     0.018 A 
ATOM     29  C   UNL A   1      32.696  25.930  22.460  1.00  0.00     0.027 A 
ATOM     30  C   UNL A   1      32.128  26.308  24.781  1.00  0.00     0.027 A 
BRANCH  26  31
ATOM     31  C   UNL A   1      29.932  28.475  22.494  1.00  0.00     0.338 C 
ATOM     32  O   UNL A   1      30.231  29.174  21.537  1.00  0.00    -0.246 OA
BRANCH  31  33
ATOM     33  O   UNL A   1      28.820  28.627  23.268  1.00  0.00    -0.462 OA
BRANCH  33  34
ATOM     34  C   UNL A   1      27.785  29.455  22.693  1.00  0.00     0.230 C 
ATOM     35  C   UNL A   1      27.633  30.794  23.405  1.00  0.00     0.049 C 
ENDBRANCH  33  34
ENDBRANCH  31  33
ENDBRANCH  26  31
ENDBRANCH  22  25
ENDBRANCH   6  21
ENDBRANCH   3   5
ENDBRANCH   2   3
ENDBRANCH   1   2
BRANCH   1  36
ATOM     36  C   UNL A   1      39.331  21.506  25.761  1.00  0.00     0.202 C 
BRANCH  36  37
ATOM     37  O   UNL A   1      40.172  21.369  26.916  1.00  0.00    -0.374 OA
BRANCH  37  38
ATOM     38  C   UNL A   1      41.547  21.041  26.685  1.00  0.00     0.202 C 
BRANCH  38  39
ATOM     39  C   UNL A   1      42.302  21.905  25.670  1.00  0.00     0.261 C 
BRANCH  39  40
ATOM     40  O   UNL A   1      43.231  22.751  26.352  1.00  0.00    -0.460 OA
BRANCH  40  41
ATOM     41  C   UNL A   1      43.422  23.960  25.756  1.00  0.00     0.338 C 
ATOM     42  O   UNL A   1      43.826  24.190  24.650  1.00  0.00    -0.246 OA
BRANCH  41  43
ATOM     43  C   UNL A   1      42.789  24.967  26.636  1.00  0.00     0.060 A 
ATOM     44  C   UNL A   1      43.296  26.272  26.586  1.00  0.00     0.016 A 
ATOM     45  C   UNL A   1      41.666  24.664  27.408  1.00  0.00     0.016 A 
ATOM     46  C   UNL A   1      42.667  27.294  27.286  1.00  0.00     0.010 A 
ATOM     47  C   UNL A   1      41.069  25.672  28.156  1.00  0.00     0.010 A 
ATOM     48  C   UNL A   1      41.587  26.979  28.117  1.00  0.00    -0.014 A 
BRANCH  48  49
ATOM     49  C   UNL A   1      41.221  27.921  29.192  1.00  0.00     0.031 A 
ATOM     50  C   UNL A   1      42.030  27.838  30.453  1.00  0.00     0.074 A 
ATOM     51  C   UNL A   1      40.219  28.800  29.055  1.00  0.00     0.049 A 
ATOM     52  N   UNL A   1      41.851  28.435  31.600  1.00  0.00    -0.248 NA
ATOM     53  C   UNL A   1      43.193  26.933  30.419  1.00  0.00     0.031 C 
ATOM     54  C   UNL A   1      39.411  28.991  27.853  1.00  0.00     0.029 A 
ATOM     55  N   UNL A   1      39.700  29.689  29.960  1.00  0.00    -0.354 N 
ATOM     56  C   UNL A   1      42.858  27.954  32.426  1.00  0.00     0.074 A 
ATOM     57  C   UNL A   1      43.625  26.997  31.666  1.00  0.00     0.031 C 
ATOM     58  C   UNL A   1      38.479  29.928  28.103  1.00  0.00     0.029 A 
ATOM     59  C   UNL A   1      38.604  30.369  29.491  1.00  0.00     0.049 A 
ATOM     60  H   UNL A   1      40.077  29.826  30.859  1.00  0.00     0.167 HD
ATOM     61  C   UNL A   1      43.120  28.291  33.708  1.00  0.00     0.037 A 
ATOM     62  C   UNL A   1      37.787  31.224  30.136  1.00  0.00     0.037 A 
ATOM     63  C   UNL A   1      42.352  29.255  34.445  1.00  0.00     0.049 A 
ATOM     64  C   UNL A   1      38.065  31.545  31.585  1.00  0.00     0.074 A 
ATOM     65  C   UNL A   1      42.536  29.698  35.739  1.00  0.00     0.029 A 
ATOM     66  N   UNL A   1      41.242  29.921  33.941  1.00  0.00    -0.354 N 
ATOM     67  N   UNL A   1      39.026  31.106  32.362  1.00  0.00    -0.248 NA
ATOM     68  C   UNL A   1      37.143  32.480  32.245  1.00  0.00     0.031 C 
ATOM     69  C   UNL A   1      41.506  30.594  36.039  1.00  0.00     0.029 A 
ATOM     70  C   UNL A   1      40.716  30.756  34.910  1.00  0.00     0.049 A 
ATOM     71  H   UNL A   1      40.885  29.815  33.030  1.00  0.00     0.167 HD
ATOM     72  C   UNL A   1      38.843  31.728  33.590  1.00  0.00     0.074 A 
ATOM     73  C   UNL A   1      37.685  32.588  33.449  1.00  0.00     0.031 C 
ATOM     74  C   UNL A   1      39.565  31.606  34.732  1.00  0.00     0.037 A 
BRANCH  61  75
ATOM     75  C   UNL A   1      44.251  27.581  34.389  1.00  0.00     0.064 A 
ATOM     76  C   UNL A   1      45.558  28.094  34.391  1.00  0.00     0.173 A 
ATOM     77  C   UNL A   1      44.027  26.359  35.041  1.00  0.00     0.173 A 
ATOM     78  F   UNL A   1      45.832  29.246  33.757  1.00  0.00    -0.203 F 
ATOM     79  C   UNL A   1      46.602  27.395  34.990  1.00  0.00     0.198 A 
ATOM     80  C   UNL A   1      45.066  25.680  35.669  1.00  0.00     0.198 A 
ATOM     81  F   UNL A   1      42.799  25.820  35.062  1.00  0.00    -0.203 F 
ATOM     82  F   UNL A   1      47.853  27.874  34.922  1.00  0.00    -0.200 F 
ATOM     83  C   UNL A   1      46.354  26.194  35.635  1.00  0.00     0.200 A 
ATOM     84  F   UNL A   1      44.824  24.523  36.300  1.00  0.00    -0.200 F 
ATOM     85  F   UNL A   1      47.360  25.523  36.214  1.00  0.00    -0.200 F 
ENDBRANCH  61  75
BRANCH  62  86
ATOM     86  C   UNL A   1      36.624  31.822  29.427  1.00  0.00     0.064 A 
ATOM     87  C   UNL A   1      36.582  33.193  29.138  1.00  0.00     0.173 A 
ATOM     88  C   UNL A   1      35.529  31.040  29.030  1.00  0.00     0.173 A 
ATOM     89  F   UNL A   1      37.595  33.987  29.515  1.00  0.00    -0.203 F 
ATOM     90  C   UNL A   1      35.484  33.762  28.496  1.00  0.00     0.198 A 
ATOM     91  C   UNL A   1      34.443  31.604  28.364  1.00  0.00     0.198 A 
ATOM     92  F   UNL A   1      35.518  29.723  29.283  1.00  0.00    -0.203 F 
ATOM     93  F   UNL A   1      35.451  35.082  28.271  1.00  0.00    -0.200 F 
ATOM     94  C   UNL A   1      34.418  32.965  28.103  1.00  0.00     0.200 A 
ATOM     95  F   UNL A   1      33.423  30.828  27.974  1.00  0.00    -0.200 F 
ATOM     96  F   UNL A   1      33.365  33.511  27.481  1.00  0.00    -0.200 F 
ENDBRANCH  62  86
BRANCH  74  97
ATOM     97  C   UNL A   1      39.150  32.445  35.906  1.00  0.00     0.064 A 
ATOM     98  C   UNL A   1      38.279  31.957  36.891  1.00  0.00     0.173 A 
ATOM     99  C   UNL A   1      39.685  33.731  36.079  1.00  0.00     0.173 A 
ATOM    100  F   UNL A   1      37.732  30.738  36.764  1.00  0.00    -0.203 F 
ATOM    101  C   UNL A   1      37.942  32.734  37.994  1.00  0.00     0.198 A 
ATOM    102  C   UNL A   1      39.373  34.493  37.201  1.00  0.00     0.198 A 
ATOM    103  F   UNL A   1      40.532  34.239  35.171  1.00  0.00    -0.203 F 
ATOM    104  F   UNL A   1      37.074  32.266  38.901  1.00  0.00    -0.200 F 
ATOM    105  C   UNL A   1      38.496  33.996  38.154  1.00  0.00     0.200 A 
ATOM    106  F   UNL A   1      39.924  35.702  37.362  1.00  0.00    -0.200 F 
ATOM    107  F   UNL A   1      38.181  34.738  39.226  1.00  0.00    -0.200 F 
ENDBRANCH  74  97
ENDBRANCH  48  49
ENDBRANCH  41  43
ENDBRANCH  40  41
ENDBRANCH  39  40
ENDBRANCH  38  39
ENDBRANCH  37  38
ENDBRANCH  36  37
ENDBRANCH   1  36
TORSDOF 19
ENDMDL
