MODEL 1
REMARK VINA RESULT:     -11.2      0.000      0.000
REMARK SMILES O=C(OCCOCCOC(=O)c1cccc(/C=N/NC(=S)Nc2ccccc2)c1O)c1ccc(-c2c3nc(c(-c4c(F)c(F)c(F)c(F)c4F)c4ccc([nH]4)c(-c4c(F)c(F)c(F)c(F)c4F)c4nc(c(-c5c(F)c(F)c(F)c(F)c5F)c5ccc2[nH]5)C=C4)C=C3)cc1
REMARK SMILES IDX 7 1 6 2 5 3 4 4 3 5 2 6 1 7 31 8 32 9 93 10 33 11 92 12
REMARK SMILES IDX 34 13 35 14 36 15 86 16 37 17 91 18 85 19 87 20 38 21 90 22
REMARK SMILES IDX 84 23 83 24 39 26 71 27 51 28 70 29 52 30 55 31 69 32 88 33
REMARK SMILES IDX 53 34 54 35 68 37 89 38 56 39 40 40 41 41 49 42 42 43 43 44
REMARK SMILES IDX 47 45 50 46 44 47 45 48 48 49 46 50 72 51 73 52 81 53 74 54
REMARK SMILES IDX 75 55 79 56 82 57 76 58 77 59 80 60 78 61 57 62 58 63 66 64
REMARK SMILES IDX 59 65 60 66 64 67 67 68 61 69 62 70 65 71 63 72 8 73 9 74
REMARK SMILES IDX 10 75 11 76 12 77 13 78 29 79 14 80 16 81 15 82 30 83 17 85
REMARK SMILES IDX 18 86 19 87 20 89 21 90 22 91 23 93 24 94 28 95 25 96 27 97
REMARK SMILES IDX 26 98
REMARK H PARENT 87 25 55 36 30 84 19 88 22 92
REMARK Flexibility Score: inf
ROOT
ATOM      1  C   UNL A   1      29.736  28.631  22.913  1.00  0.00     0.202 C 
ENDROOT
BRANCH   1   2
ATOM      2  O   UNL A   1      30.009  29.559  23.967  1.00  0.00    -0.374 OA
BRANCH   2   3
ATOM      3  C   UNL A   1      31.320  29.521  24.534  1.00  0.00     0.202 C 
BRANCH   3   4
ATOM      4  C   UNL A   1      31.499  30.441  25.742  1.00  0.00     0.261 C 
BRANCH   4   5
ATOM      5  O   UNL A   1      32.893  30.528  26.093  1.00  0.00    -0.460 OA
BRANCH   5   6
ATOM      6  C   UNL A   1      33.465  31.325  27.025  1.00  0.00     0.338 C 
ATOM      7  O   UNL A   1      32.927  32.388  27.326  1.00  0.00    -0.246 OA
BRANCH   6   8
ATOM      8  C   UNL A   1      34.714  30.950  27.739  1.00  0.00     0.060 A 
ATOM      9  C   UNL A   1      35.036  29.645  28.103  1.00  0.00     0.016 A 
ATOM     10  C   UNL A   1      35.654  31.958  27.988  1.00  0.00     0.016 A 
ATOM     11  C   UNL A   1      36.204  29.332  28.754  1.00  0.00     0.010 A 
ATOM     12  C   UNL A   1      36.863  31.654  28.621  1.00  0.00     0.010 A 
ATOM     13  C   UNL A   1      37.122  30.336  29.018  1.00  0.00    -0.014 A 
BRANCH  13  14
ATOM     14  C   UNL A   1      38.246  29.956  29.877  1.00  0.00     0.031 A 
ATOM     15  C   UNL A   1      39.343  29.156  29.255  1.00  0.00     0.074 A 
ATOM     16  C   UNL A   1      38.357  30.516  31.092  1.00  0.00     0.049 A 
ATOM     17  N   UNL A   1      40.422  28.669  29.796  1.00  0.00    -0.248 NA
ATOM     18  C   UNL A   1      39.211  28.882  27.812  1.00  0.00     0.031 C 
ATOM     19  C   UNL A   1      37.410  31.476  31.669  1.00  0.00     0.029 A 
ATOM     20  N   UNL A   1      39.336  30.405  32.038  1.00  0.00    -0.354 N 
ATOM     21  C   UNL A   1      41.067  27.983  28.778  1.00  0.00     0.074 A 
ATOM     22  C   UNL A   1      40.271  28.125  27.583  1.00  0.00     0.031 C 
ATOM     23  C   UNL A   1      37.873  31.889  32.859  1.00  0.00     0.029 A 
ATOM     24  C   UNL A   1      39.093  31.152  33.163  1.00  0.00     0.049 A 
ATOM     25  H   UNL A   1      40.137  29.844  31.924  1.00  0.00     0.167 HD
ATOM     26  C   UNL A   1      42.218  27.279  28.863  1.00  0.00     0.037 A 
ATOM     27  C   UNL A   1      39.772  31.187  34.322  1.00  0.00     0.037 A 
ATOM     28  C   UNL A   1      42.975  27.184  30.082  1.00  0.00     0.049 A 
ATOM     29  C   UNL A   1      40.986  30.305  34.429  1.00  0.00     0.074 A 
ATOM     30  C   UNL A   1      44.112  26.450  30.345  1.00  0.00     0.029 A 
ATOM     31  N   UNL A   1      42.649  27.863  31.253  1.00  0.00    -0.354 N 
ATOM     32  N   UNL A   1      41.543  29.551  33.509  1.00  0.00    -0.248 NA
ATOM     33  C   UNL A   1      41.650  30.255  35.734  1.00  0.00     0.031 C 
ATOM     34  C   UNL A   1      44.441  26.639  31.694  1.00  0.00     0.029 A 
ATOM     35  C   UNL A   1      43.552  27.548  32.251  1.00  0.00     0.049 A 
ATOM     36  H   UNL A   1      41.887  28.478  31.355  1.00  0.00     0.167 HD
ATOM     37  C   UNL A   1      42.642  28.958  34.110  1.00  0.00     0.074 A 
ATOM     38  C   UNL A   1      42.674  29.452  35.476  1.00  0.00     0.031 C 
ATOM     39  C   UNL A   1      43.543  28.086  33.592  1.00  0.00     0.037 A 
BRANCH  26  40
ATOM     40  C   UNL A   1      42.618  26.488  27.652  1.00  0.00     0.064 A 
ATOM     41  C   UNL A   1      42.212  25.159  27.450  1.00  0.00     0.173 A 
ATOM     42  C   UNL A   1      43.508  27.046  26.722  1.00  0.00     0.173 A 
ATOM     43  F   UNL A   1      41.393  24.561  28.328  1.00  0.00    -0.203 F 
ATOM     44  C   UNL A   1      42.721  24.407  26.392  1.00  0.00     0.198 A 
ATOM     45  C   UNL A   1      43.987  26.303  25.646  1.00  0.00     0.198 A 
ATOM     46  F   UNL A   1      43.940  28.307  26.873  1.00  0.00    -0.203 F 
ATOM     47  F   UNL A   1      42.391  23.113  26.270  1.00  0.00    -0.200 F 
ATOM     48  C   UNL A   1      43.607  24.980  25.491  1.00  0.00     0.200 A 
ATOM     49  F   UNL A   1      44.842  26.861  24.778  1.00  0.00    -0.200 F 
ATOM     50  F   UNL A   1      44.112  24.249  24.487  1.00  0.00    -0.200 F 
ENDBRANCH  26  40
BRANCH  27  51
ATOM     51  C   UNL A   1      39.294  32.025  35.454  1.00  0.00     0.064 A 
ATOM     52  C   UNL A   1      38.475  31.491  36.457  1.00  0.00     0.173 A 
ATOM     53  C   UNL A   1      39.649  33.380  35.560  1.00  0.00     0.173 A 
ATOM     54  F   UNL A   1      38.092  30.208  36.397  1.00  0.00    -0.203 F 
ATOM     55  C   UNL A   1      38.018  32.282  37.512  1.00  0.00     0.198 A 
ATOM     56  C   UNL A   1      39.218  34.161  36.631  1.00  0.00     0.198 A 
ATOM     57  F   UNL A   1      40.430  33.947  34.628  1.00  0.00    -0.203 F 
ATOM     58  F   UNL A   1      37.201  31.755  38.435  1.00  0.00    -0.200 F 
ATOM     59  C   UNL A   1      38.396  33.613  37.602  1.00  0.00     0.200 A 
ATOM     60  F   UNL A   1      39.601  35.441  36.721  1.00  0.00    -0.200 F 
ATOM     61  F   UNL A   1      37.962  34.369  38.619  1.00  0.00    -0.200 F 
ENDBRANCH  27  51
BRANCH  39  62
ATOM     62  C   UNL A   1      44.668  27.672  34.491  1.00  0.00     0.064 A 
ATOM     63  C   UNL A   1      44.595  26.524  35.290  1.00  0.00     0.173 A 
ATOM     64  C   UNL A   1      45.856  28.419  34.510  1.00  0.00     0.173 A 
ATOM     65  F   UNL A   1      43.472  25.789  35.316  1.00  0.00    -0.203 F 
ATOM     66  C   UNL A   1      45.661  26.154  36.102  1.00  0.00     0.198 A 
ATOM     67  C   UNL A   1      46.934  28.024  35.293  1.00  0.00     0.198 A 
ATOM     68  F   UNL A   1      45.974  29.521  33.754  1.00  0.00    -0.203 F 
ATOM     69  F   UNL A   1      45.552  25.084  36.902  1.00  0.00    -0.200 F 
ATOM     70  C   UNL A   1      46.833  26.898  36.095  1.00  0.00     0.200 A 
ATOM     71  F   UNL A   1      48.071  28.732  35.269  1.00  0.00    -0.200 F 
ATOM     72  F   UNL A   1      47.864  26.532  36.867  1.00  0.00    -0.200 F 
ENDBRANCH  39  62
ENDBRANCH  13  14
ENDBRANCH   6   8
ENDBRANCH   5   6
ENDBRANCH   4   5
ENDBRANCH   3   4
ENDBRANCH   2   3
ENDBRANCH   1   2
BRANCH   1  73
ATOM     73  C   UNL A   1      31.011  28.417  22.110  1.00  0.00     0.261 C 
BRANCH  73  74
ATOM     74  O   UNL A   1      31.082  27.020  21.799  1.00  0.00    -0.460 OA
BRANCH  74  75
ATOM     75  C   UNL A   1      32.299  26.455  22.017  1.00  0.00     0.342 C 
ATOM     76  O   UNL A   1      33.251  26.465  21.261  1.00  0.00    -0.246 OA
BRANCH  75  77
ATOM     77  C   UNL A   1      32.337  25.854  23.370  1.00  0.00     0.102 A 
ATOM     78  C   UNL A   1      33.140  26.494  24.329  1.00  0.00     0.019 A 
ATOM     79  C   UNL A   1      31.719  24.646  23.689  1.00  0.00     0.138 A 
ATOM     80  C   UNL A   1      33.412  25.877  25.550  1.00  0.00     0.002 A 
ATOM     81  C   UNL A   1      32.150  23.959  24.815  1.00  0.00     0.037 A 
ATOM     82  C   UNL A   1      32.980  24.569  25.759  1.00  0.00     0.014 A 
BRANCH  79  83
ATOM     83  O   UNL A   1      30.773  24.035  22.915  1.00  0.00    -0.506 OA
ATOM     84  H   UNL A   1      29.885  23.985  23.212  1.00  0.00     0.293 HD
ENDBRANCH  79  83
BRANCH  81  85
ATOM     85  C   UNL A   1      32.087  22.491  24.691  1.00  0.00     0.145 C 
ATOM     86  N   UNL A   1      32.068  21.793  25.779  1.00  0.00    -0.181 NA
BRANCH  86  87
ATOM     87  N   UNL A   1      32.282  20.456  25.692  1.00  0.00    -0.254 N 
ATOM     88  H   UNL A   1      31.566  19.904  26.083  1.00  0.00     0.193 HD
BRANCH  87  89
ATOM     89  C   UNL A   1      33.306  19.747  25.161  1.00  0.00     0.191 C 
ATOM     90  S   UNL A   1      32.922  18.319  24.362  1.00  0.00    -0.039 S 
BRANCH  89  91
ATOM     91  N   UNL A   1      34.609  20.101  25.190  1.00  0.00    -0.331 N 
ATOM     92  H   UNL A   1      35.214  19.342  25.354  1.00  0.00     0.169 HD
BRANCH  91  93
ATOM     93  C   UNL A   1      35.287  21.326  25.036  1.00  0.00     0.040 A 
ATOM     94  C   UNL A   1      35.786  21.921  26.207  1.00  0.00     0.026 A 
ATOM     95  C   UNL A   1      35.430  22.002  23.826  1.00  0.00     0.026 A 
ATOM     96  C   UNL A   1      36.465  23.143  26.161  1.00  0.00     0.002 A 
ATOM     97  C   UNL A   1      36.105  23.229  23.779  1.00  0.00     0.002 A 
ATOM     98  C   UNL A   1      36.622  23.797  24.943  1.00  0.00     0.000 A 
ENDBRANCH  91  93
ENDBRANCH  89  91
ENDBRANCH  87  89
ENDBRANCH  86  87
ENDBRANCH  81  85
ENDBRANCH  75  77
ENDBRANCH  74  75
ENDBRANCH  73  74
ENDBRANCH   1  73
TORSDOF 20
ENDMDL
MODEL 2
REMARK VINA RESULT:     -11.0      1.125      2.374
REMARK SMILES O=C(OCCOCCOC(=O)c1cccc(/C=N/NC(=S)Nc2ccccc2)c1O)c1ccc(-c2c3nc(c(-c4c(F)c(F)c(F)c(F)c4F)c4ccc([nH]4)c(-c4c(F)c(F)c(F)c(F)c4F)c4nc(c(-c5c(F)c(F)c(F)c(F)c5F)c5ccc2[nH]5)C=C4)C=C3)cc1
REMARK SMILES IDX 7 1 6 2 5 3 4 4 3 5 2 6 1 7 31 8 32 9 93 10 33 11 92 12
REMARK SMILES IDX 34 13 35 14 36 15 86 16 37 17 91 18 85 19 87 20 38 21 90 22
REMARK SMILES IDX 84 23 83 24 39 26 71 27 51 28 70 29 52 30 55 31 69 32 88 33
REMARK SMILES IDX 53 34 54 35 68 37 89 38 56 39 40 40 41 41 49 42 42 43 43 44
REMARK SMILES IDX 47 45 50 46 44 47 45 48 48 49 46 50 72 51 73 52 81 53 74 54
REMARK SMILES IDX 75 55 79 56 82 57 76 58 77 59 80 60 78 61 57 62 58 63 66 64
REMARK SMILES IDX 59 65 60 66 64 67 67 68 61 69 62 70 65 71 63 72 8 73 9 74
REMARK SMILES IDX 10 75 11 76 12 77 13 78 29 79 14 80 16 81 15 82 30 83 17 85
REMARK SMILES IDX 18 86 19 87 20 89 21 90 22 91 23 93 24 94 28 95 25 96 27 97
REMARK SMILES IDX 26 98
REMARK H PARENT 87 25 55 36 30 84 19 88 22 92
REMARK Flexibility Score: inf
ROOT
ATOM      1  C   UNL A   1      29.931  29.824  22.876  1.00  0.00     0.202 C 
ENDROOT
BRANCH   1   2
ATOM      2  O   UNL A   1      30.220  30.080  24.253  1.00  0.00    -0.374 OA
BRANCH   2   3
ATOM      3  C   UNL A   1      31.506  29.678  24.727  1.00  0.00     0.202 C 
BRANCH   3   4
ATOM      4  C   UNL A   1      31.819  30.151  26.147  1.00  0.00     0.261 C 
BRANCH   4   5
ATOM      5  O   UNL A   1      33.184  30.603  26.227  1.00  0.00    -0.460 OA
BRANCH   5   6
ATOM      6  C   UNL A   1      33.750  31.367  27.190  1.00  0.00     0.338 C 
ATOM      7  O   UNL A   1      33.223  32.430  27.508  1.00  0.00    -0.246 OA
BRANCH   6   8
ATOM      8  C   UNL A   1      34.977  30.952  27.919  1.00  0.00     0.060 A 
ATOM      9  C   UNL A   1      35.204  29.658  28.382  1.00  0.00     0.016 A 
ATOM     10  C   UNL A   1      35.996  31.901  28.079  1.00  0.00     0.016 A 
ATOM     11  C   UNL A   1      36.356  29.308  29.044  1.00  0.00     0.010 A 
ATOM     12  C   UNL A   1      37.188  31.554  28.721  1.00  0.00     0.010 A 
ATOM     13  C   UNL A   1      37.351  30.255  29.218  1.00  0.00    -0.014 A 
BRANCH  13  14
ATOM     14  C   UNL A   1      38.457  29.857  30.093  1.00  0.00     0.031 A 
ATOM     15  C   UNL A   1      39.540  29.025  29.492  1.00  0.00     0.074 A 
ATOM     16  C   UNL A   1      38.569  30.426  31.304  1.00  0.00     0.049 A 
ATOM     17  N   UNL A   1      40.602  28.517  30.050  1.00  0.00    -0.248 NA
ATOM     18  C   UNL A   1      39.418  28.739  28.051  1.00  0.00     0.031 C 
ATOM     19  C   UNL A   1      37.638  31.415  31.861  1.00  0.00     0.029 A 
ATOM     20  N   UNL A   1      39.534  30.302  32.262  1.00  0.00    -0.354 N 
ATOM     21  C   UNL A   1      41.242  27.805  29.046  1.00  0.00     0.074 A 
ATOM     22  C   UNL A   1      40.461  27.954  27.841  1.00  0.00     0.031 C 
ATOM     23  C   UNL A   1      38.098  31.828  33.052  1.00  0.00     0.029 A 
ATOM     24  C   UNL A   1      39.297  31.066  33.377  1.00  0.00     0.049 A 
ATOM     25  H   UNL A   1      40.322  29.721  32.162  1.00  0.00     0.167 HD
ATOM     26  C   UNL A   1      42.374  27.075  29.151  1.00  0.00     0.037 A 
ATOM     27  C   UNL A   1      39.964  31.097  34.542  1.00  0.00     0.037 A 
ATOM     28  C   UNL A   1      43.115  26.975  30.378  1.00  0.00     0.049 A 
ATOM     29  C   UNL A   1      41.155  30.186  34.672  1.00  0.00     0.074 A 
ATOM     30  C   UNL A   1      44.231  26.216  30.662  1.00  0.00     0.029 A 
ATOM     31  N   UNL A   1      42.793  27.674  31.539  1.00  0.00    -0.354 N 
ATOM     32  N   UNL A   1      41.704  29.410  33.765  1.00  0.00    -0.248 NA
ATOM     33  C   UNL A   1      41.804  30.135  35.984  1.00  0.00     0.031 C 
ATOM     34  C   UNL A   1      44.550  26.411  32.012  1.00  0.00     0.029 A 
ATOM     35  C   UNL A   1      43.677  27.347  32.550  1.00  0.00     0.049 A 
ATOM     36  H   UNL A   1      42.045  28.307  31.627  1.00  0.00     0.167 HD
ATOM     37  C   UNL A   1      42.781  28.797  34.385  1.00  0.00     0.074 A 
ATOM     38  C   UNL A   1      42.811  29.305  35.745  1.00  0.00     0.031 C 
ATOM     39  C   UNL A   1      43.667  27.898  33.885  1.00  0.00     0.037 A 
BRANCH  26  40
ATOM     40  C   UNL A   1      42.768  26.262  27.952  1.00  0.00     0.064 A 
ATOM     41  C   UNL A   1      43.676  26.727  26.989  1.00  0.00     0.173 A 
ATOM     42  C   UNL A   1      42.146  25.026  27.718  1.00  0.00     0.173 A 
ATOM     43  F   UNL A   1      44.273  27.919  27.141  1.00  0.00    -0.203 F 
ATOM     44  C   UNL A   1      43.907  26.010  25.815  1.00  0.00     0.198 A 
ATOM     45  C   UNL A   1      42.404  24.296  26.562  1.00  0.00     0.198 A 
ATOM     46  F   UNL A   1      41.259  24.538  28.599  1.00  0.00    -0.203 F 
ATOM     47  F   UNL A   1      44.707  26.517  24.867  1.00  0.00    -0.200 F 
ATOM     48  C   UNL A   1      43.272  24.795  25.603  1.00  0.00     0.200 A 
ATOM     49  F   UNL A   1      41.789  23.122  26.362  1.00  0.00    -0.200 F 
ATOM     50  F   UNL A   1      43.477  24.118  24.465  1.00  0.00    -0.200 F 
ENDBRANCH  26  40
BRANCH  27  51
ATOM     51  C   UNL A   1      39.495  31.957  35.661  1.00  0.00     0.064 A 
ATOM     52  C   UNL A   1      40.001  33.250  35.844  1.00  0.00     0.173 A 
ATOM     53  C   UNL A   1      38.525  31.507  36.571  1.00  0.00     0.173 A 
ATOM     54  F   UNL A   1      40.942  33.726  35.015  1.00  0.00    -0.203 F 
ATOM     55  C   UNL A   1      39.568  34.052  36.901  1.00  0.00     0.198 A 
ATOM     56  C   UNL A   1      38.069  32.319  37.607  1.00  0.00     0.198 A 
ATOM     57  F   UNL A   1      38.004  30.277  36.446  1.00  0.00    -0.203 F 
ATOM     58  F   UNL A   1      40.101  35.269  37.078  1.00  0.00    -0.200 F 
ATOM     59  C   UNL A   1      38.597  33.588  37.777  1.00  0.00     0.200 A 
ATOM     60  F   UNL A   1      37.119  31.872  38.439  1.00  0.00    -0.200 F 
ATOM     61  F   UNL A   1      38.178  34.362  38.787  1.00  0.00    -0.200 F 
ENDBRANCH  27  51
BRANCH  39  62
ATOM     62  C   UNL A   1      44.772  27.467  34.801  1.00  0.00     0.064 A 
ATOM     63  C   UNL A   1      44.665  26.324  35.605  1.00  0.00     0.173 A 
ATOM     64  C   UNL A   1      45.974  28.191  34.832  1.00  0.00     0.173 A 
ATOM     65  F   UNL A   1      43.529  25.612  35.620  1.00  0.00    -0.203 F 
ATOM     66  C   UNL A   1      45.714  25.938  36.432  1.00  0.00     0.198 A 
ATOM     67  C   UNL A   1      47.033  27.779  35.630  1.00  0.00     0.198 A 
ATOM     68  F   UNL A   1      46.124  29.286  34.072  1.00  0.00    -0.203 F 
ATOM     69  F   UNL A   1      45.574  24.875  37.235  1.00  0.00    -0.200 F 
ATOM     70  C   UNL A   1      46.900  26.659  36.437  1.00  0.00     0.200 A 
ATOM     71  F   UNL A   1      48.185  28.464  35.618  1.00  0.00    -0.200 F 
ATOM     72  F   UNL A   1      47.914  26.276  37.223  1.00  0.00    -0.200 F 
ENDBRANCH  39  62
ENDBRANCH  13  14
ENDBRANCH   6   8
ENDBRANCH   5   6
ENDBRANCH   4   5
ENDBRANCH   3   4
ENDBRANCH   2   3
ENDBRANCH   1   2
BRANCH   1  73
ATOM     73  C   UNL A   1      30.849  28.713  22.385  1.00  0.00     0.261 C 
BRANCH  73  74
ATOM     74  O   UNL A   1      30.184  27.471  22.652  1.00  0.00    -0.460 OA
BRANCH  74  75
ATOM     75  C   UNL A   1      30.949  26.367  22.443  1.00  0.00     0.342 C 
ATOM     76  O   UNL A   1      31.675  26.155  21.491  1.00  0.00    -0.246 OA
BRANCH  75  77
ATOM     77  C   UNL A   1      30.826  25.445  23.596  1.00  0.00     0.102 A 
ATOM     78  C   UNL A   1      30.262  25.969  24.772  1.00  0.00     0.019 A 
ATOM     79  C   UNL A   1      31.338  24.149  23.599  1.00  0.00     0.138 A 
ATOM     80  C   UNL A   1      30.316  25.247  25.964  1.00  0.00     0.002 A 
ATOM     81  C   UNL A   1      31.560  23.528  24.820  1.00  0.00     0.037 A 
ATOM     82  C   UNL A   1      31.039  24.056  26.004  1.00  0.00     0.014 A 
BRANCH  79  83
ATOM     83  O   UNL A   1      31.732  23.473  22.479  1.00  0.00    -0.506 OA
ATOM     84  H   UNL A   1      31.108  22.971  21.991  1.00  0.00     0.293 HD
ENDBRANCH  79  83
BRANCH  81  85
ATOM     85  C   UNL A   1      32.721  22.620  24.836  1.00  0.00     0.145 C 
ATOM     86  N   UNL A   1      33.834  23.055  24.342  1.00  0.00    -0.181 NA
BRANCH  86  87
ATOM     87  N   UNL A   1      34.826  22.161  24.101  1.00  0.00    -0.254 N 
ATOM     88  H   UNL A   1      35.124  22.127  23.163  1.00  0.00     0.193 HD
BRANCH  87  89
ATOM     89  C   UNL A   1      35.480  21.307  24.925  1.00  0.00     0.191 C 
ATOM     90  S   UNL A   1      36.952  21.818  25.553  1.00  0.00    -0.039 S 
BRANCH  89  91
ATOM     91  N   UNL A   1      35.038  20.090  25.311  1.00  0.00    -0.331 N 
ATOM     92  H   UNL A   1      35.160  19.921  26.273  1.00  0.00     0.169 HD
BRANCH  91  93
ATOM     93  C   UNL A   1      34.440  19.012  24.630  1.00  0.00     0.040 A 
ATOM     94  C   UNL A   1      33.117  19.198  24.194  1.00  0.00     0.026 A 
ATOM     95  C   UNL A   1      35.047  17.775  24.425  1.00  0.00     0.026 A 
ATOM     96  C   UNL A   1      32.432  18.183  23.518  1.00  0.00     0.002 A 
ATOM     97  C   UNL A   1      34.360  16.755  23.752  1.00  0.00     0.002 A 
ATOM     98  C   UNL A   1      33.057  16.959  23.298  1.00  0.00     0.000 A 
ENDBRANCH  91  93
ENDBRANCH  89  91
ENDBRANCH  87  89
ENDBRANCH  86  87
ENDBRANCH  81  85
ENDBRANCH  75  77
ENDBRANCH  74  75
ENDBRANCH  73  74
ENDBRANCH   1  73
TORSDOF 20
ENDMDL
MODEL 3
REMARK VINA RESULT:     -11.0      1.399      7.680
REMARK SMILES O=C(OCCOCCOC(=O)c1cccc(/C=N/NC(=S)Nc2ccccc2)c1O)c1ccc(-c2c3nc(c(-c4c(F)c(F)c(F)c(F)c4F)c4ccc([nH]4)c(-c4c(F)c(F)c(F)c(F)c4F)c4nc(c(-c5c(F)c(F)c(F)c(F)c5F)c5ccc2[nH]5)C=C4)C=C3)cc1
REMARK SMILES IDX 7 1 6 2 5 3 4 4 3 5 2 6 1 7 31 8 32 9 93 10 33 11 92 12
REMARK SMILES IDX 34 13 35 14 36 15 86 16 37 17 91 18 85 19 87 20 38 21 90 22
REMARK SMILES IDX 84 23 83 24 39 26 71 27 51 28 70 29 52 30 55 31 69 32 88 33
REMARK SMILES IDX 53 34 54 35 68 37 89 38 56 39 40 40 41 41 49 42 42 43 43 44
REMARK SMILES IDX 47 45 50 46 44 47 45 48 48 49 46 50 72 51 73 52 81 53 74 54
REMARK SMILES IDX 75 55 79 56 82 57 76 58 77 59 80 60 78 61 57 62 58 63 66 64
REMARK SMILES IDX 59 65 60 66 64 67 67 68 61 69 62 70 65 71 63 72 8 73 9 74
REMARK SMILES IDX 10 75 11 76 12 77 13 78 29 79 14 80 16 81 15 82 30 83 17 85
REMARK SMILES IDX 18 86 19 87 20 89 21 90 22 91 23 93 24 94 28 95 25 96 27 97
REMARK SMILES IDX 26 98
REMARK H PARENT 87 25 55 36 30 84 19 88 22 92
REMARK Flexibility Score: inf
ROOT
ATOM      1  C   UNL A   1      32.924  29.608  26.056  1.00  0.00     0.202 C 
ENDROOT
BRANCH   1   2
ATOM      2  O   UNL A   1      31.600  29.946  25.631  1.00  0.00    -0.374 OA
BRANCH   2   3
ATOM      3  C   UNL A   1      31.213  31.315  25.760  1.00  0.00     0.202 C 
BRANCH   3   4
ATOM      4  C   UNL A   1      31.532  31.923  27.126  1.00  0.00     0.261 C 
BRANCH   4   5
ATOM      5  O   UNL A   1      32.528  32.954  26.987  1.00  0.00    -0.460 OA
BRANCH   5   6
ATOM      6  C   UNL A   1      33.284  33.515  27.958  1.00  0.00     0.338 C 
ATOM      7  O   UNL A   1      32.936  34.582  28.457  1.00  0.00    -0.246 OA
BRANCH   6   8
ATOM      8  C   UNL A   1      34.515  32.868  28.486  1.00  0.00     0.060 A 
ATOM      9  C   UNL A   1      34.584  31.530  28.868  1.00  0.00     0.016 A 
ATOM     10  C   UNL A   1      35.690  33.630  28.525  1.00  0.00     0.016 A 
ATOM     11  C   UNL A   1      35.742  30.962  29.342  1.00  0.00     0.010 A 
ATOM     12  C   UNL A   1      36.884  33.060  28.974  1.00  0.00     0.010 A 
ATOM     13  C   UNL A   1      36.897  31.726  29.399  1.00  0.00    -0.014 A 
BRANCH  13  14
ATOM     14  C   UNL A   1      38.031  31.107  30.089  1.00  0.00     0.031 A 
ATOM     15  C   UNL A   1      38.153  31.347  31.557  1.00  0.00     0.074 A 
ATOM     16  C   UNL A   1      38.768  30.190  29.441  1.00  0.00     0.049 A 
ATOM     17  N   UNL A   1      39.072  30.947  32.389  1.00  0.00    -0.248 NA
ATOM     18  C   UNL A   1      37.075  32.137  32.180  1.00  0.00     0.031 C 
ATOM     19  C   UNL A   1      38.555  29.763  28.054  1.00  0.00     0.029 A 
ATOM     20  N   UNL A   1      39.804  29.414  29.873  1.00  0.00    -0.354 N 
ATOM     21  C   UNL A   1      38.715  31.483  33.618  1.00  0.00     0.074 A 
ATOM     22  C   UNL A   1      37.492  32.226  33.431  1.00  0.00     0.031 C 
ATOM     23  C   UNL A   1      39.417  28.778  27.761  1.00  0.00     0.029 A 
ATOM     24  C   UNL A   1      40.298  28.576  28.904  1.00  0.00     0.049 A 
ATOM     25  H   UNL A   1      40.163  29.451  30.789  1.00  0.00     0.167 HD
ATOM     26  C   UNL A   1      39.383  31.371  34.787  1.00  0.00     0.037 A 
ATOM     27  C   UNL A   1      41.375  27.774  28.944  1.00  0.00     0.037 A 
ATOM     28  C   UNL A   1      40.593  30.606  34.913  1.00  0.00     0.049 A 
ATOM     29  C   UNL A   1      42.168  27.757  30.222  1.00  0.00     0.074 A 
ATOM     30  C   UNL A   1      41.423  30.461  36.005  1.00  0.00     0.029 A 
ATOM     31  N   UNL A   1      41.144  29.849  33.882  1.00  0.00    -0.354 N 
ATOM     32  N   UNL A   1      41.910  28.358  31.362  1.00  0.00    -0.248 NA
ATOM     33  C   UNL A   1      43.407  26.976  30.218  1.00  0.00     0.031 C 
ATOM     34  C   UNL A   1      42.507  29.663  35.617  1.00  0.00     0.029 A 
ATOM     35  C   UNL A   1      42.316  29.250  34.305  1.00  0.00     0.049 A 
ATOM     36  H   UNL A   1      40.755  29.753  32.982  1.00  0.00     0.167 HD
ATOM     37  C   UNL A   1      42.937  28.007  32.223  1.00  0.00     0.074 A 
ATOM     38  C   UNL A   1      43.817  27.129  31.470  1.00  0.00     0.031 C 
ATOM     39  C   UNL A   1      43.144  28.371  33.514  1.00  0.00     0.037 A 
BRANCH  26  40
ATOM     40  C   UNL A   1      38.874  32.188  35.938  1.00  0.00     0.064 A 
ATOM     41  C   UNL A   1      39.228  33.533  36.126  1.00  0.00     0.173 A 
ATOM     42  C   UNL A   1      38.087  31.578  36.927  1.00  0.00     0.173 A 
ATOM     43  F   UNL A   1      40.010  34.158  35.232  1.00  0.00    -0.203 F 
ATOM     44  C   UNL A   1      38.857  34.218  37.283  1.00  0.00     0.198 A 
ATOM     45  C   UNL A   1      37.689  32.275  38.064  1.00  0.00     0.198 A 
ATOM     46  F   UNL A   1      37.730  30.290  36.807  1.00  0.00    -0.203 F 
ATOM     47  F   UNL A   1      39.284  35.473  37.483  1.00  0.00    -0.200 F 
ATOM     48  C   UNL A   1      38.088  33.589  38.250  1.00  0.00     0.200 A 
ATOM     49  F   UNL A   1      36.945  31.663  38.996  1.00  0.00    -0.200 F 
ATOM     50  F   UNL A   1      37.751  34.242  39.370  1.00  0.00    -0.200 F 
ENDBRANCH  26  40
BRANCH  27  51
ATOM     51  C   UNL A   1      41.780  26.991  27.746  1.00  0.00     0.064 A 
ATOM     52  C   UNL A   1      42.633  27.535  26.777  1.00  0.00     0.173 A 
ATOM     53  C   UNL A   1      41.324  25.679  27.542  1.00  0.00     0.173 A 
ATOM     54  F   UNL A   1      43.086  28.790  26.912  1.00  0.00    -0.203 F 
ATOM     55  C   UNL A   1      43.003  26.804  25.647  1.00  0.00     0.198 A 
ATOM     56  C   UNL A   1      41.718  24.937  26.431  1.00  0.00     0.198 A 
ATOM     57  F   UNL A   1      40.502  25.106  28.435  1.00  0.00    -0.203 F 
ATOM     58  F   UNL A   1      43.787  27.364  24.717  1.00  0.00    -0.200 F 
ATOM     59  C   UNL A   1      42.551  25.503  25.480  1.00  0.00     0.200 A 
ATOM     60  F   UNL A   1      41.292  23.676  26.283  1.00  0.00    -0.200 F 
ATOM     61  F   UNL A   1      42.911  24.800  24.398  1.00  0.00    -0.200 F 
ENDBRANCH  27  51
BRANCH  39  62
ATOM     62  C   UNL A   1      44.330  27.763  34.200  1.00  0.00     0.064 A 
ATOM     63  C   UNL A   1      45.574  28.407  34.238  1.00  0.00     0.173 A 
ATOM     64  C   UNL A   1      44.196  26.537  34.867  1.00  0.00     0.173 A 
ATOM     65  F   UNL A   1      45.752  29.573  33.599  1.00  0.00    -0.203 F 
ATOM     66  C   UNL A   1      46.653  27.828  34.898  1.00  0.00     0.198 A 
ATOM     67  C   UNL A   1      45.265  25.981  35.558  1.00  0.00     0.198 A 
ATOM     68  F   UNL A   1      43.020  25.889  34.864  1.00  0.00    -0.203 F 
ATOM     69  F   UNL A   1      47.849  28.430  34.877  1.00  0.00    -0.200 F 
ATOM     70  C   UNL A   1      46.495  26.621  35.565  1.00  0.00     0.200 A 
ATOM     71  F   UNL A   1      45.106  24.826  36.219  1.00  0.00    -0.200 F 
ATOM     72  F   UNL A   1      47.532  26.072  36.212  1.00  0.00    -0.200 F 
ENDBRANCH  39  62
ENDBRANCH  13  14
ENDBRANCH   6   8
ENDBRANCH   5   6
ENDBRANCH   4   5
ENDBRANCH   3   4
ENDBRANCH   2   3
ENDBRANCH   1   2
BRANCH   1  73
ATOM     73  C   UNL A   1      33.537  28.664  25.031  1.00  0.00     0.261 C 
BRANCH  73  74
ATOM     74  O   UNL A   1      32.628  28.598  23.925  1.00  0.00    -0.460 OA
BRANCH  74  75
ATOM     75  C   UNL A   1      33.008  27.747  22.935  1.00  0.00     0.342 C 
ATOM     76  O   UNL A   1      33.868  27.942  22.099  1.00  0.00    -0.246 OA
BRANCH  75  77
ATOM     77  C   UNL A   1      32.250  26.479  23.046  1.00  0.00     0.102 A 
ATOM     78  C   UNL A   1      30.873  26.581  23.304  1.00  0.00     0.019 A 
ATOM     79  C   UNL A   1      32.853  25.222  23.021  1.00  0.00     0.138 A 
ATOM     80  C   UNL A   1      30.132  25.449  23.646  1.00  0.00     0.002 A 
ATOM     81  C   UNL A   1      32.156  24.144  23.549  1.00  0.00     0.037 A 
ATOM     82  C   UNL A   1      30.794  24.240  23.847  1.00  0.00     0.014 A 
BRANCH  79  83
ATOM     83  O   UNL A   1      34.130  24.987  22.597  1.00  0.00    -0.506 OA
ATOM     84  H   UNL A   1      34.281  24.604  21.755  1.00  0.00     0.293 HD
ENDBRANCH  79  83
BRANCH  81  85
ATOM     85  C   UNL A   1      33.008  23.130  24.196  1.00  0.00     0.145 C 
ATOM     86  N   UNL A   1      33.423  23.367  25.398  1.00  0.00    -0.181 NA
BRANCH  86  87
ATOM     87  N   UNL A   1      34.413  22.590  25.904  1.00  0.00    -0.254 N 
ATOM     88  H   UNL A   1      34.753  22.884  26.780  1.00  0.00     0.193 HD
BRANCH  87  89
ATOM     89  C   UNL A   1      35.017  21.480  25.416  1.00  0.00     0.191 C 
ATOM     90  S   UNL A   1      36.470  21.689  24.599  1.00  0.00    -0.039 S 
BRANCH  89  91
ATOM     91  N   UNL A   1      34.568  20.213  25.554  1.00  0.00    -0.331 N 
ATOM     92  H   UNL A   1      34.663  19.867  26.471  1.00  0.00     0.169 HD
BRANCH  91  93
ATOM     93  C   UNL A   1      33.994  19.283  24.666  1.00  0.00     0.040 A 
ATOM     94  C   UNL A   1      34.725  18.106  24.428  1.00  0.00     0.026 A 
ATOM     95  C   UNL A   1      32.803  19.486  23.973  1.00  0.00     0.026 A 
ATOM     96  C   UNL A   1      34.245  17.125  23.554  1.00  0.00     0.002 A 
ATOM     97  C   UNL A   1      32.324  18.506  23.093  1.00  0.00     0.002 A 
ATOM     98  C   UNL A   1      33.042  17.329  22.885  1.00  0.00     0.000 A 
ENDBRANCH  91  93
ENDBRANCH  89  91
ENDBRANCH  87  89
ENDBRANCH  86  87
ENDBRANCH  81  85
ENDBRANCH  75  77
ENDBRANCH  74  75
ENDBRANCH  73  74
ENDBRANCH   1  73
TORSDOF 20
ENDMDL
