MODEL 1
REMARK VINA RESULT:     -10.6      0.000      0.000
REMARK SMILES CC(C)C[C@@H](NC(=O)Cn1nc(O)ccc1=O)C(=O)OCCOCCOC(=O)c1ccc(-c2c3nc(c(-c4c(F)c(F)c(F)c(F)c4F)c4ccc([nH]4)c(-c4c(F)c(F)c(F)c(F)c4F)c4nc(c(-c5c(F)c(F)c(F)c(F)c5F)c5ccc2[nH]5)C=C4)C=C3)cc1
REMARK SMILES IDX 22 1 21 2 20 3 18 4 19 5 5 6 4 7 2 8 1 9 3 10 6 11 7 12 8 14
REMARK SMILES IDX 9 15 10 16 11 17 16 18 12 19 15 20 17 21 14 22 13 23 23 25
REMARK SMILES IDX 24 26 25 27 26 28 27 29 28 30 29 31 30 32 91 33 31 34 90 35
REMARK SMILES IDX 32 36 33 37 34 38 84 39 35 40 89 41 83 42 85 43 36 44 88 45
REMARK SMILES IDX 82 46 81 47 37 49 69 50 49 51 68 52 50 53 53 54 67 55 86 56
REMARK SMILES IDX 51 57 52 58 66 60 87 61 54 62 38 63 39 64 47 65 40 66 41 67
REMARK SMILES IDX 45 68 48 69 42 70 43 71 46 72 44 73 70 74 71 75 79 76 72 77
REMARK SMILES IDX 73 78 77 79 80 80 74 81 75 82 78 83 76 84 55 85 56 86 64 87
REMARK SMILES IDX 57 88 58 89 62 90 65 91 59 92 60 93 63 94 61 95
REMARK H PARENT 6 13 13 24 85 48 53 59
REMARK Flexibility Score: inf
ROOT
ATOM      1  C   UNL A   1      33.030  35.822  30.385  1.00  0.00     0.202 C 
ENDROOT
BRANCH   1   2
ATOM      2  C   UNL A   1      32.922  34.972  29.095  1.00  0.00     0.261 C 
BRANCH   2   3
ATOM      3  O   UNL A   1      33.591  33.686  29.103  1.00  0.00    -0.462 OA
BRANCH   3   4
ATOM      4  C   UNL A   1      34.388  33.324  28.075  1.00  0.00     0.328 C 
ATOM      5  O   UNL A   1      34.986  34.121  27.359  1.00  0.00    -0.250 OA
BRANCH   4   6
ATOM      6  C   UNL A   1      34.613  31.783  27.970  1.00  0.00     0.192 C 
BRANCH   6   7
ATOM      7  C   UNL A   1      35.762  31.296  28.894  1.00  0.00     0.040 C 
BRANCH   7   8
ATOM      8  C   UNL A   1      36.145  29.801  28.821  1.00  0.00    -0.015 C 
ATOM      9  C   UNL A   1      37.363  29.550  27.935  1.00  0.00     0.007 C 
ATOM     10  C   UNL A   1      36.446  29.281  30.237  1.00  0.00     0.007 C 
ENDBRANCH   7   8
ENDBRANCH   6   7
BRANCH   6  11
ATOM     11  N   UNL A   1      33.495  30.812  27.941  1.00  0.00    -0.341 N 
ATOM     12  C   UNL A   1      33.039  29.832  27.119  1.00  0.00     0.242 C 
ATOM     13  H   UNL A   1      32.925  30.903  28.738  1.00  0.00     0.164 HD
ATOM     14  O   UNL A   1      31.831  29.578  27.232  1.00  0.00    -0.273 OA
BRANCH  12  15
ATOM     15  C   UNL A   1      33.890  29.031  26.140  1.00  0.00     0.248 C 
BRANCH  15  16
ATOM     16  N   UNL A   1      33.146  28.462  25.026  1.00  0.00    -0.217 N 
ATOM     17  N   UNL A   1      32.770  29.316  23.999  1.00  0.00    -0.131 NA
ATOM     18  C   UNL A   1      32.784  27.133  25.059  1.00  0.00     0.267 A 
ATOM     19  C   UNL A   1      32.108  28.769  23.043  1.00  0.00     0.229 A 
ATOM     20  C   UNL A   1      32.077  26.593  23.897  1.00  0.00     0.079 A 
ATOM     21  O   UNL A   1      33.018  26.352  25.969  1.00  0.00    -0.268 OA
ATOM     22  C   UNL A   1      31.705  27.383  22.896  1.00  0.00     0.075 A 
BRANCH  19  23
ATOM     23  O   UNL A   1      31.697  29.496  22.003  1.00  0.00    -0.492 OA
ATOM     24  H   UNL A   1      32.077  30.336  21.840  1.00  0.00     0.295 HD
ENDBRANCH  19  23
ENDBRANCH  15  16
ENDBRANCH  12  15
ENDBRANCH   6  11
ENDBRANCH   4   6
ENDBRANCH   3   4
ENDBRANCH   2   3
ENDBRANCH   1   2
BRANCH   1  25
ATOM     25  O   UNL A   1      32.958  35.081  31.604  1.00  0.00    -0.374 OA
BRANCH  25  26
ATOM     26  C   UNL A   1      34.219  34.795  32.205  1.00  0.00     0.202 C 
BRANCH  26  27
ATOM     27  C   UNL A   1      34.277  33.454  32.938  1.00  0.00     0.261 C 
BRANCH  27  28
ATOM     28  O   UNL A   1      35.348  32.618  32.457  1.00  0.00    -0.460 OA
BRANCH  28  29
ATOM     29  C   UNL A   1      36.424  32.500  33.272  1.00  0.00     0.338 C 
ATOM     30  O   UNL A   1      36.481  32.700  34.469  1.00  0.00    -0.246 OA
BRANCH  29  31
ATOM     31  C   UNL A   1      37.565  31.995  32.475  1.00  0.00     0.060 A 
ATOM     32  C   UNL A   1      37.836  32.499  31.202  1.00  0.00     0.016 A 
ATOM     33  C   UNL A   1      38.377  30.992  33.013  1.00  0.00     0.016 A 
ATOM     34  C   UNL A   1      38.873  31.942  30.444  1.00  0.00     0.010 A 
ATOM     35  C   UNL A   1      39.445  30.469  32.268  1.00  0.00     0.010 A 
ATOM     36  C   UNL A   1      39.699  30.921  30.964  1.00  0.00    -0.014 A 
BRANCH  36  37
ATOM     37  C   UNL A   1      40.867  30.425  30.170  1.00  0.00     0.031 A 
ATOM     38  C   UNL A   1      40.958  29.018  29.628  1.00  0.00     0.074 A 
ATOM     39  C   UNL A   1      41.880  31.278  29.914  1.00  0.00     0.049 A 
ATOM     40  N   UNL A   1      41.878  28.494  28.850  1.00  0.00    -0.248 NA
ATOM     41  C   UNL A   1      39.891  28.079  29.997  1.00  0.00     0.031 C 
ATOM     42  C   UNL A   1      41.949  32.658  30.394  1.00  0.00     0.029 A 
ATOM     43  N   UNL A   1      43.032  31.122  29.183  1.00  0.00    -0.354 N 
ATOM     44  C   UNL A   1      41.488  27.180  28.614  1.00  0.00     0.074 A 
ATOM     45  C   UNL A   1      40.268  26.973  29.368  1.00  0.00     0.031 C 
ATOM     46  C   UNL A   1      43.051  33.239  29.901  1.00  0.00     0.029 A 
ATOM     47  C   UNL A   1      43.808  32.255  29.132  1.00  0.00     0.049 A 
ATOM     48  H   UNL A   1      43.279  30.279  28.737  1.00  0.00     0.167 HD
ATOM     49  C   UNL A   1      42.083  26.238  27.840  1.00  0.00     0.037 A 
ATOM     50  C   UNL A   1      45.002  32.488  28.556  1.00  0.00     0.037 A 
ATOM     51  C   UNL A   1      43.324  26.419  27.122  1.00  0.00     0.049 A 
ATOM     52  C   UNL A   1      45.692  31.399  27.789  1.00  0.00     0.074 A 
ATOM     53  C   UNL A   1      43.979  25.521  26.294  1.00  0.00     0.029 A 
ATOM     54  N   UNL A   1      44.117  27.556  27.169  1.00  0.00    -0.354 N 
ATOM     55  N   UNL A   1      45.272  30.188  27.519  1.00  0.00    -0.248 NA
ATOM     56  C   UNL A   1      47.027  31.705  27.255  1.00  0.00     0.031 C 
ATOM     57  C   UNL A   1      45.200  26.082  25.906  1.00  0.00     0.029 A 
ATOM     58  C   UNL A   1      45.277  27.360  26.431  1.00  0.00     0.049 A 
ATOM     59  H   UNL A   1      43.890  28.383  27.656  1.00  0.00     0.167 HD
ATOM     60  C   UNL A   1      46.283  29.591  26.779  1.00  0.00     0.074 A 
ATOM     61  C   UNL A   1      47.328  30.580  26.619  1.00  0.00     0.031 C 
ATOM     62  C   UNL A   1      46.333  28.330  26.284  1.00  0.00     0.037 A 
BRANCH  49  63
ATOM     63  C   UNL A   1      41.417  24.893  27.719  1.00  0.00     0.064 A 
ATOM     64  C   UNL A   1      40.281  24.706  26.917  1.00  0.00     0.173 A 
ATOM     65  C   UNL A   1      41.989  23.758  28.317  1.00  0.00     0.173 A 
ATOM     66  F   UNL A   1      39.687  25.754  26.327  1.00  0.00    -0.203 F 
ATOM     67  C   UNL A   1      39.741  23.436  26.724  1.00  0.00     0.198 A 
ATOM     68  C   UNL A   1      41.460  22.486  28.101  1.00  0.00     0.198 A 
ATOM     69  F   UNL A   1      43.083  23.876  29.084  1.00  0.00    -0.203 F 
ATOM     70  F   UNL A   1      38.643  23.286  25.970  1.00  0.00    -0.200 F 
ATOM     71  C   UNL A   1      40.336  22.327  27.307  1.00  0.00     0.200 A 
ATOM     72  F   UNL A   1      42.050  21.415  28.650  1.00  0.00    -0.200 F 
ATOM     73  F   UNL A   1      39.827  21.104  27.101  1.00  0.00    -0.200 F 
ENDBRANCH  49  63
BRANCH  50  74
ATOM     74  C   UNL A   1      45.612  33.836  28.693  1.00  0.00     0.064 A 
ATOM     75  C   UNL A   1      46.460  34.137  29.765  1.00  0.00     0.173 A 
ATOM     76  C   UNL A   1      45.415  34.823  27.714  1.00  0.00     0.173 A 
ATOM     77  F   UNL A   1      46.660  33.233  30.735  1.00  0.00    -0.203 F 
ATOM     78  C   UNL A   1      47.099  35.372  29.849  1.00  0.00     0.198 A 
ATOM     79  C   UNL A   1      46.081  36.044  27.781  1.00  0.00     0.198 A 
ATOM     80  F   UNL A   1      44.615  34.580  26.667  1.00  0.00    -0.203 F 
ATOM     81  F   UNL A   1      47.892  35.643  30.894  1.00  0.00    -0.200 F 
ATOM     82  C   UNL A   1      46.921  36.318  28.849  1.00  0.00     0.200 A 
ATOM     83  F   UNL A   1      45.925  36.943  26.801  1.00  0.00    -0.200 F 
ATOM     84  F   UNL A   1      47.562  37.492  28.913  1.00  0.00    -0.200 F 
ENDBRANCH  50  74
BRANCH  62  85
ATOM     85  C   UNL A   1      47.565  27.926  25.521  1.00  0.00     0.064 A 
ATOM     86  C   UNL A   1      48.746  27.558  26.184  1.00  0.00     0.173 A 
ATOM     87  C   UNL A   1      47.550  27.847  24.120  1.00  0.00     0.173 A 
ATOM     88  F   UNL A   1      48.821  27.630  27.521  1.00  0.00    -0.203 F 
ATOM     89  C   UNL A   1      49.868  27.137  25.471  1.00  0.00     0.198 A 
ATOM     90  C   UNL A   1      48.663  27.398  23.414  1.00  0.00     0.198 A 
ATOM     91  F   UNL A   1      46.446  28.184  23.436  1.00  0.00    -0.203 F 
ATOM     92  F   UNL A   1      50.995  26.826  26.124  1.00  0.00    -0.200 F 
ATOM     93  C   UNL A   1      49.821  27.048  24.088  1.00  0.00     0.200 A 
ATOM     94  F   UNL A   1      48.611  27.297  22.078  1.00  0.00    -0.200 F 
ATOM     95  F   UNL A   1      50.896  26.628  23.406  1.00  0.00    -0.200 F 
ENDBRANCH  62  85
ENDBRANCH  36  37
ENDBRANCH  29  31
ENDBRANCH  28  29
ENDBRANCH  27  28
ENDBRANCH  26  27
ENDBRANCH  25  26
ENDBRANCH   1  25
TORSDOF 20
ENDMDL
MODEL 2
REMARK VINA RESULT:     -10.4      4.232      9.760
REMARK SMILES CC(C)C[C@@H](NC(=O)Cn1nc(O)ccc1=O)C(=O)OCCOCCOC(=O)c1ccc(-c2c3nc(c(-c4c(F)c(F)c(F)c(F)c4F)c4ccc([nH]4)c(-c4c(F)c(F)c(F)c(F)c4F)c4nc(c(-c5c(F)c(F)c(F)c(F)c5F)c5ccc2[nH]5)C=C4)C=C3)cc1
REMARK SMILES IDX 22 1 21 2 20 3 18 4 19 5 5 6 4 7 2 8 1 9 3 10 6 11 7 12 8 14
REMARK SMILES IDX 9 15 10 16 11 17 16 18 12 19 15 20 17 21 14 22 13 23 23 25
REMARK SMILES IDX 24 26 25 27 26 28 27 29 28 30 29 31 30 32 91 33 31 34 90 35
REMARK SMILES IDX 32 36 33 37 34 38 84 39 35 40 89 41 83 42 85 43 36 44 88 45
REMARK SMILES IDX 82 46 81 47 37 49 69 50 49 51 68 52 50 53 53 54 67 55 86 56
REMARK SMILES IDX 51 57 52 58 66 60 87 61 54 62 38 63 39 64 47 65 40 66 41 67
REMARK SMILES IDX 45 68 48 69 42 70 43 71 46 72 44 73 70 74 71 75 79 76 72 77
REMARK SMILES IDX 73 78 77 79 80 80 74 81 75 82 78 83 76 84 55 85 56 86 64 87
REMARK SMILES IDX 57 88 58 89 62 90 65 91 59 92 60 93 63 94 61 95
REMARK H PARENT 6 13 13 24 85 48 53 59
REMARK Flexibility Score: inf
ROOT
ATOM      1  C   UNL A   1      36.414  21.236  25.250  1.00  0.00     0.202 C 
ENDROOT
BRANCH   1   2
ATOM      2  C   UNL A   1      36.718  22.726  25.544  1.00  0.00     0.261 C 
BRANCH   2   3
ATOM      3  O   UNL A   1      35.657  23.501  26.157  1.00  0.00    -0.462 OA
BRANCH   3   4
ATOM      4  C   UNL A   1      34.769  24.170  25.391  1.00  0.00     0.328 C 
ATOM      5  O   UNL A   1      34.910  24.361  24.187  1.00  0.00    -0.250 OA
BRANCH   4   6
ATOM      6  C   UNL A   1      33.456  24.551  26.143  1.00  0.00     0.192 C 
BRANCH   6   7
ATOM      7  C   UNL A   1      32.915  25.940  25.706  1.00  0.00     0.040 C 
BRANCH   7   8
ATOM      8  C   UNL A   1      33.887  27.138  25.789  1.00  0.00    -0.015 C 
ATOM      9  C   UNL A   1      33.939  27.941  24.493  1.00  0.00     0.007 C 
ATOM     10  C   UNL A   1      33.453  28.069  26.934  1.00  0.00     0.007 C 
ENDBRANCH   7   8
ENDBRANCH   6   7
BRANCH   6  11
ATOM     11  N   UNL A   1      32.353  23.587  26.367  1.00  0.00    -0.341 N 
ATOM     12  C   UNL A   1      31.553  22.789  25.616  1.00  0.00     0.242 C 
ATOM     13  H   UNL A   1      32.144  23.503  27.325  1.00  0.00     0.164 HD
ATOM     14  O   UNL A   1      30.469  22.496  26.141  1.00  0.00    -0.273 OA
BRANCH  12  15
ATOM     15  C   UNL A   1      31.905  22.220  24.245  1.00  0.00     0.248 C 
BRANCH  15  16
ATOM     16  N   UNL A   1      32.151  20.786  24.238  1.00  0.00    -0.217 N 
ATOM     17  N   UNL A   1      32.418  20.170  25.452  1.00  0.00    -0.131 NA
ATOM     18  C   UNL A   1      32.181  20.108  23.038  1.00  0.00     0.267 A 
ATOM     19  C   UNL A   1      32.637  18.906  25.393  1.00  0.00     0.229 A 
ATOM     20  C   UNL A   1      32.386  18.659  23.082  1.00  0.00     0.079 A 
ATOM     21  O   UNL A   1      32.030  20.606  21.933  1.00  0.00    -0.268 OA
ATOM     22  C   UNL A   1      32.641  18.040  24.229  1.00  0.00     0.075 A 
BRANCH  19  23
ATOM     23  O   UNL A   1      32.903  18.213  26.501  1.00  0.00    -0.492 OA
ATOM     24  H   UNL A   1      33.663  17.667  26.541  1.00  0.00     0.295 HD
ENDBRANCH  19  23
ENDBRANCH  15  16
ENDBRANCH  12  15
ENDBRANCH   6  11
ENDBRANCH   4   6
ENDBRANCH   3   4
ENDBRANCH   2   3
ENDBRANCH   1   2
BRANCH   1  25
ATOM     25  O   UNL A   1      37.547  20.455  24.866  1.00  0.00    -0.374 OA
BRANCH  25  26
ATOM     26  C   UNL A   1      38.788  20.887  25.418  1.00  0.00     0.202 C 
BRANCH  26  27
ATOM     27  C   UNL A   1      39.596  19.779  26.096  1.00  0.00     0.261 C 
BRANCH  27  28
ATOM     28  O   UNL A   1      40.778  19.435  25.347  1.00  0.00    -0.460 OA
BRANCH  28  29
ATOM     29  C   UNL A   1      41.931  19.357  26.055  1.00  0.00     0.338 C 
ATOM     30  O   UNL A   1      42.591  18.367  26.301  1.00  0.00    -0.246 OA
BRANCH  29  31
ATOM     31  C   UNL A   1      42.338  20.726  26.445  1.00  0.00     0.060 A 
ATOM     32  C   UNL A   1      42.738  21.660  25.488  1.00  0.00     0.016 A 
ATOM     33  C   UNL A   1      42.326  21.078  27.798  1.00  0.00     0.016 A 
ATOM     34  C   UNL A   1      43.194  22.918  25.899  1.00  0.00     0.010 A 
ATOM     35  C   UNL A   1      42.739  22.357  28.201  1.00  0.00     0.010 A 
ATOM     36  C   UNL A   1      43.198  23.292  27.261  1.00  0.00    -0.014 A 
BRANCH  36  37
ATOM     37  C   UNL A   1      43.588  24.682  27.656  1.00  0.00     0.031 A 
ATOM     38  C   UNL A   1      45.024  25.148  27.724  1.00  0.00     0.074 A 
ATOM     39  C   UNL A   1      42.612  25.564  27.952  1.00  0.00     0.049 A 
ATOM     40  N   UNL A   1      45.486  26.354  27.967  1.00  0.00    -0.248 NA
ATOM     41  C   UNL A   1      46.074  24.149  27.490  1.00  0.00     0.031 C 
ATOM     42  C   UNL A   1      41.182  25.255  27.959  1.00  0.00     0.029 A 
ATOM     43  N   UNL A   1      42.666  26.895  28.288  1.00  0.00    -0.354 N 
ATOM     44  C   UNL A   1      46.872  26.264  27.887  1.00  0.00     0.074 A 
ATOM     45  C   UNL A   1      47.178  24.874  27.615  1.00  0.00     0.031 C 
ATOM     46  C   UNL A   1      40.493  26.372  28.228  1.00  0.00     0.029 A 
ATOM     47  C   UNL A   1      41.430  27.462  28.486  1.00  0.00     0.049 A 
ATOM     48  H   UNL A   1      43.510  27.395  28.379  1.00  0.00     0.167 HD
ATOM     49  C   UNL A   1      47.800  27.244  28.020  1.00  0.00     0.037 A 
ATOM     50  C   UNL A   1      41.073  28.707  28.855  1.00  0.00     0.037 A 
ATOM     51  C   UNL A   1      47.509  28.623  28.338  1.00  0.00     0.049 A 
ATOM     52  C   UNL A   1      42.124  29.750  29.097  1.00  0.00     0.074 A 
ATOM     53  C   UNL A   1      48.394  29.684  28.464  1.00  0.00     0.029 A 
ATOM     54  N   UNL A   1      46.249  29.132  28.613  1.00  0.00    -0.354 N 
ATOM     55  N   UNL A   1      43.422  29.662  28.946  1.00  0.00    -0.248 NA
ATOM     56  C   UNL A   1      41.661  31.062  29.570  1.00  0.00     0.031 C 
ATOM     57  C   UNL A   1      47.682  30.809  28.890  1.00  0.00     0.029 A 
ATOM     58  C   UNL A   1      46.341  30.474  28.961  1.00  0.00     0.049 A 
ATOM     59  H   UNL A   1      45.410  28.617  28.568  1.00  0.00     0.167 HD
ATOM     60  C   UNL A   1      43.930  30.904  29.296  1.00  0.00     0.074 A 
ATOM     61  C   UNL A   1      42.800  31.739  29.643  1.00  0.00     0.031 C 
ATOM     62  C   UNL A   1      45.224  31.307  29.329  1.00  0.00     0.037 A 
BRANCH  49  63
ATOM     63  C   UNL A   1      49.250  26.879  27.838  1.00  0.00     0.064 A 
ATOM     64  C   UNL A   1      50.068  26.555  28.931  1.00  0.00     0.173 A 
ATOM     65  C   UNL A   1      49.794  26.738  26.550  1.00  0.00     0.173 A 
ATOM     66  F   UNL A   1      49.606  26.678  30.184  1.00  0.00    -0.203 F 
ATOM     67  C   UNL A   1      51.375  26.110  28.741  1.00  0.00     0.198 A 
ATOM     68  C   UNL A   1      51.093  26.268  26.365  1.00  0.00     0.198 A 
ATOM     69  F   UNL A   1      49.053  27.021  25.469  1.00  0.00    -0.203 F 
ATOM     70  F   UNL A   1      52.143  25.826  29.803  1.00  0.00    -0.200 F 
ATOM     71  C   UNL A   1      51.882  25.957  27.460  1.00  0.00     0.200 A 
ATOM     72  F   UNL A   1      51.573  26.103  25.125  1.00  0.00    -0.200 F 
ATOM     73  F   UNL A   1      53.132  25.508  27.281  1.00  0.00    -0.200 F 
ENDBRANCH  49  63
BRANCH  50  74
ATOM     74  C   UNL A   1      39.629  29.021  29.008  1.00  0.00     0.064 A 
ATOM     75  C   UNL A   1      38.849  29.375  27.901  1.00  0.00     0.173 A 
ATOM     76  C   UNL A   1      38.989  28.901  30.251  1.00  0.00     0.173 A 
ATOM     77  F   UNL A   1      39.422  29.525  26.697  1.00  0.00    -0.203 F 
ATOM     78  C   UNL A   1      37.478  29.588  28.028  1.00  0.00     0.198 A 
ATOM     79  C   UNL A   1      37.613  29.079  30.371  1.00  0.00     0.198 A 
ATOM     80  F   UNL A   1      39.694  28.559  31.339  1.00  0.00    -0.203 F 
ATOM     81  F   UNL A   1      36.755  29.944  26.958  1.00  0.00    -0.200 F 
ATOM     82  C   UNL A   1      36.859  29.424  29.260  1.00  0.00     0.200 A 
ATOM     83  F   UNL A   1      37.017  28.895  31.557  1.00  0.00    -0.200 F 
ATOM     84  F   UNL A   1      35.536  29.594  29.375  1.00  0.00    -0.200 F 
ENDBRANCH  50  74
BRANCH  62  85
ATOM     85  C   UNL A   1      45.507  32.719  29.765  1.00  0.00     0.064 A 
ATOM     86  C   UNL A   1      45.817  33.023  31.099  1.00  0.00     0.173 A 
ATOM     87  C   UNL A   1      45.529  33.768  28.833  1.00  0.00     0.173 A 
ATOM     88  F   UNL A   1      45.795  32.062  32.034  1.00  0.00    -0.203 F 
ATOM     89  C   UNL A   1      46.126  34.326  31.486  1.00  0.00     0.198 A 
ATOM     90  C   UNL A   1      45.868  35.063  29.218  1.00  0.00     0.198 A 
ATOM     91  F   UNL A   1      45.244  33.534  27.543  1.00  0.00    -0.203 F 
ATOM     92  F   UNL A   1      46.382  34.598  32.772  1.00  0.00    -0.200 F 
ATOM     93  C   UNL A   1      46.161  35.342  30.543  1.00  0.00     0.200 A 
ATOM     94  F   UNL A   1      45.917  36.042  28.302  1.00  0.00    -0.200 F 
ATOM     95  F   UNL A   1      46.475  36.592  30.914  1.00  0.00    -0.200 F 
ENDBRANCH  62  85
ENDBRANCH  36  37
ENDBRANCH  29  31
ENDBRANCH  28  29
ENDBRANCH  27  28
ENDBRANCH  26  27
ENDBRANCH  25  26
ENDBRANCH   1  25
TORSDOF 20
ENDMDL
MODEL 3
REMARK VINA RESULT:     -10.2      4.689      7.876
REMARK SMILES CC(C)C[C@@H](NC(=O)Cn1nc(O)ccc1=O)C(=O)OCCOCCOC(=O)c1ccc(-c2c3nc(c(-c4c(F)c(F)c(F)c(F)c4F)c4ccc([nH]4)c(-c4c(F)c(F)c(F)c(F)c4F)c4nc(c(-c5c(F)c(F)c(F)c(F)c5F)c5ccc2[nH]5)C=C4)C=C3)cc1
REMARK SMILES IDX 22 1 21 2 20 3 18 4 19 5 5 6 4 7 2 8 1 9 3 10 6 11 7 12 8 14
REMARK SMILES IDX 9 15 10 16 11 17 16 18 12 19 15 20 17 21 14 22 13 23 23 25
REMARK SMILES IDX 24 26 25 27 26 28 27 29 28 30 29 31 30 32 91 33 31 34 90 35
REMARK SMILES IDX 32 36 33 37 34 38 84 39 35 40 89 41 83 42 85 43 36 44 88 45
REMARK SMILES IDX 82 46 81 47 37 49 69 50 49 51 68 52 50 53 53 54 67 55 86 56
REMARK SMILES IDX 51 57 52 58 66 60 87 61 54 62 38 63 39 64 47 65 40 66 41 67
REMARK SMILES IDX 45 68 48 69 42 70 43 71 46 72 44 73 70 74 71 75 79 76 72 77
REMARK SMILES IDX 73 78 77 79 80 80 74 81 75 82 78 83 76 84 55 85 56 86 64 87
REMARK SMILES IDX 57 88 58 89 62 90 65 91 59 92 60 93 63 94 61 95
REMARK H PARENT 6 13 13 24 85 48 53 59
REMARK Flexibility Score: inf
ROOT
ATOM      1  C   UNL A   1      33.588  30.069  26.491  1.00  0.00     0.202 C 
ENDROOT
BRANCH   1   2
ATOM      2  C   UNL A   1      32.627  28.965  25.989  1.00  0.00     0.261 C 
BRANCH   2   3
ATOM      3  O   UNL A   1      33.185  27.969  25.096  1.00  0.00    -0.462 OA
BRANCH   3   4
ATOM      4  C   UNL A   1      33.304  28.224  23.775  1.00  0.00     0.328 C 
ATOM      5  O   UNL A   1      34.289  28.747  23.265  1.00  0.00    -0.250 OA
BRANCH   4   6
ATOM      6  C   UNL A   1      32.133  27.649  22.919  1.00  0.00     0.192 C 
BRANCH   6   7
ATOM      7  C   UNL A   1      31.001  28.690  22.703  1.00  0.00     0.040 C 
BRANCH   7   8
ATOM      8  C   UNL A   1      29.545  28.176  22.758  1.00  0.00    -0.015 C 
ATOM      9  C   UNL A   1      29.352  27.069  23.791  1.00  0.00     0.007 C 
ATOM     10  C   UNL A   1      28.604  29.344  23.100  1.00  0.00     0.007 C 
ENDBRANCH   7   8
ENDBRANCH   6   7
BRANCH   6  11
ATOM     11  N   UNL A   1      32.357  26.834  21.702  1.00  0.00    -0.341 N 
ATOM     12  C   UNL A   1      32.748  25.570  21.400  1.00  0.00     0.242 C 
ATOM     13  H   UNL A   1      32.170  27.354  20.887  1.00  0.00     0.164 HD
ATOM     14  O   UNL A   1      33.244  25.434  20.272  1.00  0.00    -0.273 OA
BRANCH  12  15
ATOM     15  C   UNL A   1      32.585  24.353  22.304  1.00  0.00     0.248 C 
BRANCH  15  16
ATOM     16  N   UNL A   1      33.679  24.153  23.242  1.00  0.00    -0.217 N 
ATOM     17  N   UNL A   1      34.864  23.626  22.748  1.00  0.00    -0.131 NA
ATOM     18  C   UNL A   1      33.486  24.420  24.580  1.00  0.00     0.267 A 
ATOM     19  C   UNL A   1      35.797  23.460  23.615  1.00  0.00     0.229 A 
ATOM     20  C   UNL A   1      34.627  24.249  25.479  1.00  0.00     0.079 A 
ATOM     21  O   UNL A   1      32.444  24.811  25.086  1.00  0.00    -0.268 OA
ATOM     22  C   UNL A   1      35.776  23.749  25.036  1.00  0.00     0.075 A 
BRANCH  19  23
ATOM     23  O   UNL A   1      36.979  22.961  23.250  1.00  0.00    -0.492 OA
ATOM     24  H   UNL A   1      37.430  23.319  22.511  1.00  0.00     0.295 HD
ENDBRANCH  19  23
ENDBRANCH  15  16
ENDBRANCH  12  15
ENDBRANCH   6  11
ENDBRANCH   4   6
ENDBRANCH   3   4
ENDBRANCH   2   3
ENDBRANCH   1   2
BRANCH   1  25
ATOM     25  O   UNL A   1      33.101  30.838  27.592  1.00  0.00    -0.374 OA
BRANCH  25  26
ATOM     26  C   UNL A   1      32.216  31.898  27.237  1.00  0.00     0.202 C 
BRANCH  26  27
ATOM     27  C   UNL A   1      32.877  33.276  27.172  1.00  0.00     0.261 C 
BRANCH  27  28
ATOM     28  O   UNL A   1      32.271  34.211  28.087  1.00  0.00    -0.460 OA
BRANCH  28  29
ATOM     29  C   UNL A   1      33.112  35.088  28.687  1.00  0.00     0.338 C 
ATOM     30  O   UNL A   1      32.979  36.290  28.803  1.00  0.00    -0.246 OA
BRANCH  29  31
ATOM     31  C   UNL A   1      34.239  34.332  29.278  1.00  0.00     0.060 A 
ATOM     32  C   UNL A   1      35.550  34.531  28.841  1.00  0.00     0.016 A 
ATOM     33  C   UNL A   1      33.976  33.399  30.286  1.00  0.00     0.016 A 
ATOM     34  C   UNL A   1      36.580  33.741  29.364  1.00  0.00     0.010 A 
ATOM     35  C   UNL A   1      35.019  32.643  30.841  1.00  0.00     0.010 A 
ATOM     36  C   UNL A   1      36.336  32.787  30.377  1.00  0.00    -0.014 A 
BRANCH  36  37
ATOM     37  C   UNL A   1      37.476  32.038  30.991  1.00  0.00     0.031 A 
ATOM     38  C   UNL A   1      38.217  30.931  30.277  1.00  0.00     0.074 A 
ATOM     39  C   UNL A   1      37.871  32.374  32.236  1.00  0.00     0.049 A 
ATOM     40  N   UNL A   1      39.279  30.266  30.670  1.00  0.00    -0.248 NA
ATOM     41  C   UNL A   1      37.713  30.516  28.962  1.00  0.00     0.031 C 
ATOM     42  C   UNL A   1      37.237  33.401  33.063  1.00  0.00     0.029 A 
ATOM     43  N   UNL A   1      38.899  31.907  33.018  1.00  0.00    -0.354 N 
ATOM     44  C   UNL A   1      39.586  29.379  29.643  1.00  0.00     0.074 A 
ATOM     45  C   UNL A   1      38.570  29.561  28.627  1.00  0.00     0.031 C 
ATOM     46  C   UNL A   1      37.919  33.525  34.209  1.00  0.00     0.029 A 
ATOM     47  C   UNL A   1      38.995  32.537  34.234  1.00  0.00     0.049 A 
ATOM     48  H   UNL A   1      39.510  31.187  32.733  1.00  0.00     0.167 HD
ATOM     49  C   UNL A   1      40.618  28.502  29.552  1.00  0.00     0.037 A 
ATOM     50  C   UNL A   1      39.831  32.343  35.272  1.00  0.00     0.037 A 
ATOM     51  C   UNL A   1      41.609  28.279  30.579  1.00  0.00     0.049 A 
ATOM     52  C   UNL A   1      40.902  31.296  35.188  1.00  0.00     0.074 A 
ATOM     53  C   UNL A   1      42.702  27.426  30.551  1.00  0.00     0.029 A 
ATOM     54  N   UNL A   1      41.615  28.881  31.828  1.00  0.00    -0.354 N 
ATOM     55  N   UNL A   1      41.218  30.519  34.182  1.00  0.00    -0.248 NA
ATOM     56  C   UNL A   1      41.725  31.091  36.388  1.00  0.00     0.031 C 
ATOM     57  C   UNL A   1      43.319  27.453  31.805  1.00  0.00     0.029 A 
ATOM     58  C   UNL A   1      42.658  28.376  32.596  1.00  0.00     0.049 A 
ATOM     59  H   UNL A   1      40.974  29.566  32.128  1.00  0.00     0.167 HD
ATOM     60  C   UNL A   1      42.279  29.741  34.622  1.00  0.00     0.074 A 
ATOM     61  C   UNL A   1      42.572  30.155  35.977  1.00  0.00     0.031 C 
ATOM     62  C   UNL A   1      42.944  28.767  33.953  1.00  0.00     0.037 A 
BRANCH  49  63
ATOM     63  C   UNL A   1      40.745  27.684  28.294  1.00  0.00     0.064 A 
ATOM     64  C   UNL A   1      41.551  28.101  27.225  1.00  0.00     0.173 A 
ATOM     65  C   UNL A   1      40.148  26.415  28.205  1.00  0.00     0.173 A 
ATOM     66  F   UNL A   1      42.140  29.306  27.250  1.00  0.00    -0.203 F 
ATOM     67  C   UNL A   1      41.750  27.283  26.114  1.00  0.00     0.198 A 
ATOM     68  C   UNL A   1      40.370  25.590  27.104  1.00  0.00     0.198 A 
ATOM     69  F   UNL A   1      39.377  25.959  29.203  1.00  0.00    -0.203 F 
ATOM     70  F   UNL A   1      42.509  27.714  25.097  1.00  0.00    -0.200 F 
ATOM     71  C   UNL A   1      41.169  26.026  26.059  1.00  0.00     0.200 A 
ATOM     72  F   UNL A   1      39.823  24.367  27.063  1.00  0.00    -0.200 F 
ATOM     73  F   UNL A   1      41.380  25.233  24.999  1.00  0.00    -0.200 F 
ENDBRANCH  49  63
BRANCH  50  74
ATOM     74  C   UNL A   1      39.674  33.186  36.485  1.00  0.00     0.064 A 
ATOM     75  C   UNL A   1      40.387  34.382  36.628  1.00  0.00     0.173 A 
ATOM     76  C   UNL A   1      38.753  32.848  37.489  1.00  0.00     0.173 A 
ATOM     77  F   UNL A   1      41.294  34.735  35.705  1.00  0.00    -0.203 F 
ATOM     78  C   UNL A   1      40.178  35.216  37.724  1.00  0.00     0.198 A 
ATOM     79  C   UNL A   1      38.519  33.697  38.566  1.00  0.00     0.198 A 
ATOM     80  F   UNL A   1      38.043  31.714  37.394  1.00  0.00    -0.203 F 
ATOM     81  F   UNL A   1      40.885  36.347  37.847  1.00  0.00    -0.200 F 
ATOM     82  C   UNL A   1      39.233  34.880  38.684  1.00  0.00     0.200 A 
ATOM     83  F   UNL A   1      37.589  33.381  39.477  1.00  0.00    -0.200 F 
ATOM     84  F   UNL A   1      39.008  35.698  39.720  1.00  0.00    -0.200 F 
ENDBRANCH  50  74
BRANCH  62  85
ATOM     85  C   UNL A   1      44.058  28.059  34.674  1.00  0.00     0.064 A 
ATOM     86  C   UNL A   1      43.837  26.854  35.358  1.00  0.00     0.173 A 
ATOM     87  C   UNL A   1      45.371  28.553  34.631  1.00  0.00     0.173 A 
ATOM     88  F   UNL A   1      42.599  26.344  35.445  1.00  0.00    -0.203 F 
ATOM     89  C   UNL A   1      44.885  26.178  35.982  1.00  0.00     0.198 A 
ATOM     90  C   UNL A   1      46.420  27.860  35.229  1.00  0.00     0.198 A 
ATOM     91  F   UNL A   1      45.641  29.699  33.988  1.00  0.00    -0.203 F 
ATOM     92  F   UNL A   1      44.641  25.049  36.660  1.00  0.00    -0.200 F 
ATOM     93  C   UNL A   1      46.176  26.677  35.908  1.00  0.00     0.200 A 
ATOM     94  F   UNL A   1      47.671  28.336  35.143  1.00  0.00    -0.200 F 
ATOM     95  F   UNL A   1      47.185  26.018  36.495  1.00  0.00    -0.200 F 
ENDBRANCH  62  85
ENDBRANCH  36  37
ENDBRANCH  29  31
ENDBRANCH  28  29
ENDBRANCH  27  28
ENDBRANCH  26  27
ENDBRANCH  25  26
ENDBRANCH   1  25
TORSDOF 20
ENDMDL
