MODEL 1
REMARK VINA RESULT:     -11.2      0.000      0.000
REMARK SMILES CC1=C2C(CSc3c(Cl)cccc3Cl)=CC(=O)N=C2S[C@H]1C(=O)OCCOCCOC(=O)c1ccc(-c2c3nc(c(-c4c(F)c(F)c(F)c(F)c4F)c4ccc([nH]4)c(-c4c(F)c(F)c(F)c(F)c4F)c4nc(c(-c5c(F)c(F)c(F)c(F)c5F)c5ccc2[nH]5)C=C4)C=C3)cc1
REMARK SMILES IDX 26 1 25 2 24 3 22 4 23 5 21 6 1 7 2 8 3 9 4 10 19 11 20 12
REMARK SMILES IDX 15 13 18 14 16 15 17 16 5 17 6 18 7 19 8 20 13 21 9 22 10 23
REMARK SMILES IDX 12 24 14 25 11 26 27 27 28 28 29 29 30 30 31 31 32 32 33 33
REMARK SMILES IDX 34 34 95 35 35 36 94 37 36 38 37 39 38 40 88 41 39 42 93 43
REMARK SMILES IDX 87 44 89 45 40 46 92 47 86 48 85 49 41 51 73 52 53 53 72 54
REMARK SMILES IDX 54 55 57 56 71 57 90 58 55 59 56 60 70 62 91 63 58 64 42 65
REMARK SMILES IDX 43 66 51 67 44 68 45 69 49 70 52 71 46 72 47 73 50 74 48 75
REMARK SMILES IDX 74 76 75 77 83 78 76 79 77 80 81 81 84 82 78 83 79 84 82 85
REMARK SMILES IDX 80 86 59 87 60 88 68 89 61 90 62 91 66 92 69 93 63 94 64 95
REMARK SMILES IDX 67 96 65 97
REMARK H PARENT 89 50 57 61
REMARK Flexibility Score: inf
ROOT
ATOM      1  C   UNL A   1      33.963  29.761  26.214  1.00  0.00     0.202 C 
ENDROOT
BRANCH   1   2
ATOM      2  C   UNL A   1      33.299  28.581  25.498  1.00  0.00     0.261 C 
BRANCH   2   3
ATOM      3  O   UNL A   1      32.722  28.950  24.229  1.00  0.00    -0.462 OA
BRANCH   3   4
ATOM      4  C   UNL A   1      33.275  28.375  23.119  1.00  0.00     0.323 C 
ATOM      5  O   UNL A   1      34.349  28.702  22.626  1.00  0.00    -0.251 OA
BRANCH   4   6
ATOM      6  C   UNL A   1      32.441  27.212  22.572  1.00  0.00     0.189 C 
ATOM      7  C   UNL A   1      34.068  25.252  22.759  1.00  0.00     0.042 C 
ATOM      8  C   UNL A   1      32.762  25.857  23.175  1.00  0.00    -0.039 C 
ATOM      9  C   UNL A   1      31.830  25.324  23.988  1.00  0.00     0.012 C 
ATOM     10  C   UNL A   1      31.674  24.056  24.678  1.00  0.00    -0.022 C 
ATOM     11  C   UNL A   1      30.674  26.249  24.130  1.00  0.00     0.109 C 
ATOM     12  S   UNL A   1      30.686  27.504  22.930  1.00  0.00    -0.086 SA
ATOM     13  C   UNL A   1      30.675  23.994  25.583  1.00  0.00     0.079 C 
ATOM     14  N   UNL A   1      29.730  26.172  24.996  1.00  0.00    -0.202 NA
ATOM     15  C   UNL A   1      29.782  25.145  25.900  1.00  0.00     0.271 C 
ATOM     16  O   UNL A   1      29.086  25.088  26.907  1.00  0.00    -0.267 OA
BRANCH  10  17
ATOM     17  C   UNL A   1      32.390  22.801  24.231  1.00  0.00     0.111 C 
BRANCH  17  18
ATOM     18  S   UNL A   1      33.005  21.732  25.579  1.00  0.00    -0.118 SA
BRANCH  18  19
ATOM     19  C   UNL A   1      34.791  21.762  25.339  1.00  0.00     0.045 A 
ATOM     20  C   UNL A   1      35.524  20.619  24.954  1.00  0.00     0.056 A 
ATOM     21  C   UNL A   1      35.524  22.931  25.636  1.00  0.00     0.056 A 
ATOM     22  Cl  UNL A   1      34.793  19.069  24.693  1.00  0.00    -0.083 Cl
ATOM     23  C   UNL A   1      36.918  20.671  24.798  1.00  0.00     0.022 A 
ATOM     24  C   UNL A   1      36.918  22.970  25.492  1.00  0.00     0.022 A 
ATOM     25  Cl  UNL A   1      34.773  24.387  26.203  1.00  0.00    -0.083 Cl
ATOM     26  C   UNL A   1      37.614  21.846  25.061  1.00  0.00     0.003 A 
ENDBRANCH  18  19
ENDBRANCH  17  18
ENDBRANCH  10  17
ENDBRANCH   4   6
ENDBRANCH   3   4
ENDBRANCH   2   3
ENDBRANCH   1   2
BRANCH   1  27
ATOM     27  O   UNL A   1      33.193  30.389  27.237  1.00  0.00    -0.374 OA
BRANCH  27  28
ATOM     28  C   UNL A   1      31.975  31.009  26.849  1.00  0.00     0.202 C 
BRANCH  28  29
ATOM     29  C   UNL A   1      31.835  32.494  27.184  1.00  0.00     0.261 C 
BRANCH  29  30
ATOM     30  O   UNL A   1      33.081  33.212  27.205  1.00  0.00    -0.460 OA
BRANCH  30  31
ATOM     31  C   UNL A   1      33.189  34.100  28.227  1.00  0.00     0.338 C 
ATOM     32  O   UNL A   1      32.444  35.034  28.475  1.00  0.00    -0.246 OA
BRANCH  31  33
ATOM     33  C   UNL A   1      34.307  33.751  29.119  1.00  0.00     0.060 A 
ATOM     34  C   UNL A   1      35.574  34.254  28.812  1.00  0.00     0.016 A 
ATOM     35  C   UNL A   1      34.150  32.806  30.132  1.00  0.00     0.016 A 
ATOM     36  C   UNL A   1      36.698  33.768  29.483  1.00  0.00     0.010 A 
ATOM     37  C   UNL A   1      35.277  32.327  30.811  1.00  0.00     0.010 A 
ATOM     38  C   UNL A   1      36.561  32.770  30.460  1.00  0.00    -0.014 A 
BRANCH  38  39
ATOM     39  C   UNL A   1      37.771  32.112  31.014  1.00  0.00     0.031 A 
ATOM     40  C   UNL A   1      38.252  32.479  32.392  1.00  0.00     0.074 A 
ATOM     41  C   UNL A   1      38.415  31.166  30.308  1.00  0.00     0.049 A 
ATOM     42  N   UNL A   1      39.234  31.967  33.094  1.00  0.00    -0.248 NA
ATOM     43  C   UNL A   1      37.535  33.568  33.072  1.00  0.00     0.031 C 
ATOM     44  C   UNL A   1      38.061  30.738  28.957  1.00  0.00     0.029 A 
ATOM     45  N   UNL A   1      39.501  30.392  30.635  1.00  0.00    -0.354 N 
ATOM     46  C   UNL A   1      39.250  32.671  34.292  1.00  0.00     0.074 A 
ATOM     47  C   UNL A   1      38.207  33.670  34.209  1.00  0.00     0.031 C 
ATOM     48  C   UNL A   1      38.910  29.770  28.571  1.00  0.00     0.029 A 
ATOM     49  C   UNL A   1      39.871  29.521  29.643  1.00  0.00     0.049 A 
ATOM     50  H   UNL A   1      39.968  30.457  31.498  1.00  0.00     0.167 HD
ATOM     51  C   UNL A   1      40.050  32.489  35.371  1.00  0.00     0.037 A 
ATOM     52  C   UNL A   1      40.872  28.620  29.606  1.00  0.00     0.037 A 
ATOM     53  C   UNL A   1      41.089  31.497  35.455  1.00  0.00     0.049 A 
ATOM     54  C   UNL A   1      41.754  28.443  30.813  1.00  0.00     0.074 A 
ATOM     55  C   UNL A   1      41.934  31.214  36.515  1.00  0.00     0.029 A 
ATOM     56  N   UNL A   1      41.431  30.627  34.429  1.00  0.00    -0.354 N 
ATOM     57  N   UNL A   1      41.715  29.063  31.968  1.00  0.00    -0.248 NA
ATOM     58  C   UNL A   1      42.811  27.424  30.718  1.00  0.00     0.031 C 
ATOM     59  C   UNL A   1      42.812  30.200  36.117  1.00  0.00     0.029 A 
ATOM     60  C   UNL A   1      42.485  29.818  34.827  1.00  0.00     0.049 A 
ATOM     61  H   UNL A   1      40.992  30.591  33.549  1.00  0.00     0.167 HD
ATOM     62  C   UNL A   1      42.715  28.492  32.744  1.00  0.00     0.074 A 
ATOM     63  C   UNL A   1      43.337  27.465  31.933  1.00  0.00     0.031 C 
ATOM     64  C   UNL A   1      43.084  28.790  34.014  1.00  0.00     0.037 A 
BRANCH  51  65
ATOM     65  C   UNL A   1      39.835  33.391  36.552  1.00  0.00     0.064 A 
ATOM     66  C   UNL A   1      38.924  33.064  37.568  1.00  0.00     0.173 A 
ATOM     67  C   UNL A   1      40.569  34.579  36.687  1.00  0.00     0.173 A 
ATOM     68  F   UNL A   1      38.190  31.943  37.482  1.00  0.00    -0.203 F 
ATOM     69  C   UNL A   1      38.736  33.905  38.661  1.00  0.00     0.198 A 
ATOM     70  C   UNL A   1      40.398  35.405  37.796  1.00  0.00     0.198 A 
ATOM     71  F   UNL A   1      41.459  34.935  35.750  1.00  0.00    -0.203 F 
ATOM     72  F   UNL A   1      37.829  33.594  39.598  1.00  0.00    -0.200 F 
ATOM     73  C   UNL A   1      39.477  35.072  38.778  1.00  0.00     0.200 A 
ATOM     74  F   UNL A   1      41.125  36.525  37.914  1.00  0.00    -0.200 F 
ATOM     75  F   UNL A   1      39.299  35.877  39.833  1.00  0.00    -0.200 F 
ENDBRANCH  51  65
BRANCH  52  76
ATOM     76  C   UNL A   1      41.074  27.789  28.392  1.00  0.00     0.064 A 
ATOM     77  C   UNL A   1      41.938  28.204  27.369  1.00  0.00     0.173 A 
ATOM     78  C   UNL A   1      40.403  26.568  28.227  1.00  0.00     0.173 A 
ATOM     79  F   UNL A   1      42.582  29.375  27.471  1.00  0.00    -0.203 F 
ATOM     80  C   UNL A   1      42.110  27.437  26.219  1.00  0.00     0.198 A 
ATOM     81  C   UNL A   1      40.597  25.790  27.088  1.00  0.00     0.198 A 
ATOM     82  F   UNL A   1      39.564  26.130  29.176  1.00  0.00    -0.203 F 
ATOM     83  F   UNL A   1      42.909  27.877  25.237  1.00  0.00    -0.200 F 
ATOM     84  C   UNL A   1      41.445  26.228  26.081  1.00  0.00     0.200 A 
ATOM     85  F   UNL A   1      39.959  24.619  26.962  1.00  0.00    -0.200 F 
ATOM     86  F   UNL A   1      41.613  25.490  24.976  1.00  0.00    -0.200 F 
ENDBRANCH  52  76
BRANCH  64  87
ATOM     87  C   UNL A   1      44.182  27.968  34.623  1.00  0.00     0.064 A 
ATOM     88  C   UNL A   1      43.920  26.760  35.286  1.00  0.00     0.173 A 
ATOM     89  C   UNL A   1      45.519  28.380  34.512  1.00  0.00     0.173 A 
ATOM     90  F   UNL A   1      42.657  26.330  35.429  1.00  0.00    -0.203 F 
ATOM     91  C   UNL A   1      44.953  26.010  35.840  1.00  0.00     0.198 A 
ATOM     92  C   UNL A   1      46.551  27.613  35.044  1.00  0.00     0.198 A 
ATOM     93  F   UNL A   1      45.824  29.524  33.881  1.00  0.00    -0.203 F 
ATOM     94  F   UNL A   1      44.675  24.884  36.511  1.00  0.00    -0.200 F 
ATOM     95  C   UNL A   1      46.267  26.434  35.715  1.00  0.00     0.200 A 
ATOM     96  F   UNL A   1      47.822  28.019  34.912  1.00  0.00    -0.200 F 
ATOM     97  F   UNL A   1      47.261  25.708  36.247  1.00  0.00    -0.200 F 
ENDBRANCH  64  87
ENDBRANCH  38  39
ENDBRANCH  31  33
ENDBRANCH  30  31
ENDBRANCH  29  30
ENDBRANCH  28  29
ENDBRANCH  27  28
ENDBRANCH   1  27
TORSDOF 17
ENDMDL
MODEL 2
REMARK VINA RESULT:     -11.2      1.356      7.320
REMARK SMILES CC1=C2C(CSc3c(Cl)cccc3Cl)=CC(=O)N=C2S[C@H]1C(=O)OCCOCCOC(=O)c1ccc(-c2c3nc(c(-c4c(F)c(F)c(F)c(F)c4F)c4ccc([nH]4)c(-c4c(F)c(F)c(F)c(F)c4F)c4nc(c(-c5c(F)c(F)c(F)c(F)c5F)c5ccc2[nH]5)C=C4)C=C3)cc1
REMARK SMILES IDX 26 1 25 2 24 3 22 4 23 5 21 6 1 7 2 8 3 9 4 10 19 11 20 12
REMARK SMILES IDX 15 13 18 14 16 15 17 16 5 17 6 18 7 19 8 20 13 21 9 22 10 23
REMARK SMILES IDX 12 24 14 25 11 26 27 27 28 28 29 29 30 30 31 31 32 32 33 33
REMARK SMILES IDX 34 34 95 35 35 36 94 37 36 38 37 39 38 40 88 41 39 42 93 43
REMARK SMILES IDX 87 44 89 45 40 46 92 47 86 48 85 49 41 51 73 52 53 53 72 54
REMARK SMILES IDX 54 55 57 56 71 57 90 58 55 59 56 60 70 62 91 63 58 64 42 65
REMARK SMILES IDX 43 66 51 67 44 68 45 69 49 70 52 71 46 72 47 73 50 74 48 75
REMARK SMILES IDX 74 76 75 77 83 78 76 79 77 80 81 81 84 82 78 83 79 84 82 85
REMARK SMILES IDX 80 86 59 87 60 88 68 89 61 90 62 91 66 92 69 93 63 94 64 95
REMARK SMILES IDX 67 96 65 97
REMARK H PARENT 89 50 57 61
REMARK Flexibility Score: inf
ROOT
ATOM      1  C   UNL A   1      32.249  30.680  27.135  1.00  0.00     0.202 C 
ENDROOT
BRANCH   1   2
ATOM      2  C   UNL A   1      31.868  29.202  27.258  1.00  0.00     0.261 C 
BRANCH   2   3
ATOM      3  O   UNL A   1      33.016  28.334  27.348  1.00  0.00    -0.462 OA
BRANCH   3   4
ATOM      4  C   UNL A   1      33.995  28.523  26.413  1.00  0.00     0.323 C 
ATOM      5  O   UNL A   1      34.939  29.296  26.540  1.00  0.00    -0.251 OA
BRANCH   4   6
ATOM      6  C   UNL A   1      33.839  27.610  25.193  1.00  0.00     0.189 C 
ATOM      7  C   UNL A   1      33.326  25.353  26.274  1.00  0.00     0.042 C 
ATOM      8  C   UNL A   1      32.866  26.460  25.376  1.00  0.00    -0.039 C 
ATOM      9  C   UNL A   1      31.710  26.536  24.688  1.00  0.00     0.012 C 
ATOM     10  C   UNL A   1      30.576  25.651  24.488  1.00  0.00    -0.022 C 
ATOM     11  C   UNL A   1      31.651  27.799  23.906  1.00  0.00     0.109 C 
ATOM     12  S   UNL A   1      33.201  28.575  23.794  1.00  0.00    -0.086 SA
ATOM     13  C   UNL A   1      29.500  26.197  23.883  1.00  0.00     0.079 C 
ATOM     14  N   UNL A   1      30.619  28.301  23.332  1.00  0.00    -0.202 NA
ATOM     15  C   UNL A   1      29.435  27.624  23.453  1.00  0.00     0.271 C 
ATOM     16  O   UNL A   1      28.346  28.099  23.159  1.00  0.00    -0.267 OA
BRANCH  10  17
ATOM     17  C   UNL A   1      30.674  24.155  24.688  1.00  0.00     0.111 C 
BRANCH  17  18
ATOM     18  S   UNL A   1      31.258  23.212  23.236  1.00  0.00    -0.118 SA
BRANCH  18  19
ATOM     19  C   UNL A   1      32.983  22.880  23.636  1.00  0.00     0.045 A 
ATOM     20  C   UNL A   1      34.040  23.694  23.174  1.00  0.00     0.056 A 
ATOM     21  C   UNL A   1      33.331  21.713  24.351  1.00  0.00     0.056 A 
ATOM     22  Cl  UNL A   1      33.794  25.080  22.162  1.00  0.00    -0.083 Cl
ATOM     23  C   UNL A   1      35.375  23.394  23.485  1.00  0.00     0.022 A 
ATOM     24  C   UNL A   1      34.669  21.413  24.644  1.00  0.00     0.022 A 
ATOM     25  Cl  UNL A   1      32.151  20.572  24.909  1.00  0.00    -0.083 Cl
ATOM     26  C   UNL A   1      35.689  22.258  24.223  1.00  0.00     0.003 A 
ENDBRANCH  18  19
ENDBRANCH  17  18
ENDBRANCH  10  17
ENDBRANCH   4   6
ENDBRANCH   3   4
ENDBRANCH   2   3
ENDBRANCH   1   2
BRANCH   1  27
ATOM     27  O   UNL A   1      31.441  31.468  26.263  1.00  0.00    -0.374 OA
BRANCH  27  28
ATOM     28  C   UNL A   1      31.394  32.868  26.502  1.00  0.00     0.202 C 
BRANCH  28  29
ATOM     29  C   UNL A   1      32.581  33.464  27.259  1.00  0.00     0.261 C 
BRANCH  29  30
ATOM     30  O   UNL A   1      32.220  34.480  28.211  1.00  0.00    -0.460 OA
BRANCH  30  31
ATOM     31  C   UNL A   1      33.281  35.136  28.747  1.00  0.00     0.338 C 
ATOM     32  O   UNL A   1      33.361  36.326  29.003  1.00  0.00    -0.246 OA
BRANCH  31  33
ATOM     33  C   UNL A   1      34.361  34.200  29.102  1.00  0.00     0.060 A 
ATOM     34  C   UNL A   1      34.046  33.115  29.924  1.00  0.00     0.016 A 
ATOM     35  C   UNL A   1      35.689  34.480  28.783  1.00  0.00     0.016 A 
ATOM     36  C   UNL A   1      35.067  32.339  30.476  1.00  0.00     0.010 A 
ATOM     37  C   UNL A   1      36.711  33.696  29.328  1.00  0.00     0.010 A 
ATOM     38  C   UNL A   1      36.410  32.650  30.214  1.00  0.00    -0.014 A 
BRANCH  38  39
ATOM     39  C   UNL A   1      37.486  31.957  30.968  1.00  0.00     0.031 A 
ATOM     40  C   UNL A   1      38.276  30.863  30.302  1.00  0.00     0.074 A 
ATOM     41  C   UNL A   1      37.782  32.328  32.226  1.00  0.00     0.049 A 
ATOM     42  N   UNL A   1      39.307  30.190  30.750  1.00  0.00    -0.248 NA
ATOM     43  C   UNL A   1      37.847  30.472  28.950  1.00  0.00     0.031 C 
ATOM     44  C   UNL A   1      37.078  33.357  32.988  1.00  0.00     0.029 A 
ATOM     45  N   UNL A   1      38.757  31.880  33.083  1.00  0.00    -0.354 N 
ATOM     46  C   UNL A   1      39.647  29.300  29.739  1.00  0.00     0.074 A 
ATOM     47  C   UNL A   1      38.691  29.490  28.670  1.00  0.00     0.031 C 
ATOM     48  C   UNL A   1      37.650  33.470  34.199  1.00  0.00     0.029 A 
ATOM     49  C   UNL A   1      38.751  32.513  34.299  1.00  0.00     0.049 A 
ATOM     50  H   UNL A   1      39.399  31.173  32.846  1.00  0.00     0.167 HD
ATOM     51  C   UNL A   1      40.674  28.416  29.698  1.00  0.00     0.037 A 
ATOM     52  C   UNL A   1      39.547  32.342  35.372  1.00  0.00     0.037 A 
ATOM     53  C   UNL A   1      41.625  28.224  30.762  1.00  0.00     0.049 A 
ATOM     54  C   UNL A   1      40.675  31.347  35.307  1.00  0.00     0.074 A 
ATOM     55  C   UNL A   1      42.717  27.375  30.805  1.00  0.00     0.029 A 
ATOM     56  N   UNL A   1      41.588  28.889  31.979  1.00  0.00    -0.354 N 
ATOM     57  N   UNL A   1      41.033  30.562  34.320  1.00  0.00    -0.248 NA
ATOM     58  C   UNL A   1      41.523  31.228  36.503  1.00  0.00     0.031 C 
ATOM     59  C   UNL A   1      43.319  27.498  32.061  1.00  0.00     0.029 A 
ATOM     60  C   UNL A   1      42.631  28.458  32.785  1.00  0.00     0.049 A 
ATOM     61  H   UNL A   1      40.920  29.566  32.233  1.00  0.00     0.167 HD
ATOM     62  C   UNL A   1      42.161  29.882  34.760  1.00  0.00     0.074 A 
ATOM     63  C   UNL A   1      42.436  30.355  36.101  1.00  0.00     0.031 C 
ATOM     64  C   UNL A   1      42.901  28.949  34.112  1.00  0.00     0.037 A 
BRANCH  51  65
ATOM     65  C   UNL A   1      40.819  27.581  28.459  1.00  0.00     0.064 A 
ATOM     66  C   UNL A   1      40.094  26.391  28.287  1.00  0.00     0.173 A 
ATOM     67  C   UNL A   1      41.665  27.990  27.417  1.00  0.00     0.173 A 
ATOM     68  F   UNL A   1      39.278  25.952  29.258  1.00  0.00    -0.203 F 
ATOM     69  C   UNL A   1      40.232  25.628  27.131  1.00  0.00     0.198 A 
ATOM     70  C   UNL A   1      41.781  27.237  26.250  1.00  0.00     0.198 A 
ATOM     71  F   UNL A   1      42.374  29.123  27.525  1.00  0.00    -0.203 F 
ATOM     72  F   UNL A   1      39.564  24.473  27.008  1.00  0.00    -0.200 F 
ATOM     73  C   UNL A   1      41.070  26.054  26.111  1.00  0.00     0.200 A 
ATOM     74  F   UNL A   1      42.580  27.656  25.259  1.00  0.00    -0.200 F 
ATOM     75  F   UNL A   1      41.198  25.321  24.997  1.00  0.00    -0.200 F 
ENDBRANCH  51  65
BRANCH  52  76
ATOM     76  C   UNL A   1      39.326  33.158  36.593  1.00  0.00     0.064 A 
ATOM     77  C   UNL A   1      38.427  32.743  37.585  1.00  0.00     0.173 A 
ATOM     78  C   UNL A   1      40.004  34.370  36.790  1.00  0.00     0.173 A 
ATOM     79  F   UNL A   1      37.737  31.604  37.430  1.00  0.00    -0.203 F 
ATOM     80  C   UNL A   1      38.201  33.519  38.720  1.00  0.00     0.198 A 
ATOM     81  C   UNL A   1      39.797  35.131  37.938  1.00  0.00     0.198 A 
ATOM     82  F   UNL A   1      40.873  34.810  35.869  1.00  0.00    -0.203 F 
ATOM     83  F   UNL A   1      37.304  33.121  39.633  1.00  0.00    -0.200 F 
ATOM     84  C   UNL A   1      38.890  34.709  38.899  1.00  0.00     0.200 A 
ATOM     85  F   UNL A   1      40.471  36.276  38.111  1.00  0.00    -0.200 F 
ATOM     86  F   UNL A   1      38.674  35.453  39.992  1.00  0.00    -0.200 F 
ENDBRANCH  52  76
BRANCH  64  87
ATOM     87  C   UNL A   1      44.108  28.412  34.825  1.00  0.00     0.064 A 
ATOM     88  C   UNL A   1      44.045  27.254  35.614  1.00  0.00     0.173 A 
ATOM     89  C   UNL A   1      45.351  29.048  34.689  1.00  0.00     0.173 A 
ATOM     90  F   UNL A   1      42.876  26.618  35.785  1.00  0.00    -0.203 F 
ATOM     91  C   UNL A   1      45.176  26.770  36.264  1.00  0.00     0.198 A 
ATOM     92  C   UNL A   1      46.486  28.545  35.319  1.00  0.00     0.198 A 
ATOM     93  F   UNL A   1      45.468  30.155  33.939  1.00  0.00    -0.203 F 
ATOM     94  F   UNL A   1      45.083  25.690  37.052  1.00  0.00    -0.200 F 
ATOM     95  C   UNL A   1      46.396  27.411  36.112  1.00  0.00     0.200 A 
ATOM     96  F   UNL A   1      47.667  29.160  35.161  1.00  0.00    -0.200 F 
ATOM     97  F   UNL A   1      47.485  26.941  36.737  1.00  0.00    -0.200 F 
ENDBRANCH  64  87
ENDBRANCH  38  39
ENDBRANCH  31  33
ENDBRANCH  30  31
ENDBRANCH  29  30
ENDBRANCH  28  29
ENDBRANCH  27  28
ENDBRANCH   1  27
TORSDOF 17
ENDMDL
MODEL 3
REMARK VINA RESULT:     -11.2      1.167      2.038
REMARK SMILES CC1=C2C(CSc3c(Cl)cccc3Cl)=CC(=O)N=C2S[C@H]1C(=O)OCCOCCOC(=O)c1ccc(-c2c3nc(c(-c4c(F)c(F)c(F)c(F)c4F)c4ccc([nH]4)c(-c4c(F)c(F)c(F)c(F)c4F)c4nc(c(-c5c(F)c(F)c(F)c(F)c5F)c5ccc2[nH]5)C=C4)C=C3)cc1
REMARK SMILES IDX 26 1 25 2 24 3 22 4 23 5 21 6 1 7 2 8 3 9 4 10 19 11 20 12
REMARK SMILES IDX 15 13 18 14 16 15 17 16 5 17 6 18 7 19 8 20 13 21 9 22 10 23
REMARK SMILES IDX 12 24 14 25 11 26 27 27 28 28 29 29 30 30 31 31 32 32 33 33
REMARK SMILES IDX 34 34 95 35 35 36 94 37 36 38 37 39 38 40 88 41 39 42 93 43
REMARK SMILES IDX 87 44 89 45 40 46 92 47 86 48 85 49 41 51 73 52 53 53 72 54
REMARK SMILES IDX 54 55 57 56 71 57 90 58 55 59 56 60 70 62 91 63 58 64 42 65
REMARK SMILES IDX 43 66 51 67 44 68 45 69 49 70 52 71 46 72 47 73 50 74 48 75
REMARK SMILES IDX 74 76 75 77 83 78 76 79 77 80 81 81 84 82 78 83 79 84 82 85
REMARK SMILES IDX 80 86 59 87 60 88 68 89 61 90 62 91 66 92 69 93 63 94 64 95
REMARK SMILES IDX 67 96 65 97
REMARK H PARENT 89 50 57 61
REMARK Flexibility Score: inf
ROOT
ATOM      1  C   UNL A   1      32.825  30.175  25.882  1.00  0.00     0.202 C 
ENDROOT
BRANCH   1   2
ATOM      2  C   UNL A   1      32.788  28.652  26.041  1.00  0.00     0.261 C 
BRANCH   2   3
ATOM      3  O   UNL A   1      33.361  27.958  24.915  1.00  0.00    -0.462 OA
BRANCH   3   4
ATOM      4  C   UNL A   1      32.961  28.375  23.676  1.00  0.00     0.323 C 
ATOM      5  O   UNL A   1      33.443  29.328  23.073  1.00  0.00    -0.251 OA
BRANCH   4   6
ATOM      6  C   UNL A   1      31.873  27.483  23.068  1.00  0.00     0.189 C 
ATOM      7  C   UNL A   1      33.248  25.603  22.020  1.00  0.00     0.042 C 
ATOM      8  C   UNL A   1      32.211  26.005  23.024  1.00  0.00    -0.039 C 
ATOM      9  C   UNL A   1      31.523  25.206  23.862  1.00  0.00     0.012 C 
ATOM     10  C   UNL A   1      31.448  23.772  24.081  1.00  0.00    -0.022 C 
ATOM     11  C   UNL A   1      30.580  26.005  24.687  1.00  0.00     0.109 C 
ATOM     12  S   UNL A   1      30.360  27.611  24.062  1.00  0.00    -0.086 SA
ATOM     13  C   UNL A   1      30.778  23.377  25.184  1.00  0.00     0.079 C 
ATOM     14  N   UNL A   1      29.948  25.611  25.732  1.00  0.00    -0.202 NA
ATOM     15  C   UNL A   1      30.162  24.327  26.155  1.00  0.00     0.271 C 
ATOM     16  O   UNL A   1      29.810  23.903  27.248  1.00  0.00    -0.267 OA
BRANCH  10  17
ATOM     17  C   UNL A   1      31.845  22.771  23.019  1.00  0.00     0.111 C 
BRANCH  17  18
ATOM     18  S   UNL A   1      33.589  22.231  23.069  1.00  0.00    -0.118 SA
BRANCH  18  19
ATOM     19  C   UNL A   1      33.904  22.037  24.832  1.00  0.00     0.045 A 
ATOM     20  C   UNL A   1      33.438  20.927  25.569  1.00  0.00     0.056 A 
ATOM     21  C   UNL A   1      34.551  23.065  25.552  1.00  0.00     0.056 A 
ATOM     22  Cl  UNL A   1      32.501  19.649  24.863  1.00  0.00    -0.083 Cl
ATOM     23  C   UNL A   1      33.681  20.817  26.946  1.00  0.00     0.022 A 
ATOM     24  C   UNL A   1      34.776  22.954  26.932  1.00  0.00     0.022 A 
ATOM     25  Cl  UNL A   1      35.102  24.527  24.803  1.00  0.00    -0.083 Cl
ATOM     26  C   UNL A   1      34.353  21.826  27.627  1.00  0.00     0.003 A 
ENDBRANCH  18  19
ENDBRANCH  17  18
ENDBRANCH  10  17
ENDBRANCH   4   6
ENDBRANCH   3   4
ENDBRANCH   2   3
ENDBRANCH   1   2
BRANCH   1  27
ATOM     27  O   UNL A   1      31.562  30.824  25.748  1.00  0.00    -0.374 OA
BRANCH  27  28
ATOM     28  C   UNL A   1      31.303  31.930  26.601  1.00  0.00     0.202 C 
BRANCH  28  29
ATOM     29  C   UNL A   1      32.482  32.864  26.876  1.00  0.00     0.261 C 
BRANCH  29  30
ATOM     30  O   UNL A   1      32.362  33.619  28.094  1.00  0.00    -0.460 OA
BRANCH  30  31
ATOM     31  C   UNL A   1      33.466  34.347  28.402  1.00  0.00     0.338 C 
ATOM     32  O   UNL A   1      33.538  35.557  28.539  1.00  0.00    -0.246 OA
BRANCH  31  33
ATOM     33  C   UNL A   1      34.623  33.475  28.666  1.00  0.00     0.060 A 
ATOM     34  C   UNL A   1      34.423  32.342  29.460  1.00  0.00     0.016 A 
ATOM     35  C   UNL A   1      35.911  33.856  28.293  1.00  0.00     0.016 A 
ATOM     36  C   UNL A   1      35.521  31.618  29.930  1.00  0.00     0.010 A 
ATOM     37  C   UNL A   1      37.010  33.123  28.756  1.00  0.00     0.010 A 
ATOM     38  C   UNL A   1      36.825  32.029  29.614  1.00  0.00    -0.014 A 
BRANCH  38  39
ATOM     39  C   UNL A   1      37.981  31.384  30.286  1.00  0.00     0.031 A 
ATOM     40  C   UNL A   1      38.299  31.729  31.717  1.00  0.00     0.074 A 
ATOM     41  C   UNL A   1      38.720  30.468  29.638  1.00  0.00     0.049 A 
ATOM     42  N   UNL A   1      39.208  31.222  32.513  1.00  0.00    -0.248 NA
ATOM     43  C   UNL A   1      37.486  32.788  32.334  1.00  0.00     0.031 C 
ATOM     44  C   UNL A   1      38.528  30.063  28.246  1.00  0.00     0.029 A 
ATOM     45  N   UNL A   1      39.781  29.709  30.067  1.00  0.00    -0.354 N 
ATOM     46  C   UNL A   1      39.075  31.899  33.719  1.00  0.00     0.074 A 
ATOM     47  C   UNL A   1      38.026  32.878  33.541  1.00  0.00     0.031 C 
ATOM     48  C   UNL A   1      39.436  29.122  27.938  1.00  0.00     0.029 A 
ATOM     49  C   UNL A   1      40.279  28.867  29.105  1.00  0.00     0.049 A 
ATOM     50  H   UNL A   1      40.148  29.763  30.978  1.00  0.00     0.167 HD
ATOM     51  C   UNL A   1      39.755  31.709  34.876  1.00  0.00     0.037 A 
ATOM     52  C   UNL A   1      41.298  27.989  29.161  1.00  0.00     0.037 A 
ATOM     53  C   UNL A   1      40.801  30.736  35.055  1.00  0.00     0.049 A 
ATOM     54  C   UNL A   1      42.045  27.802  30.455  1.00  0.00     0.074 A 
ATOM     55  C   UNL A   1      41.530  30.447  36.196  1.00  0.00     0.029 A 
ATOM     56  N   UNL A   1      41.274  29.897  34.056  1.00  0.00    -0.354 N 
ATOM     57  N   UNL A   1      41.864  28.395  31.610  1.00  0.00    -0.248 NA
ATOM     58  C   UNL A   1      43.128  26.808  30.456  1.00  0.00     0.031 C 
ATOM     59  C   UNL A   1      42.469  29.460  35.878  1.00  0.00     0.029 A 
ATOM     60  C   UNL A   1      42.295  29.100  34.552  1.00  0.00     0.049 A 
ATOM     61  H   UNL A   1      40.936  29.872  33.132  1.00  0.00     0.167 HD
ATOM     62  C   UNL A   1      42.785  27.827  32.481  1.00  0.00     0.074 A 
ATOM     63  C   UNL A   1      43.516  26.832  31.724  1.00  0.00     0.031 C 
ATOM     64  C   UNL A   1      43.004  28.104  33.790  1.00  0.00     0.037 A 
BRANCH  51  65
ATOM     65  C   UNL A   1      39.390  32.580  36.044  1.00  0.00     0.064 A 
ATOM     66  C   UNL A   1      38.430  32.178  36.985  1.00  0.00     0.173 A 
ATOM     67  C   UNL A   1      40.029  33.812  36.243  1.00  0.00     0.173 A 
ATOM     68  F   UNL A   1      37.784  31.011  36.836  1.00  0.00    -0.203 F 
ATOM     69  C   UNL A   1      38.104  32.991  38.067  1.00  0.00     0.198 A 
ATOM     70  C   UNL A   1      39.719  34.611  37.342  1.00  0.00     0.198 A 
ATOM     71  F   UNL A   1      40.961  34.240  35.378  1.00  0.00    -0.203 F 
ATOM     72  F   UNL A   1      37.152  32.607  38.930  1.00  0.00    -0.200 F 
ATOM     73  C   UNL A   1      38.752  34.204  38.248  1.00  0.00     0.200 A 
ATOM     74  F   UNL A   1      40.356  35.777  37.523  1.00  0.00    -0.200 F 
ATOM     75  F   UNL A   1      38.440  34.982  39.293  1.00  0.00    -0.200 F 
ENDBRANCH  51  65
BRANCH  52  76
ATOM     76  C   UNL A   1      41.651  27.189  27.960  1.00  0.00     0.064 A 
ATOM     77  C   UNL A   1      41.010  25.971  27.691  1.00  0.00     0.173 A 
ATOM     78  C   UNL A   1      42.637  27.622  27.062  1.00  0.00     0.173 A 
ATOM     79  F   UNL A   1      40.078  25.505  28.534  1.00  0.00    -0.203 F 
ATOM     80  C   UNL A   1      41.356  25.209  26.578  1.00  0.00     0.198 A 
ATOM     81  C   UNL A   1      42.963  26.871  25.935  1.00  0.00     0.198 A 
ATOM     82  F   UNL A   1      43.279  28.779  27.277  1.00  0.00    -0.203 F 
ATOM     83  F   UNL A   1      40.759  24.028  26.367  1.00  0.00    -0.200 F 
ATOM     84  C   UNL A   1      42.327  25.661  25.698  1.00  0.00     0.200 A 
ATOM     85  F   UNL A   1      43.896  27.316  25.083  1.00  0.00    -0.200 F 
ATOM     86  F   UNL A   1      42.657  24.928  24.625  1.00  0.00    -0.200 F 
ENDBRANCH  52  76
BRANCH  64  87
ATOM     87  C   UNL A   1      44.046  27.290  34.500  1.00  0.00     0.064 A 
ATOM     88  C   UNL A   1      45.371  27.731  34.622  1.00  0.00     0.173 A 
ATOM     89  C   UNL A   1      43.704  26.066  35.094  1.00  0.00     0.173 A 
ATOM     90  F   UNL A   1      45.751  28.889  34.060  1.00  0.00    -0.203 F 
ATOM     91  C   UNL A   1      46.323  26.963  35.288  1.00  0.00     0.198 A 
ATOM     92  C   UNL A   1      44.651  25.314  35.783  1.00  0.00     0.198 A 
ATOM     93  F   UNL A   1      42.447  25.602  35.014  1.00  0.00    -0.203 F 
ATOM     94  F   UNL A   1      47.594  27.381  35.350  1.00  0.00    -0.200 F 
ATOM     95  C   UNL A   1      45.961  25.759  35.872  1.00  0.00     0.200 A 
ATOM     96  F   UNL A   1      44.297  24.156  36.358  1.00  0.00    -0.200 F 
ATOM     97  F   UNL A   1      46.878  25.023  36.516  1.00  0.00    -0.200 F 
ENDBRANCH  64  87
ENDBRANCH  38  39
ENDBRANCH  31  33
ENDBRANCH  30  31
ENDBRANCH  29  30
ENDBRANCH  28  29
ENDBRANCH  27  28
ENDBRANCH   1  27
TORSDOF 17
ENDMDL
