MODEL 1
REMARK VINA RESULT:     -11.1      0.000      0.000
REMARK SMILES C[NH2+][C@](C)(C(=O)OCCOCCOC(=O)c1ccc(-c2c3nc(c(-c4c(F)c(F)c(F)c(F)c4F)c4ccc([nH]4)c(-c4c(F)c(F)c(F)c(F)c4F)c4nc(c(-c5c(F)c(F)c(F)c(F)c5F)c5ccc2[nH]5)C=C4)C=C3)cc1)c1cccc(Cl)c1
REMARK SMILES IDX 11 1 10 2 9 3 8 4 7 5 5 6 6 7 3 8 4 9 2 10 1 11 79 14 80 15
REMARK SMILES IDX 85 16 81 17 83 18 82 19 84 20 12 21 13 22 14 23 15 24 16 25
REMARK SMILES IDX 17 26 78 27 18 28 77 29 19 30 20 31 21 32 71 33 22 34 76 35
REMARK SMILES IDX 70 36 72 37 23 38 75 39 69 40 68 41 24 43 56 44 36 45 55 46
REMARK SMILES IDX 37 47 40 48 54 49 73 50 38 51 39 52 53 54 74 55 41 56 25 57
REMARK SMILES IDX 26 58 34 59 27 60 28 61 32 62 35 63 29 64 30 65 33 66 31 67
REMARK SMILES IDX 57 68 58 69 66 70 59 71 60 72 64 73 67 74 61 75 62 76 65 77
REMARK SMILES IDX 63 78 42 79 43 80 51 81 44 82 45 83 49 84 52 85 46 86 47 87
REMARK SMILES IDX 50 88 48 89
REMARK H PARENT 2 12 2 13 72 42 40 53
REMARK Flexibility Score: inf
ROOT
ATOM      1  C   UNL A   1      31.770  30.123  25.375  1.00  0.00     0.202 C 
ENDROOT
BRANCH   1   2
ATOM      2  O   UNL A   1      31.915  28.766  25.796  1.00  0.00    -0.374 OA
BRANCH   2   3
ATOM      3  C   UNL A   1      33.205  28.172  25.670  1.00  0.00     0.202 C 
BRANCH   3   4
ATOM      4  C   UNL A   1      33.340  26.718  26.130  1.00  0.00     0.261 C 
BRANCH   4   5
ATOM      5  O   UNL A   1      33.806  25.857  25.078  1.00  0.00    -0.458 OA
BRANCH   5   6
ATOM      6  C   UNL A   1      32.882  24.981  24.577  1.00  0.00     0.372 C 
ATOM      7  O   UNL A   1      32.488  23.991  25.188  1.00  0.00    -0.244 OA
BRANCH   6   8
ATOM      8  C   UNL A   1      32.410  25.373  23.123  1.00  0.00     0.216 C 
ATOM      9  C   UNL A   1      33.468  26.200  22.353  1.00  0.00     0.098 C 
BRANCH   8  10
ATOM     10  N   UNL A   1      32.133  24.144  22.309  1.00  0.00    -0.331 N 
ATOM     11  C   UNL A   1      33.278  23.305  21.996  1.00  0.00     0.332 C 
ATOM     12  H   UNL A   1      31.463  23.574  22.825  1.00  0.00     0.347 HD
ATOM     13  H   UNL A   1      31.792  24.484  21.411  1.00  0.00     0.347 HD
ENDBRANCH   8  10
BRANCH   8  14
ATOM     14  C   UNL A   1      31.120  26.241  23.190  1.00  0.00     0.025 A 
ATOM     15  C   UNL A   1      29.952  25.798  23.842  1.00  0.00     0.011 A 
ATOM     16  C   UNL A   1      31.088  27.529  22.616  1.00  0.00     0.031 A 
ATOM     17  C   UNL A   1      28.795  26.584  23.887  1.00  0.00     0.002 A 
ATOM     18  C   UNL A   1      29.932  28.310  22.664  1.00  0.00     0.041 A 
ATOM     19  C   UNL A   1      28.784  27.842  23.294  1.00  0.00     0.020 A 
ATOM     20  Cl  UNL A   1      29.926  29.870  21.937  1.00  0.00    -0.084 Cl
ENDBRANCH   8  14
ENDBRANCH   6   8
ENDBRANCH   5   6
ENDBRANCH   4   5
ENDBRANCH   3   4
ENDBRANCH   2   3
ENDBRANCH   1   2
BRANCH   1  21
ATOM     21  C   UNL A   1      31.717  31.187  26.478  1.00  0.00     0.261 C 
BRANCH  21  22
ATOM     22  O   UNL A   1      32.746  30.992  27.464  1.00  0.00    -0.460 OA
BRANCH  22  23
ATOM     23  C   UNL A   1      33.557  32.061  27.645  1.00  0.00     0.338 C 
ATOM     24  O   UNL A   1      33.224  33.235  27.753  1.00  0.00    -0.246 OA
BRANCH  23  25
ATOM     25  C   UNL A   1      34.945  31.629  27.880  1.00  0.00     0.060 A 
ATOM     26  C   UNL A   1      35.174  30.251  27.981  1.00  0.00     0.016 A 
ATOM     27  C   UNL A   1      35.972  32.540  28.129  1.00  0.00     0.016 A 
ATOM     28  C   UNL A   1      36.411  29.779  28.408  1.00  0.00     0.010 A 
ATOM     29  C   UNL A   1      37.215  32.065  28.567  1.00  0.00     0.010 A 
ATOM     30  C   UNL A   1      37.419  30.686  28.759  1.00  0.00    -0.014 A 
BRANCH  30  31
ATOM     31  C   UNL A   1      38.592  30.180  29.513  1.00  0.00     0.031 A 
ATOM     32  C   UNL A   1      38.780  30.623  30.941  1.00  0.00     0.074 A 
ATOM     33  C   UNL A   1      39.430  29.279  28.970  1.00  0.00     0.049 A 
ATOM     34  N   UNL A   1      39.690  30.265  31.811  1.00  0.00    -0.248 NA
ATOM     35  C   UNL A   1      37.807  31.600  31.457  1.00  0.00     0.031 C 
ATOM     36  C   UNL A   1      39.334  28.751  27.612  1.00  0.00     0.029 A 
ATOM     37  N   UNL A   1      40.523  28.644  29.505  1.00  0.00    -0.354 N 
ATOM     38  C   UNL A   1      39.400  30.970  32.972  1.00  0.00     0.074 A 
ATOM     39  C   UNL A   1      38.250  31.800  32.689  1.00  0.00     0.031 C 
ATOM     40  C   UNL A   1      40.334  27.872  27.416  1.00  0.00     0.029 A 
ATOM     41  C   UNL A   1      41.143  27.789  28.631  1.00  0.00     0.049 A 
ATOM     42  H   UNL A   1      40.831  28.790  30.429  1.00  0.00     0.167 HD
ATOM     43  C   UNL A   1      40.028  30.921  34.171  1.00  0.00     0.037 A 
ATOM     44  C   UNL A   1      42.243  27.029  28.795  1.00  0.00     0.037 A 
ATOM     45  C   UNL A   1      41.166  30.089  34.458  1.00  0.00     0.049 A 
ATOM     46  C   UNL A   1      42.939  27.012  30.131  1.00  0.00     0.074 A 
ATOM     47  C   UNL A   1      41.864  29.960  35.646  1.00  0.00     0.029 A 
ATOM     48  N   UNL A   1      41.773  29.245  33.541  1.00  0.00    -0.354 N 
ATOM     49  N   UNL A   1      42.637  27.658  31.231  1.00  0.00    -0.248 NA
ATOM     50  C   UNL A   1      44.123  26.148  30.250  1.00  0.00     0.031 C 
ATOM     51  C   UNL A   1      42.919  29.065  35.437  1.00  0.00     0.029 A 
ATOM     52  C   UNL A   1      42.849  28.602  34.132  1.00  0.00     0.049 A 
ATOM     53  H   UNL A   1      41.483  29.120  32.609  1.00  0.00     0.167 HD
ATOM     54  C   UNL A   1      43.572  27.257  32.179  1.00  0.00     0.074 A 
ATOM     55  C   UNL A   1      44.442  26.301  31.527  1.00  0.00     0.031 C 
ATOM     56  C   UNL A   1      43.697  27.645  33.472  1.00  0.00     0.037 A 
BRANCH  43  57
ATOM     57  C   UNL A   1      39.507  31.810  35.261  1.00  0.00     0.064 A 
ATOM     58  C   UNL A   1      38.609  31.337  36.228  1.00  0.00     0.173 A 
ATOM     59  C   UNL A   1      39.941  33.140  35.359  1.00  0.00     0.173 A 
ATOM     60  F   UNL A   1      38.151  30.077  36.167  1.00  0.00    -0.203 F 
ATOM     61  C   UNL A   1      38.148  32.171  37.246  1.00  0.00     0.198 A 
ATOM     62  C   UNL A   1      39.498  33.963  36.391  1.00  0.00     0.198 A 
ATOM     63  F   UNL A   1      40.801  33.639  34.458  1.00  0.00    -0.203 F 
ATOM     64  F   UNL A   1      37.261  31.710  38.138  1.00  0.00    -0.200 F 
ATOM     65  C   UNL A   1      38.599  33.480  37.329  1.00  0.00     0.200 A 
ATOM     66  F   UNL A   1      39.940  35.226  36.475  1.00  0.00    -0.200 F 
ATOM     67  F   UNL A   1      38.160  34.279  38.312  1.00  0.00    -0.200 F 
ENDBRANCH  43  57
BRANCH  44  68
ATOM     68  C   UNL A   1      42.757  26.213  27.663  1.00  0.00     0.064 A 
ATOM     69  C   UNL A   1      43.714  26.721  26.775  1.00  0.00     0.173 A 
ATOM     70  C   UNL A   1      42.278  24.914  27.435  1.00  0.00     0.173 A 
ATOM     71  F   UNL A   1      44.183  27.968  26.938  1.00  0.00    -0.203 F 
ATOM     72  C   UNL A   1      44.157  25.970  25.688  1.00  0.00     0.198 A 
ATOM     73  C   UNL A   1      42.742  24.154  26.365  1.00  0.00     0.198 A 
ATOM     74  F   UNL A   1      41.362  24.382  28.257  1.00  0.00    -0.203 F 
ATOM     75  F   UNL A   1      45.036  26.499  24.826  1.00  0.00    -0.200 F 
ATOM     76  C   UNL A   1      43.675  24.686  25.486  1.00  0.00     0.200 A 
ATOM     77  F   UNL A   1      42.281  22.910  26.179  1.00  0.00    -0.200 F 
ATOM     78  F   UNL A   1      44.100  23.965  24.441  1.00  0.00    -0.200 F 
ENDBRANCH  44  68
BRANCH  56  79
ATOM     79  C   UNL A   1      44.789  27.006  34.277  1.00  0.00     0.064 A 
ATOM     80  C   UNL A   1      46.065  27.579  34.375  1.00  0.00     0.173 A 
ATOM     81  C   UNL A   1      44.547  25.819  34.985  1.00  0.00     0.173 A 
ATOM     82  F   UNL A   1      46.349  28.708  33.707  1.00  0.00    -0.203 F 
ATOM     83  C   UNL A   1      47.067  26.972  35.126  1.00  0.00     0.198 A 
ATOM     84  C   UNL A   1      45.543  25.228  35.757  1.00  0.00     0.198 A 
ATOM     85  F   UNL A   1      43.340  25.234  34.932  1.00  0.00    -0.203 F 
ATOM     86  F   UNL A   1      48.294  27.512  35.163  1.00  0.00    -0.200 F 
ATOM     87  C   UNL A   1      46.805  25.801  35.820  1.00  0.00     0.200 A 
ATOM     88  F   UNL A   1      45.284  24.102  36.437  1.00  0.00    -0.200 F 
ATOM     89  F   UNL A   1      47.771  25.217  36.543  1.00  0.00    -0.200 F 
ENDBRANCH  56  79
ENDBRANCH  30  31
ENDBRANCH  23  25
ENDBRANCH  22  23
ENDBRANCH  21  22
ENDBRANCH   1  21
TORSDOF 16
ENDMDL
MODEL 2
REMARK VINA RESULT:     -11.0      1.849      2.739
REMARK SMILES C[NH2+][C@](C)(C(=O)OCCOCCOC(=O)c1ccc(-c2c3nc(c(-c4c(F)c(F)c(F)c(F)c4F)c4ccc([nH]4)c(-c4c(F)c(F)c(F)c(F)c4F)c4nc(c(-c5c(F)c(F)c(F)c(F)c5F)c5ccc2[nH]5)C=C4)C=C3)cc1)c1cccc(Cl)c1
REMARK SMILES IDX 11 1 10 2 9 3 8 4 7 5 5 6 6 7 3 8 4 9 2 10 1 11 79 14 80 15
REMARK SMILES IDX 85 16 81 17 83 18 82 19 84 20 12 21 13 22 14 23 15 24 16 25
REMARK SMILES IDX 17 26 78 27 18 28 77 29 19 30 20 31 21 32 71 33 22 34 76 35
REMARK SMILES IDX 70 36 72 37 23 38 75 39 69 40 68 41 24 43 56 44 36 45 55 46
REMARK SMILES IDX 37 47 40 48 54 49 73 50 38 51 39 52 53 54 74 55 41 56 25 57
REMARK SMILES IDX 26 58 34 59 27 60 28 61 32 62 35 63 29 64 30 65 33 66 31 67
REMARK SMILES IDX 57 68 58 69 66 70 59 71 60 72 64 73 67 74 61 75 62 76 65 77
REMARK SMILES IDX 63 78 42 79 43 80 51 81 44 82 45 83 49 84 52 85 46 86 47 87
REMARK SMILES IDX 50 88 48 89
REMARK H PARENT 2 12 2 13 72 42 40 53
REMARK Flexibility Score: inf
ROOT
ATOM      1  C   UNL A   1      31.781  30.079  25.245  1.00  0.00     0.202 C 
ENDROOT
BRANCH   1   2
ATOM      2  O   UNL A   1      32.618  28.922  25.211  1.00  0.00    -0.374 OA
BRANCH   2   3
ATOM      3  C   UNL A   1      32.029  27.697  24.780  1.00  0.00     0.202 C 
BRANCH   3   4
ATOM      4  C   UNL A   1      32.727  26.967  23.629  1.00  0.00     0.261 C 
BRANCH   4   5
ATOM      5  O   UNL A   1      33.876  26.227  24.073  1.00  0.00    -0.458 OA
BRANCH   5   6
ATOM      6  C   UNL A   1      33.972  24.945  23.607  1.00  0.00     0.372 C 
ATOM      7  O   UNL A   1      34.054  24.664  22.414  1.00  0.00    -0.244 OA
BRANCH   6   8
ATOM      8  C   UNL A   1      33.937  23.879  24.770  1.00  0.00     0.216 C 
ATOM      9  C   UNL A   1      33.502  24.487  26.125  1.00  0.00     0.098 C 
BRANCH   8  10
ATOM     10  N   UNL A   1      32.969  22.780  24.448  1.00  0.00    -0.331 N 
ATOM     11  C   UNL A   1      31.577  23.169  24.298  1.00  0.00     0.332 C 
ATOM     12  H   UNL A   1      33.267  22.349  23.572  1.00  0.00     0.347 HD
ATOM     13  H   UNL A   1      32.990  22.154  25.253  1.00  0.00     0.347 HD
ENDBRANCH   8  10
BRANCH   8  14
ATOM     14  C   UNL A   1      35.351  23.266  24.983  1.00  0.00     0.025 A 
ATOM     15  C   UNL A   1      35.694  21.987  24.500  1.00  0.00     0.011 A 
ATOM     16  C   UNL A   1      36.358  23.992  25.653  1.00  0.00     0.031 A 
ATOM     17  C   UNL A   1      36.966  21.443  24.707  1.00  0.00     0.002 A 
ATOM     18  C   UNL A   1      37.627  23.445  25.856  1.00  0.00     0.041 A 
ATOM     19  C   UNL A   1      37.934  22.172  25.389  1.00  0.00     0.020 A 
ATOM     20  Cl  UNL A   1      38.823  24.356  26.693  1.00  0.00    -0.084 Cl
ENDBRANCH   8  14
ENDBRANCH   6   8
ENDBRANCH   5   6
ENDBRANCH   4   5
ENDBRANCH   3   4
ENDBRANCH   2   3
ENDBRANCH   1   2
BRANCH   1  21
ATOM     21  C   UNL A   1      31.754  30.874  26.556  1.00  0.00     0.261 C 
BRANCH  21  22
ATOM     22  O   UNL A   1      32.910  30.609  27.370  1.00  0.00    -0.460 OA
BRANCH  22  23
ATOM     23  C   UNL A   1      33.677  31.696  27.624  1.00  0.00     0.338 C 
ATOM     24  O   UNL A   1      33.298  32.853  27.767  1.00  0.00    -0.246 OA
BRANCH  23  25
ATOM     25  C   UNL A   1      35.070  31.303  27.893  1.00  0.00     0.060 A 
ATOM     26  C   UNL A   1      35.338  29.930  27.971  1.00  0.00     0.016 A 
ATOM     27  C   UNL A   1      36.059  32.239  28.194  1.00  0.00     0.016 A 
ATOM     28  C   UNL A   1      36.576  29.488  28.426  1.00  0.00     0.010 A 
ATOM     29  C   UNL A   1      37.303  31.793  28.660  1.00  0.00     0.010 A 
ATOM     30  C   UNL A   1      37.544  30.418  28.828  1.00  0.00    -0.014 A 
BRANCH  30  31
ATOM     31  C   UNL A   1      38.709  29.931  29.607  1.00  0.00     0.031 A 
ATOM     32  C   UNL A   1      38.889  30.420  31.021  1.00  0.00     0.074 A 
ATOM     33  C   UNL A   1      39.546  29.009  29.101  1.00  0.00     0.049 A 
ATOM     34  N   UNL A   1      39.790  30.087  31.909  1.00  0.00    -0.248 NA
ATOM     35  C   UNL A   1      37.916  31.418  31.497  1.00  0.00     0.031 C 
ATOM     36  C   UNL A   1      39.459  28.437  27.759  1.00  0.00     0.029 A 
ATOM     37  N   UNL A   1      40.632  28.387  29.664  1.00  0.00    -0.354 N 
ATOM     38  C   UNL A   1      39.495  30.831  33.044  1.00  0.00     0.074 A 
ATOM     39  C   UNL A   1      38.351  31.656  32.726  1.00  0.00     0.031 C 
ATOM     40  C   UNL A   1      40.455  27.548  27.600  1.00  0.00     0.029 A 
ATOM     41  C   UNL A   1      41.255  27.500  28.823  1.00  0.00     0.049 A 
ATOM     42  H   UNL A   1      40.934  28.562  30.585  1.00  0.00     0.167 HD
ATOM     43  C   UNL A   1      40.114  30.819  34.249  1.00  0.00     0.037 A 
ATOM     44  C   UNL A   1      42.350  26.741  29.021  1.00  0.00     0.037 A 
ATOM     45  C   UNL A   1      41.245  29.991  34.572  1.00  0.00     0.049 A 
ATOM     46  C   UNL A   1      43.036  26.765  30.362  1.00  0.00     0.074 A 
ATOM     47  C   UNL A   1      41.934  29.898  35.768  1.00  0.00     0.029 A 
ATOM     48  N   UNL A   1      41.855  29.115  33.688  1.00  0.00    -0.354 N 
ATOM     49  N   UNL A   1      42.729  27.448  31.438  1.00  0.00    -0.248 NA
ATOM     50  C   UNL A   1      44.214  25.900  30.518  1.00  0.00     0.031 C 
ATOM     51  C   UNL A   1      42.986  28.991  35.597  1.00  0.00     0.029 A 
ATOM     52  C   UNL A   1      42.924  28.486  34.308  1.00  0.00     0.049 A 
ATOM     53  H   UNL A   1      41.571  28.961  32.758  1.00  0.00     0.167 HD
ATOM     54  C   UNL A   1      43.654  27.075  32.405  1.00  0.00     0.074 A 
ATOM     55  C   UNL A   1      44.525  26.094  31.792  1.00  0.00     0.031 C 
ATOM     56  C   UNL A   1      43.772  27.504  33.686  1.00  0.00     0.037 A 
BRANCH  43  57
ATOM     57  C   UNL A   1      39.589  31.745  35.306  1.00  0.00     0.064 A 
ATOM     58  C   UNL A   1      38.644  31.321  36.251  1.00  0.00     0.173 A 
ATOM     59  C   UNL A   1      40.064  33.061  35.393  1.00  0.00     0.173 A 
ATOM     60  F   UNL A   1      38.147  30.076  36.198  1.00  0.00    -0.203 F 
ATOM     61  C   UNL A   1      38.181  32.189  37.238  1.00  0.00     0.198 A 
ATOM     62  C   UNL A   1      39.618  33.919  36.395  1.00  0.00     0.198 A 
ATOM     63  F   UNL A   1      40.970  33.513  34.512  1.00  0.00    -0.203 F 
ATOM     64  F   UNL A   1      37.250  31.776  38.109  1.00  0.00    -0.200 F 
ATOM     65  C   UNL A   1      38.673  33.484  37.312  1.00  0.00     0.200 A 
ATOM     66  F   UNL A   1      40.100  35.167  36.471  1.00  0.00    -0.200 F 
ATOM     67  F   UNL A   1      38.231  34.316  38.266  1.00  0.00    -0.200 F 
ENDBRANCH  43  57
BRANCH  44  68
ATOM     68  C   UNL A   1      42.869  25.886  27.921  1.00  0.00     0.064 A 
ATOM     69  C   UNL A   1      43.806  26.373  27.001  1.00  0.00     0.173 A 
ATOM     70  C   UNL A   1      42.413  24.570  27.755  1.00  0.00     0.173 A 
ATOM     71  F   UNL A   1      44.253  27.634  27.104  1.00  0.00    -0.203 F 
ATOM     72  C   UNL A   1      44.253  25.583  25.943  1.00  0.00     0.198 A 
ATOM     73  C   UNL A   1      42.881  23.773  26.714  1.00  0.00     0.198 A 
ATOM     74  F   UNL A   1      41.515  24.057  28.609  1.00  0.00    -0.203 F 
ATOM     75  F   UNL A   1      45.113  26.090  25.049  1.00  0.00    -0.200 F 
ATOM     76  C   UNL A   1      43.794  24.283  25.803  1.00  0.00     0.200 A 
ATOM     77  F   UNL A   1      42.442  22.512  26.588  1.00  0.00    -0.200 F 
ATOM     78  F   UNL A   1      44.223  23.524  24.786  1.00  0.00    -0.200 F 
ENDBRANCH  44  68
BRANCH  56  79
ATOM     79  C   UNL A   1      44.855  26.887  34.520  1.00  0.00     0.064 A 
ATOM     80  C   UNL A   1      46.142  27.441  34.585  1.00  0.00     0.173 A 
ATOM     81  C   UNL A   1      44.593  25.742  35.288  1.00  0.00     0.173 A 
ATOM     82  F   UNL A   1      46.444  28.529  33.860  1.00  0.00    -0.203 F 
ATOM     83  C   UNL A   1      47.135  26.854  35.364  1.00  0.00     0.198 A 
ATOM     84  C   UNL A   1      45.581  25.173  36.087  1.00  0.00     0.198 A 
ATOM     85  F   UNL A   1      43.376  25.177  35.267  1.00  0.00    -0.203 F 
ATOM     86  F   UNL A   1      48.371  27.373  35.371  1.00  0.00    -0.200 F 
ATOM     87  C   UNL A   1      46.853  25.725  36.117  1.00  0.00     0.200 A 
ATOM     88  F   UNL A   1      45.304  24.088  36.824  1.00  0.00    -0.200 F 
ATOM     89  F   UNL A   1      47.811  25.161  36.867  1.00  0.00    -0.200 F 
ENDBRANCH  56  79
ENDBRANCH  30  31
ENDBRANCH  23  25
ENDBRANCH  22  23
ENDBRANCH  21  22
ENDBRANCH   1  21
TORSDOF 16
ENDMDL
MODEL 3
REMARK VINA RESULT:     -11.0      4.365      9.756
REMARK SMILES C[NH2+][C@](C)(C(=O)OCCOCCOC(=O)c1ccc(-c2c3nc(c(-c4c(F)c(F)c(F)c(F)c4F)c4ccc([nH]4)c(-c4c(F)c(F)c(F)c(F)c4F)c4nc(c(-c5c(F)c(F)c(F)c(F)c5F)c5ccc2[nH]5)C=C4)C=C3)cc1)c1cccc(Cl)c1
REMARK SMILES IDX 11 1 10 2 9 3 8 4 7 5 5 6 6 7 3 8 4 9 2 10 1 11 79 14 80 15
REMARK SMILES IDX 85 16 81 17 83 18 82 19 84 20 12 21 13 22 14 23 15 24 16 25
REMARK SMILES IDX 17 26 78 27 18 28 77 29 19 30 20 31 21 32 71 33 22 34 76 35
REMARK SMILES IDX 70 36 72 37 23 38 75 39 69 40 68 41 24 43 56 44 36 45 55 46
REMARK SMILES IDX 37 47 40 48 54 49 73 50 38 51 39 52 53 54 74 55 41 56 25 57
REMARK SMILES IDX 26 58 34 59 27 60 28 61 32 62 35 63 29 64 30 65 33 66 31 67
REMARK SMILES IDX 57 68 58 69 66 70 59 71 60 72 64 73 67 74 61 75 62 76 65 77
REMARK SMILES IDX 63 78 42 79 43 80 51 81 44 82 45 83 49 84 52 85 46 86 47 87
REMARK SMILES IDX 50 88 48 89
REMARK H PARENT 2 12 2 13 72 42 40 53
REMARK Flexibility Score: inf
ROOT
ATOM      1  C   UNL A   1      36.149  20.572  25.067  1.00  0.00     0.202 C 
ENDROOT
BRANCH   1   2
ATOM      2  O   UNL A   1      35.711  21.672  25.865  1.00  0.00    -0.374 OA
BRANCH   2   3
ATOM      3  C   UNL A   1      34.480  21.524  26.570  1.00  0.00     0.202 C 
BRANCH   3   4
ATOM      4  C   UNL A   1      33.795  22.813  27.033  1.00  0.00     0.261 C 
BRANCH   4   5
ATOM      5  O   UNL A   1      33.590  23.736  25.950  1.00  0.00    -0.458 OA
BRANCH   5   6
ATOM      6  C   UNL A   1      32.587  24.649  26.132  1.00  0.00     0.372 C 
ATOM      7  O   UNL A   1      31.735  24.551  27.012  1.00  0.00    -0.244 OA
BRANCH   6   8
ATOM      8  C   UNL A   1      32.636  25.814  25.069  1.00  0.00     0.216 C 
ATOM      9  C   UNL A   1      33.846  25.699  24.110  1.00  0.00     0.098 C 
BRANCH   8  10
ATOM     10  N   UNL A   1      31.398  25.806  24.220  1.00  0.00    -0.331 N 
ATOM     11  C   UNL A   1      31.584  25.514  22.809  1.00  0.00     0.332 C 
ATOM     12  H   UNL A   1      30.765  25.103  24.602  1.00  0.00     0.347 HD
ATOM     13  H   UNL A   1      31.039  26.759  24.255  1.00  0.00     0.347 HD
ENDBRANCH   8  10
BRANCH   8  14
ATOM     14  C   UNL A   1      32.755  27.191  25.782  1.00  0.00     0.025 A 
ATOM     15  C   UNL A   1      31.654  28.060  25.924  1.00  0.00     0.011 A 
ATOM     16  C   UNL A   1      33.980  27.609  26.342  1.00  0.00     0.031 A 
ATOM     17  C   UNL A   1      31.777  29.300  26.559  1.00  0.00     0.002 A 
ATOM     18  C   UNL A   1      34.098  28.847  26.977  1.00  0.00     0.041 A 
ATOM     19  C   UNL A   1      33.002  29.697  27.084  1.00  0.00     0.020 A 
ATOM     20  Cl  UNL A   1      35.615  29.328  27.633  1.00  0.00    -0.084 Cl
ENDBRANCH   8  14
ENDBRANCH   6   8
ENDBRANCH   5   6
ENDBRANCH   4   5
ENDBRANCH   3   4
ENDBRANCH   2   3
ENDBRANCH   1   2
BRANCH   1  21
ATOM     21  C   UNL A   1      37.661  20.324  25.002  1.00  0.00     0.261 C 
BRANCH  21  22
ATOM     22  O   UNL A   1      38.414  21.505  25.329  1.00  0.00    -0.460 OA
BRANCH  22  23
ATOM     23  C   UNL A   1      39.491  21.281  26.120  1.00  0.00     0.338 C 
ATOM     24  O   UNL A   1      40.210  20.289  26.131  1.00  0.00    -0.246 OA
BRANCH  23  25
ATOM     25  C   UNL A   1      39.830  22.486  26.895  1.00  0.00     0.060 A 
ATOM     26  C   UNL A   1      39.127  23.658  26.586  1.00  0.00     0.016 A 
ATOM     27  C   UNL A   1      40.891  22.511  27.800  1.00  0.00     0.016 A 
ATOM     28  C   UNL A   1      39.534  24.876  27.123  1.00  0.00     0.010 A 
ATOM     29  C   UNL A   1      41.305  23.738  28.334  1.00  0.00     0.010 A 
ATOM     30  C   UNL A   1      40.661  24.930  27.954  1.00  0.00    -0.014 A 
BRANCH  30  31
ATOM     31  C   UNL A   1      41.263  26.255  28.240  1.00  0.00     0.031 A 
ATOM     32  C   UNL A   1      42.657  26.539  27.744  1.00  0.00     0.074 A 
ATOM     33  C   UNL A   1      40.557  27.219  28.856  1.00  0.00     0.049 A 
ATOM     34  N   UNL A   1      43.360  27.640  27.820  1.00  0.00    -0.248 NA
ATOM     35  C   UNL A   1      43.349  25.429  27.068  1.00  0.00     0.031 C 
ATOM     36  C   UNL A   1      39.191  27.076  29.354  1.00  0.00     0.029 A 
ATOM     37  N   UNL A   1      40.894  28.514  29.159  1.00  0.00    -0.354 N 
ATOM     38  C   UNL A   1      44.572  27.357  27.205  1.00  0.00     0.074 A 
ATOM     39  C   UNL A   1      44.524  25.973  26.786  1.00  0.00     0.031 C 
ATOM     40  C   UNL A   1      38.806  28.240  29.907  1.00  0.00     0.029 A 
ATOM     41  C   UNL A   1      39.903  29.202  29.812  1.00  0.00     0.049 A 
ATOM     42  H   UNL A   1      41.766  28.911  28.930  1.00  0.00     0.167 HD
ATOM     43  C   UNL A   1      45.627  28.180  26.994  1.00  0.00     0.037 A 
ATOM     44  C   UNL A   1      39.889  30.464  30.283  1.00  0.00     0.037 A 
ATOM     45  C   UNL A   1      45.673  29.560  27.399  1.00  0.00     0.049 A 
ATOM     46  C   UNL A   1      41.085  31.352  30.059  1.00  0.00     0.074 A 
ATOM     47  C   UNL A   1      46.692  30.479  27.220  1.00  0.00     0.029 A 
ATOM     48  N   UNL A   1      44.653  30.216  28.070  1.00  0.00    -0.354 N 
ATOM     49  N   UNL A   1      42.213  31.084  29.447  1.00  0.00    -0.248 NA
ATOM     50  C   UNL A   1      40.999  32.724  30.580  1.00  0.00     0.031 C 
ATOM     51  C   UNL A   1      46.303  31.683  27.816  1.00  0.00     0.029 A 
ATOM     52  C   UNL A   1      45.024  31.527  28.326  1.00  0.00     0.049 A 
ATOM     53  H   UNL A   1      43.793  29.812  28.325  1.00  0.00     0.167 HD
ATOM     54  C   UNL A   1      42.957  32.257  29.483  1.00  0.00     0.074 A 
ATOM     55  C   UNL A   1      42.145  33.243  30.165  1.00  0.00     0.031 C 
ATOM     56  C   UNL A   1      44.199  32.498  28.995  1.00  0.00     0.037 A 
BRANCH  43  57
ATOM     57  C   UNL A   1      46.829  27.603  26.307  1.00  0.00     0.064 A 
ATOM     58  C   UNL A   1      47.865  26.991  27.029  1.00  0.00     0.173 A 
ATOM     59  C   UNL A   1      46.927  27.631  24.909  1.00  0.00     0.173 A 
ATOM     60  F   UNL A   1      47.825  26.955  28.369  1.00  0.00    -0.203 F 
ATOM     61  C   UNL A   1      48.966  26.444  26.374  1.00  0.00     0.198 A 
ATOM     62  C   UNL A   1      48.017  27.061  24.256  1.00  0.00     0.198 A 
ATOM     63  F   UNL A   1      45.961  28.203  24.174  1.00  0.00    -0.203 F 
ATOM     64  F   UNL A   1      49.963  25.898  27.084  1.00  0.00    -0.200 F 
ATOM     65  C   UNL A   1      49.037  26.473  24.989  1.00  0.00     0.200 A 
ATOM     66  F   UNL A   1      48.081  27.083  22.917  1.00  0.00    -0.200 F 
ATOM     67  F   UNL A   1      50.094  25.940  24.359  1.00  0.00    -0.200 F 
ENDBRANCH  43  57
BRANCH  44  68
ATOM     68  C   UNL A   1      38.697  30.971  31.012  1.00  0.00     0.064 A 
ATOM     69  C   UNL A   1      38.616  30.906  32.409  1.00  0.00     0.173 A 
ATOM     70  C   UNL A   1      37.602  31.507  30.319  1.00  0.00     0.173 A 
ATOM     71  F   UNL A   1      39.629  30.378  33.114  1.00  0.00    -0.203 F 
ATOM     72  C   UNL A   1      37.477  31.338  33.085  1.00  0.00     0.198 A 
ATOM     73  C   UNL A   1      36.475  31.964  30.997  1.00  0.00     0.198 A 
ATOM     74  F   UNL A   1      37.630  31.591  28.980  1.00  0.00    -0.203 F 
ATOM     75  F   UNL A   1      37.406  31.219  34.418  1.00  0.00    -0.200 F 
ATOM     76  C   UNL A   1      36.409  31.871  32.380  1.00  0.00     0.200 A 
ATOM     77  F   UNL A   1      35.449  32.487  30.311  1.00  0.00    -0.200 F 
ATOM     78  F   UNL A   1      35.314  32.285  33.029  1.00  0.00    -0.200 F 
ENDBRANCH  44  68
BRANCH  56  79
ATOM     79  C   UNL A   1      44.738  33.889  29.146  1.00  0.00     0.064 A 
ATOM     80  C   UNL A   1      45.488  34.271  30.268  1.00  0.00     0.173 A 
ATOM     81  C   UNL A   1      44.527  34.844  28.140  1.00  0.00     0.173 A 
ATOM     82  F   UNL A   1      45.707  33.397  31.262  1.00  0.00    -0.203 F 
ATOM     83  C   UNL A   1      45.980  35.567  30.392  1.00  0.00     0.198 A 
ATOM     84  C   UNL A   1      45.044  36.132  28.254  1.00  0.00     0.198 A 
ATOM     85  F   UNL A   1      43.824  34.527  27.042  1.00  0.00    -0.203 F 
ATOM     86  F   UNL A   1      46.651  35.924  31.496  1.00  0.00    -0.200 F 
ATOM     87  C   UNL A   1      45.762  36.494  29.384  1.00  0.00     0.200 A 
ATOM     88  F   UNL A   1      44.843  37.024  27.274  1.00  0.00    -0.200 F 
ATOM     89  F   UNL A   1      46.237  37.742  29.504  1.00  0.00    -0.200 F 
ENDBRANCH  56  79
ENDBRANCH  30  31
ENDBRANCH  23  25
ENDBRANCH  22  23
ENDBRANCH  21  22
ENDBRANCH   1  21
TORSDOF 16
ENDMDL
