MODEL 1
REMARK VINA RESULT:     -12.7      0.000      0.000
REMARK SMILES Cc1cc(C)c2c(CCCC(=O)OCCOCCOC(=O)c3ccc(-c4c5nc(c(-c6c(F)c(F)c(F)c(F)c6F)c6ccc([nH]6)c(-c6c(F)c(F)c(F)c(F)c6F)c6nc(c(-c7c(F)c(F)c(F)c(F)c7F)c7ccc4[nH]7)C=C6)C=C5)cc3)c(-c3ccccn3)[nH]c2c1
REMARK SMILES IDX 15 1 14 2 13 3 11 4 12 5 10 6 9 7 8 8 7 9 1 10 2 11 3 12
REMARK SMILES IDX 94 13 4 14 93 15 5 16 6 17 92 18 85 19 86 21 87 22 91 23
REMARK SMILES IDX 88 24 90 25 89 26 16 27 17 28 18 29 19 30 20 31 21 32 22 33
REMARK SMILES IDX 23 34 84 35 24 36 83 37 25 38 26 39 27 40 77 41 28 42 82 43
REMARK SMILES IDX 76 44 78 45 29 46 81 47 75 48 74 49 30 51 62 52 42 53 61 54
REMARK SMILES IDX 43 55 46 56 60 57 79 58 44 59 45 60 59 62 80 63 47 64 31 65
REMARK SMILES IDX 32 66 40 67 33 68 34 69 38 70 41 71 35 72 36 73 39 74 37 75
REMARK SMILES IDX 63 76 64 77 72 78 65 79 66 80 70 81 73 82 67 83 68 84 71 85
REMARK SMILES IDX 69 86 48 87 49 88 57 89 50 90 51 91 55 92 58 93 52 94 53 95
REMARK SMILES IDX 56 96 54 97
REMARK H PARENT 92 20 78 50 46 61
REMARK Flexibility Score: inf
ROOT
ATOM      1  C   UNL A   1      41.452  20.930  27.344  1.00  0.00     0.202 C 
ENDROOT
BRANCH   1   2
ATOM      2  C   UNL A   1      40.222  21.198  26.488  1.00  0.00     0.261 C 
BRANCH   2   3
ATOM      3  O   UNL A   1      39.839  22.581  26.540  1.00  0.00    -0.463 OA
BRANCH   3   4
ATOM      4  C   UNL A   1      38.595  22.899  26.106  1.00  0.00     0.305 C 
ATOM      5  O   UNL A   1      38.078  24.002  26.240  1.00  0.00    -0.252 OA
BRANCH   4   6
ATOM      6  C   UNL A   1      37.933  21.782  25.324  1.00  0.00     0.123 C 
BRANCH   6   7
ATOM      7  C   UNL A   1      36.505  21.369  25.673  1.00  0.00     0.017 C 
BRANCH   7   8
ATOM      8  C   UNL A   1      35.410  21.459  24.609  1.00  0.00     0.039 C 
BRANCH   8   9
ATOM      9  C   UNL A   1      33.978  21.466  25.056  1.00  0.00    -0.013 A 
ATOM     10  C   UNL A   1      29.896  25.395  26.023  1.00  0.00     0.044 C 
ATOM     11  C   UNL A   1      31.039  24.452  25.794  1.00  0.00    -0.049 A 
ATOM     12  C   UNL A   1      32.327  24.930  25.550  1.00  0.00     0.007 A 
ATOM     13  C   UNL A   1      30.808  23.077  25.821  1.00  0.00     0.030 A 
ATOM     14  C   UNL A   1      33.425  24.068  25.316  1.00  0.00    -0.041 A 
ATOM     15  C   UNL A   1      31.887  22.221  25.581  1.00  0.00     0.047 A 
ATOM     16  C   UNL A   1      34.762  24.717  25.064  1.00  0.00     0.045 C 
ATOM     17  C   UNL A   1      33.184  22.660  25.316  1.00  0.00     0.006 A 
ATOM     18  N   UNL A   1      31.897  20.853  25.554  1.00  0.00    -0.353 N 
ATOM     19  C   UNL A   1      33.117  20.372  25.164  1.00  0.00     0.068 A 
ATOM     20  H   UNL A   1      31.125  20.288  25.786  1.00  0.00     0.167 HD
BRANCH  19  21
ATOM     21  C   UNL A   1      33.264  18.939  24.955  1.00  0.00     0.087 A 
ATOM     22  C   UNL A   1      34.431  18.377  24.457  1.00  0.00     0.030 A 
ATOM     23  N   UNL A   1      32.159  18.219  25.238  1.00  0.00    -0.255 NA
ATOM     24  C   UNL A   1      34.489  16.989  24.319  1.00  0.00     0.004 A 
ATOM     25  C   UNL A   1      32.254  16.874  25.124  1.00  0.00     0.112 A 
ATOM     26  C   UNL A   1      33.391  16.219  24.685  1.00  0.00     0.020 A 
ENDBRANCH  19  21
ENDBRANCH   8   9
ENDBRANCH   7   8
ENDBRANCH   6   7
ENDBRANCH   4   6
ENDBRANCH   3   4
ENDBRANCH   2   3
ENDBRANCH   1   2
BRANCH   1  27
ATOM     27  O   UNL A   1      41.973  19.602  27.355  1.00  0.00    -0.374 OA
BRANCH  27  28
ATOM     28  C   UNL A   1      42.183  18.902  26.134  1.00  0.00     0.202 C 
BRANCH  28  29
ATOM     29  C   UNL A   1      43.536  19.044  25.455  1.00  0.00     0.261 C 
BRANCH  29  30
ATOM     30  O   UNL A   1      43.755  20.370  25.000  1.00  0.00    -0.460 OA
BRANCH  30  31
ATOM     31  C   UNL A   1      45.065  20.705  24.929  1.00  0.00     0.338 C 
ATOM     32  O   UNL A   1      46.023  19.967  24.997  1.00  0.00    -0.246 OA
BRANCH  31  33
ATOM     33  C   UNL A   1      45.164  22.170  24.917  1.00  0.00     0.060 A 
ATOM     34  C   UNL A   1      46.049  22.700  25.852  1.00  0.00     0.016 A 
ATOM     35  C   UNL A   1      44.166  22.943  24.306  1.00  0.00     0.016 A 
ATOM     36  C   UNL A   1      45.723  23.909  26.410  1.00  0.00     0.010 A 
ATOM     37  C   UNL A   1      43.854  24.164  24.849  1.00  0.00     0.010 A 
ATOM     38  C   UNL A   1      44.561  24.564  25.973  1.00  0.00    -0.014 A 
BRANCH  38  39
ATOM     39  C   UNL A   1      44.150  25.728  26.721  1.00  0.00     0.031 A 
ATOM     40  C   UNL A   1      45.084  26.853  26.529  1.00  0.00     0.074 A 
ATOM     41  C   UNL A   1      43.054  25.751  27.499  1.00  0.00     0.049 A 
ATOM     42  N   UNL A   1      45.926  27.319  27.387  1.00  0.00    -0.248 NA
ATOM     43  C   UNL A   1      45.251  27.371  25.163  1.00  0.00     0.031 C 
ATOM     44  C   UNL A   1      41.958  24.781  27.582  1.00  0.00     0.029 A 
ATOM     45  N   UNL A   1      42.663  26.723  28.364  1.00  0.00    -0.354 N 
ATOM     46  C   UNL A   1      46.614  28.322  26.720  1.00  0.00     0.074 A 
ATOM     47  C   UNL A   1      46.285  28.197  25.325  1.00  0.00     0.031 C 
ATOM     48  C   UNL A   1      40.928  25.326  28.273  1.00  0.00     0.029 A 
ATOM     49  C   UNL A   1      41.352  26.607  28.810  1.00  0.00     0.049 A 
ATOM     50  H   UNL A   1      43.260  27.452  28.652  1.00  0.00     0.167 HD
ATOM     51  C   UNL A   1      47.190  29.339  27.410  1.00  0.00     0.037 A 
ATOM     52  C   UNL A   1      40.682  27.549  29.521  1.00  0.00     0.037 A 
ATOM     53  C   UNL A   1      47.365  28.998  28.798  1.00  0.00     0.049 A 
ATOM     54  C   UNL A   1      41.703  28.419  30.149  1.00  0.00     0.074 A 
ATOM     55  C   UNL A   1      48.164  28.125  29.504  1.00  0.00     0.029 A 
ATOM     56  N   UNL A   1      46.331  29.343  29.628  1.00  0.00    -0.354 N 
ATOM     57  N   UNL A   1      42.497  28.036  31.107  1.00  0.00    -0.248 NA
ATOM     58  C   UNL A   1      42.109  29.628  29.446  1.00  0.00     0.031 C 
ATOM     59  C   UNL A   1      47.381  27.704  30.621  1.00  0.00     0.029 A 
ATOM     60  C   UNL A   1      46.156  28.369  30.576  1.00  0.00     0.049 A 
ATOM     61  H   UNL A   1      45.796  30.165  29.555  1.00  0.00     0.167 HD
ATOM     62  C   UNL A   1      43.693  28.683  30.849  1.00  0.00     0.074 A 
ATOM     63  C   UNL A   1      43.352  29.752  29.917  1.00  0.00     0.031 C 
ATOM     64  C   UNL A   1      44.878  28.100  31.195  1.00  0.00     0.037 A 
BRANCH  51  65
ATOM     65  C   UNL A   1      47.159  30.763  26.923  1.00  0.00     0.064 A 
ATOM     66  C   UNL A   1      48.339  31.527  26.941  1.00  0.00     0.173 A 
ATOM     67  C   UNL A   1      45.963  31.490  26.717  1.00  0.00     0.173 A 
ATOM     68  F   UNL A   1      49.524  30.945  27.183  1.00  0.00    -0.203 F 
ATOM     69  C   UNL A   1      48.317  32.918  26.799  1.00  0.00     0.198 A 
ATOM     70  C   UNL A   1      45.950  32.867  26.516  1.00  0.00     0.198 A 
ATOM     71  F   UNL A   1      44.756  30.921  26.820  1.00  0.00    -0.203 F 
ATOM     72  F   UNL A   1      49.450  33.619  26.933  1.00  0.00    -0.200 F 
ATOM     73  C   UNL A   1      47.123  33.585  26.583  1.00  0.00     0.200 A 
ATOM     74  F   UNL A   1      44.779  33.496  26.342  1.00  0.00    -0.200 F 
ATOM     75  F   UNL A   1      47.094  34.921  26.493  1.00  0.00    -0.200 F 
ENDBRANCH  51  65
BRANCH  52  76
ATOM     76  C   UNL A   1      39.272  27.993  29.413  1.00  0.00     0.064 A 
ATOM     77  C   UNL A   1      38.494  28.152  30.575  1.00  0.00     0.173 A 
ATOM     78  C   UNL A   1      38.788  28.608  28.245  1.00  0.00     0.173 A 
ATOM     79  F   UNL A   1      38.901  27.620  31.737  1.00  0.00    -0.203 F 
ATOM     80  C   UNL A   1      37.344  28.947  30.586  1.00  0.00     0.198 A 
ATOM     81  C   UNL A   1      37.634  29.396  28.257  1.00  0.00     0.198 A 
ATOM     82  F   UNL A   1      39.483  28.552  27.101  1.00  0.00    -0.203 F 
ATOM     83  F   UNL A   1      36.686  29.154  31.735  1.00  0.00    -0.200 F 
ATOM     84  C   UNL A   1      36.928  29.585  29.431  1.00  0.00     0.200 A 
ATOM     85  F   UNL A   1      37.258  30.039  27.141  1.00  0.00    -0.200 F 
ATOM     86  F   UNL A   1      35.878  30.418  29.460  1.00  0.00    -0.200 F 
ENDBRANCH  52  76
BRANCH  64  87
ATOM     87  C   UNL A   1      44.805  26.962  32.178  1.00  0.00     0.064 A 
ATOM     88  C   UNL A   1      44.603  25.616  31.828  1.00  0.00     0.173 A 
ATOM     89  C   UNL A   1      45.021  27.251  33.531  1.00  0.00     0.173 A 
ATOM     90  F   UNL A   1      44.474  25.247  30.546  1.00  0.00    -0.203 F 
ATOM     91  C   UNL A   1      44.570  24.615  32.800  1.00  0.00     0.198 A 
ATOM     92  C   UNL A   1      45.026  26.246  34.494  1.00  0.00     0.198 A 
ATOM     93  F   UNL A   1      45.262  28.514  33.918  1.00  0.00    -0.203 F 
ATOM     94  F   UNL A   1      44.348  23.339  32.446  1.00  0.00    -0.200 F 
ATOM     95  C   UNL A   1      44.787  24.931  34.131  1.00  0.00     0.200 A 
ATOM     96  F   UNL A   1      45.280  26.552  35.774  1.00  0.00    -0.200 F 
ATOM     97  F   UNL A   1      44.785  23.967  35.062  1.00  0.00    -0.200 F 
ENDBRANCH  64  87
ENDBRANCH  38  39
ENDBRANCH  31  33
ENDBRANCH  30  31
ENDBRANCH  29  30
ENDBRANCH  28  29
ENDBRANCH  27  28
ENDBRANCH   1  27
TORSDOF 18
ENDMDL
MODEL 2
REMARK VINA RESULT:     -12.6      3.467      8.507
REMARK SMILES Cc1cc(C)c2c(CCCC(=O)OCCOCCOC(=O)c3ccc(-c4c5nc(c(-c6c(F)c(F)c(F)c(F)c6F)c6ccc([nH]6)c(-c6c(F)c(F)c(F)c(F)c6F)c6nc(c(-c7c(F)c(F)c(F)c(F)c7F)c7ccc4[nH]7)C=C6)C=C5)cc3)c(-c3ccccn3)[nH]c2c1
REMARK SMILES IDX 15 1 14 2 13 3 11 4 12 5 10 6 9 7 8 8 7 9 1 10 2 11 3 12
REMARK SMILES IDX 94 13 4 14 93 15 5 16 6 17 92 18 85 19 86 21 87 22 91 23
REMARK SMILES IDX 88 24 90 25 89 26 16 27 17 28 18 29 19 30 20 31 21 32 22 33
REMARK SMILES IDX 23 34 84 35 24 36 83 37 25 38 26 39 27 40 77 41 28 42 82 43
REMARK SMILES IDX 76 44 78 45 29 46 81 47 75 48 74 49 30 51 62 52 42 53 61 54
REMARK SMILES IDX 43 55 46 56 60 57 79 58 44 59 45 60 59 62 80 63 47 64 31 65
REMARK SMILES IDX 32 66 40 67 33 68 34 69 38 70 41 71 35 72 36 73 39 74 37 75
REMARK SMILES IDX 63 76 64 77 72 78 65 79 66 80 70 81 73 82 67 83 68 84 71 85
REMARK SMILES IDX 69 86 48 87 49 88 57 89 50 90 51 91 55 92 58 93 52 94 53 95
REMARK SMILES IDX 56 96 54 97
REMARK H PARENT 92 20 78 50 46 61
REMARK Flexibility Score: inf
ROOT
ATOM      1  C   UNL A   1      31.437  27.438  26.873  1.00  0.00     0.202 C 
ENDROOT
BRANCH   1   2
ATOM      2  C   UNL A   1      31.393  26.157  26.052  1.00  0.00     0.261 C 
BRANCH   2   3
ATOM      3  O   UNL A   1      31.539  24.996  26.885  1.00  0.00    -0.463 OA
BRANCH   3   4
ATOM      4  C   UNL A   1      30.795  23.907  26.570  1.00  0.00     0.305 C 
ATOM      5  O   UNL A   1      29.873  23.479  27.255  1.00  0.00    -0.252 OA
BRANCH   4   6
ATOM      6  C   UNL A   1      31.138  23.323  25.214  1.00  0.00     0.123 C 
BRANCH   6   7
ATOM      7  C   UNL A   1      31.725  21.916  25.132  1.00  0.00     0.017 C 
BRANCH   7   8
ATOM      8  C   UNL A   1      32.748  21.585  24.044  1.00  0.00     0.039 C 
BRANCH   8   9
ATOM      9  C   UNL A   1      34.135  21.195  24.462  1.00  0.00    -0.013 A 
ATOM     10  C   UNL A   1      38.862  23.862  26.351  1.00  0.00     0.044 C 
ATOM     11  C   UNL A   1      37.600  23.265  25.805  1.00  0.00    -0.049 A 
ATOM     12  C   UNL A   1      36.558  24.076  25.353  1.00  0.00     0.007 A 
ATOM     13  C   UNL A   1      37.465  21.878  25.754  1.00  0.00     0.030 A 
ATOM     14  C   UNL A   1      35.348  23.545  24.846  1.00  0.00    -0.041 A 
ATOM     15  C   UNL A   1      36.269  21.348  25.263  1.00  0.00     0.047 A 
ATOM     16  C   UNL A   1      34.304  24.534  24.392  1.00  0.00     0.045 C 
ATOM     17  C   UNL A   1      35.198  22.125  24.819  1.00  0.00     0.006 A 
ATOM     18  N   UNL A   1      35.914  20.034  25.124  1.00  0.00    -0.353 N 
ATOM     19  C   UNL A   1      34.613  19.909  24.722  1.00  0.00     0.068 A 
ATOM     20  H   UNL A   1      36.519  19.276  25.293  1.00  0.00     0.167 HD
BRANCH  19  21
ATOM     21  C   UNL A   1      34.033  18.576  24.651  1.00  0.00     0.087 A 
ATOM     22  C   UNL A   1      34.567  17.573  23.854  1.00  0.00     0.030 A 
ATOM     23  N   UNL A   1      32.911  18.418  25.383  1.00  0.00    -0.255 NA
ATOM     24  C   UNL A   1      33.958  16.317  23.875  1.00  0.00     0.004 A 
ATOM     25  C   UNL A   1      32.359  17.183  25.408  1.00  0.00     0.112 A 
ATOM     26  C   UNL A   1      32.851  16.108  24.688  1.00  0.00     0.020 A 
ENDBRANCH  19  21
ENDBRANCH   8   9
ENDBRANCH   7   8
ENDBRANCH   6   7
ENDBRANCH   4   6
ENDBRANCH   3   4
ENDBRANCH   2   3
ENDBRANCH   1   2
BRANCH   1  27
ATOM     27  O   UNL A   1      32.703  28.078  27.031  1.00  0.00    -0.374 OA
BRANCH  27  28
ATOM     28  C   UNL A   1      33.028  29.228  26.258  1.00  0.00     0.202 C 
BRANCH  28  29
ATOM     29  C   UNL A   1      33.549  30.454  26.990  1.00  0.00     0.261 C 
BRANCH  29  30
ATOM     30  O   UNL A   1      34.731  30.163  27.720  1.00  0.00    -0.460 OA
BRANCH  30  31
ATOM     31  C   UNL A   1      35.425  31.268  28.083  1.00  0.00     0.338 C 
ATOM     32  O   UNL A   1      35.321  32.388  27.635  1.00  0.00    -0.246 OA
BRANCH  31  33
ATOM     33  C   UNL A   1      36.474  30.860  29.025  1.00  0.00     0.060 A 
ATOM     34  C   UNL A   1      37.698  31.499  28.844  1.00  0.00     0.016 A 
ATOM     35  C   UNL A   1      36.351  29.666  29.751  1.00  0.00     0.016 A 
ATOM     36  C   UNL A   1      38.831  30.773  29.107  1.00  0.00     0.010 A 
ATOM     37  C   UNL A   1      37.486  28.949  30.035  1.00  0.00     0.010 A 
ATOM     38  C   UNL A   1      38.696  29.463  29.591  1.00  0.00    -0.014 A 
BRANCH  38  39
ATOM     39  C   UNL A   1      39.900  28.669  29.665  1.00  0.00     0.031 A 
ATOM     40  C   UNL A   1      40.379  28.539  31.053  1.00  0.00     0.074 A 
ATOM     41  C   UNL A   1      40.496  28.140  28.582  1.00  0.00     0.049 A 
ATOM     42  N   UNL A   1      41.415  29.102  31.574  1.00  0.00    -0.248 NA
ATOM     43  C   UNL A   1      39.484  27.885  32.021  1.00  0.00     0.031 C 
ATOM     44  C   UNL A   1      39.991  28.023  27.212  1.00  0.00     0.029 A 
ATOM     45  N   UNL A   1      41.704  27.520  28.513  1.00  0.00    -0.354 N 
ATOM     46  C   UNL A   1      41.406  28.725  32.909  1.00  0.00     0.074 A 
ATOM     47  C   UNL A   1      40.121  28.129  33.167  1.00  0.00     0.031 C 
ATOM     48  C   UNL A   1      40.784  27.176  26.512  1.00  0.00     0.029 A 
ATOM     49  C   UNL A   1      41.929  26.823  27.332  1.00  0.00     0.049 A 
ATOM     50  H   UNL A   1      42.367  27.563  29.240  1.00  0.00     0.167 HD
ATOM     51  C   UNL A   1      42.559  28.696  33.625  1.00  0.00     0.037 A 
ATOM     52  C   UNL A   1      42.968  25.980  27.109  1.00  0.00     0.037 A 
ATOM     53  C   UNL A   1      43.587  29.481  32.994  1.00  0.00     0.049 A 
ATOM     54  C   UNL A   1      44.026  26.336  28.082  1.00  0.00     0.074 A 
ATOM     55  C   UNL A   1      43.807  30.825  32.778  1.00  0.00     0.029 A 
ATOM     56  N   UNL A   1      44.397  28.805  32.120  1.00  0.00    -0.354 N 
ATOM     57  N   UNL A   1      44.711  27.442  28.041  1.00  0.00    -0.248 NA
ATOM     58  C   UNL A   1      44.070  25.619  29.348  1.00  0.00     0.031 C 
ATOM     59  C   UNL A   1      44.491  30.906  31.528  1.00  0.00     0.029 A 
ATOM     60  C   UNL A   1      44.700  29.610  31.054  1.00  0.00     0.049 A 
ATOM     61  H   UNL A   1      44.713  27.881  32.240  1.00  0.00     0.167 HD
ATOM     62  C   UNL A   1      44.910  27.779  29.369  1.00  0.00     0.074 A 
ATOM     63  C   UNL A   1      44.631  26.557  30.115  1.00  0.00     0.031 C 
ATOM     64  C   UNL A   1      44.998  29.090  29.739  1.00  0.00     0.037 A 
BRANCH  51  65
ATOM     65  C   UNL A   1      42.865  27.606  34.617  1.00  0.00     0.064 A 
ATOM     66  C   UNL A   1      43.110  27.940  35.961  1.00  0.00     0.173 A 
ATOM     67  C   UNL A   1      43.213  26.287  34.242  1.00  0.00     0.173 A 
ATOM     68  F   UNL A   1      42.866  29.181  36.408  1.00  0.00    -0.203 F 
ATOM     69  C   UNL A   1      43.692  27.032  36.850  1.00  0.00     0.198 A 
ATOM     70  C   UNL A   1      43.738  25.367  35.144  1.00  0.00     0.198 A 
ATOM     71  F   UNL A   1      43.174  25.873  32.970  1.00  0.00    -0.203 F 
ATOM     72  F   UNL A   1      44.011  27.426  38.089  1.00  0.00    -0.200 F 
ATOM     73  C   UNL A   1      44.002  25.746  36.441  1.00  0.00     0.200 A 
ATOM     74  F   UNL A   1      44.060  24.137  34.718  1.00  0.00    -0.200 F 
ATOM     75  F   UNL A   1      44.602  24.890  37.279  1.00  0.00    -0.200 F 
ENDBRANCH  51  65
BRANCH  52  76
ATOM     76  C   UNL A   1      42.996  24.678  26.402  1.00  0.00     0.064 A 
ATOM     77  C   UNL A   1      43.831  24.503  25.282  1.00  0.00     0.173 A 
ATOM     78  C   UNL A   1      42.510  23.507  27.010  1.00  0.00     0.173 A 
ATOM     79  F   UNL A   1      44.358  25.569  24.661  1.00  0.00    -0.203 F 
ATOM     80  C   UNL A   1      44.220  23.233  24.846  1.00  0.00     0.198 A 
ATOM     81  C   UNL A   1      42.895  22.238  26.569  1.00  0.00     0.198 A 
ATOM     82  F   UNL A   1      41.748  23.570  28.110  1.00  0.00    -0.203 F 
ATOM     83  F   UNL A   1      45.094  23.111  23.838  1.00  0.00    -0.200 F 
ATOM     84  C   UNL A   1      43.768  22.103  25.504  1.00  0.00     0.200 A 
ATOM     85  F   UNL A   1      42.480  21.149  27.234  1.00  0.00    -0.200 F 
ATOM     86  F   UNL A   1      44.210  20.889  25.145  1.00  0.00    -0.200 F 
ENDBRANCH  52  76
BRANCH  64  87
ATOM     87  C   UNL A   1      45.255  30.083  28.637  1.00  0.00     0.064 A 
ATOM     88  C   UNL A   1      44.253  30.691  27.860  1.00  0.00     0.173 A 
ATOM     89  C   UNL A   1      46.578  30.484  28.413  1.00  0.00     0.173 A 
ATOM     90  F   UNL A   1      42.958  30.425  28.072  1.00  0.00    -0.203 F 
ATOM     91  C   UNL A   1      44.573  31.621  26.870  1.00  0.00     0.198 A 
ATOM     92  C   UNL A   1      46.891  31.440  27.452  1.00  0.00     0.198 A 
ATOM     93  F   UNL A   1      47.571  29.969  29.155  1.00  0.00    -0.203 F 
ATOM     94  F   UNL A   1      43.604  32.168  26.121  1.00  0.00    -0.200 F 
ATOM     95  C   UNL A   1      45.892  31.998  26.671  1.00  0.00     0.200 A 
ATOM     96  F   UNL A   1      48.162  31.833  27.294  1.00  0.00    -0.200 F 
ATOM     97  F   UNL A   1      46.198  32.913  25.741  1.00  0.00    -0.200 F 
ENDBRANCH  64  87
ENDBRANCH  38  39
ENDBRANCH  31  33
ENDBRANCH  30  31
ENDBRANCH  29  30
ENDBRANCH  28  29
ENDBRANCH  27  28
ENDBRANCH   1  27
TORSDOF 18
ENDMDL
MODEL 3
REMARK VINA RESULT:     -12.5      1.394      2.080
REMARK SMILES Cc1cc(C)c2c(CCCC(=O)OCCOCCOC(=O)c3ccc(-c4c5nc(c(-c6c(F)c(F)c(F)c(F)c6F)c6ccc([nH]6)c(-c6c(F)c(F)c(F)c(F)c6F)c6nc(c(-c7c(F)c(F)c(F)c(F)c7F)c7ccc4[nH]7)C=C6)C=C5)cc3)c(-c3ccccn3)[nH]c2c1
REMARK SMILES IDX 15 1 14 2 13 3 11 4 12 5 10 6 9 7 8 8 7 9 1 10 2 11 3 12
REMARK SMILES IDX 94 13 4 14 93 15 5 16 6 17 92 18 85 19 86 21 87 22 91 23
REMARK SMILES IDX 88 24 90 25 89 26 16 27 17 28 18 29 19 30 20 31 21 32 22 33
REMARK SMILES IDX 23 34 84 35 24 36 83 37 25 38 26 39 27 40 77 41 28 42 82 43
REMARK SMILES IDX 76 44 78 45 29 46 81 47 75 48 74 49 30 51 62 52 42 53 61 54
REMARK SMILES IDX 43 55 46 56 60 57 79 58 44 59 45 60 59 62 80 63 47 64 31 65
REMARK SMILES IDX 32 66 40 67 33 68 34 69 38 70 41 71 35 72 36 73 39 74 37 75
REMARK SMILES IDX 63 76 64 77 72 78 65 79 66 80 70 81 73 82 67 83 68 84 71 85
REMARK SMILES IDX 69 86 48 87 49 88 57 89 50 90 51 91 55 92 58 93 52 94 53 95
REMARK SMILES IDX 56 96 54 97
REMARK H PARENT 92 20 78 50 46 61
REMARK Flexibility Score: inf
ROOT
ATOM      1  C   UNL A   1      39.929  21.104  26.036  1.00  0.00     0.202 C 
ENDROOT
BRANCH   1   2
ATOM      2  C   UNL A   1      38.863  22.186  26.141  1.00  0.00     0.261 C 
BRANCH   2   3
ATOM      3  O   UNL A   1      37.749  21.909  25.279  1.00  0.00    -0.463 OA
BRANCH   3   4
ATOM      4  C   UNL A   1      36.521  22.285  25.710  1.00  0.00     0.305 C 
ATOM      5  O   UNL A   1      35.652  21.505  26.086  1.00  0.00    -0.252 OA
BRANCH   4   6
ATOM      6  C   UNL A   1      36.353  23.788  25.796  1.00  0.00     0.123 C 
BRANCH   6   7
ATOM      7  C   UNL A   1      35.196  24.457  25.057  1.00  0.00     0.017 C 
BRANCH   7   8
ATOM      8  C   UNL A   1      34.016  25.021  25.849  1.00  0.00     0.039 C 
BRANCH   8   9
ATOM      9  C   UNL A   1      32.722  25.262  25.130  1.00  0.00    -0.013 A 
ATOM     10  C   UNL A   1      29.655  29.807  23.408  1.00  0.00     0.044 C 
ATOM     11  C   UNL A   1      30.500  28.689  23.941  1.00  0.00    -0.049 A 
ATOM     12  C   UNL A   1      31.597  28.945  24.763  1.00  0.00     0.007 A 
ATOM     13  C   UNL A   1      30.184  27.373  23.603  1.00  0.00     0.030 A 
ATOM     14  C   UNL A   1      32.423  27.914  25.271  1.00  0.00    -0.041 A 
ATOM     15  C   UNL A   1      31.002  26.351  24.094  1.00  0.00     0.047 A 
ATOM     16  C   UNL A   1      33.577  28.330  26.147  1.00  0.00     0.045 C 
ATOM     17  C   UNL A   1      32.117  26.568  24.903  1.00  0.00     0.006 A 
ATOM     18  N   UNL A   1      30.890  25.002  23.894  1.00  0.00    -0.353 N 
ATOM     19  C   UNL A   1      31.950  24.329  24.435  1.00  0.00     0.068 A 
ATOM     20  H   UNL A   1      30.141  24.572  23.421  1.00  0.00     0.167 HD
BRANCH  19  21
ATOM     21  C   UNL A   1      32.056  22.896  24.200  1.00  0.00     0.087 A 
ATOM     22  C   UNL A   1      32.096  22.353  22.923  1.00  0.00     0.030 A 
ATOM     23  N   UNL A   1      32.063  22.147  25.321  1.00  0.00    -0.255 NA
ATOM     24  C   UNL A   1      32.229  20.970  22.796  1.00  0.00     0.004 A 
ATOM     25  C   UNL A   1      32.223  20.811  25.170  1.00  0.00     0.112 A 
ATOM     26  C   UNL A   1      32.323  20.185  23.940  1.00  0.00     0.020 A 
ENDBRANCH  19  21
ENDBRANCH   8   9
ENDBRANCH   7   8
ENDBRANCH   6   7
ENDBRANCH   4   6
ENDBRANCH   3   4
ENDBRANCH   2   3
ENDBRANCH   1   2
BRANCH   1  27
ATOM     27  O   UNL A   1      41.197  21.363  26.637  1.00  0.00    -0.374 OA
BRANCH  27  28
ATOM     28  C   UNL A   1      41.998  20.290  27.117  1.00  0.00     0.202 C 
BRANCH  28  29
ATOM     29  C   UNL A   1      42.726  19.430  26.096  1.00  0.00     0.261 C 
BRANCH  29  30
ATOM     30  O   UNL A   1      43.222  20.209  25.018  1.00  0.00    -0.460 OA
BRANCH  30  31
ATOM     31  C   UNL A   1      44.552  20.452  25.096  1.00  0.00     0.338 C 
ATOM     32  O   UNL A   1      45.441  19.651  25.277  1.00  0.00    -0.246 OA
BRANCH  31  33
ATOM     33  C   UNL A   1      44.752  21.906  25.090  1.00  0.00     0.060 A 
ATOM     34  C   UNL A   1      45.618  22.377  26.074  1.00  0.00     0.016 A 
ATOM     35  C   UNL A   1      43.847  22.744  24.423  1.00  0.00     0.016 A 
ATOM     36  C   UNL A   1      45.346  23.609  26.612  1.00  0.00     0.010 A 
ATOM     37  C   UNL A   1      43.591  23.986  24.948  1.00  0.00     0.010 A 
ATOM     38  C   UNL A   1      44.259  24.340  26.110  1.00  0.00    -0.014 A 
BRANCH  38  39
ATOM     39  C   UNL A   1      43.888  25.534  26.834  1.00  0.00     0.031 A 
ATOM     40  C   UNL A   1      44.872  26.614  26.637  1.00  0.00     0.074 A 
ATOM     41  C   UNL A   1      42.783  25.616  27.596  1.00  0.00     0.049 A 
ATOM     42  N   UNL A   1      45.721  27.058  27.500  1.00  0.00    -0.248 NA
ATOM     43  C   UNL A   1      45.079  27.102  25.265  1.00  0.00     0.031 C 
ATOM     44  C   UNL A   1      41.646  24.696  27.678  1.00  0.00     0.029 A 
ATOM     45  N   UNL A   1      42.423  26.618  28.440  1.00  0.00    -0.354 N 
ATOM     46  C   UNL A   1      46.460  28.020  26.827  1.00  0.00     0.074 A 
ATOM     47  C   UNL A   1      46.146  27.886  25.429  1.00  0.00     0.031 C 
ATOM     48  C   UNL A   1      40.631  25.295  28.346  1.00  0.00     0.029 A 
ATOM     49  C   UNL A   1      41.102  26.566  28.869  1.00  0.00     0.049 A 
ATOM     50  H   UNL A   1      43.047  27.325  28.725  1.00  0.00     0.167 HD
ATOM     51  C   UNL A   1      47.070  29.023  27.509  1.00  0.00     0.037 A 
ATOM     52  C   UNL A   1      40.464  27.546  29.555  1.00  0.00     0.037 A 
ATOM     53  C   UNL A   1      47.212  28.697  28.904  1.00  0.00     0.049 A 
ATOM     54  C   UNL A   1      41.513  28.383  30.183  1.00  0.00     0.074 A 
ATOM     55  C   UNL A   1      47.963  27.802  29.635  1.00  0.00     0.029 A 
ATOM     56  N   UNL A   1      46.183  29.099  29.714  1.00  0.00    -0.354 N 
ATOM     57  N   UNL A   1      42.276  27.981  31.158  1.00  0.00    -0.248 NA
ATOM     58  C   UNL A   1      41.979  29.561  29.467  1.00  0.00     0.031 C 
ATOM     59  C   UNL A   1      47.148  27.434  30.747  1.00  0.00     0.029 A 
ATOM     60  C   UNL A   1      45.953  28.150  30.674  1.00  0.00     0.049 A 
ATOM     61  H   UNL A   1      45.684  29.942  29.620  1.00  0.00     0.167 HD
ATOM     62  C   UNL A   1      43.503  28.573  30.907  1.00  0.00     0.074 A 
ATOM     63  C   UNL A   1      43.220  29.640  29.954  1.00  0.00     0.031 C 
ATOM     64  C   UNL A   1      44.656  27.946  31.280  1.00  0.00     0.037 A 
BRANCH  51  65
ATOM     65  C   UNL A   1      47.107  30.438  26.999  1.00  0.00     0.064 A 
ATOM     66  C   UNL A   1      48.310  31.164  27.057  1.00  0.00     0.173 A 
ATOM     67  C   UNL A   1      45.946  31.199  26.728  1.00  0.00     0.173 A 
ATOM     68  F   UNL A   1      49.463  30.549  27.359  1.00  0.00    -0.203 F 
ATOM     69  C   UNL A   1      48.339  32.552  26.892  1.00  0.00     0.198 A 
ATOM     70  C   UNL A   1      45.987  32.572  26.506  1.00  0.00     0.198 A 
ATOM     71  F   UNL A   1      44.718  30.671  26.788  1.00  0.00    -0.203 F 
ATOM     72  F   UNL A   1      49.488  33.219  27.066  1.00  0.00    -0.200 F 
ATOM     73  C   UNL A   1      47.179  33.253  26.613  1.00  0.00     0.200 A 
ATOM     74  F   UNL A   1      44.845  33.235  26.271  1.00  0.00    -0.200 F 
ATOM     75  F   UNL A   1      47.198  34.588  26.501  1.00  0.00    -0.200 F 
ENDBRANCH  51  65
BRANCH  52  76
ATOM     76  C   UNL A   1      39.076  28.048  29.420  1.00  0.00     0.064 A 
ATOM     77  C   UNL A   1      38.290  28.261  30.568  1.00  0.00     0.173 A 
ATOM     78  C   UNL A   1      38.635  28.664  28.235  1.00  0.00     0.173 A 
ATOM     79  F   UNL A   1      38.658  27.731  31.744  1.00  0.00    -0.203 F 
ATOM     80  C   UNL A   1      37.175  29.104  30.550  1.00  0.00     0.198 A 
ATOM     81  C   UNL A   1      37.516  29.501  28.218  1.00  0.00     0.198 A 
ATOM     82  F   UNL A   1      39.342  28.559  27.102  1.00  0.00    -0.203 F 
ATOM     83  F   UNL A   1      36.511  29.358  31.686  1.00  0.00    -0.200 F 
ATOM     84  C   UNL A   1      36.802  29.740  29.379  1.00  0.00     0.200 A 
ATOM     85  F   UNL A   1      37.182  30.140  27.087  1.00  0.00    -0.200 F 
ATOM     86  F   UNL A   1      35.789  30.617  29.379  1.00  0.00    -0.200 F 
ENDBRANCH  52  76
BRANCH  64  87
ATOM     87  C   UNL A   1      44.522  26.828  32.279  1.00  0.00     0.064 A 
ATOM     88  C   UNL A   1      44.404  25.468  31.946  1.00  0.00     0.173 A 
ATOM     89  C   UNL A   1      44.586  27.155  33.640  1.00  0.00     0.173 A 
ATOM     90  F   UNL A   1      44.421  25.066  30.668  1.00  0.00    -0.203 F 
ATOM     91  C   UNL A   1      44.304  24.488  32.935  1.00  0.00     0.198 A 
ATOM     92  C   UNL A   1      44.526  26.173  34.624  1.00  0.00     0.198 A 
ATOM     93  F   UNL A   1      44.742  28.434  34.016  1.00  0.00    -0.203 F 
ATOM     94  F   UNL A   1      44.164  23.198  32.594  1.00  0.00    -0.200 F 
ATOM     95  C   UNL A   1      44.371  24.843  34.273  1.00  0.00     0.200 A 
ATOM     96  F   UNL A   1      44.636  26.517  35.914  1.00  0.00    -0.200 F 
ATOM     97  F   UNL A   1      44.306  23.900  35.223  1.00  0.00    -0.200 F 
ENDBRANCH  64  87
ENDBRANCH  38  39
ENDBRANCH  31  33
ENDBRANCH  30  31
ENDBRANCH  29  30
ENDBRANCH  28  29
ENDBRANCH  27  28
ENDBRANCH   1  27
TORSDOF 18
ENDMDL
