MODEL 1
REMARK VINA RESULT:     -10.2      0.000      0.000
REMARK SMILES O=C(CCC(=O)[C@H]1CSCCO1)OCCOCCOC(=O)c1ccc(-c2c3nc(c(-c4c(F)c(F)c(F)c(F)c4F)c4ccc([nH]4)c(-c4c(F)c(F)c(F)c(F)c4F)c4nc(c(-c5c(F)c(F)c(F)c(F)c5F)c5ccc2[nH]5)C=C4)C=C3)cc1
REMARK SMILES IDX 15 1 14 2 13 3 2 4 1 5 3 6 4 7 5 8 6 9 7 10 8 11 12 12 9 13
REMARK SMILES IDX 11 14 10 15 16 16 17 17 18 18 19 19 20 20 21 21 22 22 23 23
REMARK SMILES IDX 84 24 24 25 83 26 25 27 26 28 27 29 77 30 28 31 82 32 76 33
REMARK SMILES IDX 78 34 29 35 81 36 75 37 74 38 30 40 62 41 42 42 61 43 43 44
REMARK SMILES IDX 46 45 60 46 79 47 44 48 45 49 59 51 80 52 47 53 31 54 32 55
REMARK SMILES IDX 40 56 33 57 34 58 38 59 41 60 35 61 36 62 39 63 37 64 63 65
REMARK SMILES IDX 64 66 72 67 65 68 66 69 70 70 73 71 67 72 68 73 71 74 69 75
REMARK SMILES IDX 48 76 49 77 57 78 50 79 51 80 55 81 58 82 52 83 53 84 56 85
REMARK SMILES IDX 54 86
REMARK H PARENT 78 39 46 50
REMARK Flexibility Score: inf
ROOT
ATOM      1  C   UNL A   1      36.984  22.212  24.491  1.00  0.00     0.202 C 
ENDROOT
BRANCH   1   2
ATOM      2  C   UNL A   1      36.661  23.633  24.959  1.00  0.00     0.261 C 
BRANCH   2   3
ATOM      3  O   UNL A   1      35.343  23.849  25.488  1.00  0.00    -0.463 OA
BRANCH   3   4
ATOM      4  C   UNL A   1      34.454  22.893  25.827  1.00  0.00     0.306 C 
ATOM      5  O   UNL A   1      34.507  22.374  26.939  1.00  0.00    -0.252 OA
BRANCH   4   6
ATOM      6  C   UNL A   1      33.353  22.548  24.863  1.00  0.00     0.130 C 
BRANCH   6   7
ATOM      7  C   UNL A   1      33.534  21.138  24.314  1.00  0.00     0.090 C 
BRANCH   7   8
ATOM      8  C   UNL A   1      32.413  20.229  24.781  1.00  0.00     0.162 C 
ATOM      9  O   UNL A   1      31.441  20.701  25.376  1.00  0.00    -0.297 OA
BRANCH   8  10
ATOM     10  C   UNL A   1      32.640  18.718  24.652  1.00  0.00     0.194 C 
ATOM     11  C   UNL A   1      33.981  18.407  23.990  1.00  0.00     0.109 C 
ATOM     12  O   UNL A   1      32.528  18.070  25.916  1.00  0.00    -0.369 OA
ATOM     13  S   UNL A   1      34.025  16.640  23.523  1.00  0.00    -0.156 SA
ATOM     14  C   UNL A   1      32.323  16.659  25.749  1.00  0.00     0.172 C 
ATOM     15  C   UNL A   1      33.538  15.954  25.144  1.00  0.00     0.098 C 
ENDBRANCH   8  10
ENDBRANCH   7   8
ENDBRANCH   6   7
ENDBRANCH   4   6
ENDBRANCH   3   4
ENDBRANCH   2   3
ENDBRANCH   1   2
BRANCH   1  16
ATOM     16  O   UNL A   1      38.153  21.595  24.999  1.00  0.00    -0.374 OA
BRANCH  16  17
ATOM     17  C   UNL A   1      38.157  20.185  25.223  1.00  0.00     0.202 C 
BRANCH  17  18
ATOM     18  C   UNL A   1      39.441  19.541  25.750  1.00  0.00     0.261 C 
BRANCH  18  19
ATOM     19  O   UNL A   1      40.527  20.483  25.862  1.00  0.00    -0.460 OA
BRANCH  19  20
ATOM     20  C   UNL A   1      41.144  20.510  27.063  1.00  0.00     0.338 C 
ATOM     21  O   UNL A   1      41.715  19.582  27.622  1.00  0.00    -0.246 OA
BRANCH  20  22
ATOM     22  C   UNL A   1      41.161  21.873  27.619  1.00  0.00     0.060 A 
ATOM     23  C   UNL A   1      40.382  22.848  26.985  1.00  0.00     0.016 A 
ATOM     24  C   UNL A   1      42.053  22.222  28.635  1.00  0.00     0.016 A 
ATOM     25  C   UNL A   1      40.549  24.192  27.311  1.00  0.00     0.010 A 
ATOM     26  C   UNL A   1      42.230  23.571  28.953  1.00  0.00     0.010 A 
ATOM     27  C   UNL A   1      41.519  24.564  28.252  1.00  0.00    -0.014 A 
BRANCH  27  28
ATOM     28  C   UNL A   1      41.944  25.982  28.335  1.00  0.00     0.031 A 
ATOM     29  C   UNL A   1      43.262  26.375  27.720  1.00  0.00     0.074 A 
ATOM     30  C   UNL A   1      41.166  26.912  28.913  1.00  0.00     0.049 A 
ATOM     31  N   UNL A   1      43.847  27.546  27.677  1.00  0.00    -0.248 NA
ATOM     32  C   UNL A   1      44.023  25.298  27.067  1.00  0.00     0.031 C 
ATOM     33  C   UNL A   1      39.854  26.665  29.503  1.00  0.00     0.029 A 
ATOM     34  N   UNL A   1      41.373  28.257  29.095  1.00  0.00    -0.354 N 
ATOM     35  C   UNL A   1      45.044  27.343  27.001  1.00  0.00     0.074 A 
ATOM     36  C   UNL A   1      45.117  25.936  26.678  1.00  0.00     0.031 C 
ATOM     37  C   UNL A   1      39.372  27.822  29.989  1.00  0.00     0.029 A 
ATOM     38  C   UNL A   1      40.353  28.883  29.766  1.00  0.00     0.049 A 
ATOM     39  H   UNL A   1      42.177  28.726  28.776  1.00  0.00     0.167 HD
ATOM     40  C   UNL A   1      45.993  28.252  26.671  1.00  0.00     0.037 A 
ATOM     41  C   UNL A   1      40.237  30.165  30.163  1.00  0.00     0.037 A 
ATOM     42  C   UNL A   1      45.919  29.652  26.989  1.00  0.00     0.049 A 
ATOM     43  C   UNL A   1      41.338  31.143  29.841  1.00  0.00     0.074 A 
ATOM     44  C   UNL A   1      46.817  30.659  26.678  1.00  0.00     0.029 A 
ATOM     45  N   UNL A   1      44.885  30.244  27.701  1.00  0.00    -0.354 N 
ATOM     46  N   UNL A   1      42.450  30.952  29.174  1.00  0.00    -0.248 NA
ATOM     47  C   UNL A   1      41.161  32.519  30.326  1.00  0.00     0.031 C 
ATOM     48  C   UNL A   1      46.350  31.851  27.243  1.00  0.00     0.029 A 
ATOM     49  C   UNL A   1      45.137  31.597  27.861  1.00  0.00     0.049 A 
ATOM     50  H   UNL A   1      44.092  29.772  28.040  1.00  0.00     0.167 HD
ATOM     51  C   UNL A   1      43.085  32.187  29.127  1.00  0.00     0.074 A 
ATOM     52  C   UNL A   1      42.232  33.121  29.829  1.00  0.00     0.031 C 
ATOM     53  C   UNL A   1      44.269  32.518  28.552  1.00  0.00     0.037 A 
BRANCH  40  54
ATOM     54  C   UNL A   1      47.210  27.745  25.954  1.00  0.00     0.064 A 
ATOM     55  C   UNL A   1      47.261  27.658  24.555  1.00  0.00     0.173 A 
ATOM     56  C   UNL A   1      48.349  27.356  26.676  1.00  0.00     0.173 A 
ATOM     57  F   UNL A   1      46.193  28.003  23.817  1.00  0.00    -0.203 F 
ATOM     58  C   UNL A   1      48.394  27.173  23.907  1.00  0.00     0.198 A 
ATOM     59  C   UNL A   1      49.489  26.898  26.025  1.00  0.00     0.198 A 
ATOM     60  F   UNL A   1      48.354  27.423  28.017  1.00  0.00    -0.203 F 
ATOM     61  F   UNL A   1      48.400  27.050  22.572  1.00  0.00    -0.200 F 
ATOM     62  C   UNL A   1      49.509  26.797  24.642  1.00  0.00     0.200 A 
ATOM     63  F   UNL A   1      50.570  26.545  26.736  1.00  0.00    -0.200 F 
ATOM     64  F   UNL A   1      50.599  26.331  24.017  1.00  0.00    -0.200 F 
ENDBRANCH  40  54
BRANCH  41  65
ATOM     65  C   UNL A   1      39.027  30.605  30.903  1.00  0.00     0.064 A 
ATOM     66  C   UNL A   1      38.968  30.525  32.301  1.00  0.00     0.173 A 
ATOM     67  C   UNL A   1      37.899  31.096  30.229  1.00  0.00     0.173 A 
ATOM     68  F   UNL A   1      40.012  30.035  32.987  1.00  0.00    -0.203 F 
ATOM     69  C   UNL A   1      37.821  30.902  32.997  1.00  0.00     0.198 A 
ATOM     70  C   UNL A   1      36.763  31.497  30.927  1.00  0.00     0.198 A 
ATOM     71  F   UNL A   1      37.903  31.187  28.892  1.00  0.00    -0.203 F 
ATOM     72  F   UNL A   1      37.775  30.770  34.329  1.00  0.00    -0.200 F 
ATOM     73  C   UNL A   1      36.722  31.393  32.310  1.00  0.00     0.200 A 
ATOM     74  F   UNL A   1      35.705  31.980  30.260  1.00  0.00    -0.200 F 
ATOM     75  F   UNL A   1      35.619  31.757  32.978  1.00  0.00    -0.200 F 
ENDBRANCH  41  65
BRANCH  53  76
ATOM     76  C   UNL A   1      44.688  33.957  28.615  1.00  0.00     0.064 A 
ATOM     77  C   UNL A   1      45.560  34.430  29.606  1.00  0.00     0.173 A 
ATOM     78  C   UNL A   1      44.234  34.869  27.649  1.00  0.00     0.173 A 
ATOM     79  F   UNL A   1      46.010  33.601  30.560  1.00  0.00    -0.203 F 
ATOM     80  C   UNL A   1      45.942  35.768  29.644  1.00  0.00     0.198 A 
ATOM     81  C   UNL A   1      44.642  36.201  27.673  1.00  0.00     0.198 A 
ATOM     82  F   UNL A   1      43.404  34.467  26.676  1.00  0.00    -0.203 F 
ATOM     83  F   UNL A   1      46.738  36.209  30.628  1.00  0.00    -0.200 F 
ATOM     84  C   UNL A   1      45.487  36.651  28.674  1.00  0.00     0.200 A 
ATOM     85  F   UNL A   1      44.212  37.048  26.729  1.00  0.00    -0.200 F 
ATOM     86  F   UNL A   1      45.859  37.938  28.711  1.00  0.00    -0.200 F 
ENDBRANCH  53  76
ENDBRANCH  27  28
ENDBRANCH  20  22
ENDBRANCH  19  20
ENDBRANCH  18  19
ENDBRANCH  17  18
ENDBRANCH  16  17
ENDBRANCH   1  16
TORSDOF 17
ENDMDL
MODEL 2
REMARK VINA RESULT:     -10.0      0.721      2.187
REMARK SMILES O=C(CCC(=O)[C@H]1CSCCO1)OCCOCCOC(=O)c1ccc(-c2c3nc(c(-c4c(F)c(F)c(F)c(F)c4F)c4ccc([nH]4)c(-c4c(F)c(F)c(F)c(F)c4F)c4nc(c(-c5c(F)c(F)c(F)c(F)c5F)c5ccc2[nH]5)C=C4)C=C3)cc1
REMARK SMILES IDX 15 1 14 2 13 3 2 4 1 5 3 6 4 7 5 8 6 9 7 10 8 11 12 12 9 13
REMARK SMILES IDX 11 14 10 15 16 16 17 17 18 18 19 19 20 20 21 21 22 22 23 23
REMARK SMILES IDX 84 24 24 25 83 26 25 27 26 28 27 29 77 30 28 31 82 32 76 33
REMARK SMILES IDX 78 34 29 35 81 36 75 37 74 38 30 40 62 41 42 42 61 43 43 44
REMARK SMILES IDX 46 45 60 46 79 47 44 48 45 49 59 51 80 52 47 53 31 54 32 55
REMARK SMILES IDX 40 56 33 57 34 58 38 59 41 60 35 61 36 62 39 63 37 64 63 65
REMARK SMILES IDX 64 66 72 67 65 68 66 69 70 70 73 71 67 72 68 73 71 74 69 75
REMARK SMILES IDX 48 76 49 77 57 78 50 79 51 80 55 81 58 82 52 83 53 84 56 85
REMARK SMILES IDX 54 86
REMARK H PARENT 78 39 46 50
REMARK Flexibility Score: inf
ROOT
ATOM      1  C   UNL A   1      36.439  21.142  25.250  1.00  0.00     0.202 C 
ENDROOT
BRANCH   1   2
ATOM      2  C   UNL A   1      35.942  22.554  25.567  1.00  0.00     0.261 C 
BRANCH   2   3
ATOM      3  O   UNL A   1      34.520  22.752  25.544  1.00  0.00    -0.463 OA
BRANCH   3   4
ATOM      4  C   UNL A   1      33.730  22.736  24.450  1.00  0.00     0.306 C 
ATOM      5  O   UNL A   1      34.200  23.019  23.352  1.00  0.00    -0.252 OA
BRANCH   4   6
ATOM      6  C   UNL A   1      32.305  22.277  24.589  1.00  0.00     0.130 C 
BRANCH   6   7
ATOM      7  C   UNL A   1      32.238  20.894  25.225  1.00  0.00     0.090 C 
BRANCH   7   8
ATOM      8  C   UNL A   1      32.584  19.818  24.214  1.00  0.00     0.162 C 
ATOM      9  O   UNL A   1      32.222  19.933  23.040  1.00  0.00    -0.297 OA
BRANCH   8  10
ATOM     10  C   UNL A   1      33.216  18.530  24.755  1.00  0.00     0.194 C 
ATOM     11  C   UNL A   1      32.256  17.347  24.649  1.00  0.00     0.109 C 
ATOM     12  O   UNL A   1      34.452  18.248  24.102  1.00  0.00    -0.369 OA
ATOM     13  S   UNL A   1      32.907  15.954  25.639  1.00  0.00    -0.156 SA
ATOM     14  C   UNL A   1      35.231  17.317  24.867  1.00  0.00     0.172 C 
ATOM     15  C   UNL A   1      34.592  15.929  24.933  1.00  0.00     0.098 C 
ENDBRANCH   8  10
ENDBRANCH   7   8
ENDBRANCH   6   7
ENDBRANCH   4   6
ENDBRANCH   3   4
ENDBRANCH   2   3
ENDBRANCH   1   2
BRANCH   1  16
ATOM     16  O   UNL A   1      37.833  20.949  25.086  1.00  0.00    -0.374 OA
BRANCH  16  17
ATOM     17  C   UNL A   1      38.347  19.621  24.998  1.00  0.00     0.202 C 
BRANCH  17  18
ATOM     18  C   UNL A   1      39.653  19.302  25.730  1.00  0.00     0.261 C 
BRANCH  18  19
ATOM     19  O   UNL A   1      40.495  20.461  25.888  1.00  0.00    -0.460 OA
BRANCH  19  20
ATOM     20  C   UNL A   1      41.195  20.511  27.043  1.00  0.00     0.338 C 
ATOM     21  O   UNL A   1      41.842  19.606  27.556  1.00  0.00    -0.246 OA
BRANCH  20  22
ATOM     22  C   UNL A   1      41.196  21.872  27.604  1.00  0.00     0.060 A 
ATOM     23  C   UNL A   1      40.425  22.846  26.957  1.00  0.00     0.016 A 
ATOM     24  C   UNL A   1      42.066  22.222  28.638  1.00  0.00     0.016 A 
ATOM     25  C   UNL A   1      40.581  24.190  27.291  1.00  0.00     0.010 A 
ATOM     26  C   UNL A   1      42.231  23.571  28.964  1.00  0.00     0.010 A 
ATOM     27  C   UNL A   1      41.531  24.562  28.252  1.00  0.00    -0.014 A 
BRANCH  27  28
ATOM     28  C   UNL A   1      41.949  25.982  28.347  1.00  0.00     0.031 A 
ATOM     29  C   UNL A   1      43.264  26.388  27.736  1.00  0.00     0.074 A 
ATOM     30  C   UNL A   1      41.165  26.903  28.933  1.00  0.00     0.049 A 
ATOM     31  N   UNL A   1      43.843  27.561  27.704  1.00  0.00    -0.248 NA
ATOM     32  C   UNL A   1      44.031  25.321  27.073  1.00  0.00     0.031 C 
ATOM     33  C   UNL A   1      39.854  26.644  29.521  1.00  0.00     0.029 A 
ATOM     34  N   UNL A   1      41.366  28.247  29.128  1.00  0.00    -0.354 N 
ATOM     35  C   UNL A   1      45.041  27.371  27.026  1.00  0.00     0.074 A 
ATOM     36  C   UNL A   1      45.122  25.967  26.690  1.00  0.00     0.031 C 
ATOM     37  C   UNL A   1      39.367  27.794  30.018  1.00  0.00     0.029 A 
ATOM     38  C   UNL A   1      40.343  28.862  29.804  1.00  0.00     0.049 A 
ATOM     39  H   UNL A   1      42.167  28.723  28.812  1.00  0.00     0.167 HD
ATOM     40  C   UNL A   1      45.986  28.287  26.704  1.00  0.00     0.037 A 
ATOM     41  C   UNL A   1      40.220  30.139  30.212  1.00  0.00     0.037 A 
ATOM     42  C   UNL A   1      45.904  29.685  27.035  1.00  0.00     0.049 A 
ATOM     43  C   UNL A   1      41.316  31.126  29.899  1.00  0.00     0.074 A 
ATOM     44  C   UNL A   1      46.797  30.699  26.733  1.00  0.00     0.029 A 
ATOM     45  N   UNL A   1      44.868  30.265  27.751  1.00  0.00    -0.354 N 
ATOM     46  N   UNL A   1      42.429  30.947  29.230  1.00  0.00    -0.248 NA
ATOM     47  C   UNL A   1      41.131  32.497  30.397  1.00  0.00     0.031 C 
ATOM     48  C   UNL A   1      46.324  31.883  27.308  1.00  0.00     0.029 A 
ATOM     49  C   UNL A   1      45.112  31.618  27.924  1.00  0.00     0.049 A 
ATOM     50  H   UNL A   1      44.077  29.786  28.087  1.00  0.00     0.167 HD
ATOM     51  C   UNL A   1      43.058  32.185  29.195  1.00  0.00     0.074 A 
ATOM     52  C   UNL A   1      42.200  33.109  29.905  1.00  0.00     0.031 C 
ATOM     53  C   UNL A   1      44.240  32.527  28.623  1.00  0.00     0.037 A 
BRANCH  40  54
ATOM     54  C   UNL A   1      47.205  27.794  25.982  1.00  0.00     0.064 A 
ATOM     55  C   UNL A   1      48.356  27.382  26.671  1.00  0.00     0.173 A 
ATOM     56  C   UNL A   1      47.217  27.717  24.581  1.00  0.00     0.173 A 
ATOM     57  F   UNL A   1      48.402  27.450  28.011  1.00  0.00    -0.203 F 
ATOM     58  C   UNL A   1      49.484  26.940  25.983  1.00  0.00     0.198 A 
ATOM     59  C   UNL A   1      48.336  27.248  23.898  1.00  0.00     0.198 A 
ATOM     60  F   UNL A   1      46.141  28.095  23.875  1.00  0.00    -0.203 F 
ATOM     61  F   UNL A   1      50.590  26.601  26.661  1.00  0.00    -0.200 F 
ATOM     62  C   UNL A   1      49.471  26.869  24.598  1.00  0.00     0.200 A 
ATOM     63  F   UNL A   1      48.318  27.171  22.560  1.00  0.00    -0.200 F 
ATOM     64  F   UNL A   1      50.556  26.443  23.938  1.00  0.00    -0.200 F 
ENDBRANCH  40  54
BRANCH  41  65
ATOM     65  C   UNL A   1      39.008  30.567  30.957  1.00  0.00     0.064 A 
ATOM     66  C   UNL A   1      37.889  31.072  30.282  1.00  0.00     0.173 A 
ATOM     67  C   UNL A   1      38.952  30.500  32.357  1.00  0.00     0.173 A 
ATOM     68  F   UNL A   1      37.906  31.182  28.946  1.00  0.00    -0.203 F 
ATOM     69  C   UNL A   1      36.764  31.510  30.980  1.00  0.00     0.198 A 
ATOM     70  C   UNL A   1      37.818  30.913  33.051  1.00  0.00     0.198 A 
ATOM     71  F   UNL A   1      39.999  30.030  33.049  1.00  0.00    -0.203 F 
ATOM     72  F   UNL A   1      35.726  32.031  30.312  1.00  0.00    -0.200 F 
ATOM     73  C   UNL A   1      36.727  31.424  32.363  1.00  0.00     0.200 A 
ATOM     74  F   UNL A   1      37.782  30.821  34.388  1.00  0.00    -0.200 F 
ATOM     75  F   UNL A   1      35.646  31.844  33.034  1.00  0.00    -0.200 F 
ENDBRANCH  41  65
BRANCH  53  76
ATOM     76  C   UNL A   1      44.651  33.969  28.699  1.00  0.00     0.064 A 
ATOM     77  C   UNL A   1      44.227  34.909  27.749  1.00  0.00     0.173 A 
ATOM     78  C   UNL A   1      45.455  34.420  29.758  1.00  0.00     0.173 A 
ATOM     79  F   UNL A   1      43.469  34.525  26.711  1.00  0.00    -0.203 F 
ATOM     80  C   UNL A   1      44.615  36.243  27.841  1.00  0.00     0.198 A 
ATOM     81  C   UNL A   1      45.817  35.760  29.862  1.00  0.00     0.198 A 
ATOM     82  F   UNL A   1      45.881  33.562  30.696  1.00  0.00    -0.203 F 
ATOM     83  F   UNL A   1      44.238  37.116  26.895  1.00  0.00    -0.200 F 
ATOM     84  C   UNL A   1      45.404  36.669  28.900  1.00  0.00     0.200 A 
ATOM     85  F   UNL A   1      46.568  36.171  30.892  1.00  0.00    -0.200 F 
ATOM     86  F   UNL A   1      45.773  37.954  28.989  1.00  0.00    -0.200 F 
ENDBRANCH  53  76
ENDBRANCH  27  28
ENDBRANCH  20  22
ENDBRANCH  19  20
ENDBRANCH  18  19
ENDBRANCH  17  18
ENDBRANCH  16  17
ENDBRANCH   1  16
TORSDOF 17
ENDMDL
MODEL 3
REMARK VINA RESULT:     -10.0      2.119      3.720
REMARK SMILES O=C(CCC(=O)[C@H]1CSCCO1)OCCOCCOC(=O)c1ccc(-c2c3nc(c(-c4c(F)c(F)c(F)c(F)c4F)c4ccc([nH]4)c(-c4c(F)c(F)c(F)c(F)c4F)c4nc(c(-c5c(F)c(F)c(F)c(F)c5F)c5ccc2[nH]5)C=C4)C=C3)cc1
REMARK SMILES IDX 15 1 14 2 13 3 2 4 1 5 3 6 4 7 5 8 6 9 7 10 8 11 12 12 9 13
REMARK SMILES IDX 11 14 10 15 16 16 17 17 18 18 19 19 20 20 21 21 22 22 23 23
REMARK SMILES IDX 84 24 24 25 83 26 25 27 26 28 27 29 77 30 28 31 82 32 76 33
REMARK SMILES IDX 78 34 29 35 81 36 75 37 74 38 30 40 62 41 42 42 61 43 43 44
REMARK SMILES IDX 46 45 60 46 79 47 44 48 45 49 59 51 80 52 47 53 31 54 32 55
REMARK SMILES IDX 40 56 33 57 34 58 38 59 41 60 35 61 36 62 39 63 37 64 63 65
REMARK SMILES IDX 64 66 72 67 65 68 66 69 70 70 73 71 67 72 68 73 71 74 69 75
REMARK SMILES IDX 48 76 49 77 57 78 50 79 51 80 55 81 58 82 52 83 53 84 56 85
REMARK SMILES IDX 54 86
REMARK H PARENT 78 39 46 50
REMARK Flexibility Score: inf
ROOT
ATOM      1  C   UNL A   1      35.848  20.997  25.092  1.00  0.00     0.202 C 
ENDROOT
BRANCH   1   2
ATOM      2  C   UNL A   1      35.386  22.244  25.849  1.00  0.00     0.261 C 
BRANCH   2   3
ATOM      3  O   UNL A   1      34.440  22.034  26.910  1.00  0.00    -0.463 OA
BRANCH   3   4
ATOM      4  C   UNL A   1      33.203  22.567  26.991  1.00  0.00     0.306 C 
ATOM      5  O   UNL A   1      32.582  22.516  28.050  1.00  0.00    -0.252 OA
BRANCH   4   6
ATOM      6  C   UNL A   1      32.646  23.298  25.801  1.00  0.00     0.130 C 
BRANCH   6   7
ATOM      7  C   UNL A   1      33.006  24.778  25.856  1.00  0.00     0.090 C 
BRANCH   7   8
ATOM      8  C   UNL A   1      31.768  25.628  26.068  1.00  0.00     0.162 C 
ATOM      9  O   UNL A   1      30.938  25.308  26.923  1.00  0.00    -0.297 OA
BRANCH   8  10
ATOM     10  C   UNL A   1      31.516  26.759  25.064  1.00  0.00     0.194 C 
ATOM     11  C   UNL A   1      30.295  26.472  24.192  1.00  0.00     0.109 C 
ATOM     12  O   UNL A   1      31.394  28.016  25.723  1.00  0.00    -0.369 OA
ATOM     13  S   UNL A   1      30.271  27.644  22.788  1.00  0.00    -0.156 SA
ATOM     14  C   UNL A   1      31.578  29.097  24.797  1.00  0.00     0.172 C 
ATOM     15  C   UNL A   1      30.458  29.180  23.759  1.00  0.00     0.098 C 
ENDBRANCH   8  10
ENDBRANCH   7   8
ENDBRANCH   6   7
ENDBRANCH   4   6
ENDBRANCH   3   4
ENDBRANCH   2   3
ENDBRANCH   1   2
BRANCH   1  16
ATOM     16  O   UNL A   1      37.240  20.804  24.916  1.00  0.00    -0.374 OA
BRANCH  16  17
ATOM     17  C   UNL A   1      37.772  19.481  24.966  1.00  0.00     0.202 C 
BRANCH  17  18
ATOM     18  C   UNL A   1      39.170  19.286  25.559  1.00  0.00     0.261 C 
BRANCH  18  19
ATOM     19  O   UNL A   1      39.854  20.535  25.785  1.00  0.00    -0.460 OA
BRANCH  19  20
ATOM     20  C   UNL A   1      40.736  20.531  26.809  1.00  0.00     0.338 C 
ATOM     21  O   UNL A   1      41.461  19.609  27.157  1.00  0.00    -0.246 OA
BRANCH  20  22
ATOM     22  C   UNL A   1      40.827  21.861  27.434  1.00  0.00     0.060 A 
ATOM     23  C   UNL A   1      40.008  22.879  26.928  1.00  0.00     0.016 A 
ATOM     24  C   UNL A   1      41.813  22.143  28.380  1.00  0.00     0.016 A 
ATOM     25  C   UNL A   1      40.227  24.201  27.309  1.00  0.00     0.010 A 
ATOM     26  C   UNL A   1      42.040  23.471  28.753  1.00  0.00     0.010 A 
ATOM     27  C   UNL A   1      41.285  24.509  28.175  1.00  0.00    -0.014 A 
BRANCH  27  28
ATOM     28  C   UNL A   1      41.739  25.915  28.295  1.00  0.00     0.031 A 
ATOM     29  C   UNL A   1      43.078  26.291  27.716  1.00  0.00     0.074 A 
ATOM     30  C   UNL A   1      40.969  26.852  28.874  1.00  0.00     0.049 A 
ATOM     31  N   UNL A   1      43.690  27.448  27.709  1.00  0.00    -0.248 NA
ATOM     32  C   UNL A   1      43.829  25.210  27.057  1.00  0.00     0.031 C 
ATOM     33  C   UNL A   1      39.639  26.622  29.431  1.00  0.00     0.029 A 
ATOM     34  N   UNL A   1      41.202  28.187  29.088  1.00  0.00    -0.354 N 
ATOM     35  C   UNL A   1      44.896  27.233  27.054  1.00  0.00     0.074 A 
ATOM     36  C   UNL A   1      44.945  25.830  26.705  1.00  0.00     0.031 C 
ATOM     37  C   UNL A   1      39.173  27.780  29.931  1.00  0.00     0.029 A 
ATOM     38  C   UNL A   1      40.182  28.823  29.749  1.00  0.00     0.049 A 
ATOM     39  H   UNL A   1      42.022  28.645  28.794  1.00  0.00     0.167 HD
ATOM     40  C   UNL A   1      45.872  28.125  26.762  1.00  0.00     0.037 A 
ATOM     41  C   UNL A   1      40.085  30.099  30.168  1.00  0.00     0.037 A 
ATOM     42  C   UNL A   1      45.821  29.521  27.106  1.00  0.00     0.049 A 
ATOM     43  C   UNL A   1      41.214  31.058  29.889  1.00  0.00     0.074 A 
ATOM     44  C   UNL A   1      46.748  30.513  26.834  1.00  0.00     0.029 A 
ATOM     45  N   UNL A   1      44.786  30.122  27.807  1.00  0.00    -0.354 N 
ATOM     46  N   UNL A   1      42.336  30.856  29.242  1.00  0.00    -0.248 NA
ATOM     47  C   UNL A   1      41.056  32.429  30.398  1.00  0.00     0.031 C 
ATOM     48  C   UNL A   1      46.295  31.704  27.412  1.00  0.00     0.029 A 
ATOM     49  C   UNL A   1      45.063  31.466  27.999  1.00  0.00     0.049 A 
ATOM     50  H   UNL A   1      43.975  29.661  28.120  1.00  0.00     0.167 HD
ATOM     51  C   UNL A   1      42.999  32.077  29.233  1.00  0.00     0.074 A 
ATOM     52  C   UNL A   1      42.151  33.016  29.935  1.00  0.00     0.031 C 
ATOM     53  C   UNL A   1      44.201  32.392  28.689  1.00  0.00     0.037 A 
BRANCH  40  54
ATOM     54  C   UNL A   1      47.093  27.606  26.061  1.00  0.00     0.064 A 
ATOM     55  C   UNL A   1      48.186  27.085  26.769  1.00  0.00     0.173 A 
ATOM     56  C   UNL A   1      47.163  27.615  24.659  1.00  0.00     0.173 A 
ATOM     57  F   UNL A   1      48.176  27.068  28.111  1.00  0.00    -0.203 F 
ATOM     58  C   UNL A   1      49.317  26.620  26.101  1.00  0.00     0.198 A 
ATOM     59  C   UNL A   1      48.283  27.125  23.994  1.00  0.00     0.198 A 
ATOM     60  F   UNL A   1      46.143  28.100  23.935  1.00  0.00    -0.203 F 
ATOM     61  F   UNL A   1      50.370  26.175  26.800  1.00  0.00    -0.200 F 
ATOM     62  C   UNL A   1      49.362  26.636  24.714  1.00  0.00     0.200 A 
ATOM     63  F   UNL A   1      48.321  27.131  22.654  1.00  0.00    -0.200 F 
ATOM     64  F   UNL A   1      50.450  26.188  24.073  1.00  0.00    -0.200 F 
ENDBRANCH  40  54
BRANCH  41  65
ATOM     65  C   UNL A   1      38.870  30.552  30.892  1.00  0.00     0.064 A 
ATOM     66  C   UNL A   1      37.788  31.115  30.202  1.00  0.00     0.173 A 
ATOM     67  C   UNL A   1      38.773  30.452  32.288  1.00  0.00     0.173 A 
ATOM     68  F   UNL A   1      37.846  31.258  28.869  1.00  0.00    -0.203 F 
ATOM     69  C   UNL A   1      36.662  31.576  30.880  1.00  0.00     0.198 A 
ATOM     70  C   UNL A   1      37.636  30.889  32.963  1.00  0.00     0.198 A 
ATOM     71  F   UNL A   1      39.784  29.927  32.995  1.00  0.00    -0.203 F 
ATOM     72  F   UNL A   1      35.661  32.152  30.200  1.00  0.00    -0.200 F 
ATOM     73  C   UNL A   1      36.584  31.457  32.259  1.00  0.00     0.200 A 
ATOM     74  F   UNL A   1      37.561  30.765  34.295  1.00  0.00    -0.200 F 
ATOM     75  F   UNL A   1      35.501  31.899  32.913  1.00  0.00    -0.200 F 
ENDBRANCH  41  65
BRANCH  53  76
ATOM     76  C   UNL A   1      44.650  33.821  28.790  1.00  0.00     0.064 A 
ATOM     77  C   UNL A   1      44.319  34.770  27.812  1.00  0.00     0.173 A 
ATOM     78  C   UNL A   1      45.395  34.251  29.899  1.00  0.00     0.173 A 
ATOM     79  F   UNL A   1      43.620  34.404  26.726  1.00  0.00    -0.203 F 
ATOM     80  C   UNL A   1      44.740  36.091  27.927  1.00  0.00     0.198 A 
ATOM     81  C   UNL A   1      45.790  35.581  30.025  1.00  0.00     0.198 A 
ATOM     82  F   UNL A   1      45.732  33.385  30.865  1.00  0.00    -0.203 F 
ATOM     83  F   UNL A   1      44.453  36.971  26.957  1.00  0.00    -0.200 F 
ATOM     84  C   UNL A   1      45.469  36.498  29.036  1.00  0.00     0.200 A 
ATOM     85  F   UNL A   1      46.483  35.973  31.102  1.00  0.00    -0.200 F 
ATOM     86  F   UNL A   1      45.870  37.772  29.145  1.00  0.00    -0.200 F 
ENDBRANCH  53  76
ENDBRANCH  27  28
ENDBRANCH  20  22
ENDBRANCH  19  20
ENDBRANCH  18  19
ENDBRANCH  17  18
ENDBRANCH  16  17
ENDBRANCH   1  16
TORSDOF 17
ENDMDL
