MODEL 1
REMARK VINA RESULT:     -10.6      0.000      0.000
REMARK SMILES CCCCCN(C)S(=O)(=O)c1cc(Cl)cc(C(=O)OCCOCCOC(=O)c2ccc(-c3c4nc(c(-c5c(F)c(F)c(F)c(F)c5F)c5ccc([nH]5)c(-c5c(F)c(F)c(F)c(F)c5F)c5nc(c(-c6c(F)c(F)c(F)c(F)c6F)c6ccc3[nH]6)C=C5)C=C4)cc2)c1F
REMARK SMILES IDX 20 1 19 2 17 3 18 4 16 5 11 6 12 7 91 8 13 9 92 10 14 11
REMARK SMILES IDX 15 12 8 13 9 14 10 15 6 16 7 17 5 18 4 19 3 20 2 21 1 22
REMARK SMILES IDX 21 23 22 24 23 25 24 26 25 27 26 28 27 29 28 30 29 31 90 32
REMARK SMILES IDX 30 33 89 34 31 35 32 36 33 37 83 38 34 39 88 40 82 41 84 42
REMARK SMILES IDX 35 43 87 44 81 45 80 46 36 48 68 49 48 50 67 51 49 52 52 53
REMARK SMILES IDX 66 54 85 55 50 56 51 57 65 59 86 60 53 61 37 62 38 63 46 64
REMARK SMILES IDX 39 65 40 66 44 67 47 68 41 69 42 70 45 71 43 72 69 73 70 74
REMARK SMILES IDX 78 75 71 76 72 77 76 78 79 79 73 80 74 81 77 82 75 83 54 84
REMARK SMILES IDX 55 85 63 86 56 87 57 88 61 89 64 90 58 91 59 92 62 93 60 94
REMARK H PARENT 84 47 52 58
REMARK Flexibility Score: inf
ROOT
ATOM      1  C   UNL A   1      32.580  27.926  27.022  1.00  0.00     0.261 C 
ENDROOT
BRANCH   1   2
ATOM      2  O   UNL A   1      31.663  27.328  26.087  1.00  0.00    -0.460 OA
BRANCH   2   3
ATOM      3  C   UNL A   1      31.599  25.980  26.109  1.00  0.00     0.341 C 
ATOM      4  O   UNL A   1      30.852  25.280  26.770  1.00  0.00    -0.246 OA
BRANCH   3   5
ATOM      5  C   UNL A   1      32.392  25.468  24.982  1.00  0.00     0.098 A 
ATOM      6  C   UNL A   1      34.295  24.340  24.056  1.00  0.00     0.120 A 
ATOM      7  C   UNL A   1      33.875  24.697  22.763  1.00  0.00     0.045 A 
ATOM      8  C   UNL A   1      33.558  24.722  25.170  1.00  0.00     0.157 A 
ATOM      9  C   UNL A   1      32.703  25.422  22.591  1.00  0.00     0.043 A 
ATOM     10  F   UNL A   1      33.937  24.380  26.407  1.00  0.00    -0.205 F 
ATOM     11  Cl  UNL A   1      32.179  25.841  21.010  1.00  0.00    -0.084 Cl
ATOM     12  C   UNL A   1      31.952  25.808  23.695  1.00  0.00     0.039 A 
BRANCH   6  13
ATOM     13  S   UNL A   1      35.707  23.291  24.164  1.00  0.00     0.245 S 
ATOM     14  O   UNL A   1      36.668  23.980  25.002  1.00  0.00    -0.207 OA
ATOM     15  O   UNL A   1      36.018  22.973  22.791  1.00  0.00    -0.207 OA
BRANCH  13  16
ATOM     16  N   UNL A   1      35.276  21.863  25.009  1.00  0.00    -0.201 NA
ATOM     17  C   UNL A   1      36.423  20.933  25.217  1.00  0.00     0.124 C 
BRANCH  16  18
ATOM     18  C   UNL A   1      34.134  21.107  24.376  1.00  0.00     0.102 C 
BRANCH  18  19
ATOM     19  C   UNL A   1      33.642  19.916  25.202  1.00  0.00     0.017 C 
BRANCH  19  20
ATOM     20  C   UNL A   1      33.782  18.507  24.607  1.00  0.00     0.001 C 
BRANCH  20  21
ATOM     21  C   UNL A   1      32.546  17.921  23.918  1.00  0.00    -0.003 C 
ATOM     22  C   UNL A   1      32.467  18.242  22.435  1.00  0.00     0.004 C 
ENDBRANCH  20  21
ENDBRANCH  19  20
ENDBRANCH  18  19
ENDBRANCH  16  18
ENDBRANCH  13  16
ENDBRANCH   6  13
ENDBRANCH   3   5
ENDBRANCH   2   3
ENDBRANCH   1   2
BRANCH   1  23
ATOM     23  C   UNL A   1      32.980  29.305  26.493  1.00  0.00     0.202 C 
BRANCH  23  24
ATOM     24  O   UNL A   1      32.340  30.371  27.203  1.00  0.00    -0.374 OA
BRANCH  24  25
ATOM     25  C   UNL A   1      31.663  31.337  26.395  1.00  0.00     0.202 C 
BRANCH  25  26
ATOM     26  C   UNL A   1      31.870  32.775  26.877  1.00  0.00     0.261 C 
BRANCH  26  27
ATOM     27  O   UNL A   1      32.745  32.792  28.021  1.00  0.00    -0.460 OA
BRANCH  27  28
ATOM     28  C   UNL A   1      33.819  33.608  27.908  1.00  0.00     0.338 C 
ATOM     29  O   UNL A   1      33.821  34.796  27.635  1.00  0.00    -0.246 OA
BRANCH  28  30
ATOM     30  C   UNL A   1      35.041  32.882  28.317  1.00  0.00     0.060 A 
ATOM     31  C   UNL A   1      34.890  31.553  28.735  1.00  0.00     0.016 A 
ATOM     32  C   UNL A   1      36.302  33.486  28.330  1.00  0.00     0.016 A 
ATOM     33  C   UNL A   1      35.989  30.840  29.210  1.00  0.00     0.010 A 
ATOM     34  C   UNL A   1      37.403  32.772  28.815  1.00  0.00     0.010 A 
ATOM     35  C   UNL A   1      37.244  31.458  29.287  1.00  0.00    -0.014 A 
BRANCH  35  36
ATOM     36  C   UNL A   1      38.345  30.779  30.005  1.00  0.00     0.031 A 
ATOM     37  C   UNL A   1      38.590  31.123  31.447  1.00  0.00     0.074 A 
ATOM     38  C   UNL A   1      39.096  29.845  29.396  1.00  0.00     0.049 A 
ATOM     39  N   UNL A   1      39.495  30.657  32.271  1.00  0.00    -0.248 NA
ATOM     40  C   UNL A   1      37.694  32.127  32.042  1.00  0.00     0.031 C 
ATOM     41  C   UNL A   1      38.935  29.403  28.012  1.00  0.00     0.029 A 
ATOM     42  N   UNL A   1      40.148  29.103  29.869  1.00  0.00    -0.354 N 
ATOM     43  C   UNL A   1      39.273  31.305  33.477  1.00  0.00     0.074 A 
ATOM     44  C   UNL A   1      38.167  32.216  33.276  1.00  0.00     0.031 C 
ATOM     45  C   UNL A   1      39.864  28.468  27.745  1.00  0.00     0.029 A 
ATOM     46  C   UNL A   1      40.694  28.264  28.931  1.00  0.00     0.049 A 
ATOM     47  H   UNL A   1      40.480  29.167  30.794  1.00  0.00     0.167 HD
ATOM     48  C   UNL A   1      39.929  31.149  34.651  1.00  0.00     0.037 A 
ATOM     49  C   UNL A   1      41.751  27.435  29.022  1.00  0.00     0.037 A 
ATOM     50  C   UNL A   1      41.029  30.249  34.857  1.00  0.00     0.049 A 
ATOM     51  C   UNL A   1      42.499  27.321  30.324  1.00  0.00     0.074 A 
ATOM     52  C   UNL A   1      41.751  30.015  36.015  1.00  0.00     0.029 A 
ATOM     53  N   UNL A   1      41.571  29.434  33.876  1.00  0.00    -0.354 N 
ATOM     54  N   UNL A   1      42.270  27.923  31.464  1.00  0.00    -0.248 NA
ATOM     55  C   UNL A   1      43.655  26.411  30.348  1.00  0.00     0.031 C 
ATOM     56  C   UNL A   1      42.751  29.080  35.725  1.00  0.00     0.029 A 
ATOM     57  C   UNL A   1      42.631  28.710  34.396  1.00  0.00     0.049 A 
ATOM     58  H   UNL A   1      41.251  29.379  32.946  1.00  0.00     0.167 HD
ATOM     59  C   UNL A   1      43.234  27.451  32.346  1.00  0.00     0.074 A 
ATOM     60  C   UNL A   1      44.049  26.508  31.610  1.00  0.00     0.031 C 
ATOM     61  C   UNL A   1      43.425  27.770  33.649  1.00  0.00     0.037 A 
BRANCH  48  62
ATOM     62  C   UNL A   1      39.475  31.990  35.804  1.00  0.00     0.064 A 
ATOM     63  C   UNL A   1      40.056  33.238  36.070  1.00  0.00     0.173 A 
ATOM     64  C   UNL A   1      38.435  31.553  36.635  1.00  0.00     0.173 A 
ATOM     65  F   UNL A   1      41.066  33.687  35.311  1.00  0.00    -0.203 F 
ATOM     66  C   UNL A   1      39.620  34.014  37.141  1.00  0.00     0.198 A 
ATOM     67  C   UNL A   1      37.989  32.340  37.694  1.00  0.00     0.198 A 
ATOM     68  F   UNL A   1      37.851  30.364  36.421  1.00  0.00    -0.203 F 
ATOM     69  F   UNL A   1      40.210  35.189  37.399  1.00  0.00    -0.200 F 
ATOM     70  C   UNL A   1      38.584  33.567  37.948  1.00  0.00     0.200 A 
ATOM     71  F   UNL A   1      36.986  31.908  38.472  1.00  0.00    -0.200 F 
ATOM     72  F   UNL A   1      38.165  34.315  38.977  1.00  0.00    -0.200 F 
ENDBRANCH  48  62
BRANCH  49  73
ATOM     73  C   UNL A   1      42.173  26.646  27.838  1.00  0.00     0.064 A 
ATOM     74  C   UNL A   1      41.625  25.383  27.578  1.00  0.00     0.173 A 
ATOM     75  C   UNL A   1      43.144  27.136  26.952  1.00  0.00     0.173 A 
ATOM     76  F   UNL A   1      40.714  24.865  28.414  1.00  0.00    -0.203 F 
ATOM     77  C   UNL A   1      42.040  24.633  26.480  1.00  0.00     0.198 A 
ATOM     78  C   UNL A   1      43.543  26.394  25.843  1.00  0.00     0.198 A 
ATOM     79  F   UNL A   1      43.699  28.338  27.164  1.00  0.00    -0.203 F 
ATOM     80  F   UNL A   1      41.527  23.414  26.271  1.00  0.00    -0.200 F 
ATOM     81  C   UNL A   1      42.995  25.142  25.611  1.00  0.00     0.200 A 
ATOM     82  F   UNL A   1      44.463  26.890  25.004  1.00  0.00    -0.200 F 
ATOM     83  F   UNL A   1      43.394  24.420  24.555  1.00  0.00    -0.200 F 
ENDBRANCH  49  73
BRANCH  61  84
ATOM     84  C   UNL A   1      44.541  27.079  34.369  1.00  0.00     0.064 A 
ATOM     85  C   UNL A   1      44.351  25.836  34.989  1.00  0.00     0.173 A 
ATOM     86  C   UNL A   1      45.825  27.642  34.396  1.00  0.00     0.173 A 
ATOM     87  F   UNL A   1      43.136  25.266  34.999  1.00  0.00    -0.203 F 
ATOM     88  C   UNL A   1      45.407  25.185  35.622  1.00  0.00     0.198 A 
ATOM     89  C   UNL A   1      46.883  26.980  35.014  1.00  0.00     0.198 A 
ATOM     90  F   UNL A   1      46.056  28.827  33.813  1.00  0.00    -0.203 F 
ATOM     91  F   UNL A   1      45.198  24.012  36.233  1.00  0.00    -0.200 F 
ATOM     92  C   UNL A   1      46.673  25.755  35.628  1.00  0.00     0.200 A 
ATOM     93  F   UNL A   1      48.106  27.527  35.013  1.00  0.00    -0.200 F 
ATOM     94  F   UNL A   1      47.689  25.124  36.233  1.00  0.00    -0.200 F 
ENDBRANCH  61  84
ENDBRANCH  35  36
ENDBRANCH  28  30
ENDBRANCH  27  28
ENDBRANCH  26  27
ENDBRANCH  25  26
ENDBRANCH  24  25
ENDBRANCH  23  24
ENDBRANCH   1  23
TORSDOF 20
ENDMDL
MODEL 2
REMARK VINA RESULT:     -10.5      0.522      2.024
REMARK SMILES CCCCCN(C)S(=O)(=O)c1cc(Cl)cc(C(=O)OCCOCCOC(=O)c2ccc(-c3c4nc(c(-c5c(F)c(F)c(F)c(F)c5F)c5ccc([nH]5)c(-c5c(F)c(F)c(F)c(F)c5F)c5nc(c(-c6c(F)c(F)c(F)c(F)c6F)c6ccc3[nH]6)C=C5)C=C4)cc2)c1F
REMARK SMILES IDX 20 1 19 2 17 3 18 4 16 5 11 6 12 7 91 8 13 9 92 10 14 11
REMARK SMILES IDX 15 12 8 13 9 14 10 15 6 16 7 17 5 18 4 19 3 20 2 21 1 22
REMARK SMILES IDX 21 23 22 24 23 25 24 26 25 27 26 28 27 29 28 30 29 31 90 32
REMARK SMILES IDX 30 33 89 34 31 35 32 36 33 37 83 38 34 39 88 40 82 41 84 42
REMARK SMILES IDX 35 43 87 44 81 45 80 46 36 48 68 49 48 50 67 51 49 52 52 53
REMARK SMILES IDX 66 54 85 55 50 56 51 57 65 59 86 60 53 61 37 62 38 63 46 64
REMARK SMILES IDX 39 65 40 66 44 67 47 68 41 69 42 70 45 71 43 72 69 73 70 74
REMARK SMILES IDX 78 75 71 76 72 77 76 78 79 79 73 80 74 81 77 82 75 83 54 84
REMARK SMILES IDX 55 85 63 86 56 87 57 88 61 89 64 90 58 91 59 92 62 93 60 94
REMARK H PARENT 84 47 52 58
REMARK Flexibility Score: inf
ROOT
ATOM      1  C   UNL A   1      31.760  28.014  26.987  1.00  0.00     0.261 C 
ENDROOT
BRANCH   1   2
ATOM      2  O   UNL A   1      31.067  27.456  25.855  1.00  0.00    -0.460 OA
BRANCH   2   3
ATOM      3  C   UNL A   1      30.859  26.122  25.893  1.00  0.00     0.341 C 
ATOM      4  O   UNL A   1      29.989  25.522  26.498  1.00  0.00    -0.246 OA
BRANCH   3   5
ATOM      5  C   UNL A   1      31.687  25.502  24.849  1.00  0.00     0.098 A 
ATOM      6  C   UNL A   1      33.482  24.094  24.112  1.00  0.00     0.120 A 
ATOM      7  C   UNL A   1      33.278  24.527  22.791  1.00  0.00     0.045 A 
ATOM      8  C   UNL A   1      32.690  24.577  25.146  1.00  0.00     0.157 A 
ATOM      9  C   UNL A   1      32.262  25.433  22.508  1.00  0.00     0.043 A 
ATOM     10  F   UNL A   1      32.864  24.165  26.407  1.00  0.00    -0.205 F 
ATOM     11  Cl  UNL A   1      31.999  25.947  20.891  1.00  0.00    -0.084 Cl
ATOM     12  C   UNL A   1      31.459  25.922  23.531  1.00  0.00     0.039 A 
BRANCH   6  13
ATOM     13  S   UNL A   1      34.689  22.831  24.347  1.00  0.00     0.245 S 
ATOM     14  O   UNL A   1      35.163  22.965  25.711  1.00  0.00    -0.207 OA
ATOM     15  O   UNL A   1      35.592  22.990  23.233  1.00  0.00    -0.207 OA
BRANCH  13  16
ATOM     16  N   UNL A   1      33.918  21.302  24.260  1.00  0.00    -0.201 NA
ATOM     17  C   UNL A   1      32.509  21.324  24.750  1.00  0.00     0.124 C 
BRANCH  16  18
ATOM     18  C   UNL A   1      34.671  20.204  24.969  1.00  0.00     0.102 C 
BRANCH  18  19
ATOM     19  C   UNL A   1      33.933  18.864  25.004  1.00  0.00     0.017 C 
BRANCH  19  20
ATOM     20  C   UNL A   1      34.461  17.715  24.133  1.00  0.00     0.001 C 
BRANCH  20  21
ATOM     21  C   UNL A   1      33.466  17.070  23.163  1.00  0.00    -0.003 C 
ATOM     22  C   UNL A   1      32.535  18.067  22.493  1.00  0.00     0.004 C 
ENDBRANCH  20  21
ENDBRANCH  19  20
ENDBRANCH  18  19
ENDBRANCH  16  18
ENDBRANCH  13  16
ENDBRANCH   6  13
ENDBRANCH   3   5
ENDBRANCH   2   3
ENDBRANCH   1   2
BRANCH   1  23
ATOM     23  C   UNL A   1      32.497  29.274  26.531  1.00  0.00     0.202 C 
BRANCH  23  24
ATOM     24  O   UNL A   1      32.065  30.446  27.231  1.00  0.00    -0.374 OA
BRANCH  24  25
ATOM     25  C   UNL A   1      31.476  31.470  26.425  1.00  0.00     0.202 C 
BRANCH  25  26
ATOM     26  C   UNL A   1      31.851  32.883  26.879  1.00  0.00     0.261 C 
BRANCH  26  27
ATOM     27  O   UNL A   1      32.764  32.818  27.991  1.00  0.00    -0.460 OA
BRANCH  27  28
ATOM     28  C   UNL A   1      33.836  33.639  27.901  1.00  0.00     0.338 C 
ATOM     29  O   UNL A   1      33.838  34.829  27.639  1.00  0.00    -0.246 OA
BRANCH  28  30
ATOM     30  C   UNL A   1      35.055  32.913  28.320  1.00  0.00     0.060 A 
ATOM     31  C   UNL A   1      34.906  31.576  28.708  1.00  0.00     0.016 A 
ATOM     32  C   UNL A   1      36.312  33.526  28.368  1.00  0.00     0.016 A 
ATOM     33  C   UNL A   1      36.000  30.861  29.191  1.00  0.00     0.010 A 
ATOM     34  C   UNL A   1      37.408  32.810  28.861  1.00  0.00     0.010 A 
ATOM     35  C   UNL A   1      37.249  31.486  29.304  1.00  0.00    -0.014 A 
BRANCH  35  36
ATOM     36  C   UNL A   1      38.341  30.800  30.031  1.00  0.00     0.031 A 
ATOM     37  C   UNL A   1      38.567  31.130  31.479  1.00  0.00     0.074 A 
ATOM     38  C   UNL A   1      39.101  29.873  29.422  1.00  0.00     0.049 A 
ATOM     39  N   UNL A   1      39.460  30.656  32.310  1.00  0.00    -0.248 NA
ATOM     40  C   UNL A   1      37.661  32.127  32.072  1.00  0.00     0.031 C 
ATOM     41  C   UNL A   1      38.959  29.445  28.032  1.00  0.00     0.029 A 
ATOM     42  N   UNL A   1      40.147  29.127  29.902  1.00  0.00    -0.354 N 
ATOM     43  C   UNL A   1      39.222  31.292  33.520  1.00  0.00     0.074 A 
ATOM     44  C   UNL A   1      38.117  32.204  33.313  1.00  0.00     0.031 C 
ATOM     45  C   UNL A   1      39.893  28.514  27.768  1.00  0.00     0.029 A 
ATOM     46  C   UNL A   1      40.706  28.298  28.963  1.00  0.00     0.049 A 
ATOM     47  H   UNL A   1      40.467  29.182  30.832  1.00  0.00     0.167 HD
ATOM     48  C   UNL A   1      39.861  31.125  34.701  1.00  0.00     0.037 A 
ATOM     49  C   UNL A   1      41.763  27.469  29.060  1.00  0.00     0.037 A 
ATOM     50  C   UNL A   1      40.960  30.223  34.912  1.00  0.00     0.049 A 
ATOM     51  C   UNL A   1      42.493  27.342  30.371  1.00  0.00     0.074 A 
ATOM     52  C   UNL A   1      41.665  29.979  36.078  1.00  0.00     0.029 A 
ATOM     53  N   UNL A   1      41.515  29.419  33.931  1.00  0.00    -0.354 N 
ATOM     54  N   UNL A   1      42.249  27.932  31.514  1.00  0.00    -0.248 NA
ATOM     55  C   UNL A   1      43.650  26.433  30.401  1.00  0.00     0.031 C 
ATOM     56  C   UNL A   1      42.670  29.047  35.792  1.00  0.00     0.029 A 
ATOM     57  C   UNL A   1      42.569  28.690  34.458  1.00  0.00     0.049 A 
ATOM     58  H   UNL A   1      41.208  29.372  32.996  1.00  0.00     0.167 HD
ATOM     59  C   UNL A   1      43.200  27.452  32.404  1.00  0.00     0.074 A 
ATOM     60  C   UNL A   1      44.026  26.517  31.669  1.00  0.00     0.031 C 
ATOM     61  C   UNL A   1      43.373  27.759  33.712  1.00  0.00     0.037 A 
BRANCH  48  62
ATOM     62  C   UNL A   1      39.391  31.953  35.856  1.00  0.00     0.064 A 
ATOM     63  C   UNL A   1      38.390  31.494  36.724  1.00  0.00     0.173 A 
ATOM     64  C   UNL A   1      39.965  33.207  36.110  1.00  0.00     0.173 A 
ATOM     65  F   UNL A   1      37.802  30.309  36.508  1.00  0.00    -0.203 F 
ATOM     66  C   UNL A   1      37.967  32.271  37.800  1.00  0.00     0.198 A 
ATOM     67  C   UNL A   1      39.552  33.972  37.198  1.00  0.00     0.198 A 
ATOM     68  F   UNL A   1      40.924  33.688  35.305  1.00  0.00    -0.203 F 
ATOM     69  F   UNL A   1      36.986  31.829  38.598  1.00  0.00    -0.200 F 
ATOM     70  C   UNL A   1      38.553  33.506  38.038  1.00  0.00     0.200 A 
ATOM     71  F   UNL A   1      40.119  35.165  37.429  1.00  0.00    -0.200 F 
ATOM     72  F   UNL A   1      38.145  34.252  39.075  1.00  0.00    -0.200 F 
ENDBRANCH  48  62
BRANCH  49  73
ATOM     73  C   UNL A   1      42.202  26.693  27.874  1.00  0.00     0.064 A 
ATOM     74  C   UNL A   1      43.182  27.192  27.006  1.00  0.00     0.173 A 
ATOM     75  C   UNL A   1      41.639  25.442  27.579  1.00  0.00     0.173 A 
ATOM     76  F   UNL A   1      43.728  28.395  27.235  1.00  0.00    -0.203 F 
ATOM     77  C   UNL A   1      43.576  26.473  25.879  1.00  0.00     0.198 A 
ATOM     78  C   UNL A   1      42.048  24.716  26.464  1.00  0.00     0.198 A 
ATOM     79  F   UNL A   1      40.694  24.927  28.380  1.00  0.00    -0.203 F 
ATOM     80  F   UNL A   1      44.490  26.987  25.045  1.00  0.00    -0.200 F 
ATOM     81  C   UNL A   1      43.013  25.234  25.612  1.00  0.00     0.200 A 
ATOM     82  F   UNL A   1      41.504  23.518  26.211  1.00  0.00    -0.200 F 
ATOM     83  F   UNL A   1      43.391  24.543  24.528  1.00  0.00    -0.200 F 
ENDBRANCH  49  73
BRANCH  61  84
ATOM     84  C   UNL A   1      44.480  27.061  34.441  1.00  0.00     0.064 A 
ATOM     85  C   UNL A   1      45.754  27.634  34.557  1.00  0.00     0.173 A 
ATOM     86  C   UNL A   1      44.249  25.831  35.074  1.00  0.00     0.173 A 
ATOM     87  F   UNL A   1      46.024  28.804  33.956  1.00  0.00    -0.203 F 
ATOM     88  C   UNL A   1      46.763  26.994  35.271  1.00  0.00     0.198 A 
ATOM     89  C   UNL A   1      45.255  25.202  35.802  1.00  0.00     0.198 A 
ATOM     90  F   UNL A   1      43.045  25.246  34.994  1.00  0.00    -0.203 F 
ATOM     91  F   UNL A   1      47.983  27.544  35.344  1.00  0.00    -0.200 F 
ATOM     92  C   UNL A   1      46.511  25.781  35.897  1.00  0.00     0.200 A 
ATOM     93  F   UNL A   1      45.008  24.035  36.413  1.00  0.00    -0.200 F 
ATOM     94  F   UNL A   1      47.482  25.169  36.589  1.00  0.00    -0.200 F 
ENDBRANCH  61  84
ENDBRANCH  35  36
ENDBRANCH  28  30
ENDBRANCH  27  28
ENDBRANCH  26  27
ENDBRANCH  25  26
ENDBRANCH  24  25
ENDBRANCH  23  24
ENDBRANCH   1  23
TORSDOF 20
ENDMDL
MODEL 3
REMARK VINA RESULT:     -10.1      5.015     10.526
REMARK SMILES CCCCCN(C)S(=O)(=O)c1cc(Cl)cc(C(=O)OCCOCCOC(=O)c2ccc(-c3c4nc(c(-c5c(F)c(F)c(F)c(F)c5F)c5ccc([nH]5)c(-c5c(F)c(F)c(F)c(F)c5F)c5nc(c(-c6c(F)c(F)c(F)c(F)c6F)c6ccc3[nH]6)C=C5)C=C4)cc2)c1F
REMARK SMILES IDX 20 1 19 2 17 3 18 4 16 5 11 6 12 7 91 8 13 9 92 10 14 11
REMARK SMILES IDX 15 12 8 13 9 14 10 15 6 16 7 17 5 18 4 19 3 20 2 21 1 22
REMARK SMILES IDX 21 23 22 24 23 25 24 26 25 27 26 28 27 29 28 30 29 31 90 32
REMARK SMILES IDX 30 33 89 34 31 35 32 36 33 37 83 38 34 39 88 40 82 41 84 42
REMARK SMILES IDX 35 43 87 44 81 45 80 46 36 48 68 49 48 50 67 51 49 52 52 53
REMARK SMILES IDX 66 54 85 55 50 56 51 57 65 59 86 60 53 61 37 62 38 63 46 64
REMARK SMILES IDX 39 65 40 66 44 67 47 68 41 69 42 70 45 71 43 72 69 73 70 74
REMARK SMILES IDX 78 75 71 76 72 77 76 78 79 79 73 80 74 81 77 82 75 83 54 84
REMARK SMILES IDX 55 85 63 86 56 87 57 88 61 89 64 90 58 91 59 92 62 93 60 94
REMARK H PARENT 84 47 52 58
REMARK Flexibility Score: inf
ROOT
ATOM      1  C   UNL A   1      37.428  22.556  25.635  1.00  0.00     0.261 C 
ENDROOT
BRANCH   1   2
ATOM      2  O   UNL A   1      36.502  23.503  25.069  1.00  0.00    -0.460 OA
BRANCH   2   3
ATOM      3  C   UNL A   1      35.236  23.435  25.533  1.00  0.00     0.341 C 
ATOM      4  O   UNL A   1      34.864  23.490  26.692  1.00  0.00    -0.246 OA
BRANCH   3   5
ATOM      5  C   UNL A   1      34.324  23.566  24.388  1.00  0.00     0.098 A 
ATOM      6  C   UNL A   1      33.046  24.856  22.822  1.00  0.00     0.120 A 
ATOM      7  C   UNL A   1      32.469  23.675  22.323  1.00  0.00     0.045 A 
ATOM      8  C   UNL A   1      33.974  24.809  23.854  1.00  0.00     0.157 A 
ATOM      9  C   UNL A   1      32.842  22.445  22.851  1.00  0.00     0.043 A 
ATOM     10  F   UNL A   1      34.542  25.922  24.332  1.00  0.00    -0.205 F 
ATOM     11  Cl  UNL A   1      32.153  21.001  22.228  1.00  0.00    -0.084 Cl
ATOM     12  C   UNL A   1      33.773  22.381  23.881  1.00  0.00     0.039 A 
BRANCH   6  13
ATOM     13  S   UNL A   1      32.626  26.350  21.986  1.00  0.00     0.245 S 
ATOM     14  O   UNL A   1      31.660  25.992  20.965  1.00  0.00    -0.207 OA
ATOM     15  O   UNL A   1      33.900  26.925  21.627  1.00  0.00    -0.207 OA
BRANCH  13  16
ATOM     16  N   UNL A   1      31.804  27.386  23.077  1.00  0.00    -0.201 NA
ATOM     17  C   UNL A   1      32.718  28.298  23.825  1.00  0.00     0.124 C 
BRANCH  16  18
ATOM     18  C   UNL A   1      30.924  26.653  24.059  1.00  0.00     0.102 C 
BRANCH  18  19
ATOM     19  C   UNL A   1      31.209  26.991  25.524  1.00  0.00     0.017 C 
BRANCH  19  20
ATOM     20  C   UNL A   1      30.969  25.907  26.584  1.00  0.00     0.001 C 
BRANCH  20  21
ATOM     21  C   UNL A   1      31.619  24.542  26.338  1.00  0.00    -0.003 C 
ATOM     22  C   UNL A   1      30.624  23.451  25.976  1.00  0.00     0.004 C 
ENDBRANCH  20  21
ENDBRANCH  19  20
ENDBRANCH  18  19
ENDBRANCH  16  18
ENDBRANCH  13  16
ENDBRANCH   6  13
ENDBRANCH   3   5
ENDBRANCH   2   3
ENDBRANCH   1   2
BRANCH   1  23
ATOM     23  C   UNL A   1      36.953  21.146  25.282  1.00  0.00     0.202 C 
BRANCH  23  24
ATOM     24  O   UNL A   1      37.963  20.377  24.618  1.00  0.00    -0.374 OA
BRANCH  24  25
ATOM     25  C   UNL A   1      38.529  19.306  25.378  1.00  0.00     0.202 C 
BRANCH  25  26
ATOM     26  C   UNL A   1      39.828  19.692  26.088  1.00  0.00     0.261 C 
BRANCH  26  27
ATOM     27  O   UNL A   1      40.958  19.154  25.375  1.00  0.00    -0.460 OA
BRANCH  27  28
ATOM     28  C   UNL A   1      42.091  19.033  26.105  1.00  0.00     0.338 C 
ATOM     29  O   UNL A   1      42.663  18.004  26.421  1.00  0.00    -0.246 OA
BRANCH  28  30
ATOM     30  C   UNL A   1      42.660  20.373  26.366  1.00  0.00     0.060 A 
ATOM     31  C   UNL A   1      42.475  20.913  27.646  1.00  0.00     0.016 A 
ATOM     32  C   UNL A   1      43.330  21.107  25.382  1.00  0.00     0.016 A 
ATOM     33  C   UNL A   1      42.915  22.203  27.931  1.00  0.00     0.010 A 
ATOM     34  C   UNL A   1      43.764  22.406  25.666  1.00  0.00     0.010 A 
ATOM     35  C   UNL A   1      43.529  22.970  26.932  1.00  0.00    -0.014 A 
BRANCH  35  36
ATOM     36  C   UNL A   1      43.778  24.409  27.172  1.00  0.00     0.031 A 
ATOM     37  C   UNL A   1      45.145  24.965  26.889  1.00  0.00     0.074 A 
ATOM     38  C   UNL A   1      42.796  25.219  27.604  1.00  0.00     0.049 A 
ATOM     39  N   UNL A   1      45.590  26.188  27.026  1.00  0.00    -0.248 NA
ATOM     40  C   UNL A   1      46.146  24.013  26.381  1.00  0.00     0.031 C 
ATOM     41  C   UNL A   1      41.422  24.806  27.883  1.00  0.00     0.029 A 
ATOM     42  N   UNL A   1      42.811  26.561  27.885  1.00  0.00    -0.354 N 
ATOM     43  C   UNL A   1      46.916  26.153  26.618  1.00  0.00     0.074 A 
ATOM     44  C   UNL A   1      47.215  24.784  26.251  1.00  0.00     0.031 C 
ATOM     45  C   UNL A   1      40.725  25.875  28.306  1.00  0.00     0.029 A 
ATOM     46  C   UNL A   1      41.609  27.039  28.343  1.00  0.00     0.049 A 
ATOM     47  H   UNL A   1      43.607  27.128  27.770  1.00  0.00     0.167 HD
ATOM     48  C   UNL A   1      47.804  27.172  26.547  1.00  0.00     0.037 A 
ATOM     49  C   UNL A   1      41.269  28.275  28.756  1.00  0.00     0.037 A 
ATOM     50  C   UNL A   1      47.515  28.531  26.911  1.00  0.00     0.049 A 
ATOM     51  C   UNL A   1      42.292  29.380  28.720  1.00  0.00     0.074 A 
ATOM     52  C   UNL A   1      48.350  29.635  26.863  1.00  0.00     0.029 A 
ATOM     53  N   UNL A   1      46.294  28.972  27.396  1.00  0.00    -0.354 N 
ATOM     54  N   UNL A   1      43.536  29.342  28.314  1.00  0.00    -0.248 NA
ATOM     55  C   UNL A   1      41.859  30.701  29.203  1.00  0.00     0.031 C 
ATOM     56  C   UNL A   1      47.640  30.739  27.350  1.00  0.00     0.029 A 
ATOM     57  C   UNL A   1      46.357  30.328  27.670  1.00  0.00     0.049 A 
ATOM     58  H   UNL A   1      45.500  28.405  27.526  1.00  0.00     0.167 HD
ATOM     59  C   UNL A   1      44.029  30.631  28.469  1.00  0.00     0.074 A 
ATOM     60  C   UNL A   1      42.947  31.431  29.002  1.00  0.00     0.031 C 
ATOM     61  C   UNL A   1      45.267  31.108  28.193  1.00  0.00     0.037 A 
BRANCH  48  62
ATOM     62  C   UNL A   1      49.184  26.844  26.067  1.00  0.00     0.064 A 
ATOM     63  C   UNL A   1      49.544  26.996  24.721  1.00  0.00     0.173 A 
ATOM     64  C   UNL A   1      50.161  26.396  26.967  1.00  0.00     0.173 A 
ATOM     65  F   UNL A   1      48.637  27.405  23.822  1.00  0.00    -0.203 F 
ATOM     66  C   UNL A   1      50.833  26.696  24.289  1.00  0.00     0.198 A 
ATOM     67  C   UNL A   1      51.454  26.115  26.535  1.00  0.00     0.198 A 
ATOM     68  F   UNL A   1      49.861  26.233  28.265  1.00  0.00    -0.203 F 
ATOM     69  F   UNL A   1      51.149  26.815  22.992  1.00  0.00    -0.200 F 
ATOM     70  C   UNL A   1      51.788  26.261  25.197  1.00  0.00     0.200 A 
ATOM     71  F   UNL A   1      52.376  25.696  27.414  1.00  0.00    -0.200 F 
ATOM     72  F   UNL A   1      53.028  25.972  24.780  1.00  0.00    -0.200 F 
ENDBRANCH  48  62
BRANCH  49  73
ATOM     73  C   UNL A   1      39.894  28.536  29.248  1.00  0.00     0.064 A 
ATOM     74  C   UNL A   1      38.899  29.023  28.388  1.00  0.00     0.173 A 
ATOM     75  C   UNL A   1      39.552  28.317  30.590  1.00  0.00     0.173 A 
ATOM     76  F   UNL A   1      39.189  29.271  27.103  1.00  0.00    -0.203 F 
ATOM     77  C   UNL A   1      37.615  29.291  28.857  1.00  0.00     0.198 A 
ATOM     78  C   UNL A   1      38.263  28.567  31.052  1.00  0.00     0.198 A 
ATOM     79  F   UNL A   1      40.473  27.857  31.450  1.00  0.00    -0.203 F 
ATOM     80  F   UNL A   1      36.690  29.788  28.025  1.00  0.00    -0.200 F 
ATOM     81  C   UNL A   1      37.296  29.057  30.187  1.00  0.00     0.200 A 
ATOM     82  F   UNL A   1      37.958  28.337  32.337  1.00  0.00    -0.200 F 
ATOM     83  F   UNL A   1      36.061  29.315  30.638  1.00  0.00    -0.200 F 
ENDBRANCH  49  73
BRANCH  61  84
ATOM     84  C   UNL A   1      45.512  32.565  28.439  1.00  0.00     0.064 A 
ATOM     85  C   UNL A   1      45.227  33.529  27.462  1.00  0.00     0.173 A 
ATOM     86  C   UNL A   1      45.989  33.005  29.682  1.00  0.00     0.173 A 
ATOM     87  F   UNL A   1      44.781  33.152  26.253  1.00  0.00    -0.203 F 
ATOM     88  C   UNL A   1      45.423  34.883  27.717  1.00  0.00     0.198 A 
ATOM     89  C   UNL A   1      46.166  34.362  29.940  1.00  0.00     0.198 A 
ATOM     90  F   UNL A   1      46.272  32.120  30.649  1.00  0.00    -0.203 F 
ATOM     91  F   UNL A   1      45.172  35.787  26.760  1.00  0.00    -0.200 F 
ATOM     92  C   UNL A   1      45.886  35.298  28.957  1.00  0.00     0.200 A 
ATOM     93  F   UNL A   1      46.607  34.762  31.141  1.00  0.00    -0.200 F 
ATOM     94  F   UNL A   1      46.069  36.603  29.203  1.00  0.00    -0.200 F 
ENDBRANCH  61  84
ENDBRANCH  35  36
ENDBRANCH  28  30
ENDBRANCH  27  28
ENDBRANCH  26  27
ENDBRANCH  25  26
ENDBRANCH  24  25
ENDBRANCH  23  24
ENDBRANCH   1  23
TORSDOF 20
ENDMDL
