MODEL 1
REMARK VINA RESULT:     -11.6      0.000      0.000
REMARK SMILES CSCC[C@H](NC(=O)Cc1c(C)c2ccc(O)cc2oc1=O)C(=O)OCCOCCOC(=O)c1ccc(-c2c3nc(c(-c4c(F)c(F)c(F)c(F)c4F)c4ccc([nH]4)c(-c4c(F)c(F)c(F)c(F)c4F)c4nc(c(-c5c(F)c(F)c(F)c(F)c5F)c5ccc2[nH]5)C=C4)C=C3)cc1
REMARK SMILES IDX 27 1 26 2 25 3 23 4 24 5 5 6 4 7 3 8 2 9 1 10 6 11 7 12 8 14
REMARK SMILES IDX 9 15 10 16 11 17 21 18 12 19 13 20 20 21 22 22 14 23 19 24
REMARK SMILES IDX 15 25 18 26 16 27 17 28 28 30 29 31 30 32 31 33 32 34 33 35
REMARK SMILES IDX 34 36 35 37 96 38 36 39 95 40 37 41 38 42 39 43 89 44 40 45
REMARK SMILES IDX 94 46 88 47 90 48 41 49 93 50 87 51 86 52 42 54 74 55 54 56
REMARK SMILES IDX 73 57 55 58 58 59 72 60 91 61 56 62 57 63 71 65 92 66 59 67
REMARK SMILES IDX 43 68 44 69 52 70 45 71 46 72 50 73 53 74 47 75 48 76 51 77
REMARK SMILES IDX 49 78 75 79 76 80 84 81 77 82 78 83 82 84 85 85 79 86 80 87
REMARK SMILES IDX 83 88 81 89 60 90 61 91 69 92 62 93 63 94 67 95 70 96 64 97
REMARK SMILES IDX 65 98 68 99 66 100
REMARK H PARENT 6 13 17 29 90 53 58 64
REMARK Flexibility Score: inf
ROOT
ATOM      1  C   UNL A   1      38.908  21.824  25.755  1.00  0.00     0.202 C 
ENDROOT
BRANCH   1   2
ATOM      2  C   UNL A   1      37.665  21.556  24.904  1.00  0.00     0.261 C 
BRANCH   2   3
ATOM      3  O   UNL A   1      36.628  22.533  25.039  1.00  0.00    -0.462 OA
BRANCH   3   4
ATOM      4  C   UNL A   1      36.037  22.869  23.850  1.00  0.00     0.328 C 
ATOM      5  O   UNL A   1      36.625  22.951  22.782  1.00  0.00    -0.250 OA
BRANCH   4   6
ATOM      6  C   UNL A   1      34.582  23.284  24.059  1.00  0.00     0.193 C 
BRANCH   6   7
ATOM      7  C   UNL A   1      33.641  22.196  23.511  1.00  0.00     0.048 C 
BRANCH   7   8
ATOM      8  C   UNL A   1      32.470  21.682  24.352  1.00  0.00     0.072 C 
BRANCH   8   9
ATOM      9  S   UNL A   1      32.615  22.016  26.133  1.00  0.00    -0.165 SA
ATOM     10  C   UNL A   1      30.979  22.700  26.481  1.00  0.00     0.085 C 
ENDBRANCH   8   9
ENDBRANCH   7   8
ENDBRANCH   6   7
BRANCH   6  11
ATOM     11  N   UNL A   1      34.375  24.567  23.346  1.00  0.00    -0.342 N 
ATOM     12  C   UNL A   1      33.540  25.620  23.566  1.00  0.00     0.225 C 
ATOM     13  H   UNL A   1      34.956  24.680  22.560  1.00  0.00     0.164 HD
ATOM     14  O   UNL A   1      33.638  26.588  22.808  1.00  0.00    -0.275 OA
BRANCH  12  15
ATOM     15  C   UNL A   1      32.515  25.609  24.690  1.00  0.00     0.143 C 
BRANCH  15  16
ATOM     16  C   UNL A   1      31.290  26.474  24.502  1.00  0.00     0.051 A 
ATOM     17  C   UNL A   1      31.113  27.763  24.867  1.00  0.00    -0.029 A 
ATOM     18  C   UNL A   1      30.177  25.733  23.828  1.00  0.00     0.340 A 
ATOM     19  C   UNL A   1      31.953  28.505  25.871  1.00  0.00     0.046 C 
ATOM     20  C   UNL A   1      30.090  28.515  24.122  1.00  0.00     0.021 A 
ATOM     21  O   UNL A   1      29.001  26.418  23.587  1.00  0.00    -0.422 OA
ATOM     22  O   UNL A   1      30.272  24.534  23.580  1.00  0.00    -0.246 OA
ATOM     23  C   UNL A   1      30.206  29.885  23.842  1.00  0.00     0.016 A 
ATOM     24  C   UNL A   1      29.059  27.812  23.508  1.00  0.00     0.142 A 
ATOM     25  C   UNL A   1      29.299  30.518  22.983  1.00  0.00     0.047 A 
ATOM     26  C   UNL A   1      28.107  28.437  22.706  1.00  0.00     0.094 A 
ATOM     27  C   UNL A   1      28.248  29.789  22.435  1.00  0.00     0.119 A 
BRANCH  27  28
ATOM     28  O   UNL A   1      27.350  30.364  21.587  1.00  0.00    -0.508 OA
ATOM     29  H   UNL A   1      27.453  31.260  21.332  1.00  0.00     0.293 HD
ENDBRANCH  27  28
ENDBRANCH  15  16
ENDBRANCH  12  15
ENDBRANCH   6  11
ENDBRANCH   4   6
ENDBRANCH   3   4
ENDBRANCH   2   3
ENDBRANCH   1   2
BRANCH   1  30
ATOM     30  O   UNL A   1      39.631  20.715  26.264  1.00  0.00    -0.374 OA
BRANCH  30  31
ATOM     31  C   UNL A   1      40.935  20.923  26.810  1.00  0.00     0.202 C 
BRANCH  31  32
ATOM     32  C   UNL A   1      42.016  21.494  25.891  1.00  0.00     0.261 C 
BRANCH  32  33
ATOM     33  O   UNL A   1      42.738  22.571  26.515  1.00  0.00    -0.460 OA
BRANCH  33  34
ATOM     34  C   UNL A   1      42.887  23.672  25.739  1.00  0.00     0.338 C 
ATOM     35  O   UNL A   1      43.338  23.733  24.610  1.00  0.00    -0.246 OA
BRANCH  34  36
ATOM     36  C   UNL A   1      42.237  24.821  26.387  1.00  0.00     0.060 A 
ATOM     37  C   UNL A   1      42.890  26.061  26.335  1.00  0.00     0.016 A 
ATOM     38  C   UNL A   1      41.083  24.645  27.149  1.00  0.00     0.016 A 
ATOM     39  C   UNL A   1      42.426  27.122  27.106  1.00  0.00     0.010 A 
ATOM     40  C   UNL A   1      40.630  25.702  27.936  1.00  0.00     0.010 A 
ATOM     41  C   UNL A   1      41.332  26.922  27.954  1.00  0.00    -0.014 A 
BRANCH  41  42
ATOM     42  C   UNL A   1      41.054  27.888  29.039  1.00  0.00     0.031 A 
ATOM     43  C   UNL A   1      41.871  27.786  30.295  1.00  0.00     0.074 A 
ATOM     44  C   UNL A   1      40.083  28.806  28.916  1.00  0.00     0.049 A 
ATOM     45  N   UNL A   1      41.708  28.386  31.445  1.00  0.00    -0.248 NA
ATOM     46  C   UNL A   1      43.028  26.874  30.248  1.00  0.00     0.031 C 
ATOM     47  C   UNL A   1      39.281  29.031  27.717  1.00  0.00     0.029 A 
ATOM     48  N   UNL A   1      39.594  29.704  29.829  1.00  0.00    -0.354 N 
ATOM     49  C   UNL A   1      42.723  27.906  32.263  1.00  0.00     0.074 A 
ATOM     50  C   UNL A   1      43.490  26.957  31.487  1.00  0.00     0.031 C 
ATOM     51  C   UNL A   1      38.370  29.984  27.978  1.00  0.00     0.029 A 
ATOM     52  C   UNL A   1      38.500  30.397  29.375  1.00  0.00     0.049 A 
ATOM     53  H   UNL A   1      39.986  29.837  30.721  1.00  0.00     0.167 HD
ATOM     54  C   UNL A   1      42.985  28.229  33.551  1.00  0.00     0.037 A 
ATOM     55  C   UNL A   1      37.675  31.232  30.034  1.00  0.00     0.037 A 
ATOM     56  C   UNL A   1      42.212  29.176  34.308  1.00  0.00     0.049 A 
ATOM     57  C   UNL A   1      37.935  31.516  31.492  1.00  0.00     0.074 A 
ATOM     58  C   UNL A   1      42.388  29.589  35.615  1.00  0.00     0.029 A 
ATOM     59  N   UNL A   1      41.104  29.853  33.816  1.00  0.00    -0.354 N 
ATOM     60  N   UNL A   1      38.893  31.064  32.265  1.00  0.00    -0.248 NA
ATOM     61  C   UNL A   1      36.998  32.423  32.171  1.00  0.00     0.031 C 
ATOM     62  C   UNL A   1      41.358  30.480  35.931  1.00  0.00     0.029 A 
ATOM     63  C   UNL A   1      40.573  30.666  34.803  1.00  0.00     0.049 A 
ATOM     64  H   UNL A   1      40.749  29.768  32.902  1.00  0.00     0.167 HD
ATOM     65  C   UNL A   1      38.697  31.655  33.506  1.00  0.00     0.074 A 
ATOM     66  C   UNL A   1      37.528  32.500  33.384  1.00  0.00     0.031 C 
ATOM     67  C   UNL A   1      39.421  31.516  34.644  1.00  0.00     0.037 A 
BRANCH  54  68
ATOM     68  C   UNL A   1      44.125  27.528  34.228  1.00  0.00     0.064 A 
ATOM     69  C   UNL A   1      43.969  26.269  34.825  1.00  0.00     0.173 A 
ATOM     70  C   UNL A   1      45.399  28.116  34.260  1.00  0.00     0.173 A 
ATOM     71  F   UNL A   1      42.768  25.671  34.839  1.00  0.00    -0.203 F 
ATOM     72  C   UNL A   1      45.042  25.633  35.447  1.00  0.00     0.198 A 
ATOM     73  C   UNL A   1      46.475  27.466  34.856  1.00  0.00     0.198 A 
ATOM     74  F   UNL A   1      45.601  29.321  33.703  1.00  0.00    -0.203 F 
ATOM     75  F   UNL A   1      44.861  24.450  36.051  1.00  0.00    -0.200 F 
ATOM     76  C   UNL A   1      46.295  26.229  35.455  1.00  0.00     0.200 A 
ATOM     77  F   UNL A   1      47.687  28.038  34.853  1.00  0.00    -0.200 F 
ATOM     78  F   UNL A   1      47.328  25.613  36.048  1.00  0.00    -0.200 F 
ENDBRANCH  54  68
BRANCH  55  79
ATOM     79  C   UNL A   1      36.512  31.834  29.332  1.00  0.00     0.064 A 
ATOM     80  C   UNL A   1      36.468  33.207  29.053  1.00  0.00     0.173 A 
ATOM     81  C   UNL A   1      35.420  31.052  28.927  1.00  0.00     0.173 A 
ATOM     82  F   UNL A   1      37.479  34.000  29.439  1.00  0.00    -0.203 F 
ATOM     83  C   UNL A   1      35.371  33.777  28.411  1.00  0.00     0.198 A 
ATOM     84  C   UNL A   1      34.336  31.618  28.258  1.00  0.00     0.198 A 
ATOM     85  F   UNL A   1      35.411  29.732  29.166  1.00  0.00    -0.203 F 
ATOM     86  F   UNL A   1      35.338  35.099  28.192  1.00  0.00    -0.200 F 
ATOM     87  C   UNL A   1      34.309  32.982  28.008  1.00  0.00     0.200 A 
ATOM     88  F   UNL A   1      33.320  30.843  27.856  1.00  0.00    -0.200 F 
ATOM     89  F   UNL A   1      33.258  33.528  27.382  1.00  0.00    -0.200 F 
ENDBRANCH  55  79
BRANCH  67  90
ATOM     90  C   UNL A   1      39.013  32.336  35.831  1.00  0.00     0.064 A 
ATOM     91  C   UNL A   1      38.252  31.795  36.876  1.00  0.00     0.173 A 
ATOM     92  C   UNL A   1      39.465  33.659  35.961  1.00  0.00     0.173 A 
ATOM     93  F   UNL A   1      37.786  30.539  36.791  1.00  0.00    -0.203 F 
ATOM     94  C   UNL A   1      37.948  32.552  38.004  1.00  0.00     0.198 A 
ATOM     95  C   UNL A   1      39.184  34.404  37.102  1.00  0.00     0.198 A 
ATOM     96  F   UNL A   1      40.203  34.218  34.990  1.00  0.00    -0.203 F 
ATOM     97  F   UNL A   1      37.193  32.026  38.978  1.00  0.00    -0.200 F 
ATOM     98  C   UNL A   1      38.424  33.851  38.121  1.00  0.00     0.200 A 
ATOM     99  F   UNL A   1      39.657  35.651  37.219  1.00  0.00    -0.200 F 
ATOM    100  F   UNL A   1      38.146  34.570  39.217  1.00  0.00    -0.200 F 
ENDBRANCH  67  90
ENDBRANCH  41  42
ENDBRANCH  34  36
ENDBRANCH  33  34
ENDBRANCH  32  33
ENDBRANCH  31  32
ENDBRANCH  30  31
ENDBRANCH   1  30
TORSDOF 21
ENDMDL
MODEL 2
REMARK VINA RESULT:     -11.4      2.801      8.594
REMARK SMILES CSCC[C@H](NC(=O)Cc1c(C)c2ccc(O)cc2oc1=O)C(=O)OCCOCCOC(=O)c1ccc(-c2c3nc(c(-c4c(F)c(F)c(F)c(F)c4F)c4ccc([nH]4)c(-c4c(F)c(F)c(F)c(F)c4F)c4nc(c(-c5c(F)c(F)c(F)c(F)c5F)c5ccc2[nH]5)C=C4)C=C3)cc1
REMARK SMILES IDX 27 1 26 2 25 3 23 4 24 5 5 6 4 7 3 8 2 9 1 10 6 11 7 12 8 14
REMARK SMILES IDX 9 15 10 16 11 17 21 18 12 19 13 20 20 21 22 22 14 23 19 24
REMARK SMILES IDX 15 25 18 26 16 27 17 28 28 30 29 31 30 32 31 33 32 34 33 35
REMARK SMILES IDX 34 36 35 37 96 38 36 39 95 40 37 41 38 42 39 43 89 44 40 45
REMARK SMILES IDX 94 46 88 47 90 48 41 49 93 50 87 51 86 52 42 54 74 55 54 56
REMARK SMILES IDX 73 57 55 58 58 59 72 60 91 61 56 62 57 63 71 65 92 66 59 67
REMARK SMILES IDX 43 68 44 69 52 70 45 71 46 72 50 73 53 74 47 75 48 76 51 77
REMARK SMILES IDX 49 78 75 79 76 80 84 81 77 82 78 83 82 84 85 85 79 86 80 87
REMARK SMILES IDX 83 88 81 89 60 90 61 91 69 92 62 93 63 94 67 95 70 96 64 97
REMARK SMILES IDX 65 98 68 99 66 100
REMARK H PARENT 6 13 17 29 90 53 58 64
REMARK Flexibility Score: inf
ROOT
ATOM      1  C   UNL A   1      33.663  30.084  26.495  1.00  0.00     0.202 C 
ENDROOT
BRANCH   1   2
ATOM      2  C   UNL A   1      34.190  28.677  26.783  1.00  0.00     0.261 C 
BRANCH   2   3
ATOM      3  O   UNL A   1      33.174  27.687  26.974  1.00  0.00    -0.462 OA
BRANCH   3   4
ATOM      4  C   UNL A   1      33.267  26.634  26.102  1.00  0.00     0.328 C 
ATOM      5  O   UNL A   1      34.316  26.128  25.736  1.00  0.00    -0.250 OA
BRANCH   4   6
ATOM      6  C   UNL A   1      31.898  26.279  25.525  1.00  0.00     0.193 C 
BRANCH   6   7
ATOM      7  C   UNL A   1      31.022  27.541  25.433  1.00  0.00     0.048 C 
BRANCH   7   8
ATOM      8  C   UNL A   1      31.040  28.412  24.174  1.00  0.00     0.072 C 
BRANCH   8   9
ATOM      9  S   UNL A   1      29.594  28.207  23.093  1.00  0.00    -0.165 SA
ATOM     10  C   UNL A   1      28.835  26.738  23.822  1.00  0.00     0.085 C 
ENDBRANCH   8   9
ENDBRANCH   7   8
ENDBRANCH   6   7
BRANCH   6  11
ATOM     11  N   UNL A   1      31.281  25.274  26.423  1.00  0.00    -0.342 N 
ATOM     12  C   UNL A   1      30.903  23.979  26.237  1.00  0.00     0.225 C 
ATOM     13  H   UNL A   1      31.111  25.609  27.333  1.00  0.00     0.164 HD
ATOM     14  O   UNL A   1      30.451  23.375  27.214  1.00  0.00    -0.275 OA
BRANCH  12  15
ATOM     15  C   UNL A   1      31.017  23.297  24.882  1.00  0.00     0.143 C 
BRANCH  15  16
ATOM     16  C   UNL A   1      32.351  22.671  24.547  1.00  0.00     0.051 A 
ATOM     17  C   UNL A   1      33.372  23.205  23.841  1.00  0.00    -0.029 A 
ATOM     18  C   UNL A   1      32.471  21.282  25.095  1.00  0.00     0.340 A 
ATOM     19  C   UNL A   1      33.265  24.389  22.919  1.00  0.00     0.046 C 
ATOM     20  C   UNL A   1      34.708  22.645  24.106  1.00  0.00     0.021 A 
ATOM     21  O   UNL A   1      33.652  20.600  24.865  1.00  0.00    -0.422 OA
ATOM     22  O   UNL A   1      31.523  20.733  25.647  1.00  0.00    -0.246 OA
ATOM     23  C   UNL A   1      35.879  23.416  24.056  1.00  0.00     0.016 A 
ATOM     24  C   UNL A   1      34.803  21.351  24.607  1.00  0.00     0.142 A 
ATOM     25  C   UNL A   1      37.102  22.885  24.485  1.00  0.00     0.047 A 
ATOM     26  C   UNL A   1      36.021  20.783  24.973  1.00  0.00     0.094 A 
ATOM     27  C   UNL A   1      37.163  21.567  24.926  1.00  0.00     0.119 A 
BRANCH  27  28
ATOM     28  O   UNL A   1      38.330  21.015  25.360  1.00  0.00    -0.508 OA
ATOM     29  H   UNL A   1      39.133  21.207  24.917  1.00  0.00     0.293 HD
ENDBRANCH  27  28
ENDBRANCH  15  16
ENDBRANCH  12  15
ENDBRANCH   6  11
ENDBRANCH   4   6
ENDBRANCH   3   4
ENDBRANCH   2   3
ENDBRANCH   1   2
BRANCH   1  30
ATOM     30  O   UNL A   1      32.542  30.549  27.230  1.00  0.00    -0.374 OA
BRANCH  30  31
ATOM     31  C   UNL A   1      31.645  31.479  26.620  1.00  0.00     0.202 C 
BRANCH  31  32
ATOM     32  C   UNL A   1      31.780  32.957  26.993  1.00  0.00     0.261 C 
BRANCH  32  33
ATOM     33  O   UNL A   1      33.129  33.298  27.361  1.00  0.00    -0.460 OA
BRANCH  33  34
ATOM     34  C   UNL A   1      33.227  34.249  28.320  1.00  0.00     0.338 C 
ATOM     35  O   UNL A   1      32.485  35.195  28.511  1.00  0.00    -0.246 OA
BRANCH  34  36
ATOM     36  C   UNL A   1      34.290  33.882  29.268  1.00  0.00     0.060 A 
ATOM     37  C   UNL A   1      35.612  34.206  28.932  1.00  0.00     0.016 A 
ATOM     38  C   UNL A   1      34.001  33.112  30.394  1.00  0.00     0.016 A 
ATOM     39  C   UNL A   1      36.664  33.698  29.686  1.00  0.00     0.010 A 
ATOM     40  C   UNL A   1      35.056  32.588  31.138  1.00  0.00     0.010 A 
ATOM     41  C   UNL A   1      36.386  32.838  30.753  1.00  0.00    -0.014 A 
BRANCH  41  42
ATOM     42  C   UNL A   1      37.463  32.001  31.325  1.00  0.00     0.031 A 
ATOM     43  C   UNL A   1      37.951  32.334  32.706  1.00  0.00     0.074 A 
ATOM     44  C   UNL A   1      38.005  30.996  30.622  1.00  0.00     0.049 A 
ATOM     45  N   UNL A   1      38.990  31.878  33.354  1.00  0.00    -0.248 NA
ATOM     46  C   UNL A   1      37.160  33.327  33.455  1.00  0.00     0.031 C 
ATOM     47  C   UNL A   1      37.560  30.549  29.305  1.00  0.00     0.029 A 
ATOM     48  N   UNL A   1      39.072  30.186  30.915  1.00  0.00    -0.354 N 
ATOM     49  C   UNL A   1      38.992  32.544  34.573  1.00  0.00     0.074 A 
ATOM     50  C   UNL A   1      37.861  33.445  34.573  1.00  0.00     0.031 C 
ATOM     51  C   UNL A   1      38.372  29.564  28.884  1.00  0.00     0.029 A 
ATOM     52  C   UNL A   1      39.418  29.349  29.883  1.00  0.00     0.049 A 
ATOM     53  H   UNL A   1      39.544  30.203  31.777  1.00  0.00     0.167 HD
ATOM     54  C   UNL A   1      39.866  32.414  35.598  1.00  0.00     0.037 A 
ATOM     55  C   UNL A   1      40.485  28.540  29.751  1.00  0.00     0.037 A 
ATOM     56  C   UNL A   1      40.985  31.512  35.581  1.00  0.00     0.049 A 
ATOM     57  C   UNL A   1      41.493  28.471  30.870  1.00  0.00     0.074 A 
ATOM     58  C   UNL A   1      41.932  31.289  36.563  1.00  0.00     0.029 A 
ATOM     59  N   UNL A   1      41.309  30.685  34.513  1.00  0.00    -0.354 N 
ATOM     60  N   UNL A   1      41.495  29.100  32.021  1.00  0.00    -0.248 NA
ATOM     61  C   UNL A   1      42.648  27.584  30.671  1.00  0.00     0.031 C 
ATOM     62  C   UNL A   1      42.857  30.362  36.072  1.00  0.00     0.029 A 
ATOM     63  C   UNL A   1      42.454  29.966  34.806  1.00  0.00     0.049 A 
ATOM     64  H   UNL A   1      40.799  30.620  33.674  1.00  0.00     0.167 HD
ATOM     65  C   UNL A   1      42.626  28.661  32.697  1.00  0.00     0.074 A 
ATOM     66  C   UNL A   1      43.287  27.711  31.826  1.00  0.00     0.031 C 
ATOM     67  C   UNL A   1      43.076  29.007  33.928  1.00  0.00     0.037 A 
BRANCH  54  68
ATOM     68  C   UNL A   1      39.669  33.291  36.799  1.00  0.00     0.064 A 
ATOM     69  C   UNL A   1      38.805  32.932  37.844  1.00  0.00     0.173 A 
ATOM     70  C   UNL A   1      40.374  34.499  36.916  1.00  0.00     0.173 A 
ATOM     71  F   UNL A   1      38.094  31.796  37.773  1.00  0.00    -0.203 F 
ATOM     72  C   UNL A   1      38.638  33.759  38.952  1.00  0.00     0.198 A 
ATOM     73  C   UNL A   1      40.227  35.309  38.038  1.00  0.00     0.198 A 
ATOM     74  F   UNL A   1      41.213  34.889  35.944  1.00  0.00    -0.203 F 
ATOM     75  F   UNL A   1      37.774  33.419  39.918  1.00  0.00    -0.200 F 
ATOM     76  C   UNL A   1      39.355  34.943  39.051  1.00  0.00     0.200 A 
ATOM     77  F   UNL A   1      40.929  36.447  38.137  1.00  0.00    -0.200 F 
ATOM     78  F   UNL A   1      39.198  35.735  40.122  1.00  0.00    -0.200 F 
ENDBRANCH  54  68
BRANCH  55  79
ATOM     79  C   UNL A   1      40.672  27.756  28.502  1.00  0.00     0.064 A 
ATOM     80  C   UNL A   1      40.080  26.495  28.347  1.00  0.00     0.173 A 
ATOM     81  C   UNL A   1      41.445  28.248  27.440  1.00  0.00     0.173 A 
ATOM     82  F   UNL A   1      39.349  25.972  29.343  1.00  0.00    -0.203 F 
ATOM     83  C   UNL A   1      40.268  25.749  27.185  1.00  0.00     0.198 A 
ATOM     84  C   UNL A   1      41.607  27.514  26.266  1.00  0.00     0.198 A 
ATOM     85  F   UNL A   1      42.031  29.450  27.535  1.00  0.00    -0.203 F 
ATOM     86  F   UNL A   1      39.724  24.529  27.080  1.00  0.00    -0.200 F 
ATOM     87  C   UNL A   1      41.025  26.262  26.143  1.00  0.00     0.200 A 
ATOM     88  F   UNL A   1      42.327  28.021  25.256  1.00  0.00    -0.200 F 
ATOM     89  F   UNL A   1      41.198  25.549  25.022  1.00  0.00    -0.200 F 
ENDBRANCH  55  79
BRANCH  67  90
ATOM     90  C   UNL A   1      44.305  28.317  34.438  1.00  0.00     0.064 A 
ATOM     91  C   UNL A   1      44.245  27.056  35.048  1.00  0.00     0.173 A 
ATOM     92  C   UNL A   1      45.570  28.891  34.234  1.00  0.00     0.173 A 
ATOM     93  F   UNL A   1      43.058  26.473  35.276  1.00  0.00    -0.203 F 
ATOM     94  C   UNL A   1      45.407  26.400  35.446  1.00  0.00     0.198 A 
ATOM     95  C   UNL A   1      46.730  28.221  34.607  1.00  0.00     0.198 A 
ATOM     96  F   UNL A   1      45.678  30.093  33.648  1.00  0.00    -0.203 F 
ATOM     97  F   UNL A   1      45.326  25.209  36.055  1.00  0.00    -0.200 F 
ATOM     98  C   UNL A   1      46.648  26.978  35.215  1.00  0.00     0.200 A 
ATOM     99  F   UNL A   1      47.927  28.774  34.370  1.00  0.00    -0.200 F 
ATOM    100  F   UNL A   1      47.765  26.335  35.582  1.00  0.00    -0.200 F 
ENDBRANCH  67  90
ENDBRANCH  41  42
ENDBRANCH  34  36
ENDBRANCH  33  34
ENDBRANCH  32  33
ENDBRANCH  31  32
ENDBRANCH  30  31
ENDBRANCH   1  30
TORSDOF 21
ENDMDL
MODEL 3
REMARK VINA RESULT:     -11.4      2.840      8.710
REMARK SMILES CSCC[C@H](NC(=O)Cc1c(C)c2ccc(O)cc2oc1=O)C(=O)OCCOCCOC(=O)c1ccc(-c2c3nc(c(-c4c(F)c(F)c(F)c(F)c4F)c4ccc([nH]4)c(-c4c(F)c(F)c(F)c(F)c4F)c4nc(c(-c5c(F)c(F)c(F)c(F)c5F)c5ccc2[nH]5)C=C4)C=C3)cc1
REMARK SMILES IDX 27 1 26 2 25 3 23 4 24 5 5 6 4 7 3 8 2 9 1 10 6 11 7 12 8 14
REMARK SMILES IDX 9 15 10 16 11 17 21 18 12 19 13 20 20 21 22 22 14 23 19 24
REMARK SMILES IDX 15 25 18 26 16 27 17 28 28 30 29 31 30 32 31 33 32 34 33 35
REMARK SMILES IDX 34 36 35 37 96 38 36 39 95 40 37 41 38 42 39 43 89 44 40 45
REMARK SMILES IDX 94 46 88 47 90 48 41 49 93 50 87 51 86 52 42 54 74 55 54 56
REMARK SMILES IDX 73 57 55 58 58 59 72 60 91 61 56 62 57 63 71 65 92 66 59 67
REMARK SMILES IDX 43 68 44 69 52 70 45 71 46 72 50 73 53 74 47 75 48 76 51 77
REMARK SMILES IDX 49 78 75 79 76 80 84 81 77 82 78 83 82 84 85 85 79 86 80 87
REMARK SMILES IDX 83 88 81 89 60 90 61 91 69 92 62 93 63 94 67 95 70 96 64 97
REMARK SMILES IDX 65 98 68 99 66 100
REMARK H PARENT 6 13 17 29 90 53 58 64
REMARK Flexibility Score: inf
ROOT
ATOM      1  C   UNL A   1      33.721  29.569  26.839  1.00  0.00     0.202 C 
ENDROOT
BRANCH   1   2
ATOM      2  C   UNL A   1      33.882  28.081  26.521  1.00  0.00     0.261 C 
BRANCH   2   3
ATOM      3  O   UNL A   1      32.675  27.421  26.128  1.00  0.00    -0.462 OA
BRANCH   3   4
ATOM      4  C   UNL A   1      32.576  27.223  24.776  1.00  0.00     0.328 C 
ATOM      5  O   UNL A   1      33.304  27.741  23.944  1.00  0.00    -0.250 OA
BRANCH   4   6
ATOM      6  C   UNL A   1      31.339  26.396  24.433  1.00  0.00     0.193 C 
BRANCH   6   7
ATOM      7  C   UNL A   1      30.139  27.326  24.177  1.00  0.00     0.048 C 
BRANCH   7   8
ATOM      8  C   UNL A   1      29.987  28.051  22.838  1.00  0.00     0.072 C 
BRANCH   8   9
ATOM      9  S   UNL A   1      29.440  29.779  22.972  1.00  0.00    -0.165 SA
ATOM     10  C   UNL A   1      27.656  29.584  22.763  1.00  0.00     0.085 C 
ENDBRANCH   8   9
ENDBRANCH   7   8
ENDBRANCH   6   7
BRANCH   6  11
ATOM     11  N   UNL A   1      31.071  25.494  25.579  1.00  0.00    -0.342 N 
ATOM     12  C   UNL A   1      31.041  24.138  25.697  1.00  0.00     0.225 C 
ATOM     13  H   UNL A   1      30.877  25.970  26.418  1.00  0.00     0.164 HD
ATOM     14  O   UNL A   1      30.831  23.673  26.821  1.00  0.00    -0.275 OA
BRANCH  12  15
ATOM     15  C   UNL A   1      31.246  23.223  24.499  1.00  0.00     0.143 C 
BRANCH  15  16
ATOM     16  C   UNL A   1      32.630  22.647  24.313  1.00  0.00     0.051 A 
ATOM     17  C   UNL A   1      33.694  23.209  23.697  1.00  0.00    -0.029 A 
ATOM     18  C   UNL A   1      32.752  21.276  24.905  1.00  0.00     0.340 A 
ATOM     19  C   UNL A   1      33.631  24.367  22.740  1.00  0.00     0.046 C 
ATOM     20  C   UNL A   1      35.018  22.713  24.107  1.00  0.00     0.021 A 
ATOM     21  O   UNL A   1      33.976  20.641  24.809  1.00  0.00    -0.422 OA
ATOM     22  O   UNL A   1      31.776  20.700  25.375  1.00  0.00    -0.246 OA
ATOM     23  C   UNL A   1      36.157  23.531  24.152  1.00  0.00     0.016 A 
ATOM     24  C   UNL A   1      35.115  21.434  24.647  1.00  0.00     0.142 A 
ATOM     25  C   UNL A   1      37.351  23.062  24.713  1.00  0.00     0.047 A 
ATOM     26  C   UNL A   1      36.313  20.927  25.145  1.00  0.00     0.094 A 
ATOM     27  C   UNL A   1      37.422  21.758  25.190  1.00  0.00     0.119 A 
BRANCH  27  28
ATOM     28  O   UNL A   1      38.561  21.266  25.751  1.00  0.00    -0.508 OA
ATOM     29  H   UNL A   1      39.395  21.610  25.497  1.00  0.00     0.293 HD
ENDBRANCH  27  28
ENDBRANCH  15  16
ENDBRANCH  12  15
ENDBRANCH   6  11
ENDBRANCH   4   6
ENDBRANCH   3   4
ENDBRANCH   2   3
ENDBRANCH   1   2
BRANCH   1  30
ATOM     30  O   UNL A   1      32.446  30.037  27.251  1.00  0.00    -0.374 OA
BRANCH  30  31
ATOM     31  C   UNL A   1      31.797  31.056  26.488  1.00  0.00     0.202 C 
BRANCH  31  32
ATOM     32  C   UNL A   1      31.968  32.509  26.938  1.00  0.00     0.261 C 
BRANCH  32  33
ATOM     33  O   UNL A   1      33.214  32.715  27.628  1.00  0.00    -0.460 OA
BRANCH  33  34
ATOM     34  C   UNL A   1      33.296  33.887  28.303  1.00  0.00     0.338 C 
ATOM     35  O   UNL A   1      32.495  34.803  28.306  1.00  0.00    -0.246 OA
BRANCH  34  36
ATOM     36  C   UNL A   1      34.442  33.844  29.223  1.00  0.00     0.060 A 
ATOM     37  C   UNL A   1      35.708  34.167  28.713  1.00  0.00     0.016 A 
ATOM     38  C   UNL A   1      34.291  33.360  30.522  1.00  0.00     0.016 A 
ATOM     39  C   UNL A   1      36.845  33.938  29.481  1.00  0.00     0.010 A 
ATOM     40  C   UNL A   1      35.432  33.113  31.283  1.00  0.00     0.010 A 
ATOM     41  C   UNL A   1      36.709  33.353  30.744  1.00  0.00    -0.014 A 
BRANCH  41  42
ATOM     42  C   UNL A   1      37.888  32.764  31.414  1.00  0.00     0.031 A 
ATOM     43  C   UNL A   1      38.531  31.565  30.777  1.00  0.00     0.074 A 
ATOM     44  C   UNL A   1      38.350  33.266  32.569  1.00  0.00     0.049 A 
ATOM     45  N   UNL A   1      39.450  30.764  31.248  1.00  0.00    -0.248 NA
ATOM     46  C   UNL A   1      38.064  31.217  29.423  1.00  0.00     0.031 C 
ATOM     47  C   UNL A   1      37.842  34.463  33.233  1.00  0.00     0.029 A 
ATOM     48  N   UNL A   1      39.340  32.808  33.400  1.00  0.00    -0.354 N 
ATOM     49  C   UNL A   1      39.653  29.807  30.262  1.00  0.00     0.074 A 
ATOM     50  C   UNL A   1      38.754  30.115  29.172  1.00  0.00     0.031 C 
ATOM     51  C   UNL A   1      38.501  34.628  34.393  1.00  0.00     0.029 A 
ATOM     52  C   UNL A   1      39.441  33.522  34.568  1.00  0.00     0.049 A 
ATOM     53  H   UNL A   1      39.920  32.044  33.182  1.00  0.00     0.167 HD
ATOM     54  C   UNL A   1      40.512  28.762  30.273  1.00  0.00     0.037 A 
ATOM     55  C   UNL A   1      40.177  33.275  35.668  1.00  0.00     0.037 A 
ATOM     56  C   UNL A   1      41.399  28.471  31.366  1.00  0.00     0.049 A 
ATOM     57  C   UNL A   1      41.067  32.058  35.693  1.00  0.00     0.074 A 
ATOM     58  C   UNL A   1      42.318  27.445  31.485  1.00  0.00     0.029 A 
ATOM     59  N   UNL A   1      41.467  29.212  32.538  1.00  0.00    -0.354 N 
ATOM     60  N   UNL A   1      41.259  31.154  34.761  1.00  0.00    -0.248 NA
ATOM     61  C   UNL A   1      41.840  31.824  36.921  1.00  0.00     0.031 C 
ATOM     62  C   UNL A   1      42.909  27.536  32.749  1.00  0.00     0.029 A 
ATOM     63  C   UNL A   1      42.399  28.652  33.395  1.00  0.00     0.049 A 
ATOM     64  H   UNL A   1      40.932  30.015  32.731  1.00  0.00     0.167 HD
ATOM     65  C   UNL A   1      42.197  30.267  35.274  1.00  0.00     0.074 A 
ATOM     66  C   UNL A   1      42.536  30.741  36.600  1.00  0.00     0.031 C 
ATOM     67  C   UNL A   1      42.733  29.163  34.700  1.00  0.00     0.037 A 
BRANCH  54  68
ATOM     68  C   UNL A   1      40.505  27.840  29.089  1.00  0.00     0.064 A 
ATOM     69  C   UNL A   1      39.686  26.702  29.042  1.00  0.00     0.173 A 
ATOM     70  C   UNL A   1      41.312  28.114  27.975  1.00  0.00     0.173 A 
ATOM     71  F   UNL A   1      38.909  26.385  30.089  1.00  0.00    -0.203 F 
ATOM     72  C   UNL A   1      39.692  25.861  27.932  1.00  0.00     0.198 A 
ATOM     73  C   UNL A   1      41.294  27.288  26.855  1.00  0.00     0.198 A 
ATOM     74  F   UNL A   1      42.114  29.190  27.968  1.00  0.00    -0.203 F 
ATOM     75  F   UNL A   1      38.937  24.754  27.926  1.00  0.00    -0.200 F 
ATOM     76  C   UNL A   1      40.490  26.159  26.837  1.00  0.00     0.200 A 
ATOM     77  F   UNL A   1      42.057  27.583  25.794  1.00  0.00    -0.200 F 
ATOM     78  F   UNL A   1      40.490  25.351  25.766  1.00  0.00    -0.200 F 
ENDBRANCH  54  68
BRANCH  55  79
ATOM     79  C   UNL A   1      40.081  34.178  36.844  1.00  0.00     0.064 A 
ATOM     80  C   UNL A   1      40.914  35.299  36.962  1.00  0.00     0.173 A 
ATOM     81  C   UNL A   1      39.159  33.941  37.873  1.00  0.00     0.173 A 
ATOM     82  F   UNL A   1      41.827  35.557  36.014  1.00  0.00    -0.203 F 
ATOM     83  C   UNL A   1      40.839  36.138  38.072  1.00  0.00     0.198 A 
ATOM     84  C   UNL A   1      39.064  34.797  38.968  1.00  0.00     0.198 A 
ATOM     85  F   UNL A   1      38.336  32.883  37.809  1.00  0.00    -0.203 F 
ATOM     86  F   UNL A   1      41.675  37.181  38.179  1.00  0.00    -0.200 F 
ATOM     87  C   UNL A   1      39.910  35.891  39.070  1.00  0.00     0.200 A 
ATOM     88  F   UNL A   1      38.153  34.562  39.923  1.00  0.00    -0.200 F 
ATOM     89  F   UNL A   1      39.832  36.703  40.133  1.00  0.00    -0.200 F 
ENDBRANCH  55  79
BRANCH  67  90
ATOM     90  C   UNL A   1      43.786  28.422  35.469  1.00  0.00     0.064 A 
ATOM     91  C   UNL A   1      43.465  27.361  36.328  1.00  0.00     0.173 A 
ATOM     92  C   UNL A   1      45.143  28.726  35.276  1.00  0.00     0.173 A 
ATOM     93  F   UNL A   1      42.181  27.042  36.555  1.00  0.00    -0.203 F 
ATOM     94  C   UNL A   1      44.464  26.638  36.974  1.00  0.00     0.198 A 
ATOM     95  C   UNL A   1      46.140  27.984  35.901  1.00  0.00     0.198 A 
ATOM     96  F   UNL A   1      45.500  29.727  34.458  1.00  0.00    -0.203 F 
ATOM     97  F   UNL A   1      44.135  25.648  37.814  1.00  0.00    -0.200 F 
ATOM     98  C   UNL A   1      45.800  26.943  36.751  1.00  0.00     0.200 A 
ATOM     99  F   UNL A   1      47.428  28.269  35.672  1.00  0.00    -0.200 F 
ATOM    100  F   UNL A   1      46.760  26.232  37.359  1.00  0.00    -0.200 F 
ENDBRANCH  67  90
ENDBRANCH  41  42
ENDBRANCH  34  36
ENDBRANCH  33  34
ENDBRANCH  32  33
ENDBRANCH  31  32
ENDBRANCH  30  31
ENDBRANCH   1  30
TORSDOF 21
ENDMDL
