MODEL 1
REMARK VINA RESULT:     -12.5      0.000      0.000
REMARK SMILES CCc1ccc(S(=O)(=O)c2nnn(-c3ccc(C(=O)OCCOCCOC(=O)c4ccc(-c5c6nc(c(-c7c(F)c(F)c(F)c(F)c7F)c7ccc([nH]7)c(-c7c(F)c(F)c(F)c(F)c7F)c7nc(c(-c8c(F)c(F)c(F)c(F)c8F)c8ccc5[nH]8)C=C7)C=C6)cc4)cc3)c2C)cc1
REMARK SMILES IDX 22 1 21 2 20 3 18 4 19 5 17 6 14 7 15 8 93 9 16 10 92 11
REMARK SMILES IDX 13 12 10 13 11 14 94 15 12 16 95 17 7 18 8 19 9 20 6 21 3 22
REMARK SMILES IDX 4 23 97 24 5 25 96 26 2 27 1 28 23 29 24 30 25 31 26 32
REMARK SMILES IDX 27 33 28 34 29 35 30 36 91 37 31 38 90 39 32 40 33 41 34 42
REMARK SMILES IDX 84 43 35 44 89 45 83 46 85 47 36 48 88 49 82 50 81 51 37 53
REMARK SMILES IDX 69 54 49 55 68 56 50 57 53 58 67 59 86 60 51 61 52 62 66 64
REMARK SMILES IDX 87 65 54 66 38 67 39 68 47 69 40 70 41 71 45 72 48 73 42 74
REMARK SMILES IDX 43 75 46 76 44 77 70 78 71 79 79 80 72 81 73 82 77 83 80 84
REMARK SMILES IDX 74 85 75 86 78 87 76 88 55 89 56 90 64 91 57 92 58 93 62 94
REMARK SMILES IDX 65 95 59 96 60 97 63 98 61 99
REMARK H PARENT 85 52 53 63
REMARK Flexibility Score: inf
ROOT
ATOM      1  C   UNL A   1      44.213  19.029  24.920  1.00  0.00     0.202 C 
ENDROOT
BRANCH   1   2
ATOM      2  C   UNL A   1      43.015  18.516  25.720  1.00  0.00     0.261 C 
BRANCH   2   3
ATOM      3  O   UNL A   1      41.812  19.242  25.434  1.00  0.00    -0.460 OA
BRANCH   3   4
ATOM      4  C   UNL A   1      41.351  19.974  26.477  1.00  0.00     0.338 C 
ATOM      5  O   UNL A   1      41.964  20.304  27.478  1.00  0.00    -0.246 OA
BRANCH   4   6
ATOM      6  C   UNL A   1      39.991  20.469  26.190  1.00  0.00     0.060 A 
ATOM      7  C   UNL A   1      37.631  21.472  25.168  1.00  0.00     0.067 A 
ATOM      8  C   UNL A   1      37.925  20.121  24.969  1.00  0.00     0.029 A 
ATOM      9  C   UNL A   1      38.417  22.269  26.013  1.00  0.00     0.029 A 
ATOM     10  C   UNL A   1      39.132  19.631  25.459  1.00  0.00     0.018 A 
ATOM     11  C   UNL A   1      39.603  21.763  26.536  1.00  0.00     0.018 A 
BRANCH   7  12
ATOM     12  N   UNL A   1      36.671  22.085  24.337  1.00  0.00    -0.216 N 
ATOM     13  C   UNL A   1      34.849  22.969  23.547  1.00  0.00     0.205 A 
ATOM     14  N   UNL A   1      35.890  23.299  22.720  1.00  0.00    -0.117 NA
ATOM     15  C   UNL A   1      35.328  22.259  24.633  1.00  0.00     0.081 A 
ATOM     16  N   UNL A   1      37.007  22.827  23.261  1.00  0.00    -0.061 NA
ATOM     17  C   UNL A   1      34.697  21.902  25.930  1.00  0.00     0.070 C 
BRANCH  13  18
ATOM     18  S   UNL A   1      33.237  23.530  23.286  1.00  0.00     0.227 S 
ATOM     19  O   UNL A   1      32.416  22.386  23.648  1.00  0.00    -0.217 OA
ATOM     20  O   UNL A   1      33.220  24.107  21.961  1.00  0.00    -0.217 OA
BRANCH  18  21
ATOM     21  C   UNL A   1      32.895  24.820  24.454  1.00  0.00     0.073 A 
ATOM     22  C   UNL A   1      32.240  26.791  26.338  1.00  0.00    -0.048 A 
ATOM     23  C   UNL A   1      31.251  25.936  25.831  1.00  0.00     0.005 A 
ATOM     24  C   UNL A   1      33.562  26.641  25.895  1.00  0.00     0.005 A 
ATOM     25  C   UNL A   1      31.577  24.948  24.900  1.00  0.00     0.021 A 
ATOM     26  C   UNL A   1      33.891  25.668  24.946  1.00  0.00     0.021 A 
BRANCH  22  27
ATOM     27  C   UNL A   1      31.882  27.876  27.324  1.00  0.00     0.032 C 
ATOM     28  C   UNL A   1      31.772  29.249  26.677  1.00  0.00     0.009 C 
ENDBRANCH  22  27
ENDBRANCH  18  21
ENDBRANCH  13  18
ENDBRANCH   7  12
ENDBRANCH   4   6
ENDBRANCH   3   4
ENDBRANCH   2   3
ENDBRANCH   1   2
BRANCH   1  29
ATOM     29  O   UNL A   1      44.344  20.430  24.686  1.00  0.00    -0.374 OA
BRANCH  29  30
ATOM     30  C   UNL A   1      45.448  21.160  25.208  1.00  0.00     0.202 C 
BRANCH  30  31
ATOM     31  C   UNL A   1      45.189  22.458  25.959  1.00  0.00     0.261 C 
BRANCH  31  32
ATOM     32  O   UNL A   1      43.864  22.533  26.456  1.00  0.00    -0.460 OA
BRANCH  32  33
ATOM     33  C   UNL A   1      43.067  23.355  25.735  1.00  0.00     0.338 C 
ATOM     34  O   UNL A   1      43.111  23.569  24.539  1.00  0.00    -0.246 OA
BRANCH  33  35
ATOM     35  C   UNL A   1      42.213  24.100  26.664  1.00  0.00     0.060 A 
ATOM     36  C   UNL A   1      41.362  25.029  26.067  1.00  0.00     0.016 A 
ATOM     37  C   UNL A   1      42.554  24.155  28.024  1.00  0.00     0.016 A 
ATOM     38  C   UNL A   1      41.107  26.189  26.752  1.00  0.00     0.010 A 
ATOM     39  C   UNL A   1      42.305  25.318  28.705  1.00  0.00     0.010 A 
ATOM     40  C   UNL A   1      41.687  26.354  28.015  1.00  0.00    -0.014 A 
BRANCH  40  41
ATOM     41  C   UNL A   1      41.554  27.645  28.645  1.00  0.00     0.031 A 
ATOM     42  C   UNL A   1      42.681  28.535  28.306  1.00  0.00     0.074 A 
ATOM     43  C   UNL A   1      40.482  27.971  29.391  1.00  0.00     0.049 A 
ATOM     44  N   UNL A   1      43.617  28.947  29.091  1.00  0.00    -0.248 NA
ATOM     45  C   UNL A   1      42.917  28.816  26.881  1.00  0.00     0.031 C 
ATOM     46  C   UNL A   1      39.229  27.235  29.572  1.00  0.00     0.029 A 
ATOM     47  N   UNL A   1      40.268  29.115  30.093  1.00  0.00    -0.354 N 
ATOM     48  C   UNL A   1      44.457  29.713  28.292  1.00  0.00     0.074 A 
ATOM     49  C   UNL A   1      44.102  29.422  26.930  1.00  0.00     0.031 C 
ATOM     50  C   UNL A   1      38.308  28.052  30.136  1.00  0.00     0.029 A 
ATOM     51  C   UNL A   1      38.946  29.311  30.476  1.00  0.00     0.049 A 
ATOM     52  H   UNL A   1      40.987  29.749  30.311  1.00  0.00     0.167 HD
ATOM     53  C   UNL A   1      45.176  30.733  28.830  1.00  0.00     0.037 A 
ATOM     54  C   UNL A   1      38.439  30.482  30.941  1.00  0.00     0.037 A 
ATOM     55  C   UNL A   1      45.305  30.572  30.257  1.00  0.00     0.049 A 
ATOM     56  C   UNL A   1      39.591  31.293  31.425  1.00  0.00     0.074 A 
ATOM     57  C   UNL A   1      45.886  29.624  31.074  1.00  0.00     0.029 A 
ATOM     58  N   UNL A   1      44.445  31.283  31.058  1.00  0.00    -0.354 N 
ATOM     59  N   UNL A   1      40.314  30.967  32.462  1.00  0.00    -0.248 NA
ATOM     60  C   UNL A   1      40.241  32.173  30.461  1.00  0.00     0.031 C 
ATOM     61  C   UNL A   1      45.008  29.508  32.191  1.00  0.00     0.029 A 
ATOM     62  C   UNL A   1      43.979  30.435  32.029  1.00  0.00     0.049 A 
ATOM     63  H   UNL A   1      44.205  32.232  30.953  1.00  0.00     0.167 HD
ATOM     64  C   UNL A   1      41.622  31.240  32.082  1.00  0.00     0.074 A 
ATOM     65  C   UNL A   1      41.509  32.032  30.861  1.00  0.00     0.031 C 
ATOM     66  C   UNL A   1      42.667  30.549  32.622  1.00  0.00     0.037 A 
BRANCH  53  67
ATOM     67  C   UNL A   1      45.372  32.064  28.145  1.00  0.00     0.064 A 
ATOM     68  C   UNL A   1      46.688  32.508  27.910  1.00  0.00     0.173 A 
ATOM     69  C   UNL A   1      44.365  33.047  28.004  1.00  0.00     0.173 A 
ATOM     70  F   UNL A   1      47.723  31.661  28.011  1.00  0.00    -0.203 F 
ATOM     71  C   UNL A   1      46.980  33.853  27.670  1.00  0.00     0.198 A 
ATOM     72  C   UNL A   1      44.657  34.376  27.714  1.00  0.00     0.198 A 
ATOM     73  F   UNL A   1      43.074  32.805  28.248  1.00  0.00    -0.203 F 
ATOM     74  F   UNL A   1      48.256  34.250  27.598  1.00  0.00    -0.200 F 
ATOM     75  C   UNL A   1      45.965  34.788  27.586  1.00  0.00     0.200 A 
ATOM     76  F   UNL A   1      43.658  35.268  27.648  1.00  0.00    -0.200 F 
ATOM     77  F   UNL A   1      46.246  36.088  27.431  1.00  0.00    -0.200 F 
ENDBRANCH  53  67
BRANCH  54  78
ATOM     78  C   UNL A   1      37.120  31.085  30.626  1.00  0.00     0.064 A 
ATOM     79  C   UNL A   1      36.223  31.451  31.643  1.00  0.00     0.173 A 
ATOM     80  C   UNL A   1      36.831  31.572  29.336  1.00  0.00     0.173 A 
ATOM     81  F   UNL A   1      36.454  31.076  32.911  1.00  0.00    -0.203 F 
ATOM     82  C   UNL A   1      35.115  32.268  31.388  1.00  0.00     0.198 A 
ATOM     83  C   UNL A   1      35.723  32.384  29.082  1.00  0.00     0.198 A 
ATOM     84  F   UNL A   1      37.670  31.354  28.314  1.00  0.00    -0.203 F 
ATOM     85  F   UNL A   1      34.314  32.644  32.396  1.00  0.00    -0.200 F 
ATOM     86  C   UNL A   1      34.872  32.741  30.109  1.00  0.00     0.200 A 
ATOM     87  F   UNL A   1      35.525  32.869  27.847  1.00  0.00    -0.200 F 
ATOM     88  F   UNL A   1      33.846  33.571  29.875  1.00  0.00    -0.200 F 
ENDBRANCH  54  78
BRANCH  66  89
ATOM     89  C   UNL A   1      42.389  29.659  33.801  1.00  0.00     0.064 A 
ATOM     90  C   UNL A   1      41.946  28.329  33.693  1.00  0.00     0.173 A 
ATOM     91  C   UNL A   1      42.753  30.119  35.073  1.00  0.00     0.173 A 
ATOM     92  F   UNL A   1      41.669  27.791  32.500  1.00  0.00    -0.203 F 
ATOM     93  C   UNL A   1      41.847  27.510  34.817  1.00  0.00     0.198 A 
ATOM     94  C   UNL A   1      42.688  29.287  36.187  1.00  0.00     0.198 A 
ATOM     95  F   UNL A   1      43.235  31.363  35.223  1.00  0.00    -0.203 F 
ATOM     96  F   UNL A   1      41.422  26.243  34.692  1.00  0.00    -0.200 F 
ATOM     97  C   UNL A   1      42.228  27.986  36.061  1.00  0.00     0.200 A 
ATOM     98  F   UNL A   1      43.106  29.739  37.378  1.00  0.00    -0.200 F 
ATOM     99  F   UNL A   1      42.181  27.185  37.134  1.00  0.00    -0.200 F 
ENDBRANCH  66  89
ENDBRANCH  40  41
ENDBRANCH  33  35
ENDBRANCH  32  33
ENDBRANCH  31  32
ENDBRANCH  30  31
ENDBRANCH  29  30
ENDBRANCH   1  29
TORSDOF 18
ENDMDL
MODEL 2
REMARK VINA RESULT:     -12.3      3.797      9.580
REMARK SMILES CCc1ccc(S(=O)(=O)c2nnn(-c3ccc(C(=O)OCCOCCOC(=O)c4ccc(-c5c6nc(c(-c7c(F)c(F)c(F)c(F)c7F)c7ccc([nH]7)c(-c7c(F)c(F)c(F)c(F)c7F)c7nc(c(-c8c(F)c(F)c(F)c(F)c8F)c8ccc5[nH]8)C=C7)C=C6)cc4)cc3)c2C)cc1
REMARK SMILES IDX 22 1 21 2 20 3 18 4 19 5 17 6 14 7 15 8 93 9 16 10 92 11
REMARK SMILES IDX 13 12 10 13 11 14 94 15 12 16 95 17 7 18 8 19 9 20 6 21 3 22
REMARK SMILES IDX 4 23 97 24 5 25 96 26 2 27 1 28 23 29 24 30 25 31 26 32
REMARK SMILES IDX 27 33 28 34 29 35 30 36 91 37 31 38 90 39 32 40 33 41 34 42
REMARK SMILES IDX 84 43 35 44 89 45 83 46 85 47 36 48 88 49 82 50 81 51 37 53
REMARK SMILES IDX 69 54 49 55 68 56 50 57 53 58 67 59 86 60 51 61 52 62 66 64
REMARK SMILES IDX 87 65 54 66 38 67 39 68 47 69 40 70 41 71 45 72 48 73 42 74
REMARK SMILES IDX 43 75 46 76 44 77 70 78 71 79 79 80 72 81 73 82 77 83 80 84
REMARK SMILES IDX 74 85 75 86 78 87 76 88 55 89 56 90 64 91 57 92 58 93 62 94
REMARK SMILES IDX 65 95 59 96 60 97 63 98 61 99
REMARK H PARENT 85 52 53 63
REMARK Flexibility Score: inf
ROOT
ATOM      1  C   UNL A   1      34.189  32.408  29.000  1.00  0.00     0.202 C 
ENDROOT
BRANCH   1   2
ATOM      2  C   UNL A   1      34.379  31.661  27.680  1.00  0.00     0.261 C 
BRANCH   2   3
ATOM      3  O   UNL A   1      33.497  30.538  27.552  1.00  0.00    -0.460 OA
BRANCH   3   4
ATOM      4  C   UNL A   1      32.344  30.816  26.897  1.00  0.00     0.338 C 
ATOM      5  O   UNL A   1      31.867  31.916  26.675  1.00  0.00    -0.246 OA
BRANCH   4   6
ATOM      6  C   UNL A   1      31.767  29.581  26.334  1.00  0.00     0.060 A 
ATOM      7  C   UNL A   1      31.187  27.121  25.225  1.00  0.00     0.067 A 
ATOM      8  C   UNL A   1      31.454  27.191  26.594  1.00  0.00     0.029 A 
ATOM      9  C   UNL A   1      31.039  28.283  24.454  1.00  0.00     0.029 A 
ATOM     10  C   UNL A   1      31.778  28.429  27.139  1.00  0.00     0.018 A 
ATOM     11  C   UNL A   1      31.323  29.525  25.013  1.00  0.00     0.018 A 
BRANCH   7  12
ATOM     12  N   UNL A   1      31.289  25.872  24.578  1.00  0.00    -0.216 N 
ATOM     13  C   UNL A   1      32.017  24.120  23.516  1.00  0.00     0.205 A 
ATOM     14  N   UNL A   1      30.808  23.817  24.083  1.00  0.00    -0.117 NA
ATOM     15  C   UNL A   1      32.391  25.402  23.881  1.00  0.00     0.081 A 
ATOM     16  N   UNL A   1      30.418  24.865  24.799  1.00  0.00    -0.061 NA
ATOM     17  C   UNL A   1      33.690  26.114  23.777  1.00  0.00     0.070 C 
BRANCH  13  18
ATOM     18  S   UNL A   1      32.947  22.967  22.629  1.00  0.00     0.227 S 
ATOM     19  O   UNL A   1      33.282  23.671  21.402  1.00  0.00    -0.217 OA
ATOM     20  O   UNL A   1      32.182  21.742  22.635  1.00  0.00    -0.217 OA
BRANCH  18  21
ATOM     21  C   UNL A   1      34.462  22.675  23.503  1.00  0.00     0.073 A 
ATOM     22  C   UNL A   1      36.797  22.103  24.948  1.00  0.00    -0.048 A 
ATOM     23  C   UNL A   1      35.551  21.649  25.403  1.00  0.00     0.005 A 
ATOM     24  C   UNL A   1      36.859  22.840  23.757  1.00  0.00     0.005 A 
ATOM     25  C   UNL A   1      34.388  21.925  24.681  1.00  0.00     0.021 A 
ATOM     26  C   UNL A   1      35.697  23.138  23.040  1.00  0.00     0.021 A 
BRANCH  22  27
ATOM     27  C   UNL A   1      38.049  21.829  25.745  1.00  0.00     0.032 C 
ATOM     28  C   UNL A   1      38.689  20.493  25.400  1.00  0.00     0.009 C 
ENDBRANCH  22  27
ENDBRANCH  18  21
ENDBRANCH  13  18
ENDBRANCH   7  12
ENDBRANCH   4   6
ENDBRANCH   3   4
ENDBRANCH   2   3
ENDBRANCH   1   2
BRANCH   1  29
ATOM     29  O   UNL A   1      33.336  33.549  29.037  1.00  0.00    -0.374 OA
BRANCH  29  30
ATOM     30  C   UNL A   1      33.871  34.868  29.007  1.00  0.00     0.202 C 
BRANCH  30  31
ATOM     31  C   UNL A   1      33.261  35.935  29.903  1.00  0.00     0.261 C 
BRANCH  31  32
ATOM     32  O   UNL A   1      33.913  36.017  31.158  1.00  0.00    -0.460 OA
BRANCH  32  33
ATOM     33  C   UNL A   1      33.372  35.206  32.097  1.00  0.00     0.338 C 
ATOM     34  O   UNL A   1      32.215  35.170  32.468  1.00  0.00    -0.246 OA
BRANCH  33  35
ATOM     35  C   UNL A   1      34.457  34.460  32.741  1.00  0.00     0.060 A 
ATOM     36  C   UNL A   1      35.634  35.181  32.937  1.00  0.00     0.016 A 
ATOM     37  C   UNL A   1      34.421  33.057  32.750  1.00  0.00     0.016 A 
ATOM     38  C   UNL A   1      36.820  34.502  32.824  1.00  0.00     0.010 A 
ATOM     39  C   UNL A   1      35.607  32.381  32.629  1.00  0.00     0.010 A 
ATOM     40  C   UNL A   1      36.776  33.130  32.553  1.00  0.00    -0.014 A 
BRANCH  40  41
ATOM     41  C   UNL A   1      38.024  32.467  32.264  1.00  0.00     0.031 A 
ATOM     42  C   UNL A   1      38.857  32.327  33.474  1.00  0.00     0.074 A 
ATOM     43  C   UNL A   1      38.320  31.998  31.039  1.00  0.00     0.049 A 
ATOM     44  N   UNL A   1      39.964  32.934  33.739  1.00  0.00    -0.248 NA
ATOM     45  C   UNL A   1      38.279  31.596  34.614  1.00  0.00     0.031 C 
ATOM     46  C   UNL A   1      37.454  31.889  29.862  1.00  0.00     0.029 A 
ATOM     47  N   UNL A   1      39.478  31.425  30.619  1.00  0.00    -0.354 N 
ATOM     48  C   UNL A   1      40.326  32.502  35.009  1.00  0.00     0.074 A 
ATOM     49  C   UNL A   1      39.167  31.864  35.570  1.00  0.00     0.031 C 
ATOM     50  C   UNL A   1      38.042  31.081  28.948  1.00  0.00     0.029 A 
ATOM     51  C   UNL A   1      39.371  30.734  29.417  1.00  0.00     0.049 A 
ATOM     52  H   UNL A   1      40.320  31.493  31.123  1.00  0.00     0.167 HD
ATOM     53  C   UNL A   1      41.635  32.456  35.371  1.00  0.00     0.037 A 
ATOM     54  C   UNL A   1      40.300  29.868  28.934  1.00  0.00     0.037 A 
ATOM     55  C   UNL A   1      42.431  33.309  34.524  1.00  0.00     0.049 A 
ATOM     56  C   UNL A   1      41.585  30.182  29.622  1.00  0.00     0.074 A 
ATOM     57  C   UNL A   1      42.464  34.666  34.275  1.00  0.00     0.029 A 
ATOM     58  N   UNL A   1      43.110  32.719  33.485  1.00  0.00    -0.354 N 
ATOM     59  N   UNL A   1      42.243  31.295  29.441  1.00  0.00    -0.248 NA
ATOM     60  C   UNL A   1      41.860  29.488  30.874  1.00  0.00     0.031 C 
ATOM     61  C   UNL A   1      42.740  34.781  32.881  1.00  0.00     0.029 A 
ATOM     62  C   UNL A   1      42.928  33.497  32.371  1.00  0.00     0.049 A 
ATOM     63  H   UNL A   1      43.632  31.887  33.531  1.00  0.00     0.167 HD
ATOM     64  C   UNL A   1      42.679  31.658  30.709  1.00  0.00     0.074 A 
ATOM     65  C   UNL A   1      42.460  30.478  31.542  1.00  0.00     0.031 C 
ATOM     66  C   UNL A   1      42.894  32.967  31.028  1.00  0.00     0.037 A 
BRANCH  53  67
ATOM     67  C   UNL A   1      42.235  31.332  36.181  1.00  0.00     0.064 A 
ATOM     68  C   UNL A   1      43.118  31.659  37.228  1.00  0.00     0.173 A 
ATOM     69  C   UNL A   1      42.242  29.975  35.783  1.00  0.00     0.173 A 
ATOM     70  F   UNL A   1      43.194  32.917  37.690  1.00  0.00    -0.203 F 
ATOM     71  C   UNL A   1      44.017  30.727  37.752  1.00  0.00     0.198 A 
ATOM     72  C   UNL A   1      43.104  29.038  36.344  1.00  0.00     0.198 A 
ATOM     73  F   UNL A   1      41.507  29.512  34.767  1.00  0.00    -0.203 F 
ATOM     74  F   UNL A   1      44.934  31.122  38.644  1.00  0.00    -0.200 F 
ATOM     75  C   UNL A   1      44.018  29.421  37.300  1.00  0.00     0.200 A 
ATOM     76  F   UNL A   1      43.095  27.779  35.883  1.00  0.00    -0.200 F 
ATOM     77  F   UNL A   1      44.927  28.545  37.746  1.00  0.00    -0.200 F 
ENDBRANCH  53  67
BRANCH  54  78
ATOM     78  C   UNL A   1      40.060  28.573  28.252  1.00  0.00     0.064 A 
ATOM     79  C   UNL A   1      40.670  28.272  27.023  1.00  0.00     0.173 A 
ATOM     80  C   UNL A   1      39.454  27.494  28.926  1.00  0.00     0.173 A 
ATOM     81  F   UNL A   1      41.318  29.229  26.341  1.00  0.00    -0.203 F 
ATOM     82  C   UNL A   1      40.686  26.970  26.508  1.00  0.00     0.198 A 
ATOM     83  C   UNL A   1      39.467  26.197  28.411  1.00  0.00     0.198 A 
ATOM     84  F   UNL A   1      38.923  27.657  30.146  1.00  0.00    -0.203 F 
ATOM     85  F   UNL A   1      41.327  26.711  25.360  1.00  0.00    -0.200 F 
ATOM     86  C   UNL A   1      40.092  25.932  27.208  1.00  0.00     0.200 A 
ATOM     87  F   UNL A   1      38.925  25.195  29.120  1.00  0.00    -0.200 F 
ATOM     88  F   UNL A   1      40.158  24.676  26.746  1.00  0.00    -0.200 F 
ENDBRANCH  54  78
BRANCH  66  89
ATOM     89  C   UNL A   1      42.876  33.976  29.914  1.00  0.00     0.064 A 
ATOM     90  C   UNL A   1      43.977  34.244  29.081  1.00  0.00     0.173 A 
ATOM     91  C   UNL A   1      41.650  34.560  29.573  1.00  0.00     0.173 A 
ATOM     92  F   UNL A   1      45.157  33.649  29.288  1.00  0.00    -0.203 F 
ATOM     93  C   UNL A   1      43.854  35.082  27.973  1.00  0.00     0.198 A 
ATOM     94  C   UNL A   1      41.522  35.366  28.446  1.00  0.00     0.198 A 
ATOM     95  F   UNL A   1      40.555  34.293  30.303  1.00  0.00    -0.203 F 
ATOM     96  F   UNL A   1      44.918  35.323  27.190  1.00  0.00    -0.200 F 
ATOM     97  C   UNL A   1      42.625  35.633  27.651  1.00  0.00     0.200 A 
ATOM     98  F   UNL A   1      40.320  35.855  28.112  1.00  0.00    -0.200 F 
ATOM     99  F   UNL A   1      42.494  36.398  26.558  1.00  0.00    -0.200 F 
ENDBRANCH  66  89
ENDBRANCH  40  41
ENDBRANCH  33  35
ENDBRANCH  32  33
ENDBRANCH  31  32
ENDBRANCH  30  31
ENDBRANCH  29  30
ENDBRANCH   1  29
TORSDOF 18
ENDMDL
MODEL 3
REMARK VINA RESULT:     -12.1      4.136      9.733
REMARK SMILES CCc1ccc(S(=O)(=O)c2nnn(-c3ccc(C(=O)OCCOCCOC(=O)c4ccc(-c5c6nc(c(-c7c(F)c(F)c(F)c(F)c7F)c7ccc([nH]7)c(-c7c(F)c(F)c(F)c(F)c7F)c7nc(c(-c8c(F)c(F)c(F)c(F)c8F)c8ccc5[nH]8)C=C7)C=C6)cc4)cc3)c2C)cc1
REMARK SMILES IDX 22 1 21 2 20 3 18 4 19 5 17 6 14 7 15 8 93 9 16 10 92 11
REMARK SMILES IDX 13 12 10 13 11 14 94 15 12 16 95 17 7 18 8 19 9 20 6 21 3 22
REMARK SMILES IDX 4 23 97 24 5 25 96 26 2 27 1 28 23 29 24 30 25 31 26 32
REMARK SMILES IDX 27 33 28 34 29 35 30 36 91 37 31 38 90 39 32 40 33 41 34 42
REMARK SMILES IDX 84 43 35 44 89 45 83 46 85 47 36 48 88 49 82 50 81 51 37 53
REMARK SMILES IDX 69 54 49 55 68 56 50 57 53 58 67 59 86 60 51 61 52 62 66 64
REMARK SMILES IDX 87 65 54 66 38 67 39 68 47 69 40 70 41 71 45 72 48 73 42 74
REMARK SMILES IDX 43 75 46 76 44 77 70 78 71 79 79 80 72 81 73 82 77 83 80 84
REMARK SMILES IDX 74 85 75 86 78 87 76 88 55 89 56 90 64 91 57 92 58 93 62 94
REMARK SMILES IDX 65 95 59 96 60 97 63 98 61 99
REMARK H PARENT 85 52 53 63
REMARK Flexibility Score: inf
ROOT
ATOM      1  C   UNL A   1      32.904  35.735  28.504  1.00  0.00     0.202 C 
ENDROOT
BRANCH   1   2
ATOM      2  C   UNL A   1      33.865  34.584  28.800  1.00  0.00     0.261 C 
BRANCH   2   3
ATOM      3  O   UNL A   1      33.513  33.381  28.104  1.00  0.00    -0.460 OA
BRANCH   3   4
ATOM      4  C   UNL A   1      34.216  32.292  28.498  1.00  0.00     0.338 C 
ATOM      5  O   UNL A   1      34.983  32.209  29.442  1.00  0.00    -0.246 OA
BRANCH   4   6
ATOM      6  C   UNL A   1      33.826  31.116  27.697  1.00  0.00     0.060 A 
ATOM      7  C   UNL A   1      33.430  29.110  25.843  1.00  0.00     0.067 A 
ATOM      8  C   UNL A   1      34.530  29.022  26.699  1.00  0.00     0.029 A 
ATOM      9  C   UNL A   1      32.446  30.093  26.025  1.00  0.00     0.029 A 
ATOM     10  C   UNL A   1      34.741  30.053  27.608  1.00  0.00     0.018 A 
ATOM     11  C   UNL A   1      32.639  31.100  26.965  1.00  0.00     0.018 A 
BRANCH   7  12
ATOM     12  N   UNL A   1      33.432  28.345  24.658  1.00  0.00    -0.216 N 
ATOM     13  C   UNL A   1      33.126  26.784  23.177  1.00  0.00     0.205 A 
ATOM     14  N   UNL A   1      33.516  27.928  22.532  1.00  0.00    -0.117 NA
ATOM     15  C   UNL A   1      32.986  27.040  24.530  1.00  0.00     0.081 A 
ATOM     16  N   UNL A   1      33.615  28.894  23.438  1.00  0.00    -0.061 NA
ATOM     17  C   UNL A   1      32.343  26.257  25.616  1.00  0.00     0.070 C 
BRANCH  13  18
ATOM     18  S   UNL A   1      32.733  25.328  22.336  1.00  0.00     0.227 S 
ATOM     19  O   UNL A   1      33.342  25.514  21.030  1.00  0.00    -0.217 OA
ATOM     20  O   UNL A   1      31.311  25.135  22.508  1.00  0.00    -0.217 OA
BRANCH  18  21
ATOM     21  C   UNL A   1      33.570  23.979  23.126  1.00  0.00     0.073 A 
ATOM     22  C   UNL A   1      34.801  21.760  24.320  1.00  0.00    -0.048 A 
ATOM     23  C   UNL A   1      33.457  21.700  23.925  1.00  0.00     0.005 A 
ATOM     24  C   UNL A   1      35.522  22.942  24.102  1.00  0.00     0.005 A 
ATOM     25  C   UNL A   1      32.845  22.800  23.322  1.00  0.00     0.021 A 
ATOM     26  C   UNL A   1      34.910  24.055  23.519  1.00  0.00     0.021 A 
BRANCH  22  27
ATOM     27  C   UNL A   1      35.454  20.579  24.996  1.00  0.00     0.032 C 
ATOM     28  C   UNL A   1      36.973  20.625  24.930  1.00  0.00     0.009 C 
ENDBRANCH  22  27
ENDBRANCH  18  21
ENDBRANCH  13  18
ENDBRANCH   7  12
ENDBRANCH   4   6
ENDBRANCH   3   4
ENDBRANCH   2   3
ENDBRANCH   1   2
BRANCH   1  29
ATOM     29  O   UNL A   1      32.306  36.439  29.590  1.00  0.00    -0.374 OA
BRANCH  29  30
ATOM     30  C   UNL A   1      32.986  36.587  30.832  1.00  0.00     0.202 C 
BRANCH  30  31
ATOM     31  C   UNL A   1      32.553  35.739  32.019  1.00  0.00     0.261 C 
BRANCH  31  32
ATOM     32  O   UNL A   1      33.508  34.743  32.341  1.00  0.00    -0.460 OA
BRANCH  32  33
ATOM     33  C   UNL A   1      34.400  35.139  33.279  1.00  0.00     0.338 C 
ATOM     34  O   UNL A   1      34.583  36.265  33.700  1.00  0.00    -0.246 OA
BRANCH  33  35
ATOM     35  C   UNL A   1      35.256  33.998  33.611  1.00  0.00     0.060 A 
ATOM     36  C   UNL A   1      36.447  34.323  34.261  1.00  0.00     0.016 A 
ATOM     37  C   UNL A   1      35.069  32.775  32.948  1.00  0.00     0.016 A 
ATOM     38  C   UNL A   1      37.553  33.564  33.976  1.00  0.00     0.010 A 
ATOM     39  C   UNL A   1      36.176  32.022  32.657  1.00  0.00     0.010 A 
ATOM     40  C   UNL A   1      37.412  32.496  33.082  1.00  0.00    -0.014 A 
BRANCH  40  41
ATOM     41  C   UNL A   1      38.614  31.819  32.659  1.00  0.00     0.031 A 
ATOM     42  C   UNL A   1      39.505  31.529  33.800  1.00  0.00     0.074 A 
ATOM     43  C   UNL A   1      38.823  31.462  31.380  1.00  0.00     0.049 A 
ATOM     44  N   UNL A   1      40.648  32.066  34.057  1.00  0.00    -0.248 NA
ATOM     45  C   UNL A   1      38.958  30.712  34.895  1.00  0.00     0.031 C 
ATOM     46  C   UNL A   1      37.891  31.502  30.249  1.00  0.00     0.029 A 
ATOM     47  N   UNL A   1      39.931  30.890  30.840  1.00  0.00    -0.354 N 
ATOM     48  C   UNL A   1      41.060  31.498  35.256  1.00  0.00     0.074 A 
ATOM     49  C   UNL A   1      39.907  30.851  35.820  1.00  0.00     0.031 C 
ATOM     50  C   UNL A   1      38.394  30.766  29.229  1.00  0.00     0.029 A 
ATOM     51  C   UNL A   1      39.730  30.325  29.585  1.00  0.00     0.049 A 
ATOM     52  H   UNL A   1      40.802  30.877  31.298  1.00  0.00     0.167 HD
ATOM     53  C   UNL A   1      42.383  31.368  35.537  1.00  0.00     0.037 A 
ATOM     54  C   UNL A   1      40.594  29.477  28.969  1.00  0.00     0.037 A 
ATOM     55  C   UNL A   1      43.169  32.270  34.730  1.00  0.00     0.049 A 
ATOM     56  C   UNL A   1      41.926  29.674  29.608  1.00  0.00     0.074 A 
ATOM     57  C   UNL A   1      43.246  33.643  34.611  1.00  0.00     0.029 A 
ATOM     58  N   UNL A   1      43.764  31.760  33.602  1.00  0.00    -0.354 N 
ATOM     59  N   UNL A   1      42.620  30.773  29.497  1.00  0.00    -0.248 NA
ATOM     60  C   UNL A   1      42.239  28.851  30.770  1.00  0.00     0.031 C 
ATOM     61  C   UNL A   1      43.451  33.884  33.221  1.00  0.00     0.029 A 
ATOM     62  C   UNL A   1      43.556  32.650  32.580  1.00  0.00     0.049 A 
ATOM     63  H   UNL A   1      44.253  30.908  33.538  1.00  0.00     0.167 HD
ATOM     64  C   UNL A   1      43.139  30.994  30.766  1.00  0.00     0.074 A 
ATOM     65  C   UNL A   1      42.916  29.747  31.493  1.00  0.00     0.031 C 
ATOM     66  C   UNL A   1      43.427  32.257  31.197  1.00  0.00     0.037 A 
BRANCH  53  67
ATOM     67  C   UNL A   1      42.978  30.148  36.198  1.00  0.00     0.064 A 
ATOM     68  C   UNL A   1      43.902  30.338  37.243  1.00  0.00     0.173 A 
ATOM     69  C   UNL A   1      42.934  28.843  35.656  1.00  0.00     0.173 A 
ATOM     70  F   UNL A   1      44.028  31.535  37.836  1.00  0.00    -0.203 F 
ATOM     71  C   UNL A   1      44.791  29.333  37.632  1.00  0.00     0.198 A 
ATOM     72  C   UNL A   1      43.787  27.830  36.082  1.00  0.00     0.198 A 
ATOM     73  F   UNL A   1      42.155  28.511  34.622  1.00  0.00    -0.203 F 
ATOM     74  F   UNL A   1      45.747  29.605  38.529  1.00  0.00    -0.200 F 
ATOM     75  C   UNL A   1      44.742  28.084  37.042  1.00  0.00     0.200 A 
ATOM     76  F   UNL A   1      43.729  26.630  35.487  1.00  0.00    -0.200 F 
ATOM     77  F   UNL A   1      45.640  27.143  37.359  1.00  0.00    -0.200 F 
ENDBRANCH  53  67
BRANCH  54  78
ATOM     78  C   UNL A   1      40.262  28.265  28.180  1.00  0.00     0.064 A 
ATOM     79  C   UNL A   1      40.856  28.023  26.930  1.00  0.00     0.173 A 
ATOM     80  C   UNL A   1      39.573  27.182  28.762  1.00  0.00     0.173 A 
ATOM     81  F   UNL A   1      41.578  28.983  26.331  1.00  0.00    -0.203 F 
ATOM     82  C   UNL A   1      40.778  26.771  26.308  1.00  0.00     0.198 A 
ATOM     83  C   UNL A   1      39.493  25.935  28.139  1.00  0.00     0.198 A 
ATOM     84  F   UNL A   1      39.047  27.281  29.991  1.00  0.00    -0.203 F 
ATOM     85  F   UNL A   1      41.406  26.561  25.142  1.00  0.00    -0.200 F 
ATOM     86  C   UNL A   1      40.104  25.726  26.918  1.00  0.00     0.200 A 
ATOM     87  F   UNL A   1      38.873  24.921  28.762  1.00  0.00    -0.200 F 
ATOM     88  F   UNL A   1      40.079  24.511  26.353  1.00  0.00    -0.200 F 
ENDBRANCH  54  78
BRANCH  66  89
ATOM     89  C   UNL A   1      43.392  33.370  30.188  1.00  0.00     0.064 A 
ATOM     90  C   UNL A   1      42.239  34.112  29.878  1.00  0.00     0.173 A 
ATOM     91  C   UNL A   1      44.608  33.808  29.648  1.00  0.00     0.173 A 
ATOM     92  F   UNL A   1      41.058  33.811  30.430  1.00  0.00    -0.203 F 
ATOM     93  C   UNL A   1      42.304  35.227  29.042  1.00  0.00     0.198 A 
ATOM     94  C   UNL A   1      44.675  34.941  28.845  1.00  0.00     0.198 A 
ATOM     95  F   UNL A   1      45.747  33.166  29.956  1.00  0.00    -0.203 F 
ATOM     96  F   UNL A   1      41.191  35.923  28.760  1.00  0.00    -0.200 F 
ATOM     97  C   UNL A   1      43.523  35.646  28.535  1.00  0.00     0.200 A 
ATOM     98  F   UNL A   1      45.864  35.371  28.400  1.00  0.00    -0.200 F 
ATOM     99  F   UNL A   1      43.594  36.747  27.774  1.00  0.00    -0.200 F 
ENDBRANCH  66  89
ENDBRANCH  40  41
ENDBRANCH  33  35
ENDBRANCH  32  33
ENDBRANCH  31  32
ENDBRANCH  30  31
ENDBRANCH  29  30
ENDBRANCH   1  29
TORSDOF 18
ENDMDL
