MODEL 1
REMARK VINA RESULT:     -10.5      0.000      0.000
REMARK SMILES CCCOc1ccc(N[C@H](C)[C@H](C)C(=O)OCCOCCOC(=O)c2ccc(-c3c4nc(c(-c5c(F)c(F)c(F)c(F)c5F)c5ccc([nH]5)c(-c5c(F)c(F)c(F)c(F)c5F)c5nc(c(-c6c(F)c(F)c(F)c(F)c6F)c6ccc3[nH]6)C=C5)C=C4)cc2)cc1
REMARK SMILES IDX 17 1 16 2 14 3 15 4 12 5 13 6 10 7 11 8 9 9 8 11 5 12 6 13
REMARK SMILES IDX 89 14 7 15 88 16 4 17 3 18 2 19 1 20 18 21 19 22 20 23 21 24
REMARK SMILES IDX 22 25 23 26 24 27 25 28 26 29 87 30 27 31 86 32 28 33 29 34
REMARK SMILES IDX 30 35 80 36 31 37 85 38 79 39 81 40 32 41 84 42 78 43 77 44
REMARK SMILES IDX 33 46 65 47 45 48 64 49 46 50 49 51 63 52 82 53 47 54 48 55
REMARK SMILES IDX 62 57 83 58 50 59 34 60 35 61 43 62 36 63 37 64 41 65 44 66
REMARK SMILES IDX 38 67 39 68 42 69 40 70 66 71 67 72 75 73 68 74 69 75 73 76
REMARK SMILES IDX 76 77 70 78 71 79 74 80 72 81 51 82 52 83 60 84 53 85 54 86
REMARK SMILES IDX 58 87 61 88 55 89 56 90 59 91 57 92
REMARK H PARENT 9 10 81 45 49 56
REMARK Flexibility Score: inf
ROOT
ATOM      1  C   UNL A   1      34.153  28.201  26.519  1.00  0.00     0.261 C 
ENDROOT
BRANCH   1   2
ATOM      2  O   UNL A   1      32.882  27.525  26.564  1.00  0.00    -0.463 OA
BRANCH   2   3
ATOM      3  C   UNL A   1      32.891  26.226  26.164  1.00  0.00     0.310 C 
ATOM      4  O   UNL A   1      32.246  25.329  26.699  1.00  0.00    -0.252 OA
BRANCH   3   5
ATOM      5  C   UNL A   1      33.828  25.948  25.004  1.00  0.00     0.118 C 
ATOM      6  C   UNL A   1      34.716  24.719  25.172  1.00  0.00     0.022 C 
BRANCH   5   7
ATOM      7  C   UNL A   1      33.001  26.032  23.708  1.00  0.00     0.090 C 
ATOM      8  C   UNL A   1      33.593  25.213  22.565  1.00  0.00     0.031 C 
BRANCH   7   9
ATOM      9  N   UNL A   1      31.564  25.852  23.912  1.00  0.00    -0.382 N 
ATOM     10  H   UNL A   1      31.322  24.964  24.261  1.00  0.00     0.160 HD
BRANCH   9  11
ATOM     11  C   UNL A   1      30.484  26.681  23.712  1.00  0.00     0.034 A 
ATOM     12  C   UNL A   1      28.409  28.517  23.189  1.00  0.00     0.119 A 
ATOM     13  C   UNL A   1      28.105  27.239  23.634  1.00  0.00     0.048 A 
ATOM     14  C   UNL A   1      29.728  28.930  23.106  1.00  0.00     0.048 A 
ATOM     15  C   UNL A   1      29.143  26.334  23.899  1.00  0.00     0.029 A 
ATOM     16  C   UNL A   1      30.750  28.010  23.339  1.00  0.00     0.029 A 
BRANCH  12  17
ATOM     17  O   UNL A   1      27.424  29.401  22.858  1.00  0.00    -0.494 OA
BRANCH  17  18
ATOM     18  C   UNL A   1      27.965  30.569  22.217  1.00  0.00     0.229 C 
BRANCH  18  19
ATOM     19  C   UNL A   1      27.746  31.830  23.060  1.00  0.00     0.038 C 
ATOM     20  C   UNL A   1      28.772  32.927  22.794  1.00  0.00     0.007 C 
ENDBRANCH  18  19
ENDBRANCH  17  18
ENDBRANCH  12  17
ENDBRANCH   9  11
ENDBRANCH   7   9
ENDBRANCH   5   7
ENDBRANCH   3   5
ENDBRANCH   2   3
ENDBRANCH   1   2
BRANCH   1  21
ATOM     21  C   UNL A   1      34.140  29.512  27.310  1.00  0.00     0.202 C 
BRANCH  21  22
ATOM     22  O   UNL A   1      33.548  30.644  26.675  1.00  0.00    -0.374 OA
BRANCH  22  23
ATOM     23  C   UNL A   1      32.843  31.567  27.502  1.00  0.00     0.202 C 
BRANCH  23  24
ATOM     24  C   UNL A   1      33.391  32.998  27.570  1.00  0.00     0.261 C 
BRANCH  24  25
ATOM     25  O   UNL A   1      32.431  33.940  28.084  1.00  0.00    -0.460 OA
BRANCH  25  26
ATOM     26  C   UNL A   1      32.977  35.014  28.704  1.00  0.00     0.338 C 
ATOM     27  O   UNL A   1      32.553  36.158  28.721  1.00  0.00    -0.246 OA
BRANCH  26  28
ATOM     28  C   UNL A   1      34.121  34.604  29.540  1.00  0.00     0.060 A 
ATOM     29  C   UNL A   1      35.400  34.733  28.981  1.00  0.00     0.016 A 
ATOM     30  C   UNL A   1      33.948  33.996  30.784  1.00  0.00     0.016 A 
ATOM     31  C   UNL A   1      36.506  34.202  29.639  1.00  0.00     0.010 A 
ATOM     32  C   UNL A   1      35.061  33.453  31.441  1.00  0.00     0.010 A 
ATOM     33  C   UNL A   1      36.337  33.519  30.851  1.00  0.00    -0.014 A 
BRANCH  33  34
ATOM     34  C   UNL A   1      37.479  32.750  31.407  1.00  0.00     0.031 A 
ATOM     35  C   UNL A   1      37.986  33.085  32.783  1.00  0.00     0.074 A 
ATOM     36  C   UNL A   1      38.016  31.724  30.724  1.00  0.00     0.049 A 
ATOM     37  N   UNL A   1      38.947  32.525  33.475  1.00  0.00    -0.248 NA
ATOM     38  C   UNL A   1      37.317  34.198  33.476  1.00  0.00     0.031 C 
ATOM     39  C   UNL A   1      37.586  31.276  29.402  1.00  0.00     0.029 A 
ATOM     40  N   UNL A   1      39.039  30.872  31.055  1.00  0.00    -0.354 N 
ATOM     41  C   UNL A   1      38.997  33.215  34.679  1.00  0.00     0.074 A 
ATOM     42  C   UNL A   1      37.991  34.254  34.615  1.00  0.00     0.031 C 
ATOM     43  C   UNL A   1      38.344  30.230  29.030  1.00  0.00     0.029 A 
ATOM     44  C   UNL A   1      39.326  29.952  30.078  1.00  0.00     0.049 A 
ATOM     45  H   UNL A   1      39.521  30.914  31.913  1.00  0.00     0.167 HD
ATOM     46  C   UNL A   1      39.800  32.995  35.748  1.00  0.00     0.037 A 
ATOM     47  C   UNL A   1      40.282  29.004  30.029  1.00  0.00     0.037 A 
ATOM     48  C   UNL A   1      40.799  31.961  35.815  1.00  0.00     0.049 A 
ATOM     49  C   UNL A   1      41.209  28.824  31.204  1.00  0.00     0.074 A 
ATOM     50  C   UNL A   1      41.646  31.645  36.864  1.00  0.00     0.029 A 
ATOM     51  N   UNL A   1      41.092  31.079  34.785  1.00  0.00    -0.354 N 
ATOM     52  N   UNL A   1      41.227  29.459  32.351  1.00  0.00    -0.248 NA
ATOM     53  C   UNL A   1      42.246  27.790  31.076  1.00  0.00     0.031 C 
ATOM     54  C   UNL A   1      42.485  30.604  36.451  1.00  0.00     0.029 A 
ATOM     55  C   UNL A   1      42.126  30.238  35.164  1.00  0.00     0.049 A 
ATOM     56  H   UNL A   1      40.633  31.054  33.915  1.00  0.00     0.167 HD
ATOM     57  C   UNL A   1      42.256  28.889  33.088  1.00  0.00     0.074 A 
ATOM     58  C   UNL A   1      42.831  27.845  32.265  1.00  0.00     0.031 C 
ATOM     59  C   UNL A   1      42.688  29.203  34.335  1.00  0.00     0.037 A 
BRANCH  46  60
ATOM     60  C   UNL A   1      39.644  33.906  36.930  1.00  0.00     0.064 A 
ATOM     61  C   UNL A   1      38.870  33.543  38.042  1.00  0.00     0.173 A 
ATOM     62  C   UNL A   1      40.307  35.141  36.965  1.00  0.00     0.173 A 
ATOM     63  F   UNL A   1      38.207  32.377  38.052  1.00  0.00    -0.203 F 
ATOM     64  C   UNL A   1      38.747  34.394  39.137  1.00  0.00     0.198 A 
ATOM     65  C   UNL A   1      40.203  35.979  38.072  1.00  0.00     0.198 A 
ATOM     66  F   UNL A   1      41.063  35.532  35.929  1.00  0.00    -0.203 F 
ATOM     67  F   UNL A   1      37.970  34.046  40.171  1.00  0.00    -0.200 F 
ATOM     68  C   UNL A   1      39.418  35.608  39.154  1.00  0.00     0.200 A 
ATOM     69  F   UNL A   1      40.860  37.146  38.092  1.00  0.00    -0.200 F 
ATOM     70  F   UNL A   1      39.305  36.424  40.211  1.00  0.00    -0.200 F 
ENDBRANCH  46  60
BRANCH  47  71
ATOM     71  C   UNL A   1      40.420  28.153  28.820  1.00  0.00     0.064 A 
ATOM     72  C   UNL A   1      41.195  28.564  27.727  1.00  0.00     0.173 A 
ATOM     73  C   UNL A   1      39.763  26.917  28.727  1.00  0.00     0.173 A 
ATOM     74  F   UNL A   1      41.820  29.751  27.759  1.00  0.00    -0.203 F 
ATOM     75  C   UNL A   1      41.296  27.779  26.580  1.00  0.00     0.198 A 
ATOM     76  C   UNL A   1      39.886  26.120  27.591  1.00  0.00     0.198 A 
ATOM     77  F   UNL A   1      39.007  26.479  29.744  1.00  0.00    -0.203 F 
ATOM     78  F   UNL A   1      42.007  28.215  25.533  1.00  0.00    -0.200 F 
ATOM     79  C   UNL A   1      40.646  26.555  26.515  1.00  0.00     0.200 A 
ATOM     80  F   UNL A   1      39.265  24.934  27.536  1.00  0.00    -0.200 F 
ATOM     81  F   UNL A   1      40.745  25.798  25.414  1.00  0.00    -0.200 F 
ENDBRANCH  47  71
BRANCH  59  82
ATOM     82  C   UNL A   1      43.821  28.393  34.896  1.00  0.00     0.064 A 
ATOM     83  C   UNL A   1      45.154  28.807  34.766  1.00  0.00     0.173 A 
ATOM     84  C   UNL A   1      43.566  27.209  35.605  1.00  0.00     0.173 A 
ATOM     85  F   UNL A   1      45.451  29.924  34.084  1.00  0.00    -0.203 F 
ATOM     86  C   UNL A   1      46.194  28.052  35.304  1.00  0.00     0.198 A 
ATOM     87  C   UNL A   1      44.606  26.472  36.166  1.00  0.00     0.198 A 
ATOM     88  F   UNL A   1      42.307  26.772  35.763  1.00  0.00    -0.203 F 
ATOM     89  F   UNL A   1      47.463  28.444  35.128  1.00  0.00    -0.200 F 
ATOM     90  C   UNL A   1      45.918  26.890  36.009  1.00  0.00     0.200 A 
ATOM     91  F   UNL A   1      44.337  25.356  36.856  1.00  0.00    -0.200 F 
ATOM     92  F   UNL A   1      46.919  26.168  36.530  1.00  0.00    -0.200 F 
ENDBRANCH  59  82
ENDBRANCH  33  34
ENDBRANCH  26  28
ENDBRANCH  25  26
ENDBRANCH  24  25
ENDBRANCH  23  24
ENDBRANCH  22  23
ENDBRANCH  21  22
ENDBRANCH   1  21
TORSDOF 20
ENDMDL
MODEL 2
REMARK VINA RESULT:     -10.4      2.372      4.840
REMARK SMILES CCCOc1ccc(N[C@H](C)[C@H](C)C(=O)OCCOCCOC(=O)c2ccc(-c3c4nc(c(-c5c(F)c(F)c(F)c(F)c5F)c5ccc([nH]5)c(-c5c(F)c(F)c(F)c(F)c5F)c5nc(c(-c6c(F)c(F)c(F)c(F)c6F)c6ccc3[nH]6)C=C5)C=C4)cc2)cc1
REMARK SMILES IDX 17 1 16 2 14 3 15 4 12 5 13 6 10 7 11 8 9 9 8 11 5 12 6 13
REMARK SMILES IDX 89 14 7 15 88 16 4 17 3 18 2 19 1 20 18 21 19 22 20 23 21 24
REMARK SMILES IDX 22 25 23 26 24 27 25 28 26 29 87 30 27 31 86 32 28 33 29 34
REMARK SMILES IDX 30 35 80 36 31 37 85 38 79 39 81 40 32 41 84 42 78 43 77 44
REMARK SMILES IDX 33 46 65 47 45 48 64 49 46 50 49 51 63 52 82 53 47 54 48 55
REMARK SMILES IDX 62 57 83 58 50 59 34 60 35 61 43 62 36 63 37 64 41 65 44 66
REMARK SMILES IDX 38 67 39 68 42 69 40 70 66 71 67 72 75 73 68 74 69 75 73 76
REMARK SMILES IDX 76 77 70 78 71 79 74 80 72 81 51 82 52 83 60 84 53 85 54 86
REMARK SMILES IDX 58 87 61 88 55 89 56 90 59 91 57 92
REMARK H PARENT 9 10 81 45 49 56
REMARK Flexibility Score: inf
ROOT
ATOM      1  C   UNL A   1      32.859  27.229  23.964  1.00  0.00     0.261 C 
ENDROOT
BRANCH   1   2
ATOM      2  O   UNL A   1      31.613  26.563  24.237  1.00  0.00    -0.463 OA
BRANCH   2   3
ATOM      3  C   UNL A   1      31.668  25.558  25.149  1.00  0.00     0.310 C 
ATOM      4  O   UNL A   1      32.462  25.509  26.084  1.00  0.00    -0.252 OA
BRANCH   3   5
ATOM      5  C   UNL A   1      30.680  24.437  24.888  1.00  0.00     0.118 C 
ATOM      6  C   UNL A   1      30.360  24.189  23.417  1.00  0.00     0.022 C 
BRANCH   5   7
ATOM      7  C   UNL A   1      31.128  23.218  25.714  1.00  0.00     0.090 C 
ATOM      8  C   UNL A   1      29.996  22.590  26.520  1.00  0.00     0.031 C 
BRANCH   7   9
ATOM      9  N   UNL A   1      31.949  22.267  24.964  1.00  0.00    -0.382 N 
ATOM     10  H   UNL A   1      31.426  21.637  24.418  1.00  0.00     0.160 HD
BRANCH   9  11
ATOM     11  C   UNL A   1      33.310  22.082  24.873  1.00  0.00     0.034 A 
ATOM     12  C   UNL A   1      36.109  21.901  24.586  1.00  0.00     0.119 A 
ATOM     13  C   UNL A   1      35.446  21.044  25.453  1.00  0.00     0.048 A 
ATOM     14  C   UNL A   1      35.391  22.769  23.782  1.00  0.00     0.048 A 
ATOM     15  C   UNL A   1      34.052  21.135  25.584  1.00  0.00     0.029 A 
ATOM     16  C   UNL A   1      34.010  22.874  23.947  1.00  0.00     0.029 A 
BRANCH  12  17
ATOM     17  O   UNL A   1      37.469  21.886  24.482  1.00  0.00    -0.494 OA
BRANCH  17  18
ATOM     18  C   UNL A   1      38.092  22.207  25.738  1.00  0.00     0.229 C 
BRANCH  18  19
ATOM     19  C   UNL A   1      38.018  23.708  26.039  1.00  0.00     0.038 C 
ATOM     20  C   UNL A   1      39.025  24.170  27.087  1.00  0.00     0.007 C 
ENDBRANCH  18  19
ENDBRANCH  17  18
ENDBRANCH  12  17
ENDBRANCH   9  11
ENDBRANCH   7   9
ENDBRANCH   5   7
ENDBRANCH   3   5
ENDBRANCH   2   3
ENDBRANCH   1   2
BRANCH   1  21
ATOM     21  C   UNL A   1      32.678  28.736  23.753  1.00  0.00     0.202 C 
BRANCH  21  22
ATOM     22  O   UNL A   1      31.454  29.309  24.207  1.00  0.00    -0.374 OA
BRANCH  22  23
ATOM     23  C   UNL A   1      31.494  30.080  25.406  1.00  0.00     0.202 C 
BRANCH  23  24
ATOM     24  C   UNL A   1      32.878  30.360  26.006  1.00  0.00     0.261 C 
BRANCH  24  25
ATOM     25  O   UNL A   1      32.813  30.841  27.361  1.00  0.00    -0.460 OA
BRANCH  25  26
ATOM     26  C   UNL A   1      33.639  31.882  27.626  1.00  0.00     0.338 C 
ATOM     27  O   UNL A   1      33.342  33.062  27.716  1.00  0.00    -0.246 OA
BRANCH  26  28
ATOM     28  C   UNL A   1      34.988  31.399  27.974  1.00  0.00     0.060 A 
ATOM     29  C   UNL A   1      35.109  30.050  28.336  1.00  0.00     0.016 A 
ATOM     30  C   UNL A   1      36.083  32.259  28.065  1.00  0.00     0.016 A 
ATOM     31  C   UNL A   1      36.313  29.570  28.845  1.00  0.00     0.010 A 
ATOM     32  C   UNL A   1      37.290  31.777  28.588  1.00  0.00     0.010 A 
ATOM     33  C   UNL A   1      37.397  30.441  29.017  1.00  0.00    -0.014 A 
BRANCH  33  34
ATOM     34  C   UNL A   1      38.578  29.975  29.787  1.00  0.00     0.031 A 
ATOM     35  C   UNL A   1      38.774  30.466  31.195  1.00  0.00     0.074 A 
ATOM     36  C   UNL A   1      39.428  29.075  29.263  1.00  0.00     0.049 A 
ATOM     37  N   UNL A   1      39.714  30.166  32.057  1.00  0.00    -0.248 NA
ATOM     38  C   UNL A   1      37.775  31.420  31.702  1.00  0.00     0.031 C 
ATOM     39  C   UNL A   1      39.322  28.493  27.929  1.00  0.00     0.029 A 
ATOM     40  N   UNL A   1      40.549  28.492  29.800  1.00  0.00    -0.354 N 
ATOM     41  C   UNL A   1      39.419  30.892  33.204  1.00  0.00     0.074 A 
ATOM     42  C   UNL A   1      38.232  31.671  32.921  1.00  0.00     0.031 C 
ATOM     43  C   UNL A   1      40.342  27.635  27.747  1.00  0.00     0.029 A 
ATOM     44  C   UNL A   1      41.182  27.628  28.943  1.00  0.00     0.049 A 
ATOM     45  H   UNL A   1      40.868  28.674  30.714  1.00  0.00     0.167 HD
ATOM     46  C   UNL A   1      40.071  30.900  34.392  1.00  0.00     0.037 A 
ATOM     47  C   UNL A   1      42.319  26.922  29.101  1.00  0.00     0.037 A 
ATOM     48  C   UNL A   1      41.251  30.125  34.677  1.00  0.00     0.049 A 
ATOM     49  C   UNL A   1      43.065  27.001  30.409  1.00  0.00     0.074 A 
ATOM     50  C   UNL A   1      41.970  30.050  35.857  1.00  0.00     0.029 A 
ATOM     51  N   UNL A   1      41.889  29.298  33.766  1.00  0.00    -0.354 N 
ATOM     52  N   UNL A   1      42.761  27.664  31.498  1.00  0.00    -0.248 NA
ATOM     53  C   UNL A   1      44.311  26.228  30.507  1.00  0.00     0.031 C 
ATOM     54  C   UNL A   1      43.071  29.214  35.646  1.00  0.00     0.029 A 
ATOM     55  C   UNL A   1      43.011  28.729  34.350  1.00  0.00     0.049 A 
ATOM     56  H   UNL A   1      41.591  29.137  32.842  1.00  0.00     0.167 HD
ATOM     57  C   UNL A   1      43.761  27.372  32.416  1.00  0.00     0.074 A 
ATOM     58  C   UNL A   1      44.675  26.458  31.762  1.00  0.00     0.031 C 
ATOM     59  C   UNL A   1      43.910  27.821  33.687  1.00  0.00     0.037 A 
BRANCH  46  60
ATOM     60  C   UNL A   1      39.534  31.793  35.471  1.00  0.00     0.064 A 
ATOM     61  C   UNL A   1      38.595  31.334  36.406  1.00  0.00     0.173 A 
ATOM     62  C   UNL A   1      39.990  33.114  35.590  1.00  0.00     0.173 A 
ATOM     63  F   UNL A   1      38.119  30.083  36.327  1.00  0.00    -0.203 F 
ATOM     64  C   UNL A   1      38.117  32.173  37.411  1.00  0.00     0.198 A 
ATOM     65  C   UNL A   1      39.530  33.942  36.611  1.00  0.00     0.198 A 
ATOM     66  F   UNL A   1      40.891  33.599  34.723  1.00  0.00    -0.203 F 
ATOM     67  F   UNL A   1      37.191  31.726  38.269  1.00  0.00    -0.200 F 
ATOM     68  C   UNL A   1      38.589  33.473  37.516  1.00  0.00     0.200 A 
ATOM     69  F   UNL A   1      39.994  35.194  36.718  1.00  0.00    -0.200 F 
ATOM     70  F   UNL A   1      38.133  34.276  38.487  1.00  0.00    -0.200 F 
ENDBRANCH  46  60
BRANCH  47  71
ATOM     71  C   UNL A   1      42.831  26.082  27.989  1.00  0.00     0.064 A 
ATOM     72  C   UNL A   1      42.524  24.717  27.908  1.00  0.00     0.173 A 
ATOM     73  C   UNL A   1      43.655  26.626  26.992  1.00  0.00     0.173 A 
ATOM     74  F   UNL A   1      41.762  24.146  28.854  1.00  0.00    -0.203 F 
ATOM     75  C   UNL A   1      43.034  23.924  26.882  1.00  0.00     0.198 A 
ATOM     76  C   UNL A   1      44.142  25.838  25.952  1.00  0.00     0.198 A 
ATOM     77  F   UNL A   1      43.981  27.926  27.025  1.00  0.00    -0.203 F 
ATOM     78  F   UNL A   1      42.761  22.613  26.853  1.00  0.00    -0.200 F 
ATOM     79  C   UNL A   1      43.837  24.486  25.901  1.00  0.00     0.200 A 
ATOM     80  F   UNL A   1      44.910  26.388  25.001  1.00  0.00    -0.200 F 
ATOM     81  F   UNL A   1      44.325  23.724  24.913  1.00  0.00    -0.200 F 
ENDBRANCH  47  71
BRANCH  59  82
ATOM     82  C   UNL A   1      45.091  27.313  34.463  1.00  0.00     0.064 A 
ATOM     83  C   UNL A   1      45.022  26.132  35.217  1.00  0.00     0.173 A 
ATOM     84  C   UNL A   1      46.316  27.996  34.422  1.00  0.00     0.173 A 
ATOM     85  F   UNL A   1      43.868  25.451  35.300  1.00  0.00    -0.203 F 
ATOM     86  C   UNL A   1      46.130  25.666  35.920  1.00  0.00     0.198 A 
ATOM     87  C   UNL A   1      47.429  27.512  35.103  1.00  0.00     0.198 A 
ATOM     88  F   UNL A   1      46.437  29.127  33.711  1.00  0.00    -0.203 F 
ATOM     89  F   UNL A   1      46.027  24.560  36.670  1.00  0.00    -0.200 F 
ATOM     90  C   UNL A   1      47.334  26.352  35.857  1.00  0.00     0.200 A 
ATOM     91  F   UNL A   1      48.595  28.169  35.033  1.00  0.00    -0.200 F 
ATOM     92  F   UNL A   1      48.400  25.899  36.531  1.00  0.00    -0.200 F 
ENDBRANCH  59  82
ENDBRANCH  33  34
ENDBRANCH  26  28
ENDBRANCH  25  26
ENDBRANCH  24  25
ENDBRANCH  23  24
ENDBRANCH  22  23
ENDBRANCH  21  22
ENDBRANCH   1  21
TORSDOF 20
ENDMDL
MODEL 3
REMARK VINA RESULT:     -10.4      5.068     10.640
REMARK SMILES CCCOc1ccc(N[C@H](C)[C@H](C)C(=O)OCCOCCOC(=O)c2ccc(-c3c4nc(c(-c5c(F)c(F)c(F)c(F)c5F)c5ccc([nH]5)c(-c5c(F)c(F)c(F)c(F)c5F)c5nc(c(-c6c(F)c(F)c(F)c(F)c6F)c6ccc3[nH]6)C=C5)C=C4)cc2)cc1
REMARK SMILES IDX 17 1 16 2 14 3 15 4 12 5 13 6 10 7 11 8 9 9 8 11 5 12 6 13
REMARK SMILES IDX 89 14 7 15 88 16 4 17 3 18 2 19 1 20 18 21 19 22 20 23 21 24
REMARK SMILES IDX 22 25 23 26 24 27 25 28 26 29 87 30 27 31 86 32 28 33 29 34
REMARK SMILES IDX 30 35 80 36 31 37 85 38 79 39 81 40 32 41 84 42 78 43 77 44
REMARK SMILES IDX 33 46 65 47 45 48 64 49 46 50 49 51 63 52 82 53 47 54 48 55
REMARK SMILES IDX 62 57 83 58 50 59 34 60 35 61 43 62 36 63 37 64 41 65 44 66
REMARK SMILES IDX 38 67 39 68 42 69 40 70 66 71 67 72 75 73 68 74 69 75 73 76
REMARK SMILES IDX 76 77 70 78 71 79 74 80 72 81 51 82 52 83 60 84 53 85 54 86
REMARK SMILES IDX 58 87 61 88 55 89 56 90 59 91 57 92
REMARK H PARENT 9 10 81 45 49 56
REMARK Flexibility Score: inf
ROOT
ATOM      1  C   UNL A   1      35.042  24.379  24.396  1.00  0.00     0.261 C 
ENDROOT
BRANCH   1   2
ATOM      2  O   UNL A   1      34.238  25.568  24.503  1.00  0.00    -0.463 OA
BRANCH   2   3
ATOM      3  C   UNL A   1      33.610  25.960  23.363  1.00  0.00     0.310 C 
ATOM      4  O   UNL A   1      33.981  25.672  22.229  1.00  0.00    -0.252 OA
BRANCH   3   5
ATOM      5  C   UNL A   1      32.408  26.855  23.602  1.00  0.00     0.118 C 
ATOM      6  C   UNL A   1      32.125  27.864  22.494  1.00  0.00     0.022 C 
BRANCH   5   7
ATOM      7  C   UNL A   1      31.237  25.954  24.035  1.00  0.00     0.090 C 
ATOM      8  C   UNL A   1      29.904  26.693  24.094  1.00  0.00     0.031 C 
BRANCH   7   9
ATOM      9  N   UNL A   1      31.196  24.667  23.342  1.00  0.00    -0.382 N 
ATOM     10  H   UNL A   1      30.846  24.722  22.424  1.00  0.00     0.160 HD
BRANCH   9  11
ATOM     11  C   UNL A   1      31.552  23.393  23.724  1.00  0.00     0.034 A 
ATOM     12  C   UNL A   1      32.135  20.803  24.674  1.00  0.00     0.119 A 
ATOM     13  C   UNL A   1      32.532  21.178  23.399  1.00  0.00     0.048 A 
ATOM     14  C   UNL A   1      31.552  21.730  25.521  1.00  0.00     0.048 A 
ATOM     15  C   UNL A   1      32.245  22.470  22.936  1.00  0.00     0.029 A 
ATOM     16  C   UNL A   1      31.240  23.000  25.037  1.00  0.00     0.029 A 
BRANCH  12  17
ATOM     17  O   UNL A   1      32.339  19.535  25.132  1.00  0.00    -0.494 OA
BRANCH  17  18
ATOM     18  C   UNL A   1      33.429  18.899  24.442  1.00  0.00     0.229 C 
BRANCH  18  19
ATOM     19  C   UNL A   1      32.941  17.754  23.548  1.00  0.00     0.038 C 
ATOM     20  C   UNL A   1      33.974  16.649  23.356  1.00  0.00     0.007 C 
ENDBRANCH  18  19
ENDBRANCH  17  18
ENDBRANCH  12  17
ENDBRANCH   9  11
ENDBRANCH   7   9
ENDBRANCH   5   7
ENDBRANCH   3   5
ENDBRANCH   2   3
ENDBRANCH   1   2
BRANCH   1  21
ATOM     21  C   UNL A   1      34.940  23.495  25.643  1.00  0.00     0.202 C 
BRANCH  21  22
ATOM     22  O   UNL A   1      35.662  22.265  25.623  1.00  0.00    -0.374 OA
BRANCH  22  23
ATOM     23  C   UNL A   1      36.898  22.239  24.913  1.00  0.00     0.202 C 
BRANCH  23  24
ATOM     24  C   UNL A   1      37.786  21.004  25.108  1.00  0.00     0.261 C 
BRANCH  24  25
ATOM     25  O   UNL A   1      39.187  21.330  25.185  1.00  0.00    -0.460 OA
BRANCH  25  26
ATOM     26  C   UNL A   1      39.749  21.099  26.397  1.00  0.00     0.338 C 
ATOM     27  O   UNL A   1      40.063  20.022  26.877  1.00  0.00    -0.246 OA
BRANCH  26  28
ATOM     28  C   UNL A   1      40.111  22.369  27.051  1.00  0.00     0.060 A 
ATOM     29  C   UNL A   1      39.427  23.520  26.635  1.00  0.00     0.016 A 
ATOM     30  C   UNL A   1      41.171  22.461  27.955  1.00  0.00     0.016 A 
ATOM     31  C   UNL A   1      39.838  24.774  27.078  1.00  0.00     0.010 A 
ATOM     32  C   UNL A   1      41.589  23.725  28.392  1.00  0.00     0.010 A 
ATOM     33  C   UNL A   1      40.951  24.888  27.923  1.00  0.00    -0.014 A 
BRANCH  33  34
ATOM     34  C   UNL A   1      41.522  26.234  28.181  1.00  0.00     0.031 A 
ATOM     35  C   UNL A   1      42.896  26.557  27.662  1.00  0.00     0.074 A 
ATOM     36  C   UNL A   1      40.800  27.178  28.810  1.00  0.00     0.049 A 
ATOM     37  N   UNL A   1      43.574  27.675  27.744  1.00  0.00    -0.248 NA
ATOM     38  C   UNL A   1      43.600  25.478  26.952  1.00  0.00     0.031 C 
ATOM     39  C   UNL A   1      39.444  27.001  29.321  1.00  0.00     0.029 A 
ATOM     40  N   UNL A   1      41.113  28.478  29.121  1.00  0.00    -0.354 N 
ATOM     41  C   UNL A   1      44.780  27.433  27.098  1.00  0.00     0.074 A 
ATOM     42  C   UNL A   1      44.755  26.056  26.655  1.00  0.00     0.031 C 
ATOM     43  C   UNL A   1      39.040  28.151  29.888  1.00  0.00     0.029 A 
ATOM     44  C   UNL A   1      40.118  29.135  29.799  1.00  0.00     0.049 A 
ATOM     45  H   UNL A   1      41.970  28.900  28.879  1.00  0.00     0.167 HD
ATOM     46  C   UNL A   1      45.810  28.286  26.882  1.00  0.00     0.037 A 
ATOM     47  C   UNL A   1      40.087  30.384  30.303  1.00  0.00     0.037 A 
ATOM     48  C   UNL A   1      45.836  29.657  27.319  1.00  0.00     0.049 A 
ATOM     49  C   UNL A   1      41.274  31.293  30.109  1.00  0.00     0.074 A 
ATOM     50  C   UNL A   1      46.826  30.606  27.128  1.00  0.00     0.029 A 
ATOM     51  N   UNL A   1      44.827  30.273  28.045  1.00  0.00    -0.354 N 
ATOM     52  N   UNL A   1      42.395  31.066  29.469  1.00  0.00    -0.248 NA
ATOM     53  C   UNL A   1      41.187  32.633  30.706  1.00  0.00     0.031 C 
ATOM     54  C   UNL A   1      46.437  31.782  27.779  1.00  0.00     0.029 A 
ATOM     55  C   UNL A   1      45.184  31.581  28.334  1.00  0.00     0.049 A 
ATOM     56  H   UNL A   1      43.984  29.844  28.315  1.00  0.00     0.167 HD
ATOM     57  C   UNL A   1      43.135  32.237  29.565  1.00  0.00     0.074 A 
ATOM     58  C   UNL A   1      42.329  33.180  30.313  1.00  0.00     0.031 C 
ATOM     59  C   UNL A   1      44.372  32.508  29.078  1.00  0.00     0.037 A 
BRANCH  46  60
ATOM     60  C   UNL A   1      47.009  27.753  26.153  1.00  0.00     0.064 A 
ATOM     61  C   UNL A   1      47.080  27.757  24.752  1.00  0.00     0.173 A 
ATOM     62  C   UNL A   1      48.113  27.265  26.867  1.00  0.00     0.173 A 
ATOM     63  F   UNL A   1      46.045  28.203  24.024  1.00  0.00    -0.203 F 
ATOM     64  C   UNL A   1      48.206  27.272  24.092  1.00  0.00     0.198 A 
ATOM     65  C   UNL A   1      49.247  26.804  26.204  1.00  0.00     0.198 A 
ATOM     66  F   UNL A   1      48.095  27.244  28.208  1.00  0.00    -0.203 F 
ATOM     67  F   UNL A   1      48.238  27.248  22.753  1.00  0.00    -0.200 F 
ATOM     68  C   UNL A   1      49.291  26.802  24.818  1.00  0.00     0.200 A 
ATOM     69  F   UNL A   1      50.298  26.360  26.907  1.00  0.00    -0.200 F 
ATOM     70  F   UNL A   1      50.376  26.341  24.182  1.00  0.00    -0.200 F 
ENDBRANCH  46  60
BRANCH  47  71
ATOM     71  C   UNL A   1      38.892  30.852  31.051  1.00  0.00     0.064 A 
ATOM     72  C   UNL A   1      38.804  30.710  32.442  1.00  0.00     0.173 A 
ATOM     73  C   UNL A   1      37.804  31.435  30.383  1.00  0.00     0.173 A 
ATOM     74  F   UNL A   1      39.808  30.134  33.121  1.00  0.00    -0.203 F 
ATOM     75  C   UNL A   1      37.667  31.119  33.137  1.00  0.00     0.198 A 
ATOM     76  C   UNL A   1      36.679  31.868  31.082  1.00  0.00     0.198 A 
ATOM     77  F   UNL A   1      37.837  31.591  29.052  1.00  0.00    -0.203 F 
ATOM     78  F   UNL A   1      37.590  30.932  34.461  1.00  0.00    -0.200 F 
ATOM     79  C   UNL A   1      36.609  31.704  32.457  1.00  0.00     0.200 A 
ATOM     80  F   UNL A   1      35.663  32.441  30.422  1.00  0.00    -0.200 F 
ATOM     81  F   UNL A   1      35.516  32.100  33.125  1.00  0.00    -0.200 F 
ENDBRANCH  47  71
BRANCH  59  82
ATOM     82  C   UNL A   1      44.920  33.885  29.318  1.00  0.00     0.064 A 
ATOM     83  C   UNL A   1      45.705  34.178  30.443  1.00  0.00     0.173 A 
ATOM     84  C   UNL A   1      44.689  34.914  28.391  1.00  0.00     0.173 A 
ATOM     85  F   UNL A   1      45.941  33.232  31.365  1.00  0.00    -0.203 F 
ATOM     86  C   UNL A   1      46.218  35.456  30.643  1.00  0.00     0.198 A 
ATOM     87  C   UNL A   1      45.228  36.183  28.581  1.00  0.00     0.198 A 
ATOM     88  F   UNL A   1      43.950  34.684  27.295  1.00  0.00    -0.203 F 
ATOM     89  F   UNL A   1      46.927  35.725  31.749  1.00  0.00    -0.200 F 
ATOM     90  C   UNL A   1      45.985  36.455  29.709  1.00  0.00     0.200 A 
ATOM     91  F   UNL A   1      45.012  37.144  27.673  1.00  0.00    -0.200 F 
ATOM     92  F   UNL A   1      46.485  37.684  29.903  1.00  0.00    -0.200 F 
ENDBRANCH  59  82
ENDBRANCH  33  34
ENDBRANCH  26  28
ENDBRANCH  25  26
ENDBRANCH  24  25
ENDBRANCH  23  24
ENDBRANCH  22  23
ENDBRANCH  21  22
ENDBRANCH   1  21
TORSDOF 20
ENDMDL
