MODEL 1
REMARK VINA RESULT:     -10.5      0.000      0.000
REMARK SMILES Cc1onc2c(=O)n(C)nc(C(=O)OCCOCCOC(=O)c3ccc(-c4c5nc(c(-c6c(F)c(F)c(F)c(F)c6F)c6ccc([nH]6)c(-c6c(F)c(F)c(F)c(F)c6F)c6nc(c(-c7c(F)c(F)c(F)c(F)c7F)c7ccc4[nH]7)C=C6)C=C5)cc3)c12
REMARK SMILES IDX 18 1 17 2 16 3 15 4 14 5 12 6 13 7 11 8 1 9 2 10 3 11 86 12
REMARK SMILES IDX 4 13 5 14 6 15 10 16 7 17 8 18 9 19 19 20 20 21 21 22 22 23
REMARK SMILES IDX 23 24 24 25 85 26 25 27 84 28 26 29 27 30 28 31 78 32 29 33
REMARK SMILES IDX 83 34 77 35 79 36 30 37 82 38 76 39 75 40 31 42 63 43 43 44
REMARK SMILES IDX 62 45 44 46 47 47 61 48 80 49 45 50 46 51 60 53 81 54 48 55
REMARK SMILES IDX 32 56 33 57 41 58 34 59 35 60 39 61 42 62 36 63 37 64 40 65
REMARK SMILES IDX 38 66 64 67 65 68 73 69 66 70 67 71 71 72 74 73 68 74 69 75
REMARK SMILES IDX 72 76 70 77 49 78 50 79 58 80 51 81 52 82 56 83 59 84 53 85
REMARK SMILES IDX 54 86 57 87 55 88
REMARK H PARENT 79 41 47 52
REMARK Flexibility Score: inf
ROOT
ATOM      1  C   UNL A   1      34.351  29.409  27.322  1.00  0.00     0.202 C 
ENDROOT
BRANCH   1   2
ATOM      2  O   UNL A   1      33.489  28.745  26.404  1.00  0.00    -0.374 OA
BRANCH   2   3
ATOM      3  C   UNL A   1      32.936  29.484  25.317  1.00  0.00     0.202 C 
BRANCH   3   4
ATOM      4  C   UNL A   1      33.201  28.967  23.900  1.00  0.00     0.261 C 
BRANCH   4   5
ATOM      5  O   UNL A   1      34.033  27.804  23.905  1.00  0.00    -0.458 OA
BRANCH   5   6
ATOM      6  C   UNL A   1      33.484  26.700  23.363  1.00  0.00     0.359 C 
ATOM      7  O   UNL A   1      33.413  26.392  22.179  1.00  0.00    -0.244 OA
BRANCH   6   8
ATOM      8  C   UNL A   1      33.037  25.751  24.457  1.00  0.00     0.182 A 
ATOM      9  C   UNL A   1      30.037  27.191  23.487  1.00  0.00     0.091 C 
ATOM     10  C   UNL A   1      30.509  26.320  24.582  1.00  0.00     0.144 A 
ATOM     11  O   UNL A   1      29.536  25.929  25.460  1.00  0.00    -0.360 OA
ATOM     12  C   UNL A   1      31.692  25.732  24.959  1.00  0.00     0.085 A 
ATOM     13  N   UNL A   1      30.066  25.045  26.387  1.00  0.00    -0.074 NA
ATOM     14  C   UNL A   1      31.353  24.919  26.052  1.00  0.00     0.183 A 
ATOM     15  C   UNL A   1      32.319  24.027  26.663  1.00  0.00     0.296 A 
ATOM     16  N   UNL A   1      33.918  24.922  24.956  1.00  0.00    -0.162 NA
ATOM     17  O   UNL A   1      32.076  23.312  27.632  1.00  0.00    -0.265 OA
ATOM     18  N   UNL A   1      33.564  24.044  25.994  1.00  0.00    -0.230 N 
ATOM     19  C   UNL A   1      34.599  23.132  26.439  1.00  0.00     0.178 C 
ENDBRANCH   6   8
ENDBRANCH   5   6
ENDBRANCH   4   5
ENDBRANCH   3   4
ENDBRANCH   2   3
ENDBRANCH   1   2
BRANCH   1  20
ATOM     20  C   UNL A   1      34.194  30.907  27.622  1.00  0.00     0.261 C 
BRANCH  20  21
ATOM     21  O   UNL A   1      35.290  31.750  27.264  1.00  0.00    -0.460 OA
BRANCH  21  22
ATOM     22  C   UNL A   1      35.629  32.589  28.270  1.00  0.00     0.338 C 
ATOM     23  O   UNL A   1      35.059  33.617  28.599  1.00  0.00    -0.246 OA
BRANCH  22  24
ATOM     24  C   UNL A   1      36.807  32.112  28.996  1.00  0.00     0.060 A 
ATOM     25  C   UNL A   1      37.666  31.223  28.341  1.00  0.00     0.016 A 
ATOM     26  C   UNL A   1      36.879  32.311  30.372  1.00  0.00     0.016 A 
ATOM     27  C   UNL A   1      38.562  30.463  29.084  1.00  0.00     0.010 A 
ATOM     28  C   UNL A   1      37.759  31.527  31.111  1.00  0.00     0.010 A 
ATOM     29  C   UNL A   1      38.585  30.579  30.479  1.00  0.00    -0.014 A 
BRANCH  29  30
ATOM     30  C   UNL A   1      39.527  29.726  31.242  1.00  0.00     0.031 A 
ATOM     31  C   UNL A   1      39.560  28.309  30.767  1.00  0.00     0.074 A 
ATOM     32  C   UNL A   1      40.627  30.241  31.842  1.00  0.00     0.049 A 
ATOM     33  N   UNL A   1      40.221  27.968  29.699  1.00  0.00    -0.248 NA
ATOM     34  C   UNL A   1      38.613  27.293  31.220  1.00  0.00     0.031 C 
ATOM     35  C   UNL A   1      41.292  31.476  31.403  1.00  0.00     0.029 A 
ATOM     36  N   UNL A   1      41.483  29.725  32.794  1.00  0.00    -0.354 N 
ATOM     37  C   UNL A   1      39.722  26.754  29.274  1.00  0.00     0.074 A 
ATOM     38  C   UNL A   1      38.759  26.347  30.274  1.00  0.00     0.031 C 
ATOM     39  C   UNL A   1      42.523  31.528  31.952  1.00  0.00     0.029 A 
ATOM     40  C   UNL A   1      42.698  30.410  32.879  1.00  0.00     0.049 A 
ATOM     41  H   UNL A   1      41.260  28.950  33.358  1.00  0.00     0.167 HD
ATOM     42  C   UNL A   1      40.118  26.181  28.106  1.00  0.00     0.037 A 
ATOM     43  C   UNL A   1      43.911  29.829  33.108  1.00  0.00     0.037 A 
ATOM     44  C   UNL A   1      41.075  26.927  27.340  1.00  0.00     0.049 A 
ATOM     45  C   UNL A   1      44.094  29.020  31.848  1.00  0.00     0.074 A 
ATOM     46  C   UNL A   1      41.141  27.663  26.178  1.00  0.00     0.029 A 
ATOM     47  N   UNL A   1      42.353  26.959  27.836  1.00  0.00    -0.354 N 
ATOM     48  N   UNL A   1      44.473  29.465  30.679  1.00  0.00    -0.248 NA
ATOM     49  C   UNL A   1      43.525  27.674  31.834  1.00  0.00     0.031 C 
ATOM     50  C   UNL A   1      42.333  28.455  26.292  1.00  0.00     0.029 A 
ATOM     51  C   UNL A   1      42.912  28.165  27.528  1.00  0.00     0.049 A 
ATOM     52  H   UNL A   1      42.794  26.232  28.332  1.00  0.00     0.167 HD
ATOM     53  C   UNL A   1      43.948  28.560  29.753  1.00  0.00     0.074 A 
ATOM     54  C   UNL A   1      43.437  27.453  30.531  1.00  0.00     0.031 C 
ATOM     55  C   UNL A   1      43.811  28.854  28.426  1.00  0.00     0.037 A 
BRANCH  42  56
ATOM     56  C   UNL A   1      39.871  24.775  27.742  1.00  0.00     0.064 A 
ATOM     57  C   UNL A   1      40.884  23.860  28.071  1.00  0.00     0.173 A 
ATOM     58  C   UNL A   1      38.842  24.353  26.902  1.00  0.00     0.173 A 
ATOM     59  F   UNL A   1      41.895  24.239  28.871  1.00  0.00    -0.203 F 
ATOM     60  C   UNL A   1      40.903  22.583  27.531  1.00  0.00     0.198 A 
ATOM     61  C   UNL A   1      38.852  23.060  26.374  1.00  0.00     0.198 A 
ATOM     62  F   UNL A   1      37.860  25.197  26.551  1.00  0.00    -0.203 F 
ATOM     63  F   UNL A   1      41.922  21.759  27.811  1.00  0.00    -0.200 F 
ATOM     64  C   UNL A   1      39.893  22.185  26.674  1.00  0.00     0.200 A 
ATOM     65  F   UNL A   1      37.877  22.668  25.543  1.00  0.00    -0.200 F 
ATOM     66  F   UNL A   1      39.928  20.964  26.123  1.00  0.00    -0.200 F 
ENDBRANCH  42  56
BRANCH  43  67
ATOM     67  C   UNL A   1      44.175  29.256  34.470  1.00  0.00     0.064 A 
ATOM     68  C   UNL A   1      45.337  29.647  35.165  1.00  0.00     0.173 A 
ATOM     69  C   UNL A   1      43.362  28.314  35.125  1.00  0.00     0.173 A 
ATOM     70  F   UNL A   1      46.248  30.432  34.570  1.00  0.00    -0.203 F 
ATOM     71  C   UNL A   1      45.586  29.241  36.479  1.00  0.00     0.198 A 
ATOM     72  C   UNL A   1      43.590  27.938  36.451  1.00  0.00     0.198 A 
ATOM     73  F   UNL A   1      42.322  27.746  34.501  1.00  0.00    -0.203 F 
ATOM     74  F   UNL A   1      46.688  29.668  37.112  1.00  0.00    -0.200 F 
ATOM     75  C   UNL A   1      44.691  28.417  37.135  1.00  0.00     0.200 A 
ATOM     76  F   UNL A   1      42.722  27.124  37.069  1.00  0.00    -0.200 F 
ATOM     77  F   UNL A   1      44.889  28.082  38.416  1.00  0.00    -0.200 F 
ENDBRANCH  43  67
BRANCH  55  78
ATOM     78  C   UNL A   1      44.502  30.094  27.973  1.00  0.00     0.064 A 
ATOM     79  C   UNL A   1      45.810  30.014  27.476  1.00  0.00     0.173 A 
ATOM     80  C   UNL A   1      43.871  31.346  27.972  1.00  0.00     0.173 A 
ATOM     81  F   UNL A   1      46.450  28.835  27.439  1.00  0.00    -0.203 F 
ATOM     82  C   UNL A   1      46.456  31.141  26.980  1.00  0.00     0.198 A 
ATOM     83  C   UNL A   1      44.512  32.467  27.452  1.00  0.00     0.198 A 
ATOM     84  F   UNL A   1      42.623  31.486  28.448  1.00  0.00    -0.203 F 
ATOM     85  F   UNL A   1      47.704  31.040  26.501  1.00  0.00    -0.200 F 
ATOM     86  C   UNL A   1      45.802  32.363  26.955  1.00  0.00     0.200 A 
ATOM     87  F   UNL A   1      43.871  33.645  27.408  1.00  0.00    -0.200 F 
ATOM     88  F   UNL A   1      46.410  33.439  26.436  1.00  0.00    -0.200 F 
ENDBRANCH  55  78
ENDBRANCH  29  30
ENDBRANCH  22  24
ENDBRANCH  21  22
ENDBRANCH  20  21
ENDBRANCH   1  20
TORSDOF 14
ENDMDL
MODEL 2
REMARK VINA RESULT:     -10.5      2.847      7.562
REMARK SMILES Cc1onc2c(=O)n(C)nc(C(=O)OCCOCCOC(=O)c3ccc(-c4c5nc(c(-c6c(F)c(F)c(F)c(F)c6F)c6ccc([nH]6)c(-c6c(F)c(F)c(F)c(F)c6F)c6nc(c(-c7c(F)c(F)c(F)c(F)c7F)c7ccc4[nH]7)C=C6)C=C5)cc3)c12
REMARK SMILES IDX 18 1 17 2 16 3 15 4 14 5 12 6 13 7 11 8 1 9 2 10 3 11 86 12
REMARK SMILES IDX 4 13 5 14 6 15 10 16 7 17 8 18 9 19 19 20 20 21 21 22 22 23
REMARK SMILES IDX 23 24 24 25 85 26 25 27 84 28 26 29 27 30 28 31 78 32 29 33
REMARK SMILES IDX 83 34 77 35 79 36 30 37 82 38 76 39 75 40 31 42 63 43 43 44
REMARK SMILES IDX 62 45 44 46 47 47 61 48 80 49 45 50 46 51 60 53 81 54 48 55
REMARK SMILES IDX 32 56 33 57 41 58 34 59 35 60 39 61 42 62 36 63 37 64 40 65
REMARK SMILES IDX 38 66 64 67 65 68 73 69 66 70 67 71 71 72 74 73 68 74 69 75
REMARK SMILES IDX 72 76 70 77 49 78 50 79 58 80 51 81 52 82 56 83 59 84 53 85
REMARK SMILES IDX 54 86 57 87 55 88
REMARK H PARENT 79 41 47 52
REMARK Flexibility Score: inf
ROOT
ATOM      1  C   UNL A   1      38.129  21.959  25.688  1.00  0.00     0.202 C 
ENDROOT
BRANCH   1   2
ATOM      2  O   UNL A   1      37.219  20.918  25.348  1.00  0.00    -0.374 OA
BRANCH   2   3
ATOM      3  C   UNL A   1      36.006  21.252  24.677  1.00  0.00     0.202 C 
BRANCH   3   4
ATOM      4  C   UNL A   1      36.016  22.482  23.764  1.00  0.00     0.261 C 
BRANCH   4   5
ATOM      5  O   UNL A   1      34.825  23.262  23.909  1.00  0.00    -0.458 OA
BRANCH   5   6
ATOM      6  C   UNL A   1      34.835  24.144  24.926  1.00  0.00     0.359 C 
ATOM      7  O   UNL A   1      35.801  24.595  25.530  1.00  0.00    -0.244 OA
BRANCH   6   8
ATOM      8  C   UNL A   1      33.431  24.651  25.188  1.00  0.00     0.182 A 
ATOM      9  C   UNL A   1      33.776  22.207  27.622  1.00  0.00     0.091 C 
ATOM     10  C   UNL A   1      32.684  23.038  27.079  1.00  0.00     0.144 A 
ATOM     11  O   UNL A   1      31.470  22.850  27.681  1.00  0.00    -0.360 OA
ATOM     12  C   UNL A   1      32.547  24.021  26.129  1.00  0.00     0.085 A 
ATOM     13  N   UNL A   1      30.545  23.742  27.162  1.00  0.00    -0.074 NA
ATOM     14  C   UNL A   1      31.217  24.453  26.252  1.00  0.00     0.183 A 
ATOM     15  C   UNL A   1      30.712  25.582  25.496  1.00  0.00     0.296 A 
ATOM     16  N   UNL A   1      33.018  25.702  24.527  1.00  0.00    -0.162 NA
ATOM     17  O   UNL A   1      29.553  25.984  25.555  1.00  0.00    -0.265 OA
ATOM     18  N   UNL A   1      31.714  26.192  24.709  1.00  0.00    -0.230 N 
ATOM     19  C   UNL A   1      31.375  27.392  23.968  1.00  0.00     0.178 C 
ENDBRANCH   6   8
ENDBRANCH   5   6
ENDBRANCH   4   5
ENDBRANCH   3   4
ENDBRANCH   2   3
ENDBRANCH   1   2
BRANCH   1  20
ATOM     20  C   UNL A   1      39.558  21.648  26.155  1.00  0.00     0.261 C 
BRANCH  20  21
ATOM     21  O   UNL A   1      39.932  22.140  27.442  1.00  0.00    -0.460 OA
BRANCH  21  22
ATOM     22  C   UNL A   1      41.277  22.223  27.578  1.00  0.00     0.338 C 
ATOM     23  O   UNL A   1      42.094  21.336  27.394  1.00  0.00    -0.246 OA
BRANCH  22  24
ATOM     24  C   UNL A   1      41.696  23.569  27.967  1.00  0.00     0.060 A 
ATOM     25  C   UNL A   1      40.704  24.538  28.154  1.00  0.00     0.016 A 
ATOM     26  C   UNL A   1      43.039  23.919  27.852  1.00  0.00     0.016 A 
ATOM     27  C   UNL A   1      41.052  25.885  28.151  1.00  0.00     0.010 A 
ATOM     28  C   UNL A   1      43.375  25.268  27.822  1.00  0.00     0.010 A 
ATOM     29  C   UNL A   1      42.384  26.260  27.942  1.00  0.00    -0.014 A 
BRANCH  29  30
ATOM     30  C   UNL A   1      42.712  27.705  27.908  1.00  0.00     0.031 A 
ATOM     31  C   UNL A   1      41.521  28.577  27.671  1.00  0.00     0.074 A 
ATOM     32  C   UNL A   1      43.769  28.212  28.587  1.00  0.00     0.049 A 
ATOM     33  N   UNL A   1      40.686  28.858  28.629  1.00  0.00    -0.248 NA
ATOM     34  C   UNL A   1      41.007  28.883  26.338  1.00  0.00     0.031 C 
ATOM     35  C   UNL A   1      44.346  27.582  29.783  1.00  0.00     0.029 A 
ATOM     36  N   UNL A   1      44.416  29.428  28.508  1.00  0.00    -0.354 N 
ATOM     37  C   UNL A   1      39.510  29.278  28.043  1.00  0.00     0.074 A 
ATOM     38  C   UNL A   1      39.768  29.325  26.621  1.00  0.00     0.031 C 
ATOM     39  C   UNL A   1      45.125  28.483  30.417  1.00  0.00     0.029 A 
ATOM     40  C   UNL A   1      45.214  29.707  29.621  1.00  0.00     0.049 A 
ATOM     41  H   UNL A   1      44.326  30.040  27.742  1.00  0.00     0.167 HD
ATOM     42  C   UNL A   1      38.390  29.529  28.773  1.00  0.00     0.037 A 
ATOM     43  C   UNL A   1      45.371  30.939  30.184  1.00  0.00     0.037 A 
ATOM     44  C   UNL A   1      38.509  29.315  30.187  1.00  0.00     0.049 A 
ATOM     45  C   UNL A   1      43.985  31.198  30.720  1.00  0.00     0.074 A 
ATOM     46  C   UNL A   1      38.080  28.430  31.152  1.00  0.00     0.029 A 
ATOM     47  N   UNL A   1      39.248  30.240  30.878  1.00  0.00    -0.354 N 
ATOM     48  N   UNL A   1      43.463  30.710  31.814  1.00  0.00    -0.248 NA
ATOM     49  C   UNL A   1      43.023  31.810  29.804  1.00  0.00     0.031 C 
ATOM     50  C   UNL A   1      38.957  28.628  32.271  1.00  0.00     0.029 A 
ATOM     51  C   UNL A   1      39.879  29.611  31.912  1.00  0.00     0.049 A 
ATOM     52  H   UNL A   1      39.313  31.199  30.663  1.00  0.00     0.167 HD
ATOM     53  C   UNL A   1      42.082  30.721  31.600  1.00  0.00     0.074 A 
ATOM     54  C   UNL A   1      41.879  31.469  30.378  1.00  0.00     0.031 C 
ATOM     55  C   UNL A   1      41.211  29.973  32.341  1.00  0.00     0.037 A 
BRANCH  42  56
ATOM     56  C   UNL A   1      37.215  30.260  28.270  1.00  0.00     0.064 A 
ATOM     57  C   UNL A   1      37.211  31.650  28.474  1.00  0.00     0.173 A 
ATOM     58  C   UNL A   1      36.037  29.649  27.842  1.00  0.00     0.173 A 
ATOM     59  F   UNL A   1      38.329  32.267  28.896  1.00  0.00    -0.203 F 
ATOM     60  C   UNL A   1      36.055  32.398  28.314  1.00  0.00     0.198 A 
ATOM     61  C   UNL A   1      34.877  30.408  27.663  1.00  0.00     0.198 A 
ATOM     62  F   UNL A   1      35.990  28.323  27.647  1.00  0.00    -0.203 F 
ATOM     63  F   UNL A   1      36.071  33.710  28.584  1.00  0.00    -0.200 F 
ATOM     64  C   UNL A   1      34.885  31.775  27.918  1.00  0.00     0.200 A 
ATOM     65  F   UNL A   1      33.740  29.812  27.279  1.00  0.00    -0.200 F 
ATOM     66  F   UNL A   1      33.758  32.491  27.797  1.00  0.00    -0.200 F 
ENDBRANCH  42  56
BRANCH  43  67
ATOM     67  C   UNL A   1      46.137  31.976  29.416  1.00  0.00     0.064 A 
ATOM     68  C   UNL A   1      47.086  32.769  30.092  1.00  0.00     0.173 A 
ATOM     69  C   UNL A   1      45.968  32.261  28.050  1.00  0.00     0.173 A 
ATOM     70  F   UNL A   1      47.221  32.673  31.423  1.00  0.00    -0.203 F 
ATOM     71  C   UNL A   1      47.912  33.672  29.417  1.00  0.00     0.198 A 
ATOM     72  C   UNL A   1      46.819  33.135  27.367  1.00  0.00     0.198 A 
ATOM     73  F   UNL A   1      44.986  31.690  27.340  1.00  0.00    -0.203 F 
ATOM     74  F   UNL A   1      48.826  34.378  30.098  1.00  0.00    -0.200 F 
ATOM     75  C   UNL A   1      47.804  33.825  28.048  1.00  0.00     0.200 A 
ATOM     76  F   UNL A   1      46.691  33.286  26.042  1.00  0.00    -0.200 F 
ATOM     77  F   UNL A   1      48.640  34.637  27.387  1.00  0.00    -0.200 F 
ENDBRANCH  43  67
BRANCH  55  78
ATOM     78  C   UNL A   1      41.788  29.351  33.566  1.00  0.00     0.064 A 
ATOM     79  C   UNL A   1      41.769  30.059  34.775  1.00  0.00     0.173 A 
ATOM     80  C   UNL A   1      42.308  28.049  33.571  1.00  0.00     0.173 A 
ATOM     81  F   UNL A   1      41.266  31.303  34.825  1.00  0.00    -0.203 F 
ATOM     82  C   UNL A   1      42.235  29.479  35.950  1.00  0.00     0.198 A 
ATOM     83  C   UNL A   1      42.750  27.463  34.754  1.00  0.00     0.198 A 
ATOM     84  F   UNL A   1      42.364  27.327  32.440  1.00  0.00    -0.203 F 
ATOM     85  F   UNL A   1      42.198  30.172  37.097  1.00  0.00    -0.200 F 
ATOM     86  C   UNL A   1      42.711  28.178  35.942  1.00  0.00     0.200 A 
ATOM     87  F   UNL A   1      43.191  26.196  34.751  1.00  0.00    -0.200 F 
ATOM     88  F   UNL A   1      43.118  27.605  37.084  1.00  0.00    -0.200 F 
ENDBRANCH  55  78
ENDBRANCH  29  30
ENDBRANCH  22  24
ENDBRANCH  21  22
ENDBRANCH  20  21
ENDBRANCH   1  20
TORSDOF 14
ENDMDL
MODEL 3
REMARK VINA RESULT:     -10.3      7.801     12.442
REMARK SMILES Cc1onc2c(=O)n(C)nc(C(=O)OCCOCCOC(=O)c3ccc(-c4c5nc(c(-c6c(F)c(F)c(F)c(F)c6F)c6ccc([nH]6)c(-c6c(F)c(F)c(F)c(F)c6F)c6nc(c(-c7c(F)c(F)c(F)c(F)c7F)c7ccc4[nH]7)C=C6)C=C5)cc3)c12
REMARK SMILES IDX 18 1 17 2 16 3 15 4 14 5 12 6 13 7 11 8 1 9 2 10 3 11 86 12
REMARK SMILES IDX 4 13 5 14 6 15 10 16 7 17 8 18 9 19 19 20 20 21 21 22 22 23
REMARK SMILES IDX 23 24 24 25 85 26 25 27 84 28 26 29 27 30 28 31 78 32 29 33
REMARK SMILES IDX 83 34 77 35 79 36 30 37 82 38 76 39 75 40 31 42 63 43 43 44
REMARK SMILES IDX 62 45 44 46 47 47 61 48 80 49 45 50 46 51 60 53 81 54 48 55
REMARK SMILES IDX 32 56 33 57 41 58 34 59 35 60 39 61 42 62 36 63 37 64 40 65
REMARK SMILES IDX 38 66 64 67 65 68 73 69 66 70 67 71 71 72 74 73 68 74 69 75
REMARK SMILES IDX 72 76 70 77 49 78 50 79 58 80 51 81 52 82 56 83 59 84 53 85
REMARK SMILES IDX 54 86 57 87 55 88
REMARK H PARENT 79 41 47 52
REMARK Flexibility Score: inf
ROOT
ATOM      1  C   UNL A   1      46.250  21.384  36.996  1.00  0.00     0.202 C 
ENDROOT
BRANCH   1   2
ATOM      2  O   UNL A   1      45.777  20.405  37.915  1.00  0.00    -0.374 OA
BRANCH   2   3
ATOM      3  C   UNL A   1      46.479  19.169  38.029  1.00  0.00     0.202 C 
BRANCH   3   4
ATOM      4  C   UNL A   1      47.093  18.825  39.389  1.00  0.00     0.261 C 
BRANCH   4   5
ATOM      5  O   UNL A   1      46.322  17.842  40.088  1.00  0.00    -0.458 OA
BRANCH   5   6
ATOM      6  C   UNL A   1      45.385  18.330  40.922  1.00  0.00     0.359 C 
ATOM      7  O   UNL A   1      45.065  19.499  41.101  1.00  0.00    -0.244 OA
BRANCH   6   8
ATOM      8  C   UNL A   1      44.628  17.192  41.577  1.00  0.00     0.182 A 
ATOM      9  C   UNL A   1      44.044  16.598  38.213  1.00  0.00     0.091 C 
ATOM     10  C   UNL A   1      43.539  16.083  39.500  1.00  0.00     0.144 A 
ATOM     11  O   UNL A   1      42.609  15.085  39.390  1.00  0.00    -0.360 OA
ATOM     12  C   UNL A   1      43.781  16.302  40.835  1.00  0.00     0.085 A 
ATOM     13  N   UNL A   1      42.275  14.613  40.650  1.00  0.00    -0.074 NA
ATOM     14  C   UNL A   1      43.009  15.337  41.500  1.00  0.00     0.183 A 
ATOM     15  C   UNL A   1      43.088  15.159  42.937  1.00  0.00     0.296 A 
ATOM     16  N   UNL A   1      44.758  17.025  42.868  1.00  0.00    -0.162 NA
ATOM     17  O   UNL A   1      42.419  14.344  43.565  1.00  0.00    -0.265 OA
ATOM     18  N   UNL A   1      44.052  16.006  43.530  1.00  0.00    -0.230 N 
ATOM     19  C   UNL A   1      44.306  15.872  44.951  1.00  0.00     0.178 C 
ENDBRANCH   6   8
ENDBRANCH   5   6
ENDBRANCH   4   5
ENDBRANCH   3   4
ENDBRANCH   2   3
ENDBRANCH   1   2
BRANCH   1  20
ATOM     20  C   UNL A   1      45.332  21.966  35.910  1.00  0.00     0.261 C 
BRANCH  20  21
ATOM     21  O   UNL A   1      45.248  23.390  35.840  1.00  0.00    -0.460 OA
BRANCH  21  22
ATOM     22  C   UNL A   1      44.238  23.794  35.034  1.00  0.00     0.338 C 
ATOM     23  O   UNL A   1      43.082  23.402  35.043  1.00  0.00    -0.246 OA
BRANCH  22  24
ATOM     24  C   UNL A   1      44.676  24.833  34.101  1.00  0.00     0.060 A 
ATOM     25  C   UNL A   1      43.695  25.574  33.435  1.00  0.00     0.016 A 
ATOM     26  C   UNL A   1      46.006  24.853  33.688  1.00  0.00     0.016 A 
ATOM     27  C   UNL A   1      44.033  26.289  32.291  1.00  0.00     0.010 A 
ATOM     28  C   UNL A   1      46.331  25.547  32.527  1.00  0.00     0.010 A 
ATOM     29  C   UNL A   1      45.345  26.245  31.805  1.00  0.00    -0.014 A 
BRANCH  29  30
ATOM     30  C   UNL A   1      45.662  26.988  30.562  1.00  0.00     0.031 A 
ATOM     31  C   UNL A   1      45.552  26.152  29.328  1.00  0.00     0.074 A 
ATOM     32  C   UNL A   1      45.472  28.326  30.465  1.00  0.00     0.049 A 
ATOM     33  N   UNL A   1      44.396  25.882  28.793  1.00  0.00    -0.248 NA
ATOM     34  C   UNL A   1      46.636  25.303  28.839  1.00  0.00     0.031 C 
ATOM     35  C   UNL A   1      44.499  29.072  31.277  1.00  0.00     0.029 A 
ATOM     36  N   UNL A   1      45.917  29.255  29.547  1.00  0.00    -0.354 N 
ATOM     37  C   UNL A   1      44.564  24.778  27.982  1.00  0.00     0.074 A 
ATOM     38  C   UNL A   1      45.979  24.481  28.001  1.00  0.00     0.031 C 
ATOM     39  C   UNL A   1      44.296  30.280  30.713  1.00  0.00     0.029 A 
ATOM     40  C   UNL A   1      45.207  30.457  29.581  1.00  0.00     0.049 A 
ATOM     41  H   UNL A   1      46.664  29.087  28.927  1.00  0.00     0.167 HD
ATOM     42  C   UNL A   1      43.514  24.166  27.372  1.00  0.00     0.037 A 
ATOM     43  C   UNL A   1      44.883  31.208  28.489  1.00  0.00     0.037 A 
ATOM     44  C   UNL A   1      42.223  24.733  27.639  1.00  0.00     0.049 A 
ATOM     45  C   UNL A   1      43.918  30.294  27.776  1.00  0.00     0.074 A 
ATOM     46  C   UNL A   1      41.074  24.436  28.338  1.00  0.00     0.029 A 
ATOM     47  N   UNL A   1      41.955  25.937  27.040  1.00  0.00    -0.354 N 
ATOM     48  N   UNL A   1      42.661  30.095  28.073  1.00  0.00    -0.248 NA
ATOM     49  C   UNL A   1      44.489  29.315  26.854  1.00  0.00     0.031 C 
ATOM     50  C   UNL A   1      40.376  25.683  28.476  1.00  0.00     0.029 A 
ATOM     51  C   UNL A   1      41.153  26.668  27.867  1.00  0.00     0.049 A 
ATOM     52  H   UNL A   1      42.288  26.225  26.159  1.00  0.00     0.167 HD
ATOM     53  C   UNL A   1      42.363  28.822  27.582  1.00  0.00     0.074 A 
ATOM     54  C   UNL A   1      43.507  28.429  26.788  1.00  0.00     0.031 C 
ATOM     55  C   UNL A   1      41.277  28.102  27.995  1.00  0.00     0.037 A 
BRANCH  42  56
ATOM     56  C   UNL A   1      43.640  23.197  26.271  1.00  0.00     0.064 A 
ATOM     57  C   UNL A   1      43.316  21.864  26.574  1.00  0.00     0.173 A 
ATOM     58  C   UNL A   1      44.275  23.466  25.059  1.00  0.00     0.173 A 
ATOM     59  F   UNL A   1      42.712  21.571  27.739  1.00  0.00    -0.203 F 
ATOM     60  C   UNL A   1      43.668  20.826  25.724  1.00  0.00     0.198 A 
ATOM     61  C   UNL A   1      44.612  22.421  24.195  1.00  0.00     0.198 A 
ATOM     62  F   UNL A   1      44.615  24.722  24.733  1.00  0.00    -0.203 F 
ATOM     63  F   UNL A   1      43.405  19.561  26.078  1.00  0.00    -0.200 F 
ATOM     64  C   UNL A   1      44.325  21.103  24.539  1.00  0.00     0.200 A 
ATOM     65  F   UNL A   1      45.248  22.681  23.045  1.00  0.00    -0.200 F 
ATOM     66  F   UNL A   1      44.697  20.099  23.733  1.00  0.00    -0.200 F 
ENDBRANCH  42  56
BRANCH  43  67
ATOM     67  C   UNL A   1      45.989  31.921  27.768  1.00  0.00     0.064 A 
ATOM     68  C   UNL A   1      45.760  33.219  27.270  1.00  0.00     0.173 A 
ATOM     69  C   UNL A   1      47.262  31.385  27.506  1.00  0.00     0.173 A 
ATOM     70  F   UNL A   1      44.536  33.764  27.344  1.00  0.00    -0.203 F 
ATOM     71  C   UNL A   1      46.777  33.981  26.690  1.00  0.00     0.198 A 
ATOM     72  C   UNL A   1      48.291  32.159  26.961  1.00  0.00     0.198 A 
ATOM     73  F   UNL A   1      47.545  30.106  27.783  1.00  0.00    -0.203 F 
ATOM     74  F   UNL A   1      46.520  35.226  26.265  1.00  0.00    -0.200 F 
ATOM     75  C   UNL A   1      48.053  33.463  26.572  1.00  0.00     0.200 A 
ATOM     76  F   UNL A   1      49.519  31.637  26.837  1.00  0.00    -0.200 F 
ATOM     77  F   UNL A   1      49.048  34.214  26.081  1.00  0.00    -0.200 F 
ENDBRANCH  43  67
BRANCH  55  78
ATOM     78  C   UNL A   1      40.280  28.861  28.801  1.00  0.00     0.064 A 
ATOM     79  C   UNL A   1      39.254  29.561  28.150  1.00  0.00     0.173 A 
ATOM     80  C   UNL A   1      40.292  28.861  30.203  1.00  0.00     0.173 A 
ATOM     81  F   UNL A   1      39.190  29.577  26.809  1.00  0.00    -0.203 F 
ATOM     82  C   UNL A   1      38.268  30.220  28.875  1.00  0.00     0.198 A 
ATOM     83  C   UNL A   1      39.288  29.501  30.924  1.00  0.00     0.198 A 
ATOM     84  F   UNL A   1      41.257  28.219  30.881  1.00  0.00    -0.203 F 
ATOM     85  F   UNL A   1      37.291  30.875  28.231  1.00  0.00    -0.200 F 
ATOM     86  C   UNL A   1      38.276  30.177  30.260  1.00  0.00     0.200 A 
ATOM     87  F   UNL A   1      39.284  29.442  32.265  1.00  0.00    -0.200 F 
ATOM     88  F   UNL A   1      37.299  30.776  30.956  1.00  0.00    -0.200 F 
ENDBRANCH  55  78
ENDBRANCH  29  30
ENDBRANCH  22  24
ENDBRANCH  21  22
ENDBRANCH  20  21
ENDBRANCH   1  20
TORSDOF 14
ENDMDL
