MODEL 1
REMARK VINA RESULT:     -11.7      0.000      0.000
REMARK SMILES CC1(NC(=O)c2csc(/C=C/C(=O)OCCOCCOC(=O)c3ccc(-c4c5nc(c(-c6c(F)c(F)c(F)c(F)c6F)c6ccc([nH]6)c(-c6c(F)c(F)c(F)c(F)c6F)c6nc(c(-c7c(F)c(F)c(F)c(F)c7F)c7ccc4[nH]7)C=C6)C=C5)cc3)c2)CCCCC1
REMARK SMILES IDX 16 1 15 2 14 3 12 4 13 5 11 6 10 7 9 8 6 9 7 10 86 11 8 12
REMARK SMILES IDX 4 13 3 14 5 16 2 17 1 18 87 19 91 20 88 21 90 22 89 23 17 24
REMARK SMILES IDX 18 25 19 26 20 27 21 28 22 29 23 30 24 31 85 32 25 33 84 34
REMARK SMILES IDX 26 35 27 36 28 37 78 38 29 39 83 40 77 41 79 42 30 43 82 44
REMARK SMILES IDX 76 45 75 46 31 48 63 49 43 50 62 51 44 52 47 53 61 54 80 55
REMARK SMILES IDX 45 56 46 57 60 59 81 60 48 61 32 62 33 63 41 64 34 65 35 66
REMARK SMILES IDX 39 67 42 68 36 69 37 70 40 71 38 72 64 73 65 74 73 75 66 76
REMARK SMILES IDX 67 77 71 78 74 79 68 80 69 81 72 82 70 83 49 84 50 85 58 86
REMARK SMILES IDX 51 87 52 88 56 89 59 90 53 91 54 92 57 93 55 94
REMARK H PARENT 3 15 79 47 47 58
REMARK Flexibility Score: inf
ROOT
ATOM      1  C   UNL A   1      41.014  20.888  26.123  1.00  0.00     0.202 C 
ENDROOT
BRANCH   1   2
ATOM      2  C   UNL A   1      39.646  21.420  26.557  1.00  0.00     0.261 C 
BRANCH   2   3
ATOM      3  O   UNL A   1      38.816  21.767  25.434  1.00  0.00    -0.460 OA
BRANCH   3   4
ATOM      4  C   UNL A   1      37.891  20.833  25.106  1.00  0.00     0.330 C 
ATOM      5  O   UNL A   1      38.083  19.631  24.994  1.00  0.00    -0.247 OA
BRANCH   4   6
ATOM      6  C   UNL A   1      36.538  21.397  24.927  1.00  0.00     0.095 C 
ATOM      7  C   UNL A   1      35.450  21.123  25.663  1.00  0.00     0.026 C 
BRANCH   7   8
ATOM      8  C   UNL A   1      34.179  21.754  25.447  1.00  0.00     0.028 A 
ATOM      9  C   UNL A   1      32.312  23.196  25.737  1.00  0.00     0.051 A 
ATOM     10  C   UNL A   1      31.973  22.537  24.577  1.00  0.00     0.079 A 
ATOM     11  C   UNL A   1      33.611  22.775  26.194  1.00  0.00     0.033 A 
ATOM     12  S   UNL A   1      33.112  21.342  24.151  1.00  0.00    -0.144 S 
BRANCH   9  13
ATOM     13  C   UNL A   1      31.544  24.265  26.345  1.00  0.00     0.252 C 
ATOM     14  N   UNL A   1      31.681  25.567  25.959  1.00  0.00    -0.347 N 
ATOM     15  H   UNL A   1      31.025  26.136  26.422  1.00  0.00     0.164 HD
ATOM     16  O   UNL A   1      30.683  24.012  27.187  1.00  0.00    -0.269 OA
BRANCH  14  17
ATOM     17  C   UNL A   1      32.527  26.379  25.051  1.00  0.00     0.038 C 
ATOM     18  C   UNL A   1      33.923  26.487  25.692  1.00  0.00     0.034 C 
ATOM     19  C   UNL A   1      32.678  25.896  23.593  1.00  0.00     0.028 C 
ATOM     20  C   UNL A   1      31.896  27.800  24.997  1.00  0.00     0.028 C 
ATOM     21  C   UNL A   1      31.370  25.900  22.805  1.00  0.00     0.002 C 
ATOM     22  C   UNL A   1      30.567  27.817  24.234  1.00  0.00     0.002 C 
ATOM     23  C   UNL A   1      30.721  27.279  22.816  1.00  0.00     0.000 C 
ENDBRANCH  14  17
ENDBRANCH   9  13
ENDBRANCH   7   8
ENDBRANCH   4   6
ENDBRANCH   3   4
ENDBRANCH   2   3
ENDBRANCH   1   2
BRANCH   1  24
ATOM     24  O   UNL A   1      41.914  21.854  25.585  1.00  0.00    -0.374 OA
BRANCH  24  25
ATOM     25  C   UNL A   1      43.287  21.468  25.491  1.00  0.00     0.202 C 
BRANCH  25  26
ATOM     26  C   UNL A   1      44.162  22.361  24.603  1.00  0.00     0.261 C 
BRANCH  26  27
ATOM     27  O   UNL A   1      43.599  23.679  24.456  1.00  0.00    -0.460 OA
BRANCH  27  28
ATOM     28  C   UNL A   1      44.330  24.676  25.006  1.00  0.00     0.338 C 
ATOM     29  O   UNL A   1      45.464  25.021  24.698  1.00  0.00    -0.246 OA
BRANCH  28  30
ATOM     30  C   UNL A   1      43.510  25.449  25.956  1.00  0.00     0.060 A 
ATOM     31  C   UNL A   1      43.863  26.787  26.170  1.00  0.00     0.016 A 
ATOM     32  C   UNL A   1      42.466  24.869  26.682  1.00  0.00     0.016 A 
ATOM     33  C   UNL A   1      43.214  27.533  27.150  1.00  0.00     0.010 A 
ATOM     34  C   UNL A   1      41.816  25.621  27.670  1.00  0.00     0.010 A 
ATOM     35  C   UNL A   1      42.214  26.944  27.935  1.00  0.00    -0.014 A 
BRANCH  35  36
ATOM     36  C   UNL A   1      41.698  27.680  29.117  1.00  0.00     0.031 A 
ATOM     37  C   UNL A   1      42.431  27.570  30.427  1.00  0.00     0.074 A 
ATOM     38  C   UNL A   1      40.631  28.492  29.008  1.00  0.00     0.049 A 
ATOM     39  N   UNL A   1      42.182  28.157  31.571  1.00  0.00    -0.248 NA
ATOM     40  C   UNL A   1      43.605  26.683  30.450  1.00  0.00     0.031 C 
ATOM     41  C   UNL A   1      39.859  28.711  27.787  1.00  0.00     0.029 A 
ATOM     42  N   UNL A   1      40.019  29.291  29.942  1.00  0.00    -0.354 N 
ATOM     43  C   UNL A   1      43.170  27.719  32.444  1.00  0.00     0.074 A 
ATOM     44  C   UNL A   1      43.999  26.786  31.711  1.00  0.00     0.031 C 
ATOM     45  C   UNL A   1      38.875  29.591  28.045  1.00  0.00     0.029 A 
ATOM     46  C   UNL A   1      38.935  29.977  29.453  1.00  0.00     0.049 A 
ATOM     47  H   UNL A   1      40.328  29.364  30.874  1.00  0.00     0.167 HD
ATOM     48  C   UNL A   1      43.379  28.077  33.733  1.00  0.00     0.037 A 
ATOM     49  C   UNL A   1      38.086  30.817  30.076  1.00  0.00     0.037 A 
ATOM     50  C   UNL A   1      42.555  29.001  34.466  1.00  0.00     0.049 A 
ATOM     51  C   UNL A   1      38.300  31.139  31.534  1.00  0.00     0.074 A 
ATOM     52  C   UNL A   1      42.686  29.425  35.777  1.00  0.00     0.029 A 
ATOM     53  N   UNL A   1      41.441  29.646  33.948  1.00  0.00    -0.354 N 
ATOM     54  N   UNL A   1      39.252  30.740  32.342  1.00  0.00    -0.248 NA
ATOM     55  C   UNL A   1      37.320  32.037  32.163  1.00  0.00     0.031 C 
ATOM     56  C   UNL A   1      41.627  30.292  36.066  1.00  0.00     0.029 A 
ATOM     57  C   UNL A   1      40.866  30.449  34.919  1.00  0.00     0.049 A 
ATOM     58  H   UNL A   1      41.110  29.548  33.026  1.00  0.00     0.167 HD
ATOM     59  C   UNL A   1      39.006  31.363  33.559  1.00  0.00     0.074 A 
ATOM     60  C   UNL A   1      37.825  32.179  33.380  1.00  0.00     0.031 C 
ATOM     61  C   UNL A   1      39.697  31.266  34.723  1.00  0.00     0.037 A 
BRANCH  48  62
ATOM     62  C   UNL A   1      44.547  27.457  34.444  1.00  0.00     0.064 A 
ATOM     63  C   UNL A   1      44.426  26.235  35.123  1.00  0.00     0.173 A 
ATOM     64  C   UNL A   1      45.811  28.063  34.403  1.00  0.00     0.173 A 
ATOM     65  F   UNL A   1      43.235  25.622  35.203  1.00  0.00    -0.203 F 
ATOM     66  C   UNL A   1      45.525  25.654  35.751  1.00  0.00     0.198 A 
ATOM     67  C   UNL A   1      46.912  27.466  35.009  1.00  0.00     0.198 A 
ATOM     68  F   UNL A   1      45.981  29.230  33.762  1.00  0.00    -0.203 F 
ATOM     69  F   UNL A   1      45.378  24.506  36.427  1.00  0.00    -0.200 F 
ATOM     70  C   UNL A   1      46.768  26.265  35.687  1.00  0.00     0.200 A 
ATOM     71  F   UNL A   1      48.116  28.052  34.936  1.00  0.00    -0.200 F 
ATOM     72  F   UNL A   1      47.827  25.698  36.282  1.00  0.00    -0.200 F 
ENDBRANCH  48  62
BRANCH  49  73
ATOM     73  C   UNL A   1      36.947  31.419  29.334  1.00  0.00     0.064 A 
ATOM     74  C   UNL A   1      36.925  32.786  29.026  1.00  0.00     0.173 A 
ATOM     75  C   UNL A   1      35.837  30.648  28.957  1.00  0.00     0.173 A 
ATOM     76  F   UNL A   1      37.951  33.571  29.390  1.00  0.00    -0.203 F 
ATOM     77  C   UNL A   1      35.826  33.365  28.395  1.00  0.00     0.198 A 
ATOM     78  C   UNL A   1      34.752  31.222  28.299  1.00  0.00     0.198 A 
ATOM     79  F   UNL A   1      35.807  29.335  29.230  1.00  0.00    -0.203 F 
ATOM     80  F   UNL A   1      35.806  34.685  28.165  1.00  0.00    -0.200 F 
ATOM     81  C   UNL A   1      34.742  32.582  28.028  1.00  0.00     0.200 A 
ATOM     82  F   UNL A   1      33.711  30.460  27.938  1.00  0.00    -0.200 F 
ATOM     83  F   UNL A   1      33.683  33.139  27.426  1.00  0.00    -0.200 F 
ENDBRANCH  49  73
BRANCH  61  84
ATOM     84  C   UNL A   1      39.216  32.096  35.878  1.00  0.00     0.064 A 
ATOM     85  C   UNL A   1      38.288  31.602  36.806  1.00  0.00     0.173 A 
ATOM     86  C   UNL A   1      39.711  33.396  36.073  1.00  0.00     0.173 A 
ATOM     87  F   UNL A   1      37.774  30.372  36.656  1.00  0.00    -0.203 F 
ATOM     88  C   UNL A   1      37.847  32.389  37.867  1.00  0.00     0.198 A 
ATOM     89  C   UNL A   1      39.291  34.168  37.153  1.00  0.00     0.198 A 
ATOM     90  F   UNL A   1      40.607  33.913  35.220  1.00  0.00    -0.203 F 
ATOM     91  F   UNL A   1      36.918  31.915  38.708  1.00  0.00    -0.200 F 
ATOM     92  C   UNL A   1      38.353  33.668  38.042  1.00  0.00     0.200 A 
ATOM     93  F   UNL A   1      39.792  35.398  37.328  1.00  0.00    -0.200 F 
ATOM     94  F   UNL A   1      37.928  34.423  39.065  1.00  0.00    -0.200 F 
ENDBRANCH  61  84
ENDBRANCH  35  36
ENDBRANCH  28  30
ENDBRANCH  27  28
ENDBRANCH  26  27
ENDBRANCH  25  26
ENDBRANCH  24  25
ENDBRANCH   1  24
TORSDOF 17
ENDMDL
MODEL 2
REMARK VINA RESULT:     -11.3      5.130      7.620
REMARK SMILES CC1(NC(=O)c2csc(/C=C/C(=O)OCCOCCOC(=O)c3ccc(-c4c5nc(c(-c6c(F)c(F)c(F)c(F)c6F)c6ccc([nH]6)c(-c6c(F)c(F)c(F)c(F)c6F)c6nc(c(-c7c(F)c(F)c(F)c(F)c7F)c7ccc4[nH]7)C=C6)C=C5)cc3)c2)CCCCC1
REMARK SMILES IDX 16 1 15 2 14 3 12 4 13 5 11 6 10 7 9 8 6 9 7 10 86 11 8 12
REMARK SMILES IDX 4 13 3 14 5 16 2 17 1 18 87 19 91 20 88 21 90 22 89 23 17 24
REMARK SMILES IDX 18 25 19 26 20 27 21 28 22 29 23 30 24 31 85 32 25 33 84 34
REMARK SMILES IDX 26 35 27 36 28 37 78 38 29 39 83 40 77 41 79 42 30 43 82 44
REMARK SMILES IDX 76 45 75 46 31 48 63 49 43 50 62 51 44 52 47 53 61 54 80 55
REMARK SMILES IDX 45 56 46 57 60 59 81 60 48 61 32 62 33 63 41 64 34 65 35 66
REMARK SMILES IDX 39 67 42 68 36 69 37 70 40 71 38 72 64 73 65 74 73 75 66 76
REMARK SMILES IDX 67 77 71 78 74 79 68 80 69 81 72 82 70 83 49 84 50 85 58 86
REMARK SMILES IDX 51 87 52 88 56 89 59 90 53 91 54 92 57 93 55 94
REMARK H PARENT 3 15 79 47 47 58
REMARK Flexibility Score: inf
ROOT
ATOM      1  C   UNL A   1      41.099  21.461  27.650  1.00  0.00     0.202 C 
ENDROOT
BRANCH   1   2
ATOM      2  C   UNL A   1      40.106  21.784  26.530  1.00  0.00     0.261 C 
BRANCH   2   3
ATOM      3  O   UNL A   1      40.064  23.190  26.230  1.00  0.00    -0.460 OA
BRANCH   3   4
ATOM      4  C   UNL A   1      39.014  23.852  26.772  1.00  0.00     0.330 C 
ATOM      5  O   UNL A   1      38.984  24.386  27.871  1.00  0.00    -0.247 OA
BRANCH   4   6
ATOM      6  C   UNL A   1      37.848  23.928  25.868  1.00  0.00     0.095 C 
ATOM      7  C   UNL A   1      36.663  23.322  26.034  1.00  0.00     0.026 C 
BRANCH   7   8
ATOM      8  C   UNL A   1      35.564  23.489  25.126  1.00  0.00     0.028 A 
ATOM      9  C   UNL A   1      34.005  24.515  23.654  1.00  0.00     0.051 A 
ATOM     10  C   UNL A   1      33.632  23.192  23.572  1.00  0.00     0.079 A 
ATOM     11  C   UNL A   1      35.155  24.661  24.509  1.00  0.00     0.033 A 
ATOM     12  S   UNL A   1      34.539  22.194  24.614  1.00  0.00    -0.144 S 
BRANCH   9  13
ATOM     13  C   UNL A   1      33.421  25.596  22.886  1.00  0.00     0.252 C 
ATOM     14  N   UNL A   1      32.548  26.489  23.436  1.00  0.00    -0.347 N 
ATOM     15  H   UNL A   1      32.322  27.195  22.790  1.00  0.00     0.164 HD
ATOM     16  O   UNL A   1      33.760  25.783  21.717  1.00  0.00    -0.269 OA
BRANCH  14  17
ATOM     17  C   UNL A   1      31.837  26.709  24.720  1.00  0.00     0.038 C 
ATOM     18  C   UNL A   1      30.703  25.671  24.804  1.00  0.00     0.034 C 
ATOM     19  C   UNL A   1      32.671  26.651  26.017  1.00  0.00     0.028 C 
ATOM     20  C   UNL A   1      31.204  28.128  24.647  1.00  0.00     0.028 C 
ATOM     21  C   UNL A   1      33.731  27.744  26.116  1.00  0.00     0.002 C 
ATOM     22  C   UNL A   1      32.259  29.238  24.716  1.00  0.00     0.002 C 
ATOM     23  C   UNL A   1      33.114  29.130  25.974  1.00  0.00     0.000 C 
ENDBRANCH  14  17
ENDBRANCH   9  13
ENDBRANCH   7   8
ENDBRANCH   4   6
ENDBRANCH   3   4
ENDBRANCH   2   3
ENDBRANCH   1   2
BRANCH   1  24
ATOM     24  O   UNL A   1      42.237  20.693  27.268  1.00  0.00    -0.374 OA
BRANCH  24  25
ATOM     25  C   UNL A   1      42.048  19.281  27.154  1.00  0.00     0.202 C 
BRANCH  25  26
ATOM     26  C   UNL A   1      42.841  18.599  26.032  1.00  0.00     0.261 C 
BRANCH  26  27
ATOM     27  O   UNL A   1      43.009  19.468  24.896  1.00  0.00    -0.460 OA
BRANCH  27  28
ATOM     28  C   UNL A   1      44.292  19.661  24.510  1.00  0.00     0.338 C 
ATOM     29  O   UNL A   1      45.000  18.889  23.877  1.00  0.00    -0.246 OA
BRANCH  28  30
ATOM     30  C   UNL A   1      44.715  21.041  24.810  1.00  0.00     0.060 A 
ATOM     31  C   UNL A   1      45.345  21.266  26.040  1.00  0.00     0.016 A 
ATOM     32  C   UNL A   1      44.439  22.108  23.952  1.00  0.00     0.016 A 
ATOM     33  C   UNL A   1      45.651  22.565  26.442  1.00  0.00     0.010 A 
ATOM     34  C   UNL A   1      44.744  23.414  24.359  1.00  0.00     0.010 A 
ATOM     35  C   UNL A   1      45.316  23.651  25.623  1.00  0.00    -0.014 A 
BRANCH  35  36
ATOM     36  C   UNL A   1      45.441  25.028  26.164  1.00  0.00     0.031 A 
ATOM     37  C   UNL A   1      46.776  25.721  26.103  1.00  0.00     0.074 A 
ATOM     38  C   UNL A   1      44.365  25.679  26.640  1.00  0.00     0.049 A 
ATOM     39  N   UNL A   1      47.101  26.934  26.477  1.00  0.00    -0.248 NA
ATOM     40  C   UNL A   1      47.893  24.947  25.540  1.00  0.00     0.031 C 
ATOM     41  C   UNL A   1      43.013  25.129  26.719  1.00  0.00     0.029 A 
ATOM     42  N   UNL A   1      44.241  26.952  27.140  1.00  0.00    -0.354 N 
ATOM     43  C   UNL A   1      48.452  27.069  26.187  1.00  0.00     0.074 A 
ATOM     44  C   UNL A   1      48.898  25.804  25.644  1.00  0.00     0.031 C 
ATOM     45  C   UNL A   1      42.192  26.062  27.234  1.00  0.00     0.029 A 
ATOM     46  C   UNL A   1      42.966  27.263  27.543  1.00  0.00     0.049 A 
ATOM     47  H   UNL A   1      44.995  27.581  27.204  1.00  0.00     0.167 HD
ATOM     48  C   UNL A   1      49.246  28.156  26.341  1.00  0.00     0.037 A 
ATOM     49  C   UNL A   1      42.482  28.389  28.102  1.00  0.00     0.037 A 
ATOM     50  C   UNL A   1      48.807  29.415  26.884  1.00  0.00     0.049 A 
ATOM     51  C   UNL A   1      43.407  29.558  28.331  1.00  0.00     0.074 A 
ATOM     52  C   UNL A   1      49.538  30.573  27.082  1.00  0.00     0.029 A 
ATOM     53  N   UNL A   1      47.516  29.678  27.319  1.00  0.00    -0.354 N 
ATOM     54  N   UNL A   1      44.676  29.684  28.029  1.00  0.00    -0.248 NA
ATOM     55  C   UNL A   1      42.824  30.745  28.974  1.00  0.00     0.031 C 
ATOM     56  C   UNL A   1      48.701  31.524  27.675  1.00  0.00     0.029 A 
ATOM     57  C   UNL A   1      47.436  30.974  27.801  1.00  0.00     0.049 A 
ATOM     58  H   UNL A   1      46.769  29.039  27.289  1.00  0.00     0.167 HD
ATOM     59  C   UNL A   1      45.034  30.971  28.412  1.00  0.00     0.074 A 
ATOM     60  C   UNL A   1      43.844  31.591  28.954  1.00  0.00     0.031 C 
ATOM     61  C   UNL A   1      46.241  31.584  28.325  1.00  0.00     0.037 A 
BRANCH  48  62
ATOM     62  C   UNL A   1      50.682  28.031  25.923  1.00  0.00     0.064 A 
ATOM     63  C   UNL A   1      51.065  28.136  24.578  1.00  0.00     0.173 A 
ATOM     64  C   UNL A   1      51.691  27.854  26.882  1.00  0.00     0.173 A 
ATOM     65  F   UNL A   1      50.137  28.292  23.621  1.00  0.00    -0.203 F 
ATOM     66  C   UNL A   1      52.405  28.050  24.206  1.00  0.00     0.198 A 
ATOM     67  C   UNL A   1      53.030  27.795  26.509  1.00  0.00     0.198 A 
ATOM     68  F   UNL A   1      51.377  27.751  28.182  1.00  0.00    -0.203 F 
ATOM     69  F   UNL A   1      52.745  28.116  22.912  1.00  0.00    -0.200 F 
ATOM     70  C   UNL A   1      53.387  27.888  25.172  1.00  0.00     0.200 A 
ATOM     71  F   UNL A   1      53.980  27.650  27.445  1.00  0.00    -0.200 F 
ATOM     72  F   UNL A   1      54.676  27.817  24.814  1.00  0.00    -0.200 F 
ENDBRANCH  48  62
BRANCH  49  73
ATOM     73  C   UNL A   1      41.050  28.477  28.492  1.00  0.00     0.064 A 
ATOM     74  C   UNL A   1      40.085  28.960  27.598  1.00  0.00     0.173 A 
ATOM     75  C   UNL A   1      40.626  28.123  29.782  1.00  0.00     0.173 A 
ATOM     76  F   UNL A   1      40.445  29.337  26.362  1.00  0.00    -0.203 F 
ATOM     77  C   UNL A   1      38.755  29.111  27.986  1.00  0.00     0.198 A 
ATOM     78  C   UNL A   1      39.291  28.247  30.159  1.00  0.00     0.198 A 
ATOM     79  F   UNL A   1      41.510  27.658  30.676  1.00  0.00    -0.203 F 
ATOM     80  F   UNL A   1      37.864  29.631  27.130  1.00  0.00    -0.200 F 
ATOM     81  C   UNL A   1      38.358  28.751  29.265  1.00  0.00     0.200 A 
ATOM     82  F   UNL A   1      38.910  27.888  31.392  1.00  0.00    -0.200 F 
ATOM     83  F   UNL A   1      37.081  28.902  29.640  1.00  0.00    -0.200 F 
ENDBRANCH  49  73
BRANCH  61  84
ATOM     84  C   UNL A   1      46.323  33.010  28.787  1.00  0.00     0.064 A 
ATOM     85  C   UNL A   1      46.084  34.083  27.915  1.00  0.00     0.173 A 
ATOM     86  C   UNL A   1      46.621  33.306  30.126  1.00  0.00     0.173 A 
ATOM     87  F   UNL A   1      45.810  33.854  26.622  1.00  0.00    -0.203 F 
ATOM     88  C   UNL A   1      46.174  35.400  28.360  1.00  0.00     0.198 A 
ATOM     89  C   UNL A   1      46.678  34.624  30.573  1.00  0.00     0.198 A 
ATOM     90  F   UNL A   1      46.849  32.317  31.003  1.00  0.00    -0.203 F 
ATOM     91  F   UNL A   1      45.996  36.409  27.495  1.00  0.00    -0.200 F 
ATOM     92  C   UNL A   1      46.464  35.668  29.688  1.00  0.00     0.200 A 
ATOM     93  F   UNL A   1      46.945  34.881  31.861  1.00  0.00    -0.200 F 
ATOM     94  F   UNL A   1      46.548  36.937  30.114  1.00  0.00    -0.200 F 
ENDBRANCH  61  84
ENDBRANCH  35  36
ENDBRANCH  28  30
ENDBRANCH  27  28
ENDBRANCH  26  27
ENDBRANCH  25  26
ENDBRANCH  24  25
ENDBRANCH   1  24
TORSDOF 17
ENDMDL
MODEL 3
REMARK VINA RESULT:     -11.3      5.373     10.692
REMARK SMILES CC1(NC(=O)c2csc(/C=C/C(=O)OCCOCCOC(=O)c3ccc(-c4c5nc(c(-c6c(F)c(F)c(F)c(F)c6F)c6ccc([nH]6)c(-c6c(F)c(F)c(F)c(F)c6F)c6nc(c(-c7c(F)c(F)c(F)c(F)c7F)c7ccc4[nH]7)C=C6)C=C5)cc3)c2)CCCCC1
REMARK SMILES IDX 16 1 15 2 14 3 12 4 13 5 11 6 10 7 9 8 6 9 7 10 86 11 8 12
REMARK SMILES IDX 4 13 3 14 5 16 2 17 1 18 87 19 91 20 88 21 90 22 89 23 17 24
REMARK SMILES IDX 18 25 19 26 20 27 21 28 22 29 23 30 24 31 85 32 25 33 84 34
REMARK SMILES IDX 26 35 27 36 28 37 78 38 29 39 83 40 77 41 79 42 30 43 82 44
REMARK SMILES IDX 76 45 75 46 31 48 63 49 43 50 62 51 44 52 47 53 61 54 80 55
REMARK SMILES IDX 45 56 46 57 60 59 81 60 48 61 32 62 33 63 41 64 34 65 35 66
REMARK SMILES IDX 39 67 42 68 36 69 37 70 40 71 38 72 64 73 65 74 73 75 66 76
REMARK SMILES IDX 67 77 71 78 74 79 68 80 69 81 72 82 70 83 49 84 50 85 58 86
REMARK SMILES IDX 51 87 52 88 56 89 59 90 53 91 54 92 57 93 55 94
REMARK H PARENT 3 15 79 47 47 58
REMARK Flexibility Score: inf
ROOT
ATOM      1  C   UNL A   1      34.541  33.284  29.046  1.00  0.00     0.202 C 
ENDROOT
BRANCH   1   2
ATOM      2  C   UNL A   1      34.599  31.765  28.865  1.00  0.00     0.261 C 
BRANCH   2   3
ATOM      3  O   UNL A   1      34.943  31.391  27.518  1.00  0.00    -0.460 OA
BRANCH   3   4
ATOM      4  C   UNL A   1      35.554  30.187  27.404  1.00  0.00     0.330 C 
ATOM      5  O   UNL A   1      36.701  29.924  27.735  1.00  0.00    -0.247 OA
BRANCH   4   6
ATOM      6  C   UNL A   1      34.669  29.138  26.861  1.00  0.00     0.095 C 
ATOM      7  C   UNL A   1      33.361  28.980  27.112  1.00  0.00     0.026 C 
BRANCH   7   8
ATOM      8  C   UNL A   1      32.563  27.955  26.501  1.00  0.00     0.028 A 
ATOM      9  C   UNL A   1      31.650  25.816  26.012  1.00  0.00     0.051 A 
ATOM     10  C   UNL A   1      30.916  26.627  25.176  1.00  0.00     0.079 A 
ATOM     11  C   UNL A   1      32.554  26.603  26.810  1.00  0.00     0.033 A 
ATOM     12  S   UNL A   1      31.418  28.254  25.242  1.00  0.00    -0.144 S 
BRANCH   9  13
ATOM     13  C   UNL A   1      31.452  24.390  26.177  1.00  0.00     0.252 C 
ATOM     14  N   UNL A   1      31.932  23.481  25.279  1.00  0.00    -0.347 N 
ATOM     15  H   UNL A   1      31.773  22.563  25.596  1.00  0.00     0.164 HD
ATOM     16  O   UNL A   1      30.900  23.950  27.186  1.00  0.00    -0.269 OA
BRANCH  14  17
ATOM     17  C   UNL A   1      32.620  23.467  23.965  1.00  0.00     0.038 C 
ATOM     18  C   UNL A   1      31.563  23.769  22.886  1.00  0.00     0.034 C 
ATOM     19  C   UNL A   1      33.819  24.420  23.776  1.00  0.00     0.028 C 
ATOM     20  C   UNL A   1      33.149  22.020  23.749  1.00  0.00     0.028 C 
ATOM     21  C   UNL A   1      35.000  24.111  24.692  1.00  0.00     0.002 C 
ATOM     22  C   UNL A   1      34.317  21.683  24.682  1.00  0.00     0.002 C 
ATOM     23  C   UNL A   1      35.469  22.671  24.526  1.00  0.00     0.000 C 
ENDBRANCH  14  17
ENDBRANCH   9  13
ENDBRANCH   7   8
ENDBRANCH   4   6
ENDBRANCH   3   4
ENDBRANCH   2   3
ENDBRANCH   1   2
BRANCH   1  24
ATOM     24  O   UNL A   1      33.958  33.741  30.263  1.00  0.00    -0.374 OA
BRANCH  24  25
ATOM     25  C   UNL A   1      34.863  34.140  31.296  1.00  0.00     0.202 C 
BRANCH  25  26
ATOM     26  C   UNL A   1      34.743  33.363  32.612  1.00  0.00     0.261 C 
BRANCH  26  27
ATOM     27  O   UNL A   1      35.348  32.059  32.518  1.00  0.00    -0.460 OA
BRANCH  27  28
ATOM     28  C   UNL A   1      36.542  31.938  33.142  1.00  0.00     0.338 C 
ATOM     29  O   UNL A   1      36.792  32.174  34.317  1.00  0.00    -0.246 OA
BRANCH  28  30
ATOM     30  C   UNL A   1      37.526  31.302  32.247  1.00  0.00     0.060 A 
ATOM     31  C   UNL A   1      38.461  30.439  32.831  1.00  0.00     0.016 A 
ATOM     32  C   UNL A   1      37.590  31.593  30.882  1.00  0.00     0.016 A 
ATOM     33  C   UNL A   1      39.498  29.909  32.065  1.00  0.00     0.010 A 
ATOM     34  C   UNL A   1      38.635  31.063  30.114  1.00  0.00     0.010 A 
ATOM     35  C   UNL A   1      39.616  30.250  30.711  1.00  0.00    -0.014 A 
BRANCH  35  36
ATOM     36  C   UNL A   1      40.845  29.862  29.975  1.00  0.00     0.031 A 
ATOM     37  C   UNL A   1      40.941  28.481  29.383  1.00  0.00     0.074 A 
ATOM     38  C   UNL A   1      41.835  30.750  29.775  1.00  0.00     0.049 A 
ATOM     39  N   UNL A   1      41.900  27.947  28.669  1.00  0.00    -0.248 NA
ATOM     40  C   UNL A   1      39.801  27.582  29.625  1.00  0.00     0.031 C 
ATOM     41  C   UNL A   1      41.844  32.126  30.265  1.00  0.00     0.029 A 
ATOM     42  N   UNL A   1      43.022  30.626  29.096  1.00  0.00    -0.354 N 
ATOM     43  C   UNL A   1      41.476  26.659  28.369  1.00  0.00     0.074 A 
ATOM     44  C   UNL A   1      40.193  26.475  29.012  1.00  0.00     0.031 C 
ATOM     45  C   UNL A   1      42.982  32.724  29.867  1.00  0.00     0.029 A 
ATOM     46  C   UNL A   1      43.790  31.764  29.116  1.00  0.00     0.049 A 
ATOM     47  H   UNL A   1      43.296  29.799  28.638  1.00  0.00     0.167 HD
ATOM     48  C   UNL A   1      42.091  25.720  27.611  1.00  0.00     0.037 A 
ATOM     49  C   UNL A   1      45.008  31.999  28.593  1.00  0.00     0.037 A 
ATOM     50  C   UNL A   1      43.369  25.898  26.973  1.00  0.00     0.049 A 
ATOM     51  C   UNL A   1      45.703  30.910  27.816  1.00  0.00     0.074 A 
ATOM     52  C   UNL A   1      44.075  25.004  26.186  1.00  0.00     0.029 A 
ATOM     53  N   UNL A   1      44.135  27.052  27.051  1.00  0.00    -0.354 N 
ATOM     54  N   UNL A   1      45.281  29.705  27.517  1.00  0.00    -0.248 NA
ATOM     55  C   UNL A   1      47.043  31.220  27.297  1.00  0.00     0.031 C 
ATOM     56  C   UNL A   1      45.286  25.601  25.824  1.00  0.00     0.029 A 
ATOM     57  C   UNL A   1      45.313  26.885  26.343  1.00  0.00     0.049 A 
ATOM     58  H   UNL A   1      43.879  27.868  27.537  1.00  0.00     0.167 HD
ATOM     59  C   UNL A   1      46.286  29.128  26.749  1.00  0.00     0.074 A 
ATOM     60  C   UNL A   1      47.331  30.120  26.616  1.00  0.00     0.031 C 
ATOM     61  C   UNL A   1      46.339  27.886  26.206  1.00  0.00     0.037 A 
BRANCH  48  62
ATOM     62  C   UNL A   1      41.392  24.404  27.434  1.00  0.00     0.064 A 
ATOM     63  C   UNL A   1      40.242  24.286  26.639  1.00  0.00     0.173 A 
ATOM     64  C   UNL A   1      41.904  23.239  28.025  1.00  0.00     0.173 A 
ATOM     65  F   UNL A   1      39.705  25.373  26.064  1.00  0.00    -0.203 F 
ATOM     66  C   UNL A   1      39.621  23.053  26.457  1.00  0.00     0.198 A 
ATOM     67  C   UNL A   1      41.296  22.004  27.818  1.00  0.00     0.198 A 
ATOM     68  F   UNL A   1      43.004  23.297  28.791  1.00  0.00    -0.203 F 
ATOM     69  F   UNL A   1      38.502  22.970  25.724  1.00  0.00    -0.200 F 
ATOM     70  C   UNL A   1      40.152  21.912  27.039  1.00  0.00     0.200 A 
ATOM     71  F   UNL A   1      41.817  20.900  28.373  1.00  0.00    -0.200 F 
ATOM     72  F   UNL A   1      39.560  20.725  26.854  1.00  0.00    -0.200 F 
ENDBRANCH  48  62
BRANCH  49  73
ATOM     73  C   UNL A   1      45.663  33.321  28.781  1.00  0.00     0.064 A 
ATOM     74  C   UNL A   1      46.454  33.583  29.907  1.00  0.00     0.173 A 
ATOM     75  C   UNL A   1      45.473  34.362  27.861  1.00  0.00     0.173 A 
ATOM     76  F   UNL A   1      46.643  32.628  30.830  1.00  0.00    -0.203 F 
ATOM     77  C   UNL A   1      47.008  34.844  30.121  1.00  0.00     0.198 A 
ATOM     78  C   UNL A   1      46.052  35.613  28.059  1.00  0.00     0.198 A 
ATOM     79  F   UNL A   1      44.722  34.164  26.767  1.00  0.00    -0.203 F 
ATOM     80  F   UNL A   1      47.712  35.085  31.236  1.00  0.00    -0.200 F 
ATOM     81  C   UNL A   1      46.810  35.857  29.195  1.00  0.00     0.200 A 
ATOM     82  F   UNL A   1      45.866  36.586  27.158  1.00  0.00    -0.200 F 
ATOM     83  F   UNL A   1      47.338  37.070  29.403  1.00  0.00    -0.200 F 
ENDBRANCH  49  73
BRANCH  61  84
ATOM     84  C   UNL A   1      47.548  27.548  25.381  1.00  0.00     0.064 A 
ATOM     85  C   UNL A   1      48.717  27.036  25.961  1.00  0.00     0.173 A 
ATOM     86  C   UNL A   1      47.525  27.717  23.988  1.00  0.00     0.173 A 
ATOM     87  F   UNL A   1      48.794  26.870  27.290  1.00  0.00    -0.203 F 
ATOM     88  C   UNL A   1      49.831  26.736  25.181  1.00  0.00     0.198 A 
ATOM     89  C   UNL A   1      48.631  27.386  23.208  1.00  0.00     0.198 A 
ATOM     90  F   UNL A   1      46.428  28.195  23.382  1.00  0.00    -0.203 F 
ATOM     91  F   UNL A   1      50.956  26.300  25.765  1.00  0.00    -0.200 F 
ATOM     92  C   UNL A   1      49.785  26.906  23.807  1.00  0.00     0.200 A 
ATOM     93  F   UNL A   1      48.579  27.538  21.878  1.00  0.00    -0.200 F 
ATOM     94  F   UNL A   1      50.858  26.615  23.058  1.00  0.00    -0.200 F 
ENDBRANCH  61  84
ENDBRANCH  35  36
ENDBRANCH  28  30
ENDBRANCH  27  28
ENDBRANCH  26  27
ENDBRANCH  25  26
ENDBRANCH  24  25
ENDBRANCH   1  24
TORSDOF 17
ENDMDL
