MODEL 1
REMARK VINA RESULT:     -13.9      0.000      0.000
REMARK SMILES Cc1cc(/C=C2/C(=O)NC(=S)N=C2OCCOCCOC(=O)c2ccc(-c3c4nc(c(-c5c(F)c(F)c(F)c(F)c5F)c5ccc([nH]5)c(-c5c(F)c(F)c(F)c(F)c5F)c5nc(c(-c6c(F)c(F)c(F)c(F)c6F)c6ccc3[nH]6)C=C5)C=C4)cc2)c(C)n1-c1cccc(C(=O)[O-])c1
REMARK SMILES IDX 17 1 16 2 15 3 14 4 13 5 5 6 6 7 7 8 8 9 9 10 12 11 10 12
REMARK SMILES IDX 11 14 4 15 1 16 2 17 3 18 88 19 86 20 87 21 89 22 90 23
REMARK SMILES IDX 97 24 91 25 93 26 92 27 94 28 95 29 96 30 18 31 19 32 20 33
REMARK SMILES IDX 21 34 22 35 23 36 24 37 85 38 25 39 84 40 26 41 27 42 28 43
REMARK SMILES IDX 78 44 29 45 83 46 77 47 79 48 30 49 82 50 76 51 75 52 31 54
REMARK SMILES IDX 63 55 43 56 62 57 44 58 47 59 61 60 80 61 45 62 46 63 60 65
REMARK SMILES IDX 81 66 48 67 32 68 33 69 41 70 34 71 35 72 39 73 42 74 36 75
REMARK SMILES IDX 37 76 40 77 38 78 64 79 65 80 73 81 66 82 67 83 71 84 74 85
REMARK SMILES IDX 68 86 69 87 72 88 70 89 49 90 50 91 58 92 51 93 52 94 56 95
REMARK SMILES IDX 59 96 53 97 54 98 57 99 55 100
REMARK H PARENT 9 13 79 53 47 64
REMARK Flexibility Score: inf
ROOT
ATOM      1  O   UNL A   1      35.653  23.046  25.407  1.00  0.00    -0.374 OA
ENDROOT
BRANCH   1   2
ATOM      2  C   UNL A   1      34.563  22.601  26.232  1.00  0.00     0.202 C 
BRANCH   2   3
ATOM      3  C   UNL A   1      34.308  21.066  26.374  1.00  0.00     0.260 C 
BRANCH   3   4
ATOM      4  O   UNL A   1      32.963  20.656  26.006  1.00  0.00    -0.475 OA
BRANCH   4   5
ATOM      5  C   UNL A   1      32.806  19.587  25.225  1.00  0.00     0.229 C 
ATOM      6  C   UNL A   1      32.520  20.997  22.988  1.00  0.00     0.029 C 
ATOM      7  C   UNL A   1      32.617  19.883  23.772  1.00  0.00     0.103 C 
ATOM      8  C   UNL A   1      32.388  18.601  22.997  1.00  0.00     0.262 C 
ATOM      9  O   UNL A   1      32.183  18.549  21.787  1.00  0.00    -0.269 OA
ATOM     10  N   UNL A   1      32.383  17.443  23.727  1.00  0.00    -0.297 N 
ATOM     11  N   UNL A   1      32.809  18.434  25.792  1.00  0.00    -0.184 NA
ATOM     12  C   UNL A   1      32.584  17.314  25.068  1.00  0.00     0.203 C 
ATOM     13  H   UNL A   1      32.214  16.611  23.227  1.00  0.00     0.172 HD
ATOM     14  S   UNL A   1      32.518  15.784  25.745  1.00  0.00    -0.038 S 
BRANCH   6  15
ATOM     15  C   UNL A   1      32.545  22.453  23.088  1.00  0.00    -0.003 A 
ATOM     16  C   UNL A   1      33.185  25.864  21.606  1.00  0.00     0.065 C 
ATOM     17  C   UNL A   1      32.879  24.636  22.382  1.00  0.00     0.020 A 
ATOM     18  C   UNL A   1      33.125  23.300  22.078  1.00  0.00     0.031 A 
ATOM     19  N   UNL A   1      32.306  24.659  23.633  1.00  0.00    -0.318 N 
ATOM     20  C   UNL A   1      31.948  23.353  23.945  1.00  0.00     0.027 A 
ATOM     21  C   UNL A   1      30.901  23.179  24.949  1.00  0.00     0.065 C 
BRANCH  19  22
ATOM     22  C   UNL A   1      31.838  25.760  24.422  1.00  0.00     0.046 A 
ATOM     23  C   UNL A   1      30.645  26.385  23.999  1.00  0.00     0.026 A 
ATOM     24  C   UNL A   1      32.746  26.458  25.227  1.00  0.00     0.036 A 
ATOM     25  C   UNL A   1      30.428  27.739  24.250  1.00  0.00     0.003 A 
ATOM     26  C   UNL A   1      32.496  27.812  25.510  1.00  0.00    -0.001 A 
ATOM     27  C   UNL A   1      31.365  28.458  24.985  1.00  0.00     0.010 A 
BRANCH  26  28
ATOM     28  C   UNL A   1      33.447  28.643  26.289  1.00  0.00     0.072 C 
ATOM     29  O   UNL A   1      34.425  28.248  26.878  1.00  0.00    -0.545 OA
ATOM     30  O   UNL A   1      33.150  29.955  26.220  1.00  0.00    -0.545 OA
ENDBRANCH  26  28
ENDBRANCH  19  22
ENDBRANCH   6  15
ENDBRANCH   4   5
ENDBRANCH   3   4
ENDBRANCH   2   3
ENDBRANCH   1   2
BRANCH   1  31
ATOM     31  C   UNL A   1      36.173  22.212  24.345  1.00  0.00     0.202 C 
BRANCH  31  32
ATOM     32  C   UNL A   1      37.514  21.436  24.616  1.00  0.00     0.261 C 
BRANCH  32  33
ATOM     33  O   UNL A   1      38.041  21.293  26.018  1.00  0.00    -0.460 OA
BRANCH  33  34
ATOM     34  C   UNL A   1      39.334  21.737  26.223  1.00  0.00     0.338 C 
ATOM     35  O   UNL A   1      40.289  21.021  25.913  1.00  0.00    -0.246 OA
BRANCH  34  36
ATOM     36  C   UNL A   1      39.662  23.124  26.894  1.00  0.00     0.060 A 
ATOM     37  C   UNL A   1      38.885  24.187  26.445  1.00  0.00     0.016 A 
ATOM     38  C   UNL A   1      40.641  23.561  27.816  1.00  0.00     0.016 A 
ATOM     39  C   UNL A   1      39.076  25.549  26.876  1.00  0.00     0.010 A 
ATOM     40  C   UNL A   1      40.789  25.000  28.305  1.00  0.00     0.010 A 
ATOM     41  C   UNL A   1      39.984  26.072  27.865  1.00  0.00    -0.014 A 
BRANCH  41  42
ATOM     42  C   UNL A   1      39.739  27.661  28.413  1.00  0.00     0.031 A 
ATOM     43  C   UNL A   1      41.002  28.349  28.041  1.00  0.00     0.074 A 
ATOM     44  C   UNL A   1      38.967  28.566  29.188  1.00  0.00     0.049 A 
ATOM     45  N   UNL A   1      42.014  28.180  28.824  1.00  0.00    -0.248 NA
ATOM     46  C   UNL A   1      41.336  28.873  26.719  1.00  0.00     0.031 C 
ATOM     47  C   UNL A   1      37.733  28.327  29.957  1.00  0.00     0.029 A 
ATOM     48  N   UNL A   1      39.165  29.973  29.540  1.00  0.00    -0.354 N 
ATOM     49  C   UNL A   1      43.144  28.459  28.105  1.00  0.00     0.074 A 
ATOM     50  C   UNL A   1      42.671  28.966  26.826  1.00  0.00     0.031 C 
ATOM     51  C   UNL A   1      37.237  29.473  30.528  1.00  0.00     0.029 A 
ATOM     52  C   UNL A   1      38.111  30.629  30.301  1.00  0.00     0.049 A 
ATOM     53  H   UNL A   1      39.979  30.459  29.272  1.00  0.00     0.167 HD
ATOM     54  C   UNL A   1      44.260  28.678  28.845  1.00  0.00     0.037 A 
ATOM     55  C   UNL A   1      37.973  31.935  30.813  1.00  0.00     0.037 A 
ATOM     56  C   UNL A   1      44.243  30.055  29.259  1.00  0.00     0.049 A 
ATOM     57  C   UNL A   1      39.325  32.459  31.044  1.00  0.00     0.074 A 
ATOM     58  C   UNL A   1      43.945  31.201  28.547  1.00  0.00     0.029 A 
ATOM     59  N   UNL A   1      43.945  30.315  30.580  1.00  0.00    -0.354 N 
ATOM     60  N   UNL A   1      40.002  32.109  32.094  1.00  0.00    -0.248 NA
ATOM     61  C   UNL A   1      39.925  33.525  30.246  1.00  0.00     0.031 C 
ATOM     62  C   UNL A   1      42.957  31.833  29.332  1.00  0.00     0.029 A 
ATOM     63  C   UNL A   1      42.990  31.305  30.619  1.00  0.00     0.049 A 
ATOM     64  H   UNL A   1      44.345  29.869  31.360  1.00  0.00     0.167 HD
ATOM     65  C   UNL A   1      41.267  32.458  31.766  1.00  0.00     0.074 A 
ATOM     66  C   UNL A   1      41.133  33.549  30.818  1.00  0.00     0.031 C 
ATOM     67  C   UNL A   1      42.164  31.444  31.790  1.00  0.00     0.037 A 
BRANCH  54  68
ATOM     68  C   UNL A   1      44.554  27.518  29.788  1.00  0.00     0.064 A 
ATOM     69  C   UNL A   1      44.677  26.236  29.245  1.00  0.00     0.173 A 
ATOM     70  C   UNL A   1      44.554  27.604  31.202  1.00  0.00     0.173 A 
ATOM     71  F   UNL A   1      44.763  26.078  27.916  1.00  0.00    -0.203 F 
ATOM     72  C   UNL A   1      44.704  25.101  30.062  1.00  0.00     0.198 A 
ATOM     73  C   UNL A   1      44.483  26.471  32.008  1.00  0.00     0.198 A 
ATOM     74  F   UNL A   1      44.644  28.785  31.833  1.00  0.00    -0.203 F 
ATOM     75  F   UNL A   1      44.856  23.888  29.515  1.00  0.00    -0.200 F 
ATOM     76  C   UNL A   1      44.554  25.217  31.436  1.00  0.00     0.200 A 
ATOM     77  F   UNL A   1      44.343  26.604  33.335  1.00  0.00    -0.200 F 
ATOM     78  F   UNL A   1      44.505  24.125  32.211  1.00  0.00    -0.200 F 
ENDBRANCH  54  68
BRANCH  55  79
ATOM     79  C   UNL A   1      36.981  32.982  31.461  1.00  0.00     0.064 A 
ATOM     80  C   UNL A   1      36.135  33.839  30.659  1.00  0.00     0.173 A 
ATOM     81  C   UNL A   1      36.502  32.831  32.772  1.00  0.00     0.173 A 
ATOM     82  F   UNL A   1      36.440  34.133  29.388  1.00  0.00    -0.203 F 
ATOM     83  C   UNL A   1      34.904  34.378  31.090  1.00  0.00     0.198 A 
ATOM     84  C   UNL A   1      35.278  33.410  33.217  1.00  0.00     0.198 A 
ATOM     85  F   UNL A   1      37.153  32.033  33.628  1.00  0.00    -0.203 F 
ATOM     86  F   UNL A   1      34.120  35.054  30.232  1.00  0.00    -0.200 F 
ATOM     87  C   UNL A   1      34.467  34.150  32.371  1.00  0.00     0.200 A 
ATOM     88  F   UNL A   1      34.846  33.180  34.466  1.00  0.00    -0.200 F 
ATOM     89  F   UNL A   1      33.268  34.605  32.773  1.00  0.00    -0.200 F 
ENDBRANCH  55  79
BRANCH  67  90
ATOM     90  C   UNL A   1      42.046  30.456  32.946  1.00  0.00     0.064 A 
ATOM     91  C   UNL A   1      41.521  29.137  32.896  1.00  0.00     0.173 A 
ATOM     92  C   UNL A   1      42.397  30.918  34.221  1.00  0.00     0.173 A 
ATOM     93  F   UNL A   1      41.258  28.513  31.741  1.00  0.00    -0.203 F 
ATOM     94  C   UNL A   1      41.267  28.395  34.054  1.00  0.00     0.198 A 
ATOM     95  C   UNL A   1      42.200  30.150  35.370  1.00  0.00     0.198 A 
ATOM     96  F   UNL A   1      42.955  32.130  34.360  1.00  0.00    -0.203 F 
ATOM     97  F   UNL A   1      40.693  27.186  33.967  1.00  0.00    -0.200 F 
ATOM     98  C   UNL A   1      41.607  28.903  35.292  1.00  0.00     0.200 A 
ATOM     99  F   UNL A   1      42.588  30.631  36.558  1.00  0.00    -0.200 F 
ATOM    100  F   UNL A   1      41.383  28.189  36.403  1.00  0.00    -0.200 F 
ENDBRANCH  67  90
ENDBRANCH  41  42
ENDBRANCH  34  36
ENDBRANCH  33  34
ENDBRANCH  32  33
ENDBRANCH  31  32
ENDBRANCH   1  31
TORSDOF 16
ENDMDL
MODEL 2
REMARK VINA RESULT:     -13.7      3.448      9.107
REMARK SMILES Cc1cc(/C=C2/C(=O)NC(=S)N=C2OCCOCCOC(=O)c2ccc(-c3c4nc(c(-c5c(F)c(F)c(F)c(F)c5F)c5ccc([nH]5)c(-c5c(F)c(F)c(F)c(F)c5F)c5nc(c(-c6c(F)c(F)c(F)c(F)c6F)c6ccc3[nH]6)C=C5)C=C4)cc2)c(C)n1-c1cccc(C(=O)[O-])c1
REMARK SMILES IDX 17 1 16 2 15 3 14 4 13 5 5 6 6 7 7 8 8 9 9 10 12 11 10 12
REMARK SMILES IDX 11 14 4 15 1 16 2 17 3 18 88 19 86 20 87 21 89 22 90 23
REMARK SMILES IDX 97 24 91 25 93 26 92 27 94 28 95 29 96 30 18 31 19 32 20 33
REMARK SMILES IDX 21 34 22 35 23 36 24 37 85 38 25 39 84 40 26 41 27 42 28 43
REMARK SMILES IDX 78 44 29 45 83 46 77 47 79 48 30 49 82 50 76 51 75 52 31 54
REMARK SMILES IDX 63 55 43 56 62 57 44 58 47 59 61 60 80 61 45 62 46 63 60 65
REMARK SMILES IDX 81 66 48 67 32 68 33 69 41 70 34 71 35 72 39 73 42 74 36 75
REMARK SMILES IDX 37 76 40 77 38 78 64 79 65 80 73 81 66 82 67 83 71 84 74 85
REMARK SMILES IDX 68 86 69 87 72 88 70 89 49 90 50 91 58 92 51 93 52 94 56 95
REMARK SMILES IDX 59 96 53 97 54 98 57 99 55 100
REMARK H PARENT 9 13 79 53 47 64
REMARK Flexibility Score: inf
ROOT
ATOM      1  O   UNL A   1      31.647  28.504  25.655  1.00  0.00    -0.374 OA
ENDROOT
BRANCH   1   2
ATOM      2  C   UNL A   1      32.563  28.499  24.547  1.00  0.00     0.202 C 
BRANCH   2   3
ATOM      3  C   UNL A   1      32.173  29.274  23.248  1.00  0.00     0.260 C 
BRANCH   3   4
ATOM      4  O   UNL A   1      31.206  28.578  22.416  1.00  0.00    -0.475 OA
BRANCH   4   5
ATOM      5  C   UNL A   1      29.953  29.031  22.368  1.00  0.00     0.229 C 
ATOM      6  C   UNL A   1      28.965  27.090  23.895  1.00  0.00     0.029 C 
ATOM      7  C   UNL A   1      28.957  28.231  23.143  1.00  0.00     0.103 C 
ATOM      8  C   UNL A   1      27.564  28.803  22.964  1.00  0.00     0.262 C 
ATOM      9  O   UNL A   1      26.550  28.331  23.471  1.00  0.00    -0.269 OA
ATOM     10  N   UNL A   1      27.459  29.899  22.150  1.00  0.00    -0.297 N 
ATOM     11  N   UNL A   1      29.727  30.076  21.653  1.00  0.00    -0.184 NA
ATOM     12  C   UNL A   1      28.469  30.546  21.504  1.00  0.00     0.203 C 
ATOM     13  H   UNL A   1      26.552  30.260  22.017  1.00  0.00     0.172 HD
ATOM     14  S   UNL A   1      28.091  31.867  20.547  1.00  0.00    -0.038 S 
BRANCH   6  15
ATOM     15  C   UNL A   1      29.879  26.053  24.359  1.00  0.00    -0.003 A 
ATOM     16  C   UNL A   1      30.861  23.361  26.816  1.00  0.00     0.065 C 
ATOM     17  C   UNL A   1      30.673  24.371  25.743  1.00  0.00     0.020 A 
ATOM     18  C   UNL A   1      29.746  25.404  25.638  1.00  0.00     0.031 A 
ATOM     19  N   UNL A   1      31.490  24.457  24.639  1.00  0.00    -0.318 N 
ATOM     20  C   UNL A   1      30.885  25.334  23.748  1.00  0.00     0.027 A 
ATOM     21  C   UNL A   1      31.265  25.212  22.343  1.00  0.00     0.065 C 
BRANCH  19  22
ATOM     22  C   UNL A   1      32.594  23.638  24.233  1.00  0.00     0.046 A 
ATOM     23  C   UNL A   1      32.322  22.273  23.995  1.00  0.00     0.026 A 
ATOM     24  C   UNL A   1      33.897  24.049  24.538  1.00  0.00     0.036 A 
ATOM     25  C   UNL A   1      33.306  21.308  24.206  1.00  0.00     0.003 A 
ATOM     26  C   UNL A   1      34.893  23.071  24.706  1.00  0.00    -0.001 A 
ATOM     27  C   UNL A   1      34.585  21.706  24.584  1.00  0.00     0.010 A 
BRANCH  26  28
ATOM     28  C   UNL A   1      36.278  23.417  25.106  1.00  0.00     0.072 C 
ATOM     29  O   UNL A   1      36.658  23.668  26.225  1.00  0.00    -0.545 OA
ATOM     30  O   UNL A   1      37.137  23.357  24.070  1.00  0.00    -0.545 OA
ENDBRANCH  26  28
ENDBRANCH  19  22
ENDBRANCH   6  15
ENDBRANCH   4   5
ENDBRANCH   3   4
ENDBRANCH   2   3
ENDBRANCH   1   2
BRANCH   1  31
ATOM     31  C   UNL A   1      32.012  29.103  26.922  1.00  0.00     0.202 C 
BRANCH  31  32
ATOM     32  C   UNL A   1      32.091  30.673  26.991  1.00  0.00     0.261 C 
BRANCH  32  33
ATOM     33  O   UNL A   1      33.366  31.387  26.633  1.00  0.00    -0.460 OA
BRANCH  33  34
ATOM     34  C   UNL A   1      34.127  31.829  27.698  1.00  0.00     0.338 C 
ATOM     35  O   UNL A   1      33.736  32.776  28.385  1.00  0.00    -0.246 OA
BRANCH  34  36
ATOM     36  C   UNL A   1      35.527  31.205  28.062  1.00  0.00     0.060 A 
ATOM     37  C   UNL A   1      35.553  29.815  28.100  1.00  0.00     0.016 A 
ATOM     38  C   UNL A   1      36.775  31.749  28.443  1.00  0.00     0.016 A 
ATOM     39  C   UNL A   1      36.713  29.051  28.486  1.00  0.00     0.010 A 
ATOM     40  C   UNL A   1      38.011  30.922  28.790  1.00  0.00     0.010 A 
ATOM     41  C   UNL A   1      38.040  29.511  28.806  1.00  0.00    -0.014 A 
BRANCH  41  42
ATOM     42  C   UNL A   1      39.289  28.362  28.877  1.00  0.00     0.031 A 
ATOM     43  C   UNL A   1      39.740  28.435  30.290  1.00  0.00     0.074 A 
ATOM     44  C   UNL A   1      40.182  27.504  28.183  1.00  0.00     0.049 A 
ATOM     45  N   UNL A   1      40.540  29.400  30.601  1.00  0.00    -0.248 NA
ATOM     46  C   UNL A   1      39.099  27.786  31.430  1.00  0.00     0.031 C 
ATOM     47  C   UNL A   1      40.300  27.242  26.738  1.00  0.00     0.029 A 
ATOM     48  N   UNL A   1      41.301  26.676  28.638  1.00  0.00    -0.354 N 
ATOM     49  C   UNL A   1      40.455  29.589  31.953  1.00  0.00     0.074 A 
ATOM     50  C   UNL A   1      39.610  28.510  32.440  1.00  0.00     0.031 C 
ATOM     51  C   UNL A   1      41.247  26.291  26.449  1.00  0.00     0.029 A 
ATOM     52  C   UNL A   1      41.964  25.841  27.647  1.00  0.00     0.049 A 
ATOM     53  H   UNL A   1      41.593  26.682  29.578  1.00  0.00     0.167 HD
ATOM     54  C   UNL A   1      41.469  30.305  32.501  1.00  0.00     0.037 A 
ATOM     55  C   UNL A   1      43.056  24.953  27.721  1.00  0.00     0.037 A 
ATOM     56  C   UNL A   1      42.557  29.400  32.746  1.00  0.00     0.049 A 
ATOM     57  C   UNL A   1      43.911  25.403  28.828  1.00  0.00     0.074 A 
ATOM     58  C   UNL A   1      42.561  28.130  33.290  1.00  0.00     0.029 A 
ATOM     59  N   UNL A   1      43.648  29.479  31.906  1.00  0.00    -0.354 N 
ATOM     60  N   UNL A   1      44.722  26.402  28.674  1.00  0.00    -0.248 NA
ATOM     61  C   UNL A   1      44.055  24.674  30.085  1.00  0.00     0.031 C 
ATOM     62  C   UNL A   1      43.249  27.358  32.328  1.00  0.00     0.029 A 
ATOM     63  C   UNL A   1      43.965  28.206  31.489  1.00  0.00     0.049 A 
ATOM     64  H   UNL A   1      44.119  30.304  31.647  1.00  0.00     0.167 HD
ATOM     65  C   UNL A   1      45.019  26.748  29.949  1.00  0.00     0.074 A 
ATOM     66  C   UNL A   1      44.854  25.533  30.725  1.00  0.00     0.031 C 
ATOM     67  C   UNL A   1      44.722  28.027  30.278  1.00  0.00     0.037 A 
BRANCH  54  68
ATOM     68  C   UNL A   1      41.636  31.661  31.826  1.00  0.00     0.064 A 
ATOM     69  C   UNL A   1      40.543  32.533  31.808  1.00  0.00     0.173 A 
ATOM     70  C   UNL A   1      42.766  32.055  31.068  1.00  0.00     0.173 A 
ATOM     71  F   UNL A   1      39.466  32.270  32.562  1.00  0.00    -0.203 F 
ATOM     72  C   UNL A   1      40.542  33.680  31.007  1.00  0.00     0.198 A 
ATOM     73  C   UNL A   1      42.726  33.142  30.199  1.00  0.00     0.198 A 
ATOM     74  F   UNL A   1      43.937  31.408  31.168  1.00  0.00    -0.203 F 
ATOM     75  F   UNL A   1      39.494  34.514  31.036  1.00  0.00    -0.200 F 
ATOM     76  C   UNL A   1      41.611  33.954  30.166  1.00  0.00     0.200 A 
ATOM     77  F   UNL A   1      43.771  33.393  29.397  1.00  0.00    -0.200 F 
ATOM     78  F   UNL A   1      41.577  35.012  29.344  1.00  0.00    -0.200 F 
ENDBRANCH  54  68
BRANCH  55  79
ATOM     79  C   UNL A   1      43.868  23.821  26.974  1.00  0.00     0.064 A 
ATOM     80  C   UNL A   1      43.421  22.445  26.944  1.00  0.00     0.173 A 
ATOM     81  C   UNL A   1      44.757  24.119  25.929  1.00  0.00     0.173 A 
ATOM     82  F   UNL A   1      42.593  21.957  27.878  1.00  0.00    -0.203 F 
ATOM     83  C   UNL A   1      43.739  21.523  25.925  1.00  0.00     0.198 A 
ATOM     84  C   UNL A   1      45.108  23.173  24.923  1.00  0.00     0.198 A 
ATOM     85  F   UNL A   1      45.229  25.364  25.795  1.00  0.00    -0.203 F 
ATOM     86  F   UNL A   1      43.171  20.304  25.909  1.00  0.00    -0.200 F 
ATOM     87  C   UNL A   1      44.575  21.893  24.901  1.00  0.00     0.200 A 
ATOM     88  F   UNL A   1      45.918  23.537  23.917  1.00  0.00    -0.200 F 
ATOM     89  F   UNL A   1      44.834  21.044  23.893  1.00  0.00    -0.200 F 
ENDBRANCH  55  79
BRANCH  67  90
ATOM     90  C   UNL A   1      45.035  29.092  29.232  1.00  0.00     0.064 A 
ATOM     91  C   UNL A   1      44.119  29.721  28.349  1.00  0.00     0.173 A 
ATOM     92  C   UNL A   1      46.382  29.423  29.040  1.00  0.00     0.173 A 
ATOM     93  F   UNL A   1      42.792  29.602  28.488  1.00  0.00    -0.203 F 
ATOM     94  C   UNL A   1      44.544  30.528  27.289  1.00  0.00     0.198 A 
ATOM     95  C   UNL A   1      46.799  30.279  28.019  1.00  0.00     0.198 A 
ATOM     96  F   UNL A   1      47.316  28.922  29.863  1.00  0.00    -0.203 F 
ATOM     97  F   UNL A   1      43.650  31.037  26.428  1.00  0.00    -0.200 F 
ATOM     98  C   UNL A   1      45.886  30.807  27.125  1.00  0.00     0.200 A 
ATOM     99  F   UNL A   1      48.098  30.588  27.907  1.00  0.00    -0.200 F 
ATOM    100  F   UNL A   1      46.298  31.595  26.122  1.00  0.00    -0.200 F 
ENDBRANCH  67  90
ENDBRANCH  41  42
ENDBRANCH  34  36
ENDBRANCH  33  34
ENDBRANCH  32  33
ENDBRANCH  31  32
ENDBRANCH   1  31
TORSDOF 16
ENDMDL
MODEL 3
REMARK VINA RESULT:     -13.3      2.026      4.799
REMARK SMILES Cc1cc(/C=C2/C(=O)NC(=S)N=C2OCCOCCOC(=O)c2ccc(-c3c4nc(c(-c5c(F)c(F)c(F)c(F)c5F)c5ccc([nH]5)c(-c5c(F)c(F)c(F)c(F)c5F)c5nc(c(-c6c(F)c(F)c(F)c(F)c6F)c6ccc3[nH]6)C=C5)C=C4)cc2)c(C)n1-c1cccc(C(=O)[O-])c1
REMARK SMILES IDX 17 1 16 2 15 3 14 4 13 5 5 6 6 7 7 8 8 9 9 10 12 11 10 12
REMARK SMILES IDX 11 14 4 15 1 16 2 17 3 18 88 19 86 20 87 21 89 22 90 23
REMARK SMILES IDX 97 24 91 25 93 26 92 27 94 28 95 29 96 30 18 31 19 32 20 33
REMARK SMILES IDX 21 34 22 35 23 36 24 37 85 38 25 39 84 40 26 41 27 42 28 43
REMARK SMILES IDX 78 44 29 45 83 46 77 47 79 48 30 49 82 50 76 51 75 52 31 54
REMARK SMILES IDX 63 55 43 56 62 57 44 58 47 59 61 60 80 61 45 62 46 63 60 65
REMARK SMILES IDX 81 66 48 67 32 68 33 69 41 70 34 71 35 72 39 73 42 74 36 75
REMARK SMILES IDX 37 76 40 77 38 78 64 79 65 80 73 81 66 82 67 83 71 84 74 85
REMARK SMILES IDX 68 86 69 87 72 88 70 89 49 90 50 91 58 92 51 93 52 94 56 95
REMARK SMILES IDX 59 96 53 97 54 98 57 99 55 100
REMARK H PARENT 9 13 79 53 47 64
REMARK Flexibility Score: inf
ROOT
ATOM      1  O   UNL A   1      36.161  21.884  24.487  1.00  0.00    -0.374 OA
ENDROOT
BRANCH   1   2
ATOM      2  C   UNL A   1      35.706  23.025  23.740  1.00  0.00     0.202 C 
BRANCH   2   3
ATOM      3  C   UNL A   1      35.037  24.209  24.511  1.00  0.00     0.260 C 
BRANCH   3   4
ATOM      4  O   UNL A   1      33.882  24.774  23.835  1.00  0.00    -0.475 OA
BRANCH   4   5
ATOM      5  C   UNL A   1      33.044  25.547  24.527  1.00  0.00     0.229 C 
ATOM      6  C   UNL A   1      31.594  23.518  25.451  1.00  0.00     0.029 C 
ATOM      7  C   UNL A   1      31.985  24.817  25.287  1.00  0.00     0.103 C 
ATOM      8  C   UNL A   1      31.060  25.797  25.981  1.00  0.00     0.262 C 
ATOM      9  O   UNL A   1      30.089  25.474  26.659  1.00  0.00    -0.269 OA
ATOM     10  N   UNL A   1      31.334  27.125  25.793  1.00  0.00    -0.297 N 
ATOM     11  N   UNL A   1      33.214  26.819  24.453  1.00  0.00    -0.184 NA
ATOM     12  C   UNL A   1      32.358  27.662  25.072  1.00  0.00     0.203 C 
ATOM     13  H   UNL A   1      30.722  27.764  26.227  1.00  0.00     0.172 HD
ATOM     14  S   UNL A   1      32.483  29.329  24.977  1.00  0.00    -0.038 S 
BRANCH   6  15
ATOM     15  C   UNL A   1      31.950  22.170  25.020  1.00  0.00    -0.003 A 
ATOM     16  C   UNL A   1      32.317  19.538  22.340  1.00  0.00     0.065 C 
ATOM     17  C   UNL A   1      32.244  20.410  23.540  1.00  0.00     0.020 A 
ATOM     18  C   UNL A   1      31.670  21.668  23.700  1.00  0.00     0.031 A 
ATOM     19  N   UNL A   1      32.735  20.039  24.771  1.00  0.00    -0.318 N 
ATOM     20  C   UNL A   1      32.718  21.170  25.577  1.00  0.00     0.027 A 
ATOM     21  C   UNL A   1      33.626  21.177  26.722  1.00  0.00     0.065 C 
BRANCH  19  22
ATOM     22  C   UNL A   1      33.437  18.856  25.174  1.00  0.00     0.046 A 
ATOM     23  C   UNL A   1      34.745  18.688  24.672  1.00  0.00     0.026 A 
ATOM     24  C   UNL A   1      32.705  17.744  25.609  1.00  0.00     0.036 A 
ATOM     25  C   UNL A   1      35.265  17.411  24.464  1.00  0.00     0.003 A 
ATOM     26  C   UNL A   1      33.256  16.463  25.434  1.00  0.00    -0.001 A 
ATOM     27  C   UNL A   1      34.510  16.298  24.823  1.00  0.00     0.010 A 
BRANCH  26  28
ATOM     28  C   UNL A   1      32.514  15.230  25.794  1.00  0.00     0.072 C 
ATOM     29  O   UNL A   1      31.405  15.176  26.271  1.00  0.00    -0.545 OA
ATOM     30  O   UNL A   1      33.191  14.114  25.462  1.00  0.00    -0.545 OA
ENDBRANCH  26  28
ENDBRANCH  19  22
ENDBRANCH   6  15
ENDBRANCH   4   5
ENDBRANCH   3   4
ENDBRANCH   2   3
ENDBRANCH   1   2
BRANCH   1  31
ATOM     31  C   UNL A   1      37.097  22.035  25.581  1.00  0.00     0.202 C 
BRANCH  31  32
ATOM     32  C   UNL A   1      38.362  21.098  25.594  1.00  0.00     0.261 C 
BRANCH  32  33
ATOM     33  O   UNL A   1      39.744  21.688  25.679  1.00  0.00    -0.460 OA
BRANCH  33  34
ATOM     34  C   UNL A   1      40.210  21.945  26.954  1.00  0.00     0.338 C 
ATOM     35  O   UNL A   1      40.422  21.013  27.734  1.00  0.00    -0.246 OA
BRANCH  34  36
ATOM     36  C   UNL A   1      40.443  23.406  27.497  1.00  0.00     0.060 A 
ATOM     37  C   UNL A   1      39.469  24.327  27.127  1.00  0.00     0.016 A 
ATOM     38  C   UNL A   1      41.480  24.027  28.229  1.00  0.00     0.016 A 
ATOM     39  C   UNL A   1      39.535  25.729  27.455  1.00  0.00     0.010 A 
ATOM     40  C   UNL A   1      41.502  25.503  28.619  1.00  0.00     0.010 A 
ATOM     41  C   UNL A   1      40.502  26.430  28.261  1.00  0.00    -0.014 A 
BRANCH  41  42
ATOM     42  C   UNL A   1      40.127  28.009  28.764  1.00  0.00     0.031 A 
ATOM     43  C   UNL A   1      41.390  28.753  28.522  1.00  0.00     0.074 A 
ATOM     44  C   UNL A   1      39.237  28.881  29.442  1.00  0.00     0.049 A 
ATOM     45  N   UNL A   1      42.319  28.635  29.410  1.00  0.00    -0.248 NA
ATOM     46  C   UNL A   1      41.840  29.285  27.238  1.00  0.00     0.031 C 
ATOM     47  C   UNL A   1      37.939  28.590  30.077  1.00  0.00     0.029 A 
ATOM     48  N   UNL A   1      39.331  30.299  29.799  1.00  0.00    -0.354 N 
ATOM     49  C   UNL A   1      43.506  28.962  28.814  1.00  0.00     0.074 A 
ATOM     50  C   UNL A   1      43.151  29.440  27.486  1.00  0.00     0.031 C 
ATOM     51  C   UNL A   1      37.333  29.715  30.580  1.00  0.00     0.029 A 
ATOM     52  C   UNL A   1      38.173  30.909  30.436  1.00  0.00     0.049 A 
ATOM     53  H   UNL A   1      40.146  30.820  29.615  1.00  0.00     0.167 HD
ATOM     54  C   UNL A   1      44.525  29.237  29.667  1.00  0.00     0.037 A 
ATOM     55  C   UNL A   1      37.921  32.209  30.917  1.00  0.00     0.037 A 
ATOM     56  C   UNL A   1      44.401  30.613  30.062  1.00  0.00     0.049 A 
ATOM     57  C   UNL A   1      39.215  32.797  31.286  1.00  0.00     0.074 A 
ATOM     58  C   UNL A   1      44.130  31.740  29.311  1.00  0.00     0.029 A 
ATOM     59  N   UNL A   1      43.951  30.866  31.341  1.00  0.00    -0.354 N 
ATOM     60  N   UNL A   1      39.791  32.484  32.406  1.00  0.00    -0.248 NA
ATOM     61  C   UNL A   1      39.849  33.885  30.546  1.00  0.00     0.031 C 
ATOM     62  C   UNL A   1      43.035  32.330  29.980  1.00  0.00     0.029 A 
ATOM     63  C   UNL A   1      42.953  31.811  31.268  1.00  0.00     0.049 A 
ATOM     64  H   UNL A   1      44.285  30.443  32.164  1.00  0.00     0.167 HD
ATOM     65  C   UNL A   1      41.067  32.889  32.212  1.00  0.00     0.074 A 
ATOM     66  C   UNL A   1      40.986  33.968  31.244  1.00  0.00     0.031 C 
ATOM     67  C   UNL A   1      42.001  31.918  32.342  1.00  0.00     0.037 A 
BRANCH  54  68
ATOM     68  C   UNL A   1      44.768  28.097  30.648  1.00  0.00     0.064 A 
ATOM     69  C   UNL A   1      44.916  26.803  30.139  1.00  0.00     0.173 A 
ATOM     70  C   UNL A   1      44.697  28.212  32.058  1.00  0.00     0.173 A 
ATOM     71  F   UNL A   1      45.069  26.617  28.819  1.00  0.00    -0.203 F 
ATOM     72  C   UNL A   1      44.898  25.685  30.980  1.00  0.00     0.198 A 
ATOM     73  C   UNL A   1      44.582  27.096  32.882  1.00  0.00     0.198 A 
ATOM     74  F   UNL A   1      44.757  29.406  32.668  1.00  0.00    -0.203 F 
ATOM     75  F   UNL A   1      45.076  24.460  30.467  1.00  0.00    -0.200 F 
ATOM     76  C   UNL A   1      44.679  25.830  32.342  1.00  0.00     0.200 A 
ATOM     77  F   UNL A   1      44.375  27.257  34.198  1.00  0.00    -0.200 F 
ATOM     78  F   UNL A   1      44.589  24.754  33.136  1.00  0.00    -0.200 F 
ENDBRANCH  54  68
BRANCH  55  79
ATOM     79  C   UNL A   1      36.819  33.213  31.445  1.00  0.00     0.064 A 
ATOM     80  C   UNL A   1      35.988  33.985  30.546  1.00  0.00     0.173 A 
ATOM     81  C   UNL A   1      36.248  33.078  32.720  1.00  0.00     0.173 A 
ATOM     82  F   UNL A   1      36.374  34.253  29.291  1.00  0.00    -0.203 F 
ATOM     83  C   UNL A   1      34.696  34.458  30.859  1.00  0.00     0.198 A 
ATOM     84  C   UNL A   1      34.960  33.592  33.046  1.00  0.00     0.198 A 
ATOM     85  F   UNL A   1      36.877  32.354  33.654  1.00  0.00    -0.203 F 
ATOM     86  F   UNL A   1      33.943  35.052  29.917  1.00  0.00    -0.200 F 
ATOM     87  C   UNL A   1      34.174  34.249  32.111  1.00  0.00     0.200 A 
ATOM     88  F   UNL A   1      34.445  33.380  34.267  1.00  0.00    -0.200 F 
ATOM     89  F   UNL A   1      32.922  34.640  32.401  1.00  0.00    -0.200 F 
ENDBRANCH  55  79
BRANCH  67  90
ATOM     90  C   UNL A   1      41.805  30.932  33.489  1.00  0.00     0.064 A 
ATOM     91  C   UNL A   1      42.060  31.159  34.867  1.00  0.00     0.173 A 
ATOM     92  C   UNL A   1      41.429  29.625  33.152  1.00  0.00     0.173 A 
ATOM     93  F   UNL A   1      42.307  32.379  35.359  1.00  0.00    -0.203 F 
ATOM     94  C   UNL A   1      42.045  30.122  35.806  1.00  0.00     0.198 A 
ATOM     95  C   UNL A   1      41.354  28.605  34.102  1.00  0.00     0.198 A 
ATOM     96  F   UNL A   1      41.111  29.329  31.883  1.00  0.00    -0.203 F 
ATOM     97  F   UNL A   1      42.374  30.365  37.084  1.00  0.00    -0.200 F 
ATOM     98  C   UNL A   1      41.693  28.844  35.422  1.00  0.00     0.200 A 
ATOM     99  F   UNL A   1      40.954  27.383  33.727  1.00  0.00    -0.200 F 
ATOM    100  F   UNL A   1      41.659  27.851  36.320  1.00  0.00    -0.200 F 
ENDBRANCH  67  90
ENDBRANCH  41  42
ENDBRANCH  34  36
ENDBRANCH  33  34
ENDBRANCH  32  33
ENDBRANCH  31  32
ENDBRANCH   1  31
TORSDOF 16
ENDMDL
