MODEL 1
REMARK VINA RESULT:     -12.3      0.000      0.000
REMARK SMILES Cc1ccc(C(=O)N[C@@H]2C=C[C@H](C(=O)OCCOCCOC(=O)c3ccc(-c4c5nc(c(-c6c(F)c(F)c(F)c(F)c6F)c6ccc([nH]6)c(-c6c(F)c(F)c(F)c(F)c6F)c6nc(c(-c7c(F)c(F)c(F)c(F)c7F)c7ccc4[nH]7)C=C6)C=C5)cc3)C2)c(F)c1
REMARK SMILES IDX 18 1 17 2 16 3 15 4 13 5 14 6 12 7 9 8 10 9 87 10 11 11 8 12
REMARK SMILES IDX 6 13 7 14 5 16 1 17 2 18 3 19 90 20 4 21 88 22 89 23 19 24
REMARK SMILES IDX 20 25 21 26 22 27 23 28 24 29 25 30 86 31 26 32 85 33 27 34
REMARK SMILES IDX 28 35 29 36 79 37 30 38 84 39 78 40 80 41 31 42 83 43 77 44
REMARK SMILES IDX 76 45 32 47 64 48 44 49 63 50 45 51 48 52 62 53 81 54 46 55
REMARK SMILES IDX 47 56 61 58 82 59 49 60 33 61 34 62 42 63 35 64 36 65 40 66
REMARK SMILES IDX 43 67 37 68 38 69 41 70 39 71 65 72 66 73 74 74 67 75 68 76
REMARK SMILES IDX 72 77 75 78 69 79 70 80 73 81 71 82 50 83 51 84 59 85 52 86
REMARK SMILES IDX 53 87 57 88 60 89 54 90 55 91 58 92 56 93
REMARK H PARENT 8 15 80 46 48 57
REMARK Flexibility Score: inf
ROOT
ATOM      1  O   UNL A   1      33.670  31.566  27.028  1.00  0.00    -0.374 OA
ENDROOT
BRANCH   1   2
ATOM      2  C   UNL A   1      33.445  30.182  26.798  1.00  0.00     0.202 C 
BRANCH   2   3
ATOM      3  C   UNL A   1      32.747  29.745  25.498  1.00  0.00     0.261 C 
BRANCH   3   4
ATOM      4  O   UNL A   1      32.789  28.335  25.196  1.00  0.00    -0.463 OA
BRANCH   4   5
ATOM      5  C   UNL A   1      31.568  27.730  25.090  1.00  0.00     0.312 C 
ATOM      6  O   UNL A   1      30.645  28.164  24.413  1.00  0.00    -0.252 OA
BRANCH   5   7
ATOM      7  C   UNL A   1      31.467  26.495  25.992  1.00  0.00     0.124 C 
ATOM      8  C   UNL A   1      32.211  24.258  25.193  1.00  0.00     0.106 C 
ATOM      9  C   UNL A   1      30.738  24.455  25.050  1.00  0.00    -0.006 C 
ATOM     10  C   UNL A   1      32.658  25.524  25.946  1.00  0.00     0.048 C 
ATOM     11  C   UNL A   1      30.330  25.634  25.524  1.00  0.00    -0.014 C 
BRANCH   8  12
ATOM     12  N   UNL A   1      32.792  24.047  23.881  1.00  0.00    -0.346 N 
ATOM     13  C   UNL A   1      33.922  23.372  23.466  1.00  0.00     0.254 C 
ATOM     14  O   UNL A   1      34.052  23.157  22.263  1.00  0.00    -0.269 OA
ATOM     15  H   UNL A   1      32.283  24.464  23.148  1.00  0.00     0.164 HD
BRANCH  13  16
ATOM     16  C   UNL A   1      35.022  23.019  24.401  1.00  0.00     0.075 A 
ATOM     17  C   UNL A   1      38.837  21.681  25.857  1.00  0.00     0.044 C 
ATOM     18  C   UNL A   1      37.460  22.151  25.497  1.00  0.00    -0.048 A 
ATOM     19  C   UNL A   1      37.167  23.515  25.409  1.00  0.00     0.004 A 
ATOM     20  C   UNL A   1      36.451  21.227  25.217  1.00  0.00     0.043 A 
ATOM     21  C   UNL A   1      35.944  23.947  24.886  1.00  0.00     0.017 A 
ATOM     22  C   UNL A   1      35.239  21.662  24.675  1.00  0.00     0.136 A 
ATOM     23  F   UNL A   1      34.379  20.720  24.259  1.00  0.00    -0.206 F 
ENDBRANCH  13  16
ENDBRANCH   8  12
ENDBRANCH   5   7
ENDBRANCH   4   5
ENDBRANCH   3   4
ENDBRANCH   2   3
ENDBRANCH   1   2
BRANCH   1  24
ATOM     24  C   UNL A   1      33.947  32.010  28.349  1.00  0.00     0.202 C 
BRANCH  24  25
ATOM     25  C   UNL A   1      35.310  32.630  28.611  1.00  0.00     0.261 C 
BRANCH  25  26
ATOM     26  O   UNL A   1      35.997  32.027  29.702  1.00  0.00    -0.460 OA
BRANCH  26  27
ATOM     27  C   UNL A   1      37.177  31.501  29.331  1.00  0.00     0.338 C 
ATOM     28  O   UNL A   1      38.275  32.024  29.370  1.00  0.00    -0.246 OA
BRANCH  27  29
ATOM     29  C   UNL A   1      36.958  30.153  28.767  1.00  0.00     0.060 A 
ATOM     30  C   UNL A   1      37.085  29.178  29.767  1.00  0.00     0.016 A 
ATOM     31  C   UNL A   1      37.615  30.042  27.540  1.00  0.00     0.016 A 
ATOM     32  C   UNL A   1      38.230  28.411  29.758  1.00  0.00     0.010 A 
ATOM     33  C   UNL A   1      38.759  29.283  27.530  1.00  0.00     0.010 A 
ATOM     34  C   UNL A   1      39.108  28.574  28.687  1.00  0.00    -0.014 A 
BRANCH  34  35
ATOM     35  C   UNL A   1      40.445  28.029  28.716  1.00  0.00     0.031 A 
ATOM     36  C   UNL A   1      40.594  26.600  28.441  1.00  0.00     0.074 A 
ATOM     37  C   UNL A   1      41.495  28.817  29.024  1.00  0.00     0.049 A 
ATOM     38  N   UNL A   1      41.563  25.875  28.869  1.00  0.00    -0.248 NA
ATOM     39  C   UNL A   1      39.570  25.849  27.728  1.00  0.00     0.031 C 
ATOM     40  C   UNL A   1      42.908  28.491  28.883  1.00  0.00     0.029 A 
ATOM     41  N   UNL A   1      41.474  30.015  29.752  1.00  0.00    -0.354 N 
ATOM     42  C   UNL A   1      41.449  24.643  28.272  1.00  0.00     0.074 A 
ATOM     43  C   UNL A   1      40.140  24.645  27.662  1.00  0.00     0.031 C 
ATOM     44  C   UNL A   1      43.619  29.292  29.691  1.00  0.00     0.029 A 
ATOM     45  C   UNL A   1      42.671  30.048  30.491  1.00  0.00     0.049 A 
ATOM     46  H   UNL A   1      40.762  30.696  29.748  1.00  0.00     0.167 HD
ATOM     47  C   UNL A   1      42.549  23.839  28.242  1.00  0.00     0.037 A 
ATOM     48  C   UNL A   1      42.663  30.064  31.853  1.00  0.00     0.037 A 
ATOM     49  C   UNL A   1      43.637  24.431  29.021  1.00  0.00     0.049 A 
ATOM     50  C   UNL A   1      43.381  28.891  32.476  1.00  0.00     0.074 A 
ATOM     51  C   UNL A   1      44.736  25.196  28.663  1.00  0.00     0.029 A 
ATOM     52  N   UNL A   1      43.496  24.572  30.400  1.00  0.00    -0.354 N 
ATOM     53  N   UNL A   1      43.542  27.733  31.897  1.00  0.00    -0.248 NA
ATOM     54  C   UNL A   1      43.989  28.947  33.799  1.00  0.00     0.031 C 
ATOM     55  C   UNL A   1      45.255  25.802  29.834  1.00  0.00     0.029 A 
ATOM     56  C   UNL A   1      44.484  25.391  30.908  1.00  0.00     0.049 A 
ATOM     57  H   UNL A   1      42.790  24.144  30.937  1.00  0.00     0.167 HD
ATOM     58  C   UNL A   1      44.274  26.906  32.719  1.00  0.00     0.074 A 
ATOM     59  C   UNL A   1      44.536  27.722  33.890  1.00  0.00     0.031 C 
ATOM     60  C   UNL A   1      44.606  25.630  32.342  1.00  0.00     0.037 A 
BRANCH  47  61
ATOM     61  C   UNL A   1      42.741  22.718  27.240  1.00  0.00     0.064 A 
ATOM     62  C   UNL A   1      42.059  21.491  27.403  1.00  0.00     0.173 A 
ATOM     63  C   UNL A   1      43.639  22.743  26.159  1.00  0.00     0.173 A 
ATOM     64  F   UNL A   1      41.082  21.345  28.307  1.00  0.00    -0.203 F 
ATOM     65  C   UNL A   1      42.356  20.358  26.641  1.00  0.00     0.198 A 
ATOM     66  C   UNL A   1      43.978  21.597  25.431  1.00  0.00     0.198 A 
ATOM     67  F   UNL A   1      44.175  23.886  25.718  1.00  0.00    -0.203 F 
ATOM     68  F   UNL A   1      41.685  19.217  26.856  1.00  0.00    -0.200 F 
ATOM     69  C   UNL A   1      43.346  20.400  25.683  1.00  0.00     0.200 A 
ATOM     70  F   UNL A   1      44.922  21.669  24.481  1.00  0.00    -0.200 F 
ATOM     71  F   UNL A   1      43.666  19.302  24.984  1.00  0.00    -0.200 F 
ENDBRANCH  47  61
BRANCH  48  72
ATOM     72  C   UNL A   1      41.500  30.771  32.447  1.00  0.00     0.064 A 
ATOM     73  C   UNL A   1      41.549  32.175  32.553  1.00  0.00     0.173 A 
ATOM     74  C   UNL A   1      40.251  30.157  32.596  1.00  0.00     0.173 A 
ATOM     75  F   UNL A   1      42.721  32.815  32.403  1.00  0.00    -0.203 F 
ATOM     76  C   UNL A   1      40.394  32.934  32.738  1.00  0.00     0.198 A 
ATOM     77  C   UNL A   1      39.094  30.919  32.779  1.00  0.00     0.198 A 
ATOM     78  F   UNL A   1      40.135  28.826  32.486  1.00  0.00    -0.203 F 
ATOM     79  F   UNL A   1      40.472  34.272  32.767  1.00  0.00    -0.200 F 
ATOM     80  C   UNL A   1      39.164  32.304  32.839  1.00  0.00     0.200 A 
ATOM     81  F   UNL A   1      37.900  30.312  32.846  1.00  0.00    -0.200 F 
ATOM     82  F   UNL A   1      38.045  33.032  32.966  1.00  0.00    -0.200 F 
ENDBRANCH  48  72
BRANCH  60  83
ATOM     83  C   UNL A   1      45.192  24.510  33.196  1.00  0.00     0.064 A 
ATOM     84  C   UNL A   1      44.529  23.325  33.551  1.00  0.00     0.173 A 
ATOM     85  C   UNL A   1      46.554  24.561  33.611  1.00  0.00     0.173 A 
ATOM     86  F   UNL A   1      43.292  23.052  33.127  1.00  0.00    -0.203 F 
ATOM     87  C   UNL A   1      45.141  22.320  34.315  1.00  0.00     0.198 A 
ATOM     88  C   UNL A   1      47.179  23.532  34.316  1.00  0.00     0.198 A 
ATOM     89  F   UNL A   1      47.350  25.600  33.321  1.00  0.00    -0.203 F 
ATOM     90  F   UNL A   1      44.435  21.234  34.662  1.00  0.00    -0.200 F 
ATOM     91  C   UNL A   1      46.466  22.418  34.687  1.00  0.00     0.200 A 
ATOM     92  F   UNL A   1      48.483  23.625  34.612  1.00  0.00    -0.200 F 
ATOM     93  F   UNL A   1      47.057  21.432  35.376  1.00  0.00    -0.200 F 
ENDBRANCH  60  83
ENDBRANCH  34  35
ENDBRANCH  27  29
ENDBRANCH  26  27
ENDBRANCH  25  26
ENDBRANCH  24  25
ENDBRANCH   1  24
TORSDOF 16
ENDMDL
MODEL 2
REMARK VINA RESULT:     -12.2      3.541     10.096
REMARK SMILES Cc1ccc(C(=O)N[C@@H]2C=C[C@H](C(=O)OCCOCCOC(=O)c3ccc(-c4c5nc(c(-c6c(F)c(F)c(F)c(F)c6F)c6ccc([nH]6)c(-c6c(F)c(F)c(F)c(F)c6F)c6nc(c(-c7c(F)c(F)c(F)c(F)c7F)c7ccc4[nH]7)C=C6)C=C5)cc3)C2)c(F)c1
REMARK SMILES IDX 18 1 17 2 16 3 15 4 13 5 14 6 12 7 9 8 10 9 87 10 11 11 8 12
REMARK SMILES IDX 6 13 7 14 5 16 1 17 2 18 3 19 90 20 4 21 88 22 89 23 19 24
REMARK SMILES IDX 20 25 21 26 22 27 23 28 24 29 25 30 86 31 26 32 85 33 27 34
REMARK SMILES IDX 28 35 29 36 79 37 30 38 84 39 78 40 80 41 31 42 83 43 77 44
REMARK SMILES IDX 76 45 32 47 64 48 44 49 63 50 45 51 48 52 62 53 81 54 46 55
REMARK SMILES IDX 47 56 61 58 82 59 49 60 33 61 34 62 42 63 35 64 36 65 40 66
REMARK SMILES IDX 43 67 37 68 38 69 41 70 39 71 65 72 66 73 74 74 67 75 68 76
REMARK SMILES IDX 72 77 75 78 69 79 70 80 73 81 71 82 50 83 51 84 59 85 52 86
REMARK SMILES IDX 53 87 57 88 60 89 54 90 55 91 58 92 56 93
REMARK H PARENT 8 15 80 46 48 57
REMARK Flexibility Score: inf
ROOT
ATOM      1  O   UNL A   1      39.329  21.625  26.565  1.00  0.00    -0.374 OA
ENDROOT
BRANCH   1   2
ATOM      2  C   UNL A   1      38.497  21.274  25.469  1.00  0.00     0.202 C 
BRANCH   2   3
ATOM      3  C   UNL A   1      37.158  22.009  25.282  1.00  0.00     0.261 C 
BRANCH   3   4
ATOM      4  O   UNL A   1      36.082  21.237  24.711  1.00  0.00    -0.463 OA
BRANCH   4   5
ATOM      5  C   UNL A   1      34.887  21.893  24.616  1.00  0.00     0.312 C 
ATOM      6  O   UNL A   1      33.813  21.415  24.960  1.00  0.00    -0.252 OA
BRANCH   5   7
ATOM      7  C   UNL A   1      35.042  23.260  23.942  1.00  0.00     0.124 C 
ATOM      8  C   UNL A   1      33.437  25.107  24.403  1.00  0.00     0.106 C 
ATOM      9  C   UNL A   1      33.109  24.365  23.150  1.00  0.00    -0.006 C 
ATOM     10  C   UNL A   1      34.780  24.487  24.831  1.00  0.00     0.048 C 
ATOM     11  C   UNL A   1      33.997  23.406  22.875  1.00  0.00    -0.014 C 
BRANCH   8  12
ATOM     12  N   UNL A   1      32.336  24.974  25.337  1.00  0.00    -0.346 N 
ATOM     13  C   UNL A   1      31.500  25.904  25.922  1.00  0.00     0.254 C 
ATOM     14  O   UNL A   1      30.498  25.490  26.500  1.00  0.00    -0.269 OA
ATOM     15  H   UNL A   1      32.149  24.045  25.603  1.00  0.00     0.164 HD
BRANCH  13  16
ATOM     16  C   UNL A   1      31.840  27.350  25.979  1.00  0.00     0.075 A 
ATOM     17  C   UNL A   1      31.413  31.605  26.402  1.00  0.00     0.044 C 
ATOM     18  C   UNL A   1      31.707  30.148  26.208  1.00  0.00    -0.048 A 
ATOM     19  C   UNL A   1      32.219  29.373  27.254  1.00  0.00     0.004 A 
ATOM     20  C   UNL A   1      31.449  29.534  24.980  1.00  0.00     0.043 A 
ATOM     21  C   UNL A   1      32.308  27.983  27.131  1.00  0.00     0.017 A 
ATOM     22  C   UNL A   1      31.518  28.143  24.869  1.00  0.00     0.136 A 
ATOM     23  F   UNL A   1      31.086  27.597  23.723  1.00  0.00    -0.206 F 
ENDBRANCH  13  16
ENDBRANCH   8  12
ENDBRANCH   5   7
ENDBRANCH   4   5
ENDBRANCH   3   4
ENDBRANCH   2   3
ENDBRANCH   1   2
BRANCH   1  24
ATOM     24  C   UNL A   1      40.628  21.052  26.657  1.00  0.00     0.202 C 
BRANCH  24  25
ATOM     25  C   UNL A   1      41.777  21.975  27.026  1.00  0.00     0.261 C 
BRANCH  25  26
ATOM     26  O   UNL A   1      41.664  23.268  26.444  1.00  0.00    -0.460 OA
BRANCH  26  27
ATOM     27  C   UNL A   1      41.443  24.223  27.364  1.00  0.00     0.338 C 
ATOM     28  O   UNL A   1      42.101  24.474  28.356  1.00  0.00    -0.246 OA
BRANCH  27  29
ATOM     29  C   UNL A   1      40.185  24.928  27.046  1.00  0.00     0.060 A 
ATOM     30  C   UNL A   1      40.448  26.087  26.301  1.00  0.00     0.016 A 
ATOM     31  C   UNL A   1      39.356  24.946  28.170  1.00  0.00     0.016 A 
ATOM     32  C   UNL A   1      40.335  27.295  26.955  1.00  0.00     0.010 A 
ATOM     33  C   UNL A   1      39.246  26.147  28.826  1.00  0.00     0.010 A 
ATOM     34  C   UNL A   1      39.845  27.281  28.260  1.00  0.00    -0.014 A 
BRANCH  34  35
ATOM     35  C   UNL A   1      39.940  28.439  29.116  1.00  0.00     0.031 A 
ATOM     36  C   UNL A   1      38.940  29.492  28.937  1.00  0.00     0.074 A 
ATOM     37  C   UNL A   1      40.942  28.542  30.013  1.00  0.00     0.049 A 
ATOM     38  N   UNL A   1      39.124  30.728  29.233  1.00  0.00    -0.248 NA
ATOM     39  C   UNL A   1      37.661  29.227  28.292  1.00  0.00     0.031 C 
ATOM     40  C   UNL A   1      41.059  29.518  31.089  1.00  0.00     0.029 A 
ATOM     41  N   UNL A   1      42.187  27.899  29.974  1.00  0.00    -0.354 N 
ATOM     42  C   UNL A   1      37.919  31.369  29.085  1.00  0.00     0.074 A 
ATOM     43  C   UNL A   1      37.074  30.421  28.397  1.00  0.00     0.031 C 
ATOM     44  C   UNL A   1      42.347  29.606  31.454  1.00  0.00     0.029 A 
ATOM     45  C   UNL A   1      43.116  28.806  30.516  1.00  0.00     0.049 A 
ATOM     46  H   UNL A   1      42.373  26.994  29.634  1.00  0.00     0.167 HD
ATOM     47  C   UNL A   1      37.748  32.569  29.708  1.00  0.00     0.037 A 
ATOM     48  C   UNL A   1      44.153  29.286  29.774  1.00  0.00     0.037 A 
ATOM     49  C   UNL A   1      39.003  33.013  30.317  1.00  0.00     0.049 A 
ATOM     50  C   UNL A   1      44.149  30.789  29.630  1.00  0.00     0.074 A 
ATOM     51  C   UNL A   1      39.502  32.917  31.607  1.00  0.00     0.029 A 
ATOM     52  N   UNL A   1      40.086  33.331  29.501  1.00  0.00    -0.354 N 
ATOM     53  N   UNL A   1      43.081  31.535  29.709  1.00  0.00    -0.248 NA
ATOM     54  C   UNL A   1      45.361  31.566  29.402  1.00  0.00     0.031 C 
ATOM     55  C   UNL A   1      40.894  33.177  31.563  1.00  0.00     0.029 A 
ATOM     56  C   UNL A   1      41.240  33.449  30.251  1.00  0.00     0.049 A 
ATOM     57  H   UNL A   1      40.035  33.456  28.527  1.00  0.00     0.167 HD
ATOM     58  C   UNL A   1      43.434  32.859  29.575  1.00  0.00     0.074 A 
ATOM     59  C   UNL A   1      44.873  32.819  29.397  1.00  0.00     0.031 C 
ATOM     60  C   UNL A   1      42.500  33.861  29.642  1.00  0.00     0.037 A 
BRANCH  47  61
ATOM     61  C   UNL A   1      36.391  33.150  30.052  1.00  0.00     0.064 A 
ATOM     62  C   UNL A   1      35.594  33.745  29.049  1.00  0.00     0.173 A 
ATOM     63  C   UNL A   1      35.854  33.240  31.349  1.00  0.00     0.173 A 
ATOM     64  F   UNL A   1      35.903  33.637  27.751  1.00  0.00    -0.203 F 
ATOM     65  C   UNL A   1      34.442  34.481  29.340  1.00  0.00     0.198 A 
ATOM     66  C   UNL A   1      34.733  34.021  31.650  1.00  0.00     0.198 A 
ATOM     67  F   UNL A   1      36.349  32.525  32.364  1.00  0.00    -0.203 F 
ATOM     68  F   UNL A   1      33.738  35.036  28.344  1.00  0.00    -0.200 F 
ATOM     69  C   UNL A   1      34.035  34.654  30.646  1.00  0.00     0.200 A 
ATOM     70  F   UNL A   1      34.336  34.149  32.924  1.00  0.00    -0.200 F 
ATOM     71  F   UNL A   1      32.958  35.398  30.931  1.00  0.00    -0.200 F 
ENDBRANCH  47  61
BRANCH  48  72
ATOM     72  C   UNL A   1      44.674  28.329  28.766  1.00  0.00     0.064 A 
ATOM     73  C   UNL A   1      45.585  27.340  29.185  1.00  0.00     0.173 A 
ATOM     74  C   UNL A   1      44.065  28.157  27.518  1.00  0.00     0.173 A 
ATOM     75  F   UNL A   1      46.186  27.451  30.381  1.00  0.00    -0.203 F 
ATOM     76  C   UNL A   1      45.828  26.201  28.420  1.00  0.00     0.198 A 
ATOM     77  C   UNL A   1      44.308  27.013  26.752  1.00  0.00     0.198 A 
ATOM     78  F   UNL A   1      43.174  29.054  27.071  1.00  0.00    -0.203 F 
ATOM     79  F   UNL A   1      46.651  25.248  28.883  1.00  0.00    -0.200 F 
ATOM     80  C   UNL A   1      45.179  26.032  27.208  1.00  0.00     0.200 A 
ATOM     81  F   UNL A   1      43.657  26.836  25.593  1.00  0.00    -0.200 F 
ATOM     82  F   UNL A   1      45.371  24.915  26.492  1.00  0.00    -0.200 F 
ENDBRANCH  48  72
BRANCH  60  83
ATOM     83  C   UNL A   1      42.663  35.335  29.285  1.00  0.00     0.064 A 
ATOM     84  C   UNL A   1      42.068  35.978  28.188  1.00  0.00     0.173 A 
ATOM     85  C   UNL A   1      43.378  36.209  30.154  1.00  0.00     0.173 A 
ATOM     86  F   UNL A   1      41.251  35.335  27.349  1.00  0.00    -0.203 F 
ATOM     87  C   UNL A   1      42.236  37.347  27.937  1.00  0.00     0.198 A 
ATOM     88  C   UNL A   1      43.489  37.582  29.936  1.00  0.00     0.198 A 
ATOM     89  F   UNL A   1      43.974  35.773  31.273  1.00  0.00    -0.203 F 
ATOM     90  F   UNL A   1      41.681  37.890  26.843  1.00  0.00    -0.200 F 
ATOM     91  C   UNL A   1      42.935  38.151  28.814  1.00  0.00     0.200 A 
ATOM     92  F   UNL A   1      44.122  38.349  30.835  1.00  0.00    -0.200 F 
ATOM     93  F   UNL A   1      43.050  39.467  28.593  1.00  0.00    -0.200 F 
ENDBRANCH  60  83
ENDBRANCH  34  35
ENDBRANCH  27  29
ENDBRANCH  26  27
ENDBRANCH  25  26
ENDBRANCH  24  25
ENDBRANCH   1  24
TORSDOF 16
ENDMDL
MODEL 3
REMARK VINA RESULT:     -12.0      1.001      1.755
REMARK SMILES Cc1ccc(C(=O)N[C@@H]2C=C[C@H](C(=O)OCCOCCOC(=O)c3ccc(-c4c5nc(c(-c6c(F)c(F)c(F)c(F)c6F)c6ccc([nH]6)c(-c6c(F)c(F)c(F)c(F)c6F)c6nc(c(-c7c(F)c(F)c(F)c(F)c7F)c7ccc4[nH]7)C=C6)C=C5)cc3)C2)c(F)c1
REMARK SMILES IDX 18 1 17 2 16 3 15 4 13 5 14 6 12 7 9 8 10 9 87 10 11 11 8 12
REMARK SMILES IDX 6 13 7 14 5 16 1 17 2 18 3 19 90 20 4 21 88 22 89 23 19 24
REMARK SMILES IDX 20 25 21 26 22 27 23 28 24 29 25 30 86 31 26 32 85 33 27 34
REMARK SMILES IDX 28 35 29 36 79 37 30 38 84 39 78 40 80 41 31 42 83 43 77 44
REMARK SMILES IDX 76 45 32 47 64 48 44 49 63 50 45 51 48 52 62 53 81 54 46 55
REMARK SMILES IDX 47 56 61 58 82 59 49 60 33 61 34 62 42 63 35 64 36 65 40 66
REMARK SMILES IDX 43 67 37 68 38 69 41 70 39 71 65 72 66 73 74 74 67 75 68 76
REMARK SMILES IDX 72 77 75 78 69 79 70 80 73 81 71 82 50 83 51 84 59 85 52 86
REMARK SMILES IDX 53 87 57 88 60 89 54 90 55 91 58 92 56 93
REMARK H PARENT 8 15 80 46 48 57
REMARK Flexibility Score: inf
ROOT
ATOM      1  O   UNL A   1      33.149  32.386  27.637  1.00  0.00    -0.374 OA
ENDROOT
BRANCH   1   2
ATOM      2  C   UNL A   1      33.441  31.012  27.428  1.00  0.00     0.202 C 
BRANCH   2   3
ATOM      3  C   UNL A   1      32.336  30.088  26.887  1.00  0.00     0.261 C 
BRANCH   3   4
ATOM      4  O   UNL A   1      32.141  30.099  25.458  1.00  0.00    -0.463 OA
BRANCH   4   5
ATOM      5  C   UNL A   1      32.301  28.889  24.843  1.00  0.00     0.312 C 
ATOM      6  O   UNL A   1      32.484  28.750  23.640  1.00  0.00    -0.252 OA
BRANCH   5   7
ATOM      7  C   UNL A   1      32.132  27.726  25.826  1.00  0.00     0.124 C 
ATOM      8  C   UNL A   1      32.930  25.437  25.257  1.00  0.00     0.106 C 
ATOM      9  C   UNL A   1      31.473  25.616  24.991  1.00  0.00    -0.006 C 
ATOM     10  C   UNL A   1      33.321  26.759  25.943  1.00  0.00     0.048 C 
ATOM     11  C   UNL A   1      31.032  26.827  25.343  1.00  0.00    -0.014 C 
BRANCH   8  12
ATOM     12  N   UNL A   1      33.607  25.130  24.012  1.00  0.00    -0.346 N 
ATOM     13  C   UNL A   1      33.860  23.937  23.365  1.00  0.00     0.254 C 
ATOM     14  O   UNL A   1      34.253  23.988  22.202  1.00  0.00    -0.269 OA
ATOM     15  H   UNL A   1      33.949  25.923  23.538  1.00  0.00     0.164 HD
BRANCH  13  16
ATOM     16  C   UNL A   1      33.794  22.627  24.065  1.00  0.00     0.075 A 
ATOM     17  C   UNL A   1      33.571  18.387  24.725  1.00  0.00     0.044 C 
ATOM     18  C   UNL A   1      33.628  19.883  24.647  1.00  0.00    -0.048 A 
ATOM     19  C   UNL A   1      34.845  20.562  24.768  1.00  0.00     0.004 A 
ATOM     20  C   UNL A   1      32.464  20.622  24.426  1.00  0.00     0.043 A 
ATOM     21  C   UNL A   1      34.922  21.934  24.502  1.00  0.00     0.017 A 
ATOM     22  C   UNL A   1      32.549  21.987  24.140  1.00  0.00     0.136 A 
ATOM     23  F   UNL A   1      31.422  22.606  23.759  1.00  0.00    -0.206 F 
ENDBRANCH  13  16
ENDBRANCH   8  12
ENDBRANCH   5   7
ENDBRANCH   4   5
ENDBRANCH   3   4
ENDBRANCH   2   3
ENDBRANCH   1   2
BRANCH   1  24
ATOM     24  C   UNL A   1      34.073  33.185  28.364  1.00  0.00     0.202 C 
BRANCH  24  25
ATOM     25  C   UNL A   1      35.105  32.466  29.217  1.00  0.00     0.261 C 
BRANCH  25  26
ATOM     26  O   UNL A   1      36.405  32.465  28.637  1.00  0.00    -0.460 OA
BRANCH  26  27
ATOM     27  C   UNL A   1      37.232  31.597  29.245  1.00  0.00     0.338 C 
ATOM     28  O   UNL A   1      38.103  31.837  30.059  1.00  0.00    -0.246 OA
BRANCH  27  29
ATOM     29  C   UNL A   1      36.992  30.239  28.715  1.00  0.00     0.060 A 
ATOM     30  C   UNL A   1      37.114  29.287  29.738  1.00  0.00     0.016 A 
ATOM     31  C   UNL A   1      37.638  30.089  27.486  1.00  0.00     0.016 A 
ATOM     32  C   UNL A   1      38.250  28.506  29.738  1.00  0.00     0.010 A 
ATOM     33  C   UNL A   1      38.773  29.316  27.486  1.00  0.00     0.010 A 
ATOM     34  C   UNL A   1      39.121  28.631  28.658  1.00  0.00    -0.014 A 
BRANCH  34  35
ATOM     35  C   UNL A   1      40.451  28.071  28.690  1.00  0.00     0.031 A 
ATOM     36  C   UNL A   1      40.583  26.637  28.428  1.00  0.00     0.074 A 
ATOM     37  C   UNL A   1      41.512  28.849  28.988  1.00  0.00     0.049 A 
ATOM     38  N   UNL A   1      41.544  25.904  28.862  1.00  0.00    -0.248 NA
ATOM     39  C   UNL A   1      39.548  25.892  27.725  1.00  0.00     0.031 C 
ATOM     40  C   UNL A   1      42.921  28.504  28.848  1.00  0.00     0.029 A 
ATOM     41  N   UNL A   1      41.506  30.054  29.704  1.00  0.00    -0.354 N 
ATOM     42  C   UNL A   1      41.414  24.668  28.278  1.00  0.00     0.074 A 
ATOM     43  C   UNL A   1      40.104  24.680  27.670  1.00  0.00     0.031 C 
ATOM     44  C   UNL A   1      43.643  29.305  29.646  1.00  0.00     0.029 A 
ATOM     45  C   UNL A   1      42.705  30.080  30.440  1.00  0.00     0.049 A 
ATOM     46  H   UNL A   1      40.803  30.744  29.694  1.00  0.00     0.167 HD
ATOM     47  C   UNL A   1      42.504  23.850  28.254  1.00  0.00     0.037 A 
ATOM     48  C   UNL A   1      42.699  30.109  31.803  1.00  0.00     0.037 A 
ATOM     49  C   UNL A   1      43.601  24.437  29.026  1.00  0.00     0.049 A 
ATOM     50  C   UNL A   1      43.405  28.935  32.436  1.00  0.00     0.074 A 
ATOM     51  C   UNL A   1      44.708  25.185  28.658  1.00  0.00     0.029 A 
ATOM     52  N   UNL A   1      43.463  24.593  30.403  1.00  0.00    -0.354 N 
ATOM     53  N   UNL A   1      43.551  27.768  31.869  1.00  0.00    -0.248 NA
ATOM     54  C   UNL A   1      44.016  28.996  33.758  1.00  0.00     0.031 C 
ATOM     55  C   UNL A   1      45.236  25.796  29.822  1.00  0.00     0.029 A 
ATOM     56  C   UNL A   1      44.462  25.406  30.902  1.00  0.00     0.049 A 
ATOM     57  H   UNL A   1      42.754  24.180  30.945  1.00  0.00     0.167 HD
ATOM     58  C   UNL A   1      44.274  26.941  32.697  1.00  0.00     0.074 A 
ATOM     59  C   UNL A   1      44.547  27.766  33.860  1.00  0.00     0.031 C 
ATOM     60  C   UNL A   1      44.590  25.657  32.332  1.00  0.00     0.037 A 
BRANCH  47  61
ATOM     61  C   UNL A   1      42.681  22.717  27.263  1.00  0.00     0.064 A 
ATOM     62  C   UNL A   1      41.953  21.516  27.416  1.00  0.00     0.173 A 
ATOM     63  C   UNL A   1      43.605  22.705  26.203  1.00  0.00     0.173 A 
ATOM     64  F   UNL A   1      40.951  21.409  28.298  1.00  0.00    -0.203 F 
ATOM     65  C   UNL A   1      42.229  20.368  26.668  1.00  0.00     0.198 A 
ATOM     66  C   UNL A   1      43.920  21.543  25.490  1.00  0.00     0.198 A 
ATOM     67  F   UNL A   1      44.189  23.826  25.769  1.00  0.00    -0.203 F 
ATOM     68  F   UNL A   1      41.514  19.253  26.873  1.00  0.00    -0.200 F 
ATOM     69  C   UNL A   1      43.242  20.370  25.733  1.00  0.00     0.200 A 
ATOM     70  F   UNL A   1      44.888  21.577  24.562  1.00  0.00    -0.200 F 
ATOM     71  F   UNL A   1      43.540  19.258  25.048  1.00  0.00    -0.200 F 
ENDBRANCH  47  61
BRANCH  48  72
ATOM     72  C   UNL A   1      41.547  30.837  32.391  1.00  0.00     0.064 A 
ATOM     73  C   UNL A   1      40.406  30.100  32.764  1.00  0.00     0.173 A 
ATOM     74  C   UNL A   1      41.664  32.140  32.888  1.00  0.00     0.173 A 
ATOM     75  F   UNL A   1      40.252  28.840  32.325  1.00  0.00    -0.203 F 
ATOM     76  C   UNL A   1      39.456  30.620  33.643  1.00  0.00     0.198 A 
ATOM     77  C   UNL A   1      40.712  32.659  33.771  1.00  0.00     0.198 A 
ATOM     78  F   UNL A   1      42.736  32.885  32.585  1.00  0.00    -0.203 F 
ATOM     79  F   UNL A   1      38.418  29.864  34.028  1.00  0.00    -0.200 F 
ATOM     80  C   UNL A   1      39.617  31.896  34.155  1.00  0.00     0.200 A 
ATOM     81  F   UNL A   1      40.884  33.883  34.291  1.00  0.00    -0.200 F 
ATOM     82  F   UNL A   1      38.734  32.381  35.040  1.00  0.00    -0.200 F 
ENDBRANCH  48  72
BRANCH  60  83
ATOM     83  C   UNL A   1      45.164  24.539  33.197  1.00  0.00     0.064 A 
ATOM     84  C   UNL A   1      44.483  23.370  33.573  1.00  0.00     0.173 A 
ATOM     85  C   UNL A   1      46.530  24.572  33.600  1.00  0.00     0.173 A 
ATOM     86  F   UNL A   1      43.239  23.113  33.162  1.00  0.00    -0.203 F 
ATOM     87  C   UNL A   1      45.084  22.365  34.345  1.00  0.00     0.198 A 
ATOM     88  C   UNL A   1      47.143  23.542  34.314  1.00  0.00     0.198 A 
ATOM     89  F   UNL A   1      47.341  25.593  33.290  1.00  0.00    -0.203 F 
ATOM     90  F   UNL A   1      44.364  21.296  34.712  1.00  0.00    -0.200 F 
ATOM     91  C   UNL A   1      46.414  22.445  34.706  1.00  0.00     0.200 A 
ATOM     92  F   UNL A   1      48.451  23.616  34.598  1.00  0.00    -0.200 F 
ATOM     93  F   UNL A   1      46.994  21.459  35.402  1.00  0.00    -0.200 F 
ENDBRANCH  60  83
ENDBRANCH  34  35
ENDBRANCH  27  29
ENDBRANCH  26  27
ENDBRANCH  25  26
ENDBRANCH  24  25
ENDBRANCH   1  24
TORSDOF 16
ENDMDL
