MODEL 1
REMARK VINA RESULT:     -12.5      0.000      0.000
REMARK SMILES O=C(Cc1ccccc1C(=O)OCCOCCOC(=O)c1ccc(-c2c3nc(c(-c4c(F)c(F)c(F)c(F)c4F)c4ccc([nH]4)c(-c4c(F)c(F)c(F)c(F)c4F)c4nc(c(-c5c(F)c(F)c(F)c(F)c5F)c5ccc2[nH]5)C=C4)C=C3)cc1)Nc1cccc(OC[C@@H]2CCCO2)c1
REMARK SMILES IDX 13 1 12 2 10 3 11 4 9 5 4 6 5 7 6 8 8 9 7 10 3 11 2 12 1 13
REMARK SMILES IDX 84 14 85 16 86 17 97 18 87 19 89 20 88 21 90 22 91 23 92 24
REMARK SMILES IDX 93 25 96 26 94 27 95 28 14 29 15 30 16 31 17 32 18 33 19 34
REMARK SMILES IDX 20 35 21 36 22 37 83 38 23 39 82 40 24 41 25 42 26 43 76 44
REMARK SMILES IDX 27 45 81 46 75 47 77 48 28 49 80 50 74 51 73 52 29 54 61 55
REMARK SMILES IDX 41 56 60 57 42 58 45 59 59 60 78 61 43 62 44 63 58 65 79 66
REMARK SMILES IDX 46 67 30 68 31 69 39 70 32 71 33 72 37 73 40 74 34 75 35 76
REMARK SMILES IDX 38 77 36 78 62 79 63 80 71 81 64 82 65 83 69 84 72 85 66 86
REMARK SMILES IDX 67 87 70 88 68 89 47 90 48 91 56 92 49 93 50 94 54 95 57 96
REMARK SMILES IDX 51 97 52 98 55 99 53 100
REMARK H PARENT 84 15 77 53 45 64
REMARK Flexibility Score: inf
ROOT
ATOM      1  C   UNL A   1      33.209  28.917  24.490  1.00  0.00     0.261 C 
ENDROOT
BRANCH   1   2
ATOM      2  O   UNL A   1      32.677  28.976  23.140  1.00  0.00    -0.460 OA
BRANCH   2   3
ATOM      3  C   UNL A   1      31.946  27.905  22.768  1.00  0.00     0.338 C 
ATOM      4  O   UNL A   1      32.383  26.763  22.686  1.00  0.00    -0.246 OA
BRANCH   3   5
ATOM      5  C   UNL A   1      30.469  28.151  22.651  1.00  0.00     0.063 A 
ATOM      6  C   UNL A   1      29.401  27.416  23.207  1.00  0.00    -0.024 A 
ATOM      7  C   UNL A   1      28.180  28.098  23.407  1.00  0.00     0.005 A 
ATOM      8  C   UNL A   1      27.967  29.387  22.919  1.00  0.00     0.000 A 
ATOM      9  C   UNL A   1      30.194  29.397  22.047  1.00  0.00     0.016 A 
ATOM     10  C   UNL A   1      28.950  30.004  22.163  1.00  0.00     0.001 A 
BRANCH   6  11
ATOM     11  C   UNL A   1      29.460  26.006  23.724  1.00  0.00     0.136 C 
BRANCH  11  12
ATOM     12  C   UNL A   1      30.152  25.678  25.070  1.00  0.00     0.228 C 
ATOM     13  O   UNL A   1      30.379  26.653  25.797  1.00  0.00    -0.274 OA
ATOM     14  N   UNL A   1      30.506  24.380  25.449  1.00  0.00    -0.326 N 
ATOM     15  H   UNL A   1      29.933  23.645  25.134  1.00  0.00     0.169 HD
BRANCH  14  16
ATOM     16  C   UNL A   1      31.661  24.026  26.276  1.00  0.00     0.044 A 
ATOM     17  C   UNL A   1      31.690  22.938  27.130  1.00  0.00     0.026 A 
ATOM     18  C   UNL A   1      32.924  24.521  25.941  1.00  0.00     0.072 A 
ATOM     19  C   UNL A   1      32.939  22.425  27.575  1.00  0.00     0.006 A 
ATOM     20  C   UNL A   1      34.192  24.085  26.344  1.00  0.00     0.121 A 
ATOM     21  C   UNL A   1      34.175  22.992  27.187  1.00  0.00     0.046 A 
BRANCH  20  22
ATOM     22  O   UNL A   1      35.358  24.341  25.648  1.00  0.00    -0.491 OA
BRANCH  22  23
ATOM     23  C   UNL A   1      35.613  23.990  24.270  1.00  0.00     0.261 C 
BRANCH  23  24
ATOM     24  C   UNL A   1      34.817  22.644  23.424  1.00  0.00     0.156 C 
ATOM     25  C   UNL A   1      32.682  22.117  23.035  1.00  0.00     0.038 C 
ATOM     26  O   UNL A   1      35.387  21.178  24.523  1.00  0.00    -0.375 OA
ATOM     27  C   UNL A   1      32.350  20.512  24.132  1.00  0.00     0.031 C 
ATOM     28  C   UNL A   1      34.017  19.972  24.899  1.00  0.00     0.161 C 
ENDBRANCH  23  24
ENDBRANCH  22  23
ENDBRANCH  20  22
ENDBRANCH  14  16
ENDBRANCH  11  12
ENDBRANCH   6  11
ENDBRANCH   3   5
ENDBRANCH   2   3
ENDBRANCH   1   2
BRANCH   1  29
ATOM     29  C   UNL A   1      32.284  29.551  25.546  1.00  0.00     0.202 C 
BRANCH  29  30
ATOM     30  O   UNL A   1      31.355  30.497  25.059  1.00  0.00    -0.374 OA
BRANCH  30  31
ATOM     31  C   UNL A   1      30.897  31.430  26.023  1.00  0.00     0.202 C 
BRANCH  31  32
ATOM     32  C   UNL A   1      31.871  32.129  26.994  1.00  0.00     0.261 C 
BRANCH  32  33
ATOM     33  O   UNL A   1      31.920  33.604  27.122  1.00  0.00    -0.460 OA
BRANCH  33  34
ATOM     34  C   UNL A   1      32.925  34.049  27.953  1.00  0.00     0.338 C 
ATOM     35  O   UNL A   1      32.784  35.127  28.519  1.00  0.00    -0.246 OA
BRANCH  34  36
ATOM     36  C   UNL A   1      34.258  33.037  28.158  1.00  0.00     0.060 A 
ATOM     37  C   UNL A   1      34.448  31.024  28.118  1.00  0.00     0.016 A 
ATOM     38  C   UNL A   1      35.590  33.775  29.111  1.00  0.00     0.016 A 
ATOM     39  C   UNL A   1      35.691  30.243  28.989  1.00  0.00     0.010 A 
ATOM     40  C   UNL A   1      36.720  32.814  29.878  1.00  0.00     0.010 A 
ATOM     41  C   UNL A   1      36.731  31.190  29.838  1.00  0.00    -0.014 A 
BRANCH  41  42
ATOM     42  C   UNL A   1      37.797  30.512  30.564  1.00  0.00     0.031 A 
ATOM     43  C   UNL A   1      38.764  29.643  29.846  1.00  0.00     0.074 A 
ATOM     44  C   UNL A   1      37.851  30.820  31.865  1.00  0.00     0.049 A 
ATOM     45  N   UNL A   1      39.918  29.200  30.254  1.00  0.00    -0.248 NA
ATOM     46  C   UNL A   1      38.393  29.184  28.499  1.00  0.00     0.031 C 
ATOM     47  C   UNL A   1      36.816  31.561  32.584  1.00  0.00     0.029 A 
ATOM     48  N   UNL A   1      38.815  30.619  32.795  1.00  0.00    -0.354 N 
ATOM     49  C   UNL A   1      40.414  28.428  29.213  1.00  0.00     0.074 A 
ATOM     50  C   UNL A   1      39.429  28.429  28.162  1.00  0.00     0.031 C 
ATOM     51  C   UNL A   1      37.271  31.915  33.785  1.00  0.00     0.029 A 
ATOM     52  C   UNL A   1      38.557  31.275  33.972  1.00  0.00     0.049 A 
ATOM     53  H   UNL A   1      39.614  30.064  32.644  1.00  0.00     0.167 HD
ATOM     54  C   UNL A   1      41.590  27.762  29.185  1.00  0.00     0.037 A 
ATOM     55  C   UNL A   1      39.280  31.310  35.097  1.00  0.00     0.037 A 
ATOM     56  C   UNL A   1      42.451  27.726  30.339  1.00  0.00     0.049 A 
ATOM     57  C   UNL A   1      40.569  30.562  35.044  1.00  0.00     0.074 A 
ATOM     58  C   UNL A   1      43.658  27.083  30.512  1.00  0.00     0.029 A 
ATOM     59  N   UNL A   1      42.145  28.348  31.553  1.00  0.00    -0.354 N 
ATOM     60  N   UNL A   1      41.078  29.882  34.038  1.00  0.00    -0.248 NA
ATOM     61  C   UNL A   1      41.381  30.570  36.253  1.00  0.00     0.031 C 
ATOM     62  C   UNL A   1      44.035  27.243  31.851  1.00  0.00     0.029 A 
ATOM     63  C   UNL A   1      43.120  28.072  32.491  1.00  0.00     0.049 A 
ATOM     64  H   UNL A   1      41.349  28.903  31.715  1.00  0.00     0.167 HD
ATOM     65  C   UNL A   1      42.279  29.375  34.485  1.00  0.00     0.074 A 
ATOM     66  C   UNL A   1      42.429  29.865  35.851  1.00  0.00     0.031 C 
ATOM     67  C   UNL A   1      43.176  28.582  33.844  1.00  0.00     0.037 A 
BRANCH  54  68
ATOM     68  C   UNL A   1      41.928  26.982  27.942  1.00  0.00     0.064 A 
ATOM     69  C   UNL A   1      41.456  25.674  27.725  1.00  0.00     0.173 A 
ATOM     70  C   UNL A   1      42.765  27.534  26.960  1.00  0.00     0.173 A 
ATOM     71  F   UNL A   1      40.674  25.078  28.637  1.00  0.00    -0.203 F 
ATOM     72  C   UNL A   1      41.831  24.948  26.594  1.00  0.00     0.198 A 
ATOM     73  C   UNL A   1      43.112  26.817  25.815  1.00  0.00     0.198 A 
ATOM     74  F   UNL A   1      43.264  28.769  27.113  1.00  0.00    -0.203 F 
ATOM     75  F   UNL A   1      41.417  23.681  26.443  1.00  0.00    -0.200 F 
ATOM     76  C   UNL A   1      42.653  25.521  25.637  1.00  0.00     0.200 A 
ATOM     77  F   UNL A   1      43.904  27.378  24.890  1.00  0.00    -0.200 F 
ATOM     78  F   UNL A   1      43.015  24.822  24.553  1.00  0.00    -0.200 F 
ENDBRANCH  54  68
BRANCH  55  79
ATOM     79  C   UNL A   1      38.757  32.049  36.270  1.00  0.00     0.064 A 
ATOM     80  C   UNL A   1      37.981  31.417  37.247  1.00  0.00     0.173 A 
ATOM     81  C   UNL A   1      39.160  33.375  36.518  1.00  0.00     0.173 A 
ATOM     82  F   UNL A   1      37.584  30.148  37.071  1.00  0.00    -0.203 F 
ATOM     83  C   UNL A   1      37.628  32.079  38.423  1.00  0.00     0.198 A 
ATOM     84  C   UNL A   1      38.845  34.019  37.710  1.00  0.00     0.198 A 
ATOM     85  F   UNL A   1      39.941  34.016  35.634  1.00  0.00    -0.203 F 
ATOM     86  F   UNL A   1      36.875  31.456  39.340  1.00  0.00    -0.200 F 
ATOM     87  C   UNL A   1      38.072  33.372  38.660  1.00  0.00     0.200 A 
ATOM     88  F   UNL A   1      39.325  35.247  37.954  1.00  0.00    -0.200 F 
ATOM     89  F   UNL A   1      37.765  33.991  39.808  1.00  0.00    -0.200 F 
ENDBRANCH  55  79
BRANCH  67  90
ATOM     90  C   UNL A   1      44.400  28.251  34.633  1.00  0.00     0.064 A 
ATOM     91  C   UNL A   1      45.556  29.041  34.568  1.00  0.00     0.173 A 
ATOM     92  C   UNL A   1      44.408  27.115  35.453  1.00  0.00     0.173 A 
ATOM     93  F   UNL A   1      45.592  30.127  33.780  1.00  0.00    -0.203 F 
ATOM     94  C   UNL A   1      46.703  28.664  35.252  1.00  0.00     0.198 A 
ATOM     95  C   UNL A   1      45.539  26.772  36.176  1.00  0.00     0.198 A 
ATOM     96  F   UNL A   1      43.316  26.340  35.548  1.00  0.00    -0.203 F 
ATOM     97  F   UNL A   1      47.830  29.373  35.102  1.00  0.00    -0.200 F 
ATOM     98  C   UNL A   1      46.692  27.536  36.060  1.00  0.00     0.200 A 
ATOM     99  F   UNL A   1      45.520  25.696  36.973  1.00  0.00    -0.200 F 
ATOM    100  F   UNL A   1      47.802  27.173  36.717  1.00  0.00    -0.200 F 
ENDBRANCH  67  90
ENDBRANCH  41  42
ENDBRANCH  34  36
ENDBRANCH  33  34
ENDBRANCH  32  33
ENDBRANCH  31  32
ENDBRANCH  30  31
ENDBRANCH  29  30
ENDBRANCH   1  29
TORSDOF 20
ENDMDL
MODEL 2
REMARK VINA RESULT:     -12.2      4.467      7.341
REMARK SMILES O=C(Cc1ccccc1C(=O)OCCOCCOC(=O)c1ccc(-c2c3nc(c(-c4c(F)c(F)c(F)c(F)c4F)c4ccc([nH]4)c(-c4c(F)c(F)c(F)c(F)c4F)c4nc(c(-c5c(F)c(F)c(F)c(F)c5F)c5ccc2[nH]5)C=C4)C=C3)cc1)Nc1cccc(OC[C@@H]2CCCO2)c1
REMARK SMILES IDX 13 1 12 2 10 3 11 4 9 5 4 6 5 7 6 8 8 9 7 10 3 11 2 12 1 13
REMARK SMILES IDX 84 14 85 16 86 17 97 18 87 19 89 20 88 21 90 22 91 23 92 24
REMARK SMILES IDX 93 25 96 26 94 27 95 28 14 29 15 30 16 31 17 32 18 33 19 34
REMARK SMILES IDX 20 35 21 36 22 37 83 38 23 39 82 40 24 41 25 42 26 43 76 44
REMARK SMILES IDX 27 45 81 46 75 47 77 48 28 49 80 50 74 51 73 52 29 54 61 55
REMARK SMILES IDX 41 56 60 57 42 58 45 59 59 60 78 61 43 62 44 63 58 65 79 66
REMARK SMILES IDX 46 67 30 68 31 69 39 70 32 71 33 72 37 73 40 74 34 75 35 76
REMARK SMILES IDX 38 77 36 78 62 79 63 80 71 81 64 82 65 83 69 84 72 85 66 86
REMARK SMILES IDX 67 87 70 88 68 89 47 90 48 91 56 92 49 93 50 94 54 95 57 96
REMARK SMILES IDX 51 97 52 98 55 99 53 100
REMARK H PARENT 84 15 77 53 45 64
REMARK Flexibility Score: inf
ROOT
ATOM      1  C   UNL A   1      33.600  30.876  27.613  1.00  0.00     0.261 C 
ENDROOT
BRANCH   1   2
ATOM      2  O   UNL A   1      33.218  30.220  26.375  1.00  0.00    -0.460 OA
BRANCH   2   3
ATOM      3  C   UNL A   1      31.916  30.347  26.042  1.00  0.00     0.338 C 
ATOM      4  O   UNL A   1      31.213  31.303  26.344  1.00  0.00    -0.246 OA
BRANCH   3   5
ATOM      5  C   UNL A   1      31.404  29.318  25.076  1.00  0.00     0.063 A 
ATOM      6  C   UNL A   1      31.252  27.927  25.260  1.00  0.00    -0.024 A 
ATOM      7  C   UNL A   1      30.299  27.266  24.453  1.00  0.00     0.005 A 
ATOM      8  C   UNL A   1      29.657  27.909  23.395  1.00  0.00     0.000 A 
ATOM      9  C   UNL A   1      30.850  29.914  23.922  1.00  0.00     0.016 A 
ATOM     10  C   UNL A   1      29.997  29.213  23.078  1.00  0.00     0.001 A 
BRANCH   6  11
ATOM     11  C   UNL A   1      31.917  27.087  26.314  1.00  0.00     0.136 C 
BRANCH  11  12
ATOM     12  C   UNL A   1      32.178  25.579  26.084  1.00  0.00     0.228 C 
ATOM     13  O   UNL A   1      31.612  24.818  26.878  1.00  0.00    -0.274 OA
ATOM     14  N   UNL A   1      32.996  25.094  25.059  1.00  0.00    -0.326 N 
ATOM     15  H   UNL A   1      33.027  25.611  24.222  1.00  0.00     0.169 HD
BRANCH  14  16
ATOM     16  C   UNL A   1      33.812  23.880  25.129  1.00  0.00     0.044 A 
ATOM     17  C   UNL A   1      34.766  23.650  26.104  1.00  0.00     0.026 A 
ATOM     18  C   UNL A   1      33.386  22.726  24.466  1.00  0.00     0.072 A 
ATOM     19  C   UNL A   1      35.214  22.325  26.352  1.00  0.00     0.006 A 
ATOM     20  C   UNL A   1      33.783  21.395  24.640  1.00  0.00     0.121 A 
ATOM     21  C   UNL A   1      34.729  21.210  25.629  1.00  0.00     0.046 A 
BRANCH  20  22
ATOM     22  O   UNL A   1      33.025  20.304  24.265  1.00  0.00    -0.491 OA
BRANCH  22  23
ATOM     23  C   UNL A   1      33.536  18.993  23.936  1.00  0.00     0.261 C 
BRANCH  23  24
ATOM     24  C   UNL A   1      33.882  17.731  25.138  1.00  0.00     0.156 C 
ATOM     25  C   UNL A   1      34.790  15.693  25.014  1.00  0.00     0.038 C 
ATOM     26  O   UNL A   1      32.098  17.327  25.718  1.00  0.00    -0.375 OA
ATOM     27  C   UNL A   1      33.302  14.453  25.384  1.00  0.00     0.031 C 
ATOM     28  C   UNL A   1      31.779  15.498  25.881  1.00  0.00     0.161 C 
ENDBRANCH  23  24
ENDBRANCH  22  23
ENDBRANCH  20  22
ENDBRANCH  14  16
ENDBRANCH  11  12
ENDBRANCH   6  11
ENDBRANCH   3   5
ENDBRANCH   2   3
ENDBRANCH   1   2
BRANCH   1  29
ATOM     29  C   UNL A   1      34.989  31.541  27.556  1.00  0.00     0.202 C 
BRANCH  29  30
ATOM     30  O   UNL A   1      35.007  32.941  27.745  1.00  0.00    -0.374 OA
BRANCH  30  31
ATOM     31  C   UNL A   1      34.079  33.423  28.702  1.00  0.00     0.202 C 
BRANCH  31  32
ATOM     32  C   UNL A   1      34.437  33.505  30.201  1.00  0.00     0.261 C 
BRANCH  32  33
ATOM     33  O   UNL A   1      34.406  32.311  31.076  1.00  0.00    -0.460 OA
BRANCH  33  34
ATOM     34  C   UNL A   1      35.542  32.164  31.842  1.00  0.00     0.338 C 
ATOM     35  O   UNL A   1      35.661  32.848  32.852  1.00  0.00    -0.246 OA
BRANCH  34  36
ATOM     36  C   UNL A   1      36.662  31.007  31.343  1.00  0.00     0.060 A 
ATOM     37  C   UNL A   1      37.919  29.807  32.378  1.00  0.00     0.016 A 
ATOM     38  C   UNL A   1      37.264  31.253  29.669  1.00  0.00     0.016 A 
ATOM     39  C   UNL A   1      39.371  29.247  31.676  1.00  0.00     0.010 A 
ATOM     40  C   UNL A   1      38.719  30.595  29.183  1.00  0.00     0.010 A 
ATOM     41  C   UNL A   1      39.691  29.702  30.131  1.00  0.00    -0.014 A 
BRANCH  41  42
ATOM     42  C   UNL A   1      40.926  29.204  29.538  1.00  0.00     0.031 A 
ATOM     43  C   UNL A   1      40.989  27.833  28.970  1.00  0.00     0.074 A 
ATOM     44  C   UNL A   1      41.910  30.108  29.489  1.00  0.00     0.049 A 
ATOM     45  N   UNL A   1      41.879  27.326  28.166  1.00  0.00    -0.248 NA
ATOM     46  C   UNL A   1      39.935  26.885  29.364  1.00  0.00     0.031 C 
ATOM     47  C   UNL A   1      41.883  31.401  30.172  1.00  0.00     0.029 A 
ATOM     48  N   UNL A   1      43.079  30.126  28.804  1.00  0.00    -0.354 N 
ATOM     49  C   UNL A   1      41.484  26.014  27.947  1.00  0.00     0.074 A 
ATOM     50  C   UNL A   1      40.293  25.782  28.725  1.00  0.00     0.031 C 
ATOM     51  C   UNL A   1      42.884  32.161  29.734  1.00  0.00     0.029 A 
ATOM     52  C   UNL A   1      43.711  31.341  28.873  1.00  0.00     0.049 A 
ATOM     53  H   UNL A   1      43.435  29.353  28.310  1.00  0.00     0.167 HD
ATOM     54  C   UNL A   1      42.107  25.096  27.174  1.00  0.00     0.037 A 
ATOM     55  C   UNL A   1      44.869  31.724  28.323  1.00  0.00     0.037 A 
ATOM     56  C   UNL A   1      43.362  25.395  26.534  1.00  0.00     0.049 A 
ATOM     57  C   UNL A   1      45.542  30.692  27.481  1.00  0.00     0.074 A 
ATOM     58  C   UNL A   1      44.156  24.590  25.744  1.00  0.00     0.029 A 
ATOM     59  N   UNL A   1      44.027  26.616  26.664  1.00  0.00    -0.354 N 
ATOM     60  N   UNL A   1      45.140  29.468  27.215  1.00  0.00    -0.248 NA
ATOM     61  C   UNL A   1      46.810  31.070  26.872  1.00  0.00     0.031 C 
ATOM     62  C   UNL A   1      45.335  25.294  25.472  1.00  0.00     0.029 A 
ATOM     63  C   UNL A   1      45.238  26.576  26.002  1.00  0.00     0.049 A 
ATOM     64  H   UNL A   1      43.680  27.395  27.157  1.00  0.00     0.167 HD
ATOM     65  C   UNL A   1      46.104  28.916  26.400  1.00  0.00     0.074 A 
ATOM     66  C   UNL A   1      47.094  29.967  26.193  1.00  0.00     0.031 C 
ATOM     67  C   UNL A   1      46.180  27.667  25.870  1.00  0.00     0.037 A 
BRANCH  54  68
ATOM     68  C   UNL A   1      41.496  23.723  27.080  1.00  0.00     0.064 A 
ATOM     69  C   UNL A   1      42.105  22.590  27.650  1.00  0.00     0.173 A 
ATOM     70  C   UNL A   1      40.296  23.524  26.382  1.00  0.00     0.173 A 
ATOM     71  F   UNL A   1      43.268  22.707  28.308  1.00  0.00    -0.203 F 
ATOM     72  C   UNL A   1      41.552  21.318  27.499  1.00  0.00     0.198 A 
ATOM     73  C   UNL A   1      39.729  22.256  26.260  1.00  0.00     0.198 A 
ATOM     74  F   UNL A   1      39.673  24.559  25.799  1.00  0.00    -0.203 F 
ATOM     75  F   UNL A   1      42.187  20.247  27.999  1.00  0.00    -0.200 F 
ATOM     76  C   UNL A   1      40.361  21.152  26.809  1.00  0.00     0.200 A 
ATOM     77  F   UNL A   1      38.574  22.101  25.595  1.00  0.00    -0.200 F 
ATOM     78  F   UNL A   1      39.832  19.930  26.662  1.00  0.00    -0.200 F 
ENDBRANCH  54  68
BRANCH  55  79
ATOM     79  C   UNL A   1      45.383  33.087  28.594  1.00  0.00     0.064 A 
ATOM     80  C   UNL A   1      46.137  33.373  29.736  1.00  0.00     0.173 A 
ATOM     81  C   UNL A   1      45.261  34.103  27.626  1.00  0.00     0.173 A 
ATOM     82  F   UNL A   1      46.301  32.436  30.683  1.00  0.00    -0.203 F 
ATOM     83  C   UNL A   1      46.748  34.616  29.903  1.00  0.00     0.198 A 
ATOM     84  C   UNL A   1      45.907  35.326  27.773  1.00  0.00     0.198 A 
ATOM     85  F   UNL A   1      44.584  33.871  26.491  1.00  0.00    -0.203 F 
ATOM     86  F   UNL A   1      47.456  34.868  31.012  1.00  0.00    -0.200 F 
ATOM     87  C   UNL A   1      46.644  35.585  28.916  1.00  0.00     0.200 A 
ATOM     88  F   UNL A   1      45.847  36.235  26.789  1.00  0.00    -0.200 F 
ATOM     89  F   UNL A   1      47.265  36.764  29.060  1.00  0.00    -0.200 F 
ENDBRANCH  55  79
BRANCH  67  90
ATOM     90  C   UNL A   1      47.364  27.426  24.994  1.00  0.00     0.064 A 
ATOM     91  C   UNL A   1      47.374  27.808  23.645  1.00  0.00     0.173 A 
ATOM     92  C   UNL A   1      48.495  26.788  25.520  1.00  0.00     0.173 A 
ATOM     93  F   UNL A   1      46.302  28.404  23.101  1.00  0.00    -0.203 F 
ATOM     94  C   UNL A   1      48.459  27.499  22.836  1.00  0.00     0.198 A 
ATOM     95  C   UNL A   1      49.597  26.530  24.720  1.00  0.00     0.198 A 
ATOM     96  F   UNL A   1      48.526  26.416  26.809  1.00  0.00    -0.203 F 
ATOM     97  F   UNL A   1      48.414  27.782  21.527  1.00  0.00    -0.200 F 
ATOM     98  C   UNL A   1      49.571  26.868  23.376  1.00  0.00     0.200 A 
ATOM     99  F   UNL A   1      50.679  25.940  25.248  1.00  0.00    -0.200 F 
ATOM    100  F   UNL A   1      50.615  26.569  22.592  1.00  0.00    -0.200 F 
ENDBRANCH  67  90
ENDBRANCH  41  42
ENDBRANCH  34  36
ENDBRANCH  33  34
ENDBRANCH  32  33
ENDBRANCH  31  32
ENDBRANCH  30  31
ENDBRANCH  29  30
ENDBRANCH   1  29
TORSDOF 20
ENDMDL
MODEL 3
REMARK VINA RESULT:     -12.1      1.679      2.953
REMARK SMILES O=C(Cc1ccccc1C(=O)OCCOCCOC(=O)c1ccc(-c2c3nc(c(-c4c(F)c(F)c(F)c(F)c4F)c4ccc([nH]4)c(-c4c(F)c(F)c(F)c(F)c4F)c4nc(c(-c5c(F)c(F)c(F)c(F)c5F)c5ccc2[nH]5)C=C4)C=C3)cc1)Nc1cccc(OC[C@@H]2CCCO2)c1
REMARK SMILES IDX 13 1 12 2 10 3 11 4 9 5 4 6 5 7 6 8 8 9 7 10 3 11 2 12 1 13
REMARK SMILES IDX 84 14 85 16 86 17 97 18 87 19 89 20 88 21 90 22 91 23 92 24
REMARK SMILES IDX 93 25 96 26 94 27 95 28 14 29 15 30 16 31 17 32 18 33 19 34
REMARK SMILES IDX 20 35 21 36 22 37 83 38 23 39 82 40 24 41 25 42 26 43 76 44
REMARK SMILES IDX 27 45 81 46 75 47 77 48 28 49 80 50 74 51 73 52 29 54 61 55
REMARK SMILES IDX 41 56 60 57 42 58 45 59 59 60 78 61 43 62 44 63 58 65 79 66
REMARK SMILES IDX 46 67 30 68 31 69 39 70 32 71 33 72 37 73 40 74 34 75 35 76
REMARK SMILES IDX 38 77 36 78 62 79 63 80 71 81 64 82 65 83 69 84 72 85 66 86
REMARK SMILES IDX 67 87 70 88 68 89 47 90 48 91 56 92 49 93 50 94 54 95 57 96
REMARK SMILES IDX 51 97 52 98 55 99 53 100
REMARK H PARENT 84 15 77 53 45 64
REMARK Flexibility Score: inf
ROOT
ATOM      1  C   UNL A   1      33.674  29.598  27.137  1.00  0.00     0.261 C 
ENDROOT
BRANCH   1   2
ATOM      2  O   UNL A   1      33.278  29.515  25.742  1.00  0.00    -0.460 OA
BRANCH   2   3
ATOM      3  C   UNL A   1      31.975  29.770  25.503  1.00  0.00     0.338 C 
ATOM      4  O   UNL A   1      31.410  30.819  25.787  1.00  0.00    -0.246 OA
BRANCH   3   5
ATOM      5  C   UNL A   1      31.271  28.745  24.660  1.00  0.00     0.063 A 
ATOM      6  C   UNL A   1      30.930  27.415  24.983  1.00  0.00    -0.024 A 
ATOM      7  C   UNL A   1      29.852  26.832  24.280  1.00  0.00     0.005 A 
ATOM      8  C   UNL A   1      29.255  27.466  23.190  1.00  0.00     0.000 A 
ATOM      9  C   UNL A   1      30.750  29.311  23.476  1.00  0.00     0.016 A 
ATOM     10  C   UNL A   1      29.764  28.671  22.736  1.00  0.00     0.001 A 
BRANCH   6  11
ATOM     11  C   UNL A   1      31.520  26.583  26.088  1.00  0.00     0.136 C 
BRANCH  11  12
ATOM     12  C   UNL A   1      32.843  25.807  25.881  1.00  0.00     0.228 C 
ATOM     13  O   UNL A   1      33.645  26.329  25.097  1.00  0.00    -0.274 OA
ATOM     14  N   UNL A   1      33.126  24.598  26.523  1.00  0.00    -0.326 N 
ATOM     15  H   UNL A   1      32.752  24.465  27.423  1.00  0.00     0.169 HD
BRANCH  14  16
ATOM     16  C   UNL A   1      33.934  23.512  25.965  1.00  0.00     0.044 A 
ATOM     17  C   UNL A   1      34.753  22.695  26.724  1.00  0.00     0.026 A 
ATOM     18  C   UNL A   1      33.610  22.987  24.712  1.00  0.00     0.072 A 
ATOM     19  C   UNL A   1      35.174  21.441  26.203  1.00  0.00     0.006 A 
ATOM     20  C   UNL A   1      33.991  21.776  24.122  1.00  0.00     0.121 A 
ATOM     21  C   UNL A   1      34.798  20.987  24.918  1.00  0.00     0.046 A 
BRANCH  20  22
ATOM     22  O   UNL A   1      33.297  21.159  23.100  1.00  0.00    -0.491 OA
BRANCH  22  23
ATOM     23  C   UNL A   1      32.101  20.362  23.251  1.00  0.00     0.261 C 
BRANCH  23  24
ATOM     24  C   UNL A   1      32.091  18.685  23.838  1.00  0.00     0.156 C 
ATOM     25  C   UNL A   1      32.982  17.671  25.618  1.00  0.00     0.038 C 
ATOM     26  O   UNL A   1      33.016  17.823  22.395  1.00  0.00    -0.375 OA
ATOM     27  C   UNL A   1      34.401  16.514  24.883  1.00  0.00     0.031 C 
ATOM     28  C   UNL A   1      34.288  16.592  22.975  1.00  0.00     0.161 C 
ENDBRANCH  23  24
ENDBRANCH  22  23
ENDBRANCH  20  22
ENDBRANCH  14  16
ENDBRANCH  11  12
ENDBRANCH   6  11
ENDBRANCH   3   5
ENDBRANCH   2   3
ENDBRANCH   1   2
BRANCH   1  29
ATOM     29  C   UNL A   1      35.028  30.298  27.354  1.00  0.00     0.202 C 
BRANCH  29  30
ATOM     30  O   UNL A   1      34.962  31.635  27.806  1.00  0.00    -0.374 OA
BRANCH  30  31
ATOM     31  C   UNL A   1      33.650  32.119  28.037  1.00  0.00     0.202 C 
BRANCH  31  32
ATOM     32  C   UNL A   1      33.190  33.490  27.496  1.00  0.00     0.261 C 
BRANCH  32  33
ATOM     33  O   UNL A   1      32.252  34.351  28.252  1.00  0.00    -0.460 OA
BRANCH  33  34
ATOM     34  C   UNL A   1      32.878  35.356  28.957  1.00  0.00     0.338 C 
ATOM     35  O   UNL A   1      32.348  36.460  29.000  1.00  0.00    -0.246 OA
BRANCH  34  36
ATOM     36  C   UNL A   1      34.315  34.962  29.748  1.00  0.00     0.060 A 
ATOM     37  C   UNL A   1      36.227  34.848  29.100  1.00  0.00     0.016 A 
ATOM     38  C   UNL A   1      34.084  33.945  31.210  1.00  0.00     0.016 A 
ATOM     39  C   UNL A   1      37.351  33.816  29.865  1.00  0.00     0.010 A 
ATOM     40  C   UNL A   1      35.337  33.015  31.805  1.00  0.00     0.010 A 
ATOM     41  C   UNL A   1      36.823  32.943  31.153  1.00  0.00    -0.014 A 
BRANCH  41  42
ATOM     42  C   UNL A   1      37.797  32.078  31.807  1.00  0.00     0.031 A 
ATOM     43  C   UNL A   1      38.428  30.956  31.065  1.00  0.00     0.074 A 
ATOM     44  C   UNL A   1      38.104  32.449  33.055  1.00  0.00     0.049 A 
ATOM     45  N   UNL A   1      39.495  30.277  31.371  1.00  0.00    -0.248 NA
ATOM     46  C   UNL A   1      37.775  30.511  29.824  1.00  0.00     0.031 C 
ATOM     47  C   UNL A   1      37.379  33.464  33.819  1.00  0.00     0.029 A 
ATOM     48  N   UNL A   1      39.118  32.085  33.877  1.00  0.00    -0.354 N 
ATOM     49  C   UNL A   1      39.648  29.341  30.358  1.00  0.00     0.074 A 
ATOM     50  C   UNL A   1      38.551  29.510  29.439  1.00  0.00     0.031 C 
ATOM     51  C   UNL A   1      38.068  33.776  34.916  1.00  0.00     0.029 A 
ATOM     52  C   UNL A   1      39.186  32.860  35.006  1.00  0.00     0.049 A 
ATOM     53  H   UNL A   1      39.738  31.345  33.684  1.00  0.00     0.167 HD
ATOM     54  C   UNL A   1      40.624  28.411  30.252  1.00  0.00     0.037 A 
ATOM     55  C   UNL A   1      40.049  32.794  36.026  1.00  0.00     0.037 A 
ATOM     56  C   UNL A   1      41.607  28.246  31.291  1.00  0.00     0.049 A 
ATOM     57  C   UNL A   1      41.111  31.755  35.890  1.00  0.00     0.074 A 
ATOM     58  C   UNL A   1      42.647  27.344  31.377  1.00  0.00     0.029 A 
ATOM     59  N   UNL A   1      41.627  29.001  32.466  1.00  0.00    -0.354 N 
ATOM     60  N   UNL A   1      41.303  30.909  34.900  1.00  0.00    -0.248 NA
ATOM     61  C   UNL A   1      42.065  31.648  36.985  1.00  0.00     0.031 C 
ATOM     62  C   UNL A   1      43.236  27.497  32.639  1.00  0.00     0.029 A 
ATOM     63  C   UNL A   1      42.636  28.562  33.301  1.00  0.00     0.049 A 
ATOM     64  H   UNL A   1      41.011  29.741  32.668  1.00  0.00     0.167 HD
ATOM     65  C   UNL A   1      42.406  30.159  35.245  1.00  0.00     0.074 A 
ATOM     66  C   UNL A   1      42.856  30.686  36.528  1.00  0.00     0.031 C 
ATOM     67  C   UNL A   1      42.998  29.132  34.581  1.00  0.00     0.037 A 
BRANCH  54  68
ATOM     68  C   UNL A   1      40.594  27.493  29.059  1.00  0.00     0.064 A 
ATOM     69  C   UNL A   1      41.385  27.718  27.918  1.00  0.00     0.173 A 
ATOM     70  C   UNL A   1      39.738  26.381  29.037  1.00  0.00     0.173 A 
ATOM     71  F   UNL A   1      42.206  28.778  27.864  1.00  0.00    -0.203 F 
ATOM     72  C   UNL A   1      41.297  26.888  26.800  1.00  0.00     0.198 A 
ATOM     73  C   UNL A   1      39.676  25.535  27.931  1.00  0.00     0.198 A 
ATOM     74  F   UNL A   1      38.944  26.119  30.085  1.00  0.00    -0.203 F 
ATOM     75  F   UNL A   1      42.017  27.163  25.702  1.00  0.00    -0.200 F 
ATOM     76  C   UNL A   1      40.448  25.793  26.809  1.00  0.00     0.200 A 
ATOM     77  F   UNL A   1      38.855  24.474  27.946  1.00  0.00    -0.200 F 
ATOM     78  F   UNL A   1      40.361  24.998  25.734  1.00  0.00    -0.200 F 
ENDBRANCH  54  68
BRANCH  55  79
ATOM     79  C   UNL A   1      39.881  33.713  37.176  1.00  0.00     0.064 A 
ATOM     80  C   UNL A   1      40.438  34.995  37.177  1.00  0.00     0.173 A 
ATOM     81  C   UNL A   1      39.019  33.378  38.238  1.00  0.00     0.173 A 
ATOM     82  F   UNL A   1      41.252  35.373  36.181  1.00  0.00    -0.203 F 
ATOM     83  C   UNL A   1      40.143  35.907  38.191  1.00  0.00     0.198 A 
ATOM     84  C   UNL A   1      38.690  34.302  39.225  1.00  0.00     0.198 A 
ATOM     85  F   UNL A   1      38.423  32.176  38.266  1.00  0.00    -0.203 F 
ATOM     86  F   UNL A   1      40.698  37.126  38.175  1.00  0.00    -0.200 F 
ATOM     87  C   UNL A   1      39.259  35.565  39.205  1.00  0.00     0.200 A 
ATOM     88  F   UNL A   1      37.793  33.982  40.168  1.00  0.00    -0.200 F 
ATOM     89  F   UNL A   1      38.945  36.455  40.156  1.00  0.00    -0.200 F 
ENDBRANCH  55  79
BRANCH  67  90
ATOM     90  C   UNL A   1      44.212  28.570  35.244  1.00  0.00     0.064 A 
ATOM     91  C   UNL A   1      45.494  29.073  34.985  1.00  0.00     0.173 A 
ATOM     92  C   UNL A   1      44.078  27.500  36.139  1.00  0.00     0.173 A 
ATOM     93  F   UNL A   1      45.664  30.084  34.119  1.00  0.00    -0.203 F 
ATOM     94  C   UNL A   1      46.611  28.478  35.556  1.00  0.00     0.198 A 
ATOM     95  C   UNL A   1      45.192  26.944  36.748  1.00  0.00     0.198 A 
ATOM     96  F   UNL A   1      42.865  26.998  36.419  1.00  0.00    -0.203 F 
ATOM     97  F   UNL A   1      47.836  28.905  35.223  1.00  0.00    -0.200 F 
ATOM     98  C   UNL A   1      46.458  27.420  36.442  1.00  0.00     0.200 A 
ATOM     99  F   UNL A   1      45.041  25.938  37.621  1.00  0.00    -0.200 F 
ATOM    100  F   UNL A   1      47.537  26.846  36.989  1.00  0.00    -0.200 F 
ENDBRANCH  67  90
ENDBRANCH  41  42
ENDBRANCH  34  36
ENDBRANCH  33  34
ENDBRANCH  32  33
ENDBRANCH  31  32
ENDBRANCH  30  31
ENDBRANCH  29  30
ENDBRANCH   1  29
TORSDOF 20
ENDMDL
