MODEL 1
REMARK VINA RESULT:     -11.8      0.000      0.000
REMARK SMILES CC1(C)C(n2c(SCC(=O)OCCOCCOC(=O)c3ccc(-c4c5nc(c(-c6c(F)c(F)c(F)c(F)c6F)c6ccc([nH]6)c(-c6c(F)c(F)c(F)c(F)c6F)c6nc(c(-c7c(F)c(F)c(F)c(F)c7F)c7ccc4[nH]7)C=C6)C=C5)cc3)nc3cnccc32)C1(C)C
REMARK SMILES IDX 13 1 12 2 11 3 9 4 10 5 8 6 7 7 6 8 5 9 89 10 83 11 84 12
REMARK SMILES IDX 88 13 85 14 87 15 86 16 4 17 1 18 2 19 3 20 90 21 91 22
REMARK SMILES IDX 92 23 14 24 15 25 16 26 17 27 18 28 19 29 20 30 21 31 82 32
REMARK SMILES IDX 22 33 81 34 23 35 24 36 25 37 75 38 26 39 80 40 74 41 76 42
REMARK SMILES IDX 27 43 79 44 73 45 72 46 28 48 60 49 40 50 59 51 41 52 44 53
REMARK SMILES IDX 58 54 77 55 42 56 43 57 57 59 78 60 45 61 29 62 30 63 38 64
REMARK SMILES IDX 31 65 32 66 36 67 39 68 33 69 34 70 37 71 35 72 61 73 62 74
REMARK SMILES IDX 70 75 63 76 64 77 68 78 71 79 65 80 66 81 69 82 67 83 46 84
REMARK SMILES IDX 47 85 55 86 48 87 49 88 53 89 56 90 50 91 51 92 54 93 52 94
REMARK H PARENT 76 47 44 58
REMARK Flexibility Score: inf
ROOT
ATOM      1  C   UNL A   1      41.623  20.696  27.327  1.00  0.00     0.202 C 
ENDROOT
BRANCH   1   2
ATOM      2  C   UNL A   1      40.372  20.697  26.436  1.00  0.00     0.261 C 
BRANCH   2   3
ATOM      3  O   UNL A   1      40.084  22.015  25.947  1.00  0.00    -0.463 OA
BRANCH   3   4
ATOM      4  C   UNL A   1      38.774  22.372  25.954  1.00  0.00     0.316 C 
ATOM      5  O   UNL A   1      38.366  23.448  26.378  1.00  0.00    -0.251 OA
BRANCH   4   6
ATOM      6  C   UNL A   1      37.865  21.390  25.236  1.00  0.00     0.200 C 
BRANCH   6   7
ATOM      7  S   UNL A   1      36.452  22.124  24.435  1.00  0.00    -0.076 SA
BRANCH   7   8
ATOM      8  C   UNL A   1      34.989  21.288  24.907  1.00  0.00     0.169 A 
ATOM      9  N   UNL A   1      33.681  21.506  24.476  1.00  0.00    -0.315 N 
ATOM     10  C   UNL A   1      33.244  20.270  24.011  1.00  0.00     0.072 A 
ATOM     11  N   UNL A   1      35.131  20.019  25.248  1.00  0.00    -0.221 NA
ATOM     12  C   UNL A   1      34.149  19.362  24.554  1.00  0.00     0.108 A 
ATOM     13  C   UNL A   1      32.224  19.857  23.147  1.00  0.00     0.049 A 
ATOM     14  C   UNL A   1      34.019  18.003  24.253  1.00  0.00     0.141 A 
ATOM     15  C   UNL A   1      32.199  18.494  22.876  1.00  0.00     0.113 A 
ATOM     16  N   UNL A   1      33.045  17.581  23.402  1.00  0.00    -0.262 NA
BRANCH   9  17
ATOM     17  C   UNL A   1      33.061  22.734  24.020  1.00  0.00     0.102 C 
ATOM     18  C   UNL A   1      30.749  23.695  23.409  1.00  0.00     0.014 C 
ATOM     19  C   UNL A   1      31.751  23.328  24.492  1.00  0.00    -0.007 C 
ATOM     20  C   UNL A   1      31.069  22.826  25.742  1.00  0.00     0.014 C 
ATOM     21  C   UNL A   1      33.084  24.124  24.616  1.00  0.00    -0.007 C 
ATOM     22  C   UNL A   1      33.327  25.275  23.650  1.00  0.00     0.014 C 
ATOM     23  C   UNL A   1      33.698  24.356  25.980  1.00  0.00     0.014 C 
ENDBRANCH   9  17
ENDBRANCH   7   8
ENDBRANCH   6   7
ENDBRANCH   4   6
ENDBRANCH   3   4
ENDBRANCH   2   3
ENDBRANCH   1   2
BRANCH   1  24
ATOM     24  O   UNL A   1      42.853  20.174  26.832  1.00  0.00    -0.374 OA
BRANCH  24  25
ATOM     25  C   UNL A   1      42.764  19.225  25.776  1.00  0.00     0.202 C 
BRANCH  25  26
ATOM     26  C   UNL A   1      44.020  18.631  25.126  1.00  0.00     0.261 C 
BRANCH  26  27
ATOM     27  O   UNL A   1      45.080  19.582  25.090  1.00  0.00    -0.460 OA
BRANCH  27  28
ATOM     28  C   UNL A   1      45.043  20.392  23.991  1.00  0.00     0.338 C 
ATOM     29  O   UNL A   1      44.710  20.114  22.872  1.00  0.00    -0.246 OA
BRANCH  28  30
ATOM     30  C   UNL A   1      45.001  21.741  24.587  1.00  0.00     0.060 A 
ATOM     31  C   UNL A   1      45.759  22.027  25.726  1.00  0.00     0.016 A 
ATOM     32  C   UNL A   1      43.890  22.518  24.221  1.00  0.00     0.016 A 
ATOM     33  C   UNL A   1      45.325  23.047  26.559  1.00  0.00     0.010 A 
ATOM     34  C   UNL A   1      43.453  23.531  25.065  1.00  0.00     0.010 A 
ATOM     35  C   UNL A   1      44.149  23.768  26.251  1.00  0.00    -0.014 A 
BRANCH  35  36
ATOM     36  C   UNL A   1      43.857  24.931  27.084  1.00  0.00     0.031 A 
ATOM     37  C   UNL A   1      44.896  25.981  26.919  1.00  0.00     0.074 A 
ATOM     38  C   UNL A   1      42.760  25.177  27.829  1.00  0.00     0.049 A 
ATOM     39  N   UNL A   1      45.690  26.465  27.816  1.00  0.00    -0.248 NA
ATOM     40  C   UNL A   1      45.184  26.422  25.543  1.00  0.00     0.031 C 
ATOM     41  C   UNL A   1      41.501  24.440  27.895  1.00  0.00     0.029 A 
ATOM     42  N   UNL A   1      42.530  26.249  28.647  1.00  0.00    -0.354 N 
ATOM     43  C   UNL A   1      46.502  27.370  27.143  1.00  0.00     0.074 A 
ATOM     44  C   UNL A   1      46.244  27.204  25.737  1.00  0.00     0.031 C 
ATOM     45  C   UNL A   1      40.577  25.190  28.544  1.00  0.00     0.029 A 
ATOM     46  C   UNL A   1      41.206  26.411  29.023  1.00  0.00     0.049 A 
ATOM     47  H   UNL A   1      43.247  26.856  28.944  1.00  0.00     0.167 HD
ATOM     48  C   UNL A   1      47.203  28.331  27.796  1.00  0.00     0.037 A 
ATOM     49  C   UNL A   1      40.659  27.508  29.607  1.00  0.00     0.037 A 
ATOM     50  C   UNL A   1      47.371  28.019  29.187  1.00  0.00     0.049 A 
ATOM     51  C   UNL A   1      41.758  28.298  30.215  1.00  0.00     0.074 A 
ATOM     52  C   UNL A   1      47.984  26.989  29.876  1.00  0.00     0.029 A 
ATOM     53  N   UNL A   1      46.569  28.651  30.103  1.00  0.00    -0.354 N 
ATOM     54  N   UNL A   1      42.432  27.929  31.267  1.00  0.00    -0.248 NA
ATOM     55  C   UNL A   1      42.388  29.325  29.397  1.00  0.00     0.031 C 
ATOM     56  C   UNL A   1      47.158  26.759  31.013  1.00  0.00     0.029 A 
ATOM     57  C   UNL A   1      46.117  27.687  30.966  1.00  0.00     0.049 A 
ATOM     58  H   UNL A   1      46.357  29.612  30.135  1.00  0.00     0.167 HD
ATOM     59  C   UNL A   1      43.729  28.345  31.014  1.00  0.00     0.074 A 
ATOM     60  C   UNL A   1      43.623  29.279  29.898  1.00  0.00     0.031 C 
ATOM     61  C   UNL A   1      44.796  27.683  31.545  1.00  0.00     0.037 A 
BRANCH  48  62
ATOM     62  C   UNL A   1      47.451  29.699  27.227  1.00  0.00     0.064 A 
ATOM     63  C   UNL A   1      48.751  30.233  27.247  1.00  0.00     0.173 A 
ATOM     64  C   UNL A   1      46.414  30.611  26.926  1.00  0.00     0.173 A 
ATOM     65  F   UNL A   1      49.802  29.459  27.556  1.00  0.00    -0.203 F 
ATOM     66  C   UNL A   1      48.987  31.593  27.041  1.00  0.00     0.198 A 
ATOM     67  C   UNL A   1      46.660  31.954  26.662  1.00  0.00     0.198 A 
ATOM     68  F   UNL A   1      45.122  30.266  26.989  1.00  0.00    -0.203 F 
ATOM     69  F   UNL A   1      50.225  32.082  27.190  1.00  0.00    -0.200 F 
ATOM     70  C   UNL A   1      47.942  32.452  26.749  1.00  0.00     0.200 A 
ATOM     71  F   UNL A   1      45.631  32.773  26.404  1.00  0.00    -0.200 F 
ATOM     72  F   UNL A   1      48.159  33.766  26.607  1.00  0.00    -0.200 F 
ENDBRANCH  48  62
BRANCH  49  73
ATOM     73  C   UNL A   1      39.298  28.074  29.428  1.00  0.00     0.064 A 
ATOM     74  C   UNL A   1      38.446  28.289  30.526  1.00  0.00     0.173 A 
ATOM     75  C   UNL A   1      38.911  28.675  28.215  1.00  0.00     0.173 A 
ATOM     76  F   UNL A   1      38.761  27.795  31.732  1.00  0.00    -0.203 F 
ATOM     77  C   UNL A   1      37.293  29.075  30.420  1.00  0.00     0.198 A 
ATOM     78  C   UNL A   1      37.756  29.451  28.107  1.00  0.00     0.198 A 
ATOM     79  F   UNL A   1      39.695  28.604  27.130  1.00  0.00    -0.203 F 
ATOM     80  F   UNL A   1      36.540  29.310  31.504  1.00  0.00    -0.200 F 
ATOM     81  C   UNL A   1      36.953  29.663  29.212  1.00  0.00     0.200 A 
ATOM     82  F   UNL A   1      37.461  30.044  26.941  1.00  0.00    -0.200 F 
ATOM     83  F   UNL A   1      35.883  30.465  29.123  1.00  0.00    -0.200 F 
ENDBRANCH  49  73
BRANCH  61  84
ATOM     84  C   UNL A   1      44.542  26.673  32.626  1.00  0.00     0.064 A 
ATOM     85  C   UNL A   1      44.345  27.006  33.977  1.00  0.00     0.173 A 
ATOM     86  C   UNL A   1      44.308  25.344  32.245  1.00  0.00     0.173 A 
ATOM     87  F   UNL A   1      44.453  28.272  34.401  1.00  0.00    -0.203 F 
ATOM     88  C   UNL A   1      43.961  26.041  34.908  1.00  0.00     0.198 A 
ATOM     89  C   UNL A   1      43.887  24.392  33.169  1.00  0.00     0.198 A 
ATOM     90  F   UNL A   1      44.431  24.982  30.959  1.00  0.00    -0.203 F 
ATOM     91  F   UNL A   1      43.781  26.381  36.192  1.00  0.00    -0.200 F 
ATOM     92  C   UNL A   1      43.720  24.739  34.499  1.00  0.00     0.200 A 
ATOM     93  F   UNL A   1      43.608  23.147  32.760  1.00  0.00    -0.200 F 
ATOM     94  F   UNL A   1      43.296  23.824  35.383  1.00  0.00    -0.200 F 
ENDBRANCH  61  84
ENDBRANCH  35  36
ENDBRANCH  28  30
ENDBRANCH  27  28
ENDBRANCH  26  27
ENDBRANCH  25  26
ENDBRANCH  24  25
ENDBRANCH   1  24
TORSDOF 17
ENDMDL
MODEL 2
REMARK VINA RESULT:     -11.1      5.311     10.600
REMARK SMILES CC1(C)C(n2c(SCC(=O)OCCOCCOC(=O)c3ccc(-c4c5nc(c(-c6c(F)c(F)c(F)c(F)c6F)c6ccc([nH]6)c(-c6c(F)c(F)c(F)c(F)c6F)c6nc(c(-c7c(F)c(F)c(F)c(F)c7F)c7ccc4[nH]7)C=C6)C=C5)cc3)nc3cnccc32)C1(C)C
REMARK SMILES IDX 13 1 12 2 11 3 9 4 10 5 8 6 7 7 6 8 5 9 89 10 83 11 84 12
REMARK SMILES IDX 88 13 85 14 87 15 86 16 4 17 1 18 2 19 3 20 90 21 91 22
REMARK SMILES IDX 92 23 14 24 15 25 16 26 17 27 18 28 19 29 20 30 21 31 82 32
REMARK SMILES IDX 22 33 81 34 23 35 24 36 25 37 75 38 26 39 80 40 74 41 76 42
REMARK SMILES IDX 27 43 79 44 73 45 72 46 28 48 60 49 40 50 59 51 41 52 44 53
REMARK SMILES IDX 58 54 77 55 42 56 43 57 57 59 78 60 45 61 29 62 30 63 38 64
REMARK SMILES IDX 31 65 32 66 36 67 39 68 33 69 34 70 37 71 35 72 61 73 62 74
REMARK SMILES IDX 70 75 63 76 64 77 68 78 71 79 65 80 66 81 69 82 67 83 46 84
REMARK SMILES IDX 47 85 55 86 48 87 49 88 53 89 56 90 50 91 51 92 54 93 52 94
REMARK H PARENT 76 47 44 58
REMARK Flexibility Score: inf
ROOT
ATOM      1  C   UNL A   1      34.345  33.489  28.074  1.00  0.00     0.202 C 
ENDROOT
BRANCH   1   2
ATOM      2  C   UNL A   1      34.072  32.018  28.419  1.00  0.00     0.261 C 
BRANCH   2   3
ATOM      3  O   UNL A   1      33.442  31.337  27.324  1.00  0.00    -0.463 OA
BRANCH   3   4
ATOM      4  C   UNL A   1      33.916  30.093  27.054  1.00  0.00     0.316 C 
ATOM      5  O   UNL A   1      34.905  29.612  27.596  1.00  0.00    -0.251 OA
BRANCH   4   6
ATOM      6  C   UNL A   1      33.018  29.278  26.141  1.00  0.00     0.200 C 
BRANCH   6   7
ATOM      7  S   UNL A   1      33.864  28.430  24.820  1.00  0.00    -0.076 SA
BRANCH   7   8
ATOM      8  C   UNL A   1      32.705  27.672  23.750  1.00  0.00     0.169 A 
ATOM      9  N   UNL A   1      31.881  26.574  23.993  1.00  0.00    -0.315 N 
ATOM     10  C   UNL A   1      30.594  27.018  23.713  1.00  0.00     0.072 A 
ATOM     11  N   UNL A   1      32.125  28.466  22.867  1.00  0.00    -0.221 NA
ATOM     12  C   UNL A   1      30.789  28.179  22.968  1.00  0.00     0.108 A 
ATOM     13  C   UNL A   1      29.312  26.587  24.070  1.00  0.00     0.049 A 
ATOM     14  C   UNL A   1      29.678  28.913  22.543  1.00  0.00     0.141 A 
ATOM     15  C   UNL A   1      28.274  27.403  23.637  1.00  0.00     0.113 A 
ATOM     16  N   UNL A   1      28.423  28.522  22.893  1.00  0.00    -0.262 NA
BRANCH   9  17
ATOM     17  C   UNL A   1      32.104  25.440  24.869  1.00  0.00     0.102 C 
ATOM     18  C   UNL A   1      30.931  23.301  25.699  1.00  0.00     0.014 C 
ATOM     19  C   UNL A   1      31.731  23.996  24.610  1.00  0.00    -0.007 C 
ATOM     20  C   UNL A   1      31.332  23.526  23.231  1.00  0.00     0.014 C 
ATOM     21  C   UNL A   1      33.209  24.409  24.877  1.00  0.00    -0.007 C 
ATOM     22  C   UNL A   1      33.816  24.072  26.232  1.00  0.00     0.014 C 
ATOM     23  C   UNL A   1      34.218  24.367  23.750  1.00  0.00     0.014 C 
ENDBRANCH   9  17
ENDBRANCH   7   8
ENDBRANCH   6   7
ENDBRANCH   4   6
ENDBRANCH   3   4
ENDBRANCH   2   3
ENDBRANCH   1   2
BRANCH   1  24
ATOM     24  O   UNL A   1      34.611  34.429  29.111  1.00  0.00    -0.374 OA
BRANCH  24  25
ATOM     25  C   UNL A   1      33.767  35.574  29.165  1.00  0.00     0.202 C 
BRANCH  25  26
ATOM     26  C   UNL A   1      32.697  35.729  30.253  1.00  0.00     0.261 C 
BRANCH  26  27
ATOM     27  O   UNL A   1      33.281  36.090  31.502  1.00  0.00    -0.460 OA
BRANCH  27  28
ATOM     28  C   UNL A   1      33.019  35.196  32.499  1.00  0.00     0.338 C 
ATOM     29  O   UNL A   1      31.957  34.763  32.852  1.00  0.00    -0.246 OA
BRANCH  28  30
ATOM     30  C   UNL A   1      34.320  34.522  32.676  1.00  0.00     0.060 A 
ATOM     31  C   UNL A   1      35.499  35.272  32.702  1.00  0.00     0.016 A 
ATOM     32  C   UNL A   1      34.321  33.147  32.387  1.00  0.00     0.016 A 
ATOM     33  C   UNL A   1      36.679  34.645  32.330  1.00  0.00     0.010 A 
ATOM     34  C   UNL A   1      35.504  32.528  32.004  1.00  0.00     0.010 A 
ATOM     35  C   UNL A   1      36.673  33.287  31.939  1.00  0.00    -0.014 A 
BRANCH  35  36
ATOM     36  C   UNL A   1      37.975  32.661  31.726  1.00  0.00     0.031 A 
ATOM     37  C   UNL A   1      38.794  32.698  32.967  1.00  0.00     0.074 A 
ATOM     38  C   UNL A   1      38.419  31.995  30.642  1.00  0.00     0.049 A 
ATOM     39  N   UNL A   1      39.932  33.280  33.153  1.00  0.00    -0.248 NA
ATOM     40  C   UNL A   1      38.178  32.150  34.188  1.00  0.00     0.031 C 
ATOM     41  C   UNL A   1      37.690  31.576  29.448  1.00  0.00     0.029 A 
ATOM     42  N   UNL A   1      39.664  31.463  30.442  1.00  0.00    -0.354 N 
ATOM     43  C   UNL A   1      40.243  33.065  34.491  1.00  0.00     0.074 A 
ATOM     44  C   UNL A   1      39.076  32.491  35.108  1.00  0.00     0.031 C 
ATOM     45  C   UNL A   1      38.443  30.690  28.752  1.00  0.00     0.029 A 
ATOM     46  C   UNL A   1      39.741  30.556  29.396  1.00  0.00     0.049 A 
ATOM     47  H   UNL A   1      40.442  31.704  30.996  1.00  0.00     0.167 HD
ATOM     48  C   UNL A   1      41.506  33.204  34.967  1.00  0.00     0.037 A 
ATOM     49  C   UNL A   1      40.765  29.703  29.138  1.00  0.00     0.037 A 
ATOM     50  C   UNL A   1      42.322  34.003  34.096  1.00  0.00     0.049 A 
ATOM     51  C   UNL A   1      41.971  30.213  29.835  1.00  0.00     0.074 A 
ATOM     52  C   UNL A   1      42.260  35.308  33.648  1.00  0.00     0.029 A 
ATOM     53  N   UNL A   1      43.212  33.369  33.267  1.00  0.00    -0.354 N 
ATOM     54  N   UNL A   1      42.622  31.285  29.485  1.00  0.00    -0.248 NA
ATOM     55  C   UNL A   1      42.220  29.745  31.191  1.00  0.00     0.031 C 
ATOM     56  C   UNL A   1      42.726  35.263  32.303  1.00  0.00     0.029 A 
ATOM     57  C   UNL A   1      43.078  33.941  32.029  1.00  0.00     0.049 A 
ATOM     58  H   UNL A   1      43.830  32.642  33.514  1.00  0.00     0.167 HD
ATOM     59  C   UNL A   1      43.013  31.862  30.683  1.00  0.00     0.074 A 
ATOM     60  C   UNL A   1      42.823  30.825  31.690  1.00  0.00     0.031 C 
ATOM     61  C   UNL A   1      43.188  33.209  30.791  1.00  0.00     0.037 A 
BRANCH  48  62
ATOM     62  C   UNL A   1      42.073  32.344  36.060  1.00  0.00     0.064 A 
ATOM     63  C   UNL A   1      42.631  32.948  37.199  1.00  0.00     0.173 A 
ATOM     64  C   UNL A   1      42.342  30.966  35.898  1.00  0.00     0.173 A 
ATOM     65  F   UNL A   1      42.464  34.260  37.427  1.00  0.00    -0.203 F 
ATOM     66  C   UNL A   1      43.450  32.238  38.078  1.00  0.00     0.198 A 
ATOM     67  C   UNL A   1      43.109  30.247  36.809  1.00  0.00     0.198 A 
ATOM     68  F   UNL A   1      41.973  30.292  34.801  1.00  0.00    -0.203 F 
ATOM     69  F   UNL A   1      44.061  32.880  39.082  1.00  0.00    -0.200 F 
ATOM     70  C   UNL A   1      43.689  30.889  37.882  1.00  0.00     0.200 A 
ATOM     71  F   UNL A   1      43.346  28.947  36.588  1.00  0.00    -0.200 F 
ATOM     72  F   UNL A   1      44.519  30.219  38.692  1.00  0.00    -0.200 F 
ENDBRANCH  48  62
BRANCH  49  73
ATOM     73  C   UNL A   1      40.709  28.329  28.578  1.00  0.00     0.064 A 
ATOM     74  C   UNL A   1      39.968  27.313  29.207  1.00  0.00     0.173 A 
ATOM     75  C   UNL A   1      41.150  28.056  27.269  1.00  0.00     0.173 A 
ATOM     76  F   UNL A   1      39.466  27.506  30.436  1.00  0.00    -0.203 F 
ATOM     77  C   UNL A   1      39.668  26.110  28.557  1.00  0.00     0.198 A 
ATOM     78  C   UNL A   1      40.859  26.853  26.624  1.00  0.00     0.198 A 
ATOM     79  F   UNL A   1      41.790  28.988  26.548  1.00  0.00    -0.203 F 
ATOM     80  F   UNL A   1      38.904  25.192  29.166  1.00  0.00    -0.200 F 
ATOM     81  C   UNL A   1      40.106  25.885  27.262  1.00  0.00     0.200 A 
ATOM     82  F   UNL A   1      41.258  26.664  25.358  1.00  0.00    -0.200 F 
ATOM     83  F   UNL A   1      39.769  24.760  26.617  1.00  0.00    -0.200 F 
ENDBRANCH  49  73
BRANCH  61  84
ATOM     84  C   UNL A   1      43.222  34.027  29.532  1.00  0.00     0.064 A 
ATOM     85  C   UNL A   1      42.092  34.648  28.972  1.00  0.00     0.173 A 
ATOM     86  C   UNL A   1      44.473  34.339  28.981  1.00  0.00     0.173 A 
ATOM     87  F   UNL A   1      40.874  34.477  29.502  1.00  0.00    -0.203 F 
ATOM     88  C   UNL A   1      42.213  35.519  27.889  1.00  0.00     0.198 A 
ATOM     89  C   UNL A   1      44.593  35.238  27.927  1.00  0.00     0.198 A 
ATOM     90  F   UNL A   1      45.589  33.814  29.510  1.00  0.00    -0.203 F 
ATOM     91  F   UNL A   1      41.121  36.099  27.370  1.00  0.00    -0.200 F 
ATOM     92  C   UNL A   1      43.464  35.823  27.378  1.00  0.00     0.200 A 
ATOM     93  F   UNL A   1      45.809  35.567  27.468  1.00  0.00    -0.200 F 
ATOM     94  F   UNL A   1      43.585  36.703  26.374  1.00  0.00    -0.200 F 
ENDBRANCH  61  84
ENDBRANCH  35  36
ENDBRANCH  28  30
ENDBRANCH  27  28
ENDBRANCH  26  27
ENDBRANCH  25  26
ENDBRANCH  24  25
ENDBRANCH   1  24
TORSDOF 17
ENDMDL
MODEL 3
REMARK VINA RESULT:     -10.9      3.642      8.759
REMARK SMILES CC1(C)C(n2c(SCC(=O)OCCOCCOC(=O)c3ccc(-c4c5nc(c(-c6c(F)c(F)c(F)c(F)c6F)c6ccc([nH]6)c(-c6c(F)c(F)c(F)c(F)c6F)c6nc(c(-c7c(F)c(F)c(F)c(F)c7F)c7ccc4[nH]7)C=C6)C=C5)cc3)nc3cnccc32)C1(C)C
REMARK SMILES IDX 13 1 12 2 11 3 9 4 10 5 8 6 7 7 6 8 5 9 89 10 83 11 84 12
REMARK SMILES IDX 88 13 85 14 87 15 86 16 4 17 1 18 2 19 3 20 90 21 91 22
REMARK SMILES IDX 92 23 14 24 15 25 16 26 17 27 18 28 19 29 20 30 21 31 82 32
REMARK SMILES IDX 22 33 81 34 23 35 24 36 25 37 75 38 26 39 80 40 74 41 76 42
REMARK SMILES IDX 27 43 79 44 73 45 72 46 28 48 60 49 40 50 59 51 41 52 44 53
REMARK SMILES IDX 58 54 77 55 42 56 43 57 57 59 78 60 45 61 29 62 30 63 38 64
REMARK SMILES IDX 31 65 32 66 36 67 39 68 33 69 34 70 37 71 35 72 61 73 62 74
REMARK SMILES IDX 70 75 63 76 64 77 68 78 71 79 65 80 66 81 69 82 67 83 46 84
REMARK SMILES IDX 47 85 55 86 48 87 49 88 53 89 56 90 50 91 51 92 54 93 52 94
REMARK H PARENT 76 47 44 58
REMARK Flexibility Score: inf
ROOT
ATOM      1  C   UNL A   1      31.662  28.164  26.859  1.00  0.00     0.202 C 
ENDROOT
BRANCH   1   2
ATOM      2  C   UNL A   1      31.558  27.264  25.619  1.00  0.00     0.261 C 
BRANCH   2   3
ATOM      3  O   UNL A   1      30.580  26.232  25.807  1.00  0.00    -0.463 OA
BRANCH   3   4
ATOM      4  C   UNL A   1      31.072  25.009  26.137  1.00  0.00     0.316 C 
ATOM      5  O   UNL A   1      31.487  24.724  27.256  1.00  0.00    -0.251 OA
BRANCH   4   6
ATOM      6  C   UNL A   1      30.910  23.967  25.046  1.00  0.00     0.200 C 
BRANCH   6   7
ATOM      7  S   UNL A   1      31.303  22.298  25.538  1.00  0.00    -0.076 SA
BRANCH   7   8
ATOM      8  C   UNL A   1      32.512  21.622  24.470  1.00  0.00     0.169 A 
ATOM      9  N   UNL A   1      33.896  21.785  24.505  1.00  0.00    -0.315 N 
ATOM     10  C   UNL A   1      34.411  20.494  24.543  1.00  0.00     0.072 A 
ATOM     11  N   UNL A   1      32.223  20.448  23.936  1.00  0.00    -0.221 NA
ATOM     12  C   UNL A   1      33.348  19.691  24.136  1.00  0.00     0.108 A 
ATOM     13  C   UNL A   1      35.634  19.941  24.939  1.00  0.00     0.049 A 
ATOM     14  C   UNL A   1      33.516  18.304  24.094  1.00  0.00     0.141 A 
ATOM     15  C   UNL A   1      35.692  18.553  24.902  1.00  0.00     0.113 A 
ATOM     16  N   UNL A   1      34.690  17.744  24.490  1.00  0.00    -0.262 NA
BRANCH   9  17
ATOM     17  C   UNL A   1      34.673  22.911  24.986  1.00  0.00     0.102 C 
ATOM     18  C   UNL A   1      37.116  23.616  25.403  1.00  0.00     0.014 C 
ATOM     19  C   UNL A   1      35.973  23.436  24.417  1.00  0.00    -0.007 C 
ATOM     20  C   UNL A   1      36.466  22.998  23.058  1.00  0.00     0.014 C 
ATOM     21  C   UNL A   1      34.714  24.346  24.515  1.00  0.00    -0.007 C 
ATOM     22  C   UNL A   1      34.685  25.419  25.596  1.00  0.00     0.014 C 
ATOM     23  C   UNL A   1      33.980  24.755  23.256  1.00  0.00     0.014 C 
ENDBRANCH   9  17
ENDBRANCH   7   8
ENDBRANCH   6   7
ENDBRANCH   4   6
ENDBRANCH   3   4
ENDBRANCH   2   3
ENDBRANCH   1   2
BRANCH   1  24
ATOM     24  O   UNL A   1      31.400  29.560  26.755  1.00  0.00    -0.374 OA
BRANCH  24  25
ATOM     25  C   UNL A   1      32.467  30.375  26.284  1.00  0.00     0.202 C 
BRANCH  25  26
ATOM     26  C   UNL A   1      33.933  30.006  26.548  1.00  0.00     0.261 C 
BRANCH  26  27
ATOM     27  O   UNL A   1      34.298  30.282  27.898  1.00  0.00    -0.460 OA
BRANCH  27  28
ATOM     28  C   UNL A   1      35.167  31.327  28.020  1.00  0.00     0.338 C 
ATOM     29  O   UNL A   1      34.917  32.498  28.095  1.00  0.00    -0.246 OA
BRANCH  28  30
ATOM     30  C   UNL A   1      36.382  30.675  28.544  1.00  0.00     0.060 A 
ATOM     31  C   UNL A   1      37.498  31.444  28.888  1.00  0.00     0.016 A 
ATOM     32  C   UNL A   1      36.485  29.301  28.269  1.00  0.00     0.016 A 
ATOM     33  C   UNL A   1      38.744  30.839  28.851  1.00  0.00     0.010 A 
ATOM     34  C   UNL A   1      37.738  28.703  28.223  1.00  0.00     0.010 A 
ATOM     35  C   UNL A   1      38.867  29.482  28.476  1.00  0.00    -0.014 A 
BRANCH  35  36
ATOM     36  C   UNL A   1      40.189  28.878  28.625  1.00  0.00     0.031 A 
ATOM     37  C   UNL A   1      40.545  28.723  30.061  1.00  0.00     0.074 A 
ATOM     38  C   UNL A   1      40.995  28.373  27.670  1.00  0.00     0.049 A 
ATOM     39  N   UNL A   1      41.532  29.257  30.699  1.00  0.00    -0.248 NA
ATOM     40  C   UNL A   1      39.578  28.009  30.913  1.00  0.00     0.031 C 
ATOM     41  C   UNL A   1      40.722  28.143  26.254  1.00  0.00     0.029 A 
ATOM     42  N   UNL A   1      42.254  27.862  27.826  1.00  0.00    -0.354 N 
ATOM     43  C   UNL A   1      41.387  28.845  32.019  1.00  0.00     0.074 A 
ATOM     44  C   UNL A   1      40.105  28.200  32.120  1.00  0.00     0.031 C 
ATOM     45  C   UNL A   1      41.697  27.360  25.733  1.00  0.00     0.029 A 
ATOM     46  C   UNL A   1      42.710  27.118  26.749  1.00  0.00     0.049 A 
ATOM     47  H   UNL A   1      42.793  28.010  28.637  1.00  0.00     0.167 HD
ATOM     48  C   UNL A   1      42.414  28.897  32.905  1.00  0.00     0.037 A 
ATOM     49  C   UNL A   1      43.793  26.300  26.730  1.00  0.00     0.037 A 
ATOM     50  C   UNL A   1      43.442  29.806  32.482  1.00  0.00     0.049 A 
ATOM     51  C   UNL A   1      44.677  26.687  27.857  1.00  0.00     0.074 A 
ATOM     52  C   UNL A   1      43.483  31.164  32.230  1.00  0.00     0.029 A 
ATOM     53  N   UNL A   1      44.581  29.290  31.919  1.00  0.00    -0.354 N 
ATOM     54  N   UNL A   1      45.367  27.792  27.902  1.00  0.00    -0.248 NA
ATOM     55  C   UNL A   1      44.477  26.022  29.137  1.00  0.00     0.031 C 
ATOM     56  C   UNL A   1      44.372  31.311  31.127  1.00  0.00     0.029 A 
ATOM     57  C   UNL A   1      44.846  30.040  30.802  1.00  0.00     0.049 A 
ATOM     58  H   UNL A   1      45.108  28.528  32.252  1.00  0.00     0.167 HD
ATOM     59  C   UNL A   1      45.313  28.182  29.231  1.00  0.00     0.074 A 
ATOM     60  C   UNL A   1      44.837  27.010  29.957  1.00  0.00     0.031 C 
ATOM     61  C   UNL A   1      45.390  29.496  29.582  1.00  0.00     0.037 A 
BRANCH  48  62
ATOM     62  C   UNL A   1      42.615  27.879  33.990  1.00  0.00     0.064 A 
ATOM     63  C   UNL A   1      43.219  26.648  33.682  1.00  0.00     0.173 A 
ATOM     64  C   UNL A   1      41.982  27.957  35.251  1.00  0.00     0.173 A 
ATOM     65  F   UNL A   1      43.818  26.458  32.497  1.00  0.00    -0.203 F 
ATOM     66  C   UNL A   1      43.140  25.556  34.549  1.00  0.00     0.198 A 
ATOM     67  C   UNL A   1      41.958  26.885  36.137  1.00  0.00     0.198 A 
ATOM     68  F   UNL A   1      41.268  29.026  35.624  1.00  0.00    -0.203 F 
ATOM     69  F   UNL A   1      43.622  24.367  34.164  1.00  0.00    -0.200 F 
ATOM     70  C   UNL A   1      42.509  25.676  35.775  1.00  0.00     0.200 A 
ATOM     71  F   UNL A   1      41.321  27.016  37.310  1.00  0.00    -0.200 F 
ATOM     72  F   UNL A   1      42.383  24.615  36.582  1.00  0.00    -0.200 F 
ENDBRANCH  48  62
BRANCH  49  73
ATOM     73  C   UNL A   1      43.980  25.024  25.994  1.00  0.00     0.064 A 
ATOM     74  C   UNL A   1      45.075  24.830  25.134  1.00  0.00     0.173 A 
ATOM     75  C   UNL A   1      43.245  23.871  26.333  1.00  0.00     0.173 A 
ATOM     76  F   UNL A   1      45.861  25.864  24.798  1.00  0.00    -0.203 F 
ATOM     77  C   UNL A   1      45.427  23.560  24.664  1.00  0.00     0.198 A 
ATOM     78  C   UNL A   1      43.590  22.606  25.856  1.00  0.00     0.198 A 
ATOM     79  F   UNL A   1      42.236  23.932  27.213  1.00  0.00    -0.203 F 
ATOM     80  F   UNL A   1      46.516  23.406  23.898  1.00  0.00    -0.200 F 
ATOM     81  C   UNL A   1      44.688  22.447  25.032  1.00  0.00     0.200 A 
ATOM     82  F   UNL A   1      42.888  21.534  26.251  1.00  0.00    -0.200 F 
ATOM     83  F   UNL A   1      45.058  21.223  24.632  1.00  0.00    -0.200 F 
ENDBRANCH  49  73
BRANCH  61  84
ATOM     84  C   UNL A   1      45.811  30.489  28.537  1.00  0.00     0.064 A 
ATOM     85  C   UNL A   1      44.929  31.071  27.610  1.00  0.00     0.173 A 
ATOM     86  C   UNL A   1      47.115  31.002  28.600  1.00  0.00     0.173 A 
ATOM     87  F   UNL A   1      43.642  30.704  27.555  1.00  0.00    -0.203 F 
ATOM     88  C   UNL A   1      45.347  32.099  26.766  1.00  0.00     0.198 A 
ATOM     89  C   UNL A   1      47.517  32.054  27.784  1.00  0.00     0.198 A 
ATOM     90  F   UNL A   1      47.983  30.518  29.502  1.00  0.00    -0.203 F 
ATOM     91  F   UNL A   1      44.489  32.638  25.888  1.00  0.00    -0.200 F 
ATOM     92  C   UNL A   1      46.636  32.598  26.864  1.00  0.00     0.200 A 
ATOM     93  F   UNL A   1      48.748  32.566  27.917  1.00  0.00    -0.200 F 
ATOM     94  F   UNL A   1      47.021  33.624  26.092  1.00  0.00    -0.200 F 
ENDBRANCH  61  84
ENDBRANCH  35  36
ENDBRANCH  28  30
ENDBRANCH  27  28
ENDBRANCH  26  27
ENDBRANCH  25  26
ENDBRANCH  24  25
ENDBRANCH   1  24
TORSDOF 17
ENDMDL
