MODEL 1
REMARK VINA RESULT:     -10.9      0.000      0.000
REMARK SMILES CC(C)Cc1ccc([C@H](CF)C(=O)OCCOCCOC(=O)c2ccc(-c3c4nc(c(-c5c(F)c(F)c(F)c(F)c5F)c5ccc([nH]5)c(-c5c(F)c(F)c(F)c(F)c5F)c5nc(c(-c6c(F)c(F)c(F)c(F)c6F)c6ccc3[nH]6)C=C5)C=C4)cc2)cc1
REMARK SMILES IDX 16 1 15 2 14 3 12 4 13 5 9 6 8 7 5 8 6 9 87 10 7 11 86 12
REMARK SMILES IDX 4 13 2 14 1 15 3 16 10 17 11 18 17 19 18 20 19 21 20 22
REMARK SMILES IDX 21 23 22 24 23 25 24 26 85 27 25 28 84 29 26 30 27 31 28 32
REMARK SMILES IDX 78 33 29 34 83 35 77 36 79 37 30 38 82 39 76 40 75 41 31 43
REMARK SMILES IDX 63 44 43 45 62 46 44 47 47 48 61 49 80 50 45 51 46 52 60 54
REMARK SMILES IDX 81 55 48 56 32 57 33 58 41 59 34 60 35 61 39 62 42 63 36 64
REMARK SMILES IDX 37 65 40 66 38 67 64 68 65 69 73 70 66 71 67 72 71 73 74 74
REMARK SMILES IDX 68 75 69 76 72 77 70 78 49 79 50 80 58 81 51 82 52 83 56 84
REMARK SMILES IDX 59 85 53 86 54 87 57 88 55 89
REMARK H PARENT 79 42 47 53
REMARK Flexibility Score: inf
ROOT
ATOM      1  C   UNL A   1      36.381  23.288  24.845  1.00  0.00     0.202 C 
ENDROOT
BRANCH   1   2
ATOM      2  C   UNL A   1      36.237  23.149  23.328  1.00  0.00     0.261 C 
BRANCH   2   3
ATOM      3  O   UNL A   1      34.898  22.769  22.957  1.00  0.00    -0.463 OA
BRANCH   3   4
ATOM      4  C   UNL A   1      33.959  23.756  23.019  1.00  0.00     0.316 C 
ATOM      5  O   UNL A   1      33.999  24.795  22.371  1.00  0.00    -0.251 OA
BRANCH   4   6
ATOM      6  C   UNL A   1      32.865  23.451  24.028  1.00  0.00     0.160 C 
BRANCH   6   7
ATOM      7  C   UNL A   1      32.676  21.962  24.239  1.00  0.00    -0.031 A 
ATOM      8  C   UNL A   1      32.658  19.180  24.621  1.00  0.00    -0.048 A 
ATOM      9  C   UNL A   1      32.286  19.724  23.388  1.00  0.00     0.004 A 
ATOM     10  C   UNL A   1      32.931  20.037  25.691  1.00  0.00     0.004 A 
ATOM     11  C   UNL A   1      32.280  21.105  23.201  1.00  0.00     0.005 A 
ATOM     12  C   UNL A   1      32.948  21.416  25.500  1.00  0.00     0.005 A 
BRANCH   8  13
ATOM     13  C   UNL A   1      32.888  17.696  24.758  1.00  0.00     0.038 C 
BRANCH  13  14
ATOM     14  C   UNL A   1      34.292  17.287  24.256  1.00  0.00    -0.013 C 
ATOM     15  C   UNL A   1      34.942  16.211  25.135  1.00  0.00     0.008 C 
ATOM     16  C   UNL A   1      34.208  16.788  22.815  1.00  0.00     0.008 C 
ENDBRANCH  13  14
ENDBRANCH   8  13
ENDBRANCH   6   7
BRANCH   6  17
ATOM     17  C   UNL A   1      31.556  24.167  23.735  1.00  0.00     0.234 C 
ATOM     18  F   UNL A   1      30.597  23.720  24.594  1.00  0.00    -0.250 F 
ENDBRANCH   6  17
ENDBRANCH   4   6
ENDBRANCH   3   4
ENDBRANCH   2   3
ENDBRANCH   1   2
BRANCH   1  19
ATOM     19  O   UNL A   1      36.235  22.094  25.608  1.00  0.00    -0.374 OA
BRANCH  19  20
ATOM     20  C   UNL A   1      36.548  20.854  24.981  1.00  0.00     0.202 C 
BRANCH  20  21
ATOM     21  C   UNL A   1      37.953  20.291  25.231  1.00  0.00     0.261 C 
BRANCH  21  22
ATOM     22  O   UNL A   1      38.958  21.315  25.360  1.00  0.00    -0.460 OA
BRANCH  22  23
ATOM     23  C   UNL A   1      39.850  21.094  26.355  1.00  0.00     0.338 C 
ATOM     24  O   UNL A   1      40.435  20.049  26.606  1.00  0.00    -0.246 OA
BRANCH  23  25
ATOM     25  C   UNL A   1      40.177  22.339  27.073  1.00  0.00     0.060 A 
ATOM     26  C   UNL A   1      39.498  23.499  26.679  1.00  0.00     0.016 A 
ATOM     27  C   UNL A   1      41.225  22.411  27.995  1.00  0.00     0.016 A 
ATOM     28  C   UNL A   1      39.908  24.743  27.152  1.00  0.00     0.010 A 
ATOM     29  C   UNL A   1      41.639  23.665  28.466  1.00  0.00     0.010 A 
ATOM     30  C   UNL A   1      41.013  24.840  28.012  1.00  0.00    -0.014 A 
BRANCH  30  31
ATOM     31  C   UNL A   1      41.583  26.182  28.289  1.00  0.00     0.031 A 
ATOM     32  C   UNL A   1      42.964  26.514  27.785  1.00  0.00     0.074 A 
ATOM     33  C   UNL A   1      40.849  27.126  28.904  1.00  0.00     0.049 A 
ATOM     34  N   UNL A   1      43.625  27.642  27.852  1.00  0.00    -0.248 NA
ATOM     35  C   UNL A   1      43.693  25.431  27.106  1.00  0.00     0.031 C 
ATOM     36  C   UNL A   1      39.490  26.942  29.408  1.00  0.00     0.029 A 
ATOM     37  N   UNL A   1      41.144  28.435  29.197  1.00  0.00    -0.354 N 
ATOM     38  C   UNL A   1      44.839  27.409  27.218  1.00  0.00     0.074 A 
ATOM     39  C   UNL A   1      44.840  26.022  26.804  1.00  0.00     0.031 C 
ATOM     40  C   UNL A   1      39.066  28.098  29.948  1.00  0.00     0.029 A 
ATOM     41  C   UNL A   1      40.128  29.097  29.840  1.00  0.00     0.049 A 
ATOM     42  H   UNL A   1      42.003  28.858  28.968  1.00  0.00     0.167 HD
ATOM     43  C   UNL A   1      45.854  28.276  26.985  1.00  0.00     0.037 A 
ATOM     44  C   UNL A   1      40.066  30.364  30.294  1.00  0.00     0.037 A 
ATOM     45  C   UNL A   1      45.861  29.654  27.397  1.00  0.00     0.049 A 
ATOM     46  C   UNL A   1      41.233  31.291  30.066  1.00  0.00     0.074 A 
ATOM     47  C   UNL A   1      46.852  30.605  27.221  1.00  0.00     0.029 A 
ATOM     48  N   UNL A   1      44.823  30.280  28.069  1.00  0.00    -0.354 N 
ATOM     49  N   UNL A   1      42.366  31.064  29.448  1.00  0.00    -0.248 NA
ATOM     50  C   UNL A   1      41.101  32.659  30.591  1.00  0.00     0.031 C 
ATOM     51  C   UNL A   1      46.426  31.798  27.814  1.00  0.00     0.029 A 
ATOM     52  C   UNL A   1      45.153  31.602  28.323  1.00  0.00     0.049 A 
ATOM     53  H   UNL A   1      43.976  29.849  28.328  1.00  0.00     0.167 HD
ATOM     54  C   UNL A   1      43.066  32.263  29.481  1.00  0.00     0.074 A 
ATOM     55  C   UNL A   1      42.224  33.221  30.166  1.00  0.00     0.031 C 
ATOM     56  C   UNL A   1      44.298  32.547  28.990  1.00  0.00     0.037 A 
BRANCH  43  57
ATOM     57  C   UNL A   1      47.053  27.756  26.250  1.00  0.00     0.064 A 
ATOM     58  C   UNL A   1      48.159  27.229  26.935  1.00  0.00     0.173 A 
ATOM     59  C   UNL A   1      47.076  27.734  24.847  1.00  0.00     0.173 A 
ATOM     60  F   UNL A   1      48.188  27.239  28.276  1.00  0.00    -0.203 F 
ATOM     61  C   UNL A   1      49.249  26.710  26.242  1.00  0.00     0.198 A 
ATOM     62  C   UNL A   1      48.159  27.195  24.158  1.00  0.00     0.198 A 
ATOM     63  F   UNL A   1      46.043  28.224  24.147  1.00  0.00    -0.203 F 
ATOM     64  F   UNL A   1      50.307  26.240  26.915  1.00  0.00    -0.200 F 
ATOM     65  C   UNL A   1      49.246  26.687  24.855  1.00  0.00     0.200 A 
ATOM     66  F   UNL A   1      48.150  27.163  22.817  1.00  0.00    -0.200 F 
ATOM     67  F   UNL A   1      50.291  26.177  24.189  1.00  0.00    -0.200 F 
ENDBRANCH  43  57
BRANCH  44  68
ATOM     68  C   UNL A   1      38.856  30.844  31.008  1.00  0.00     0.064 A 
ATOM     69  C   UNL A   1      38.753  30.758  32.403  1.00  0.00     0.173 A 
ATOM     70  C   UNL A   1      37.757  31.358  30.304  1.00  0.00     0.173 A 
ATOM     71  F   UNL A   1      39.767  30.248  33.118  1.00  0.00    -0.203 F 
ATOM     72  C   UNL A   1      37.588  31.140  33.065  1.00  0.00     0.198 A 
ATOM     73  C   UNL A   1      36.603  31.768  30.968  1.00  0.00     0.198 A 
ATOM     74  F   UNL A   1      37.804  31.461  28.967  1.00  0.00    -0.203 F 
ATOM     75  F   UNL A   1      37.496  30.993  34.393  1.00  0.00    -0.200 F 
ATOM     76  C   UNL A   1      36.515  31.648  32.347  1.00  0.00     0.200 A 
ATOM     77  F   UNL A   1      35.573  32.266  30.272  1.00  0.00    -0.200 F 
ATOM     78  F   UNL A   1      35.393  32.011  32.982  1.00  0.00    -0.200 F 
ENDBRANCH  44  68
BRANCH  56  79
ATOM     79  C   UNL A   1      44.787  33.958  29.139  1.00  0.00     0.064 A 
ATOM     80  C   UNL A   1      45.540  34.363  30.250  1.00  0.00     0.173 A 
ATOM     81  C   UNL A   1      44.510  34.912  28.148  1.00  0.00     0.173 A 
ATOM     82  F   UNL A   1      45.818  33.491  31.231  1.00  0.00    -0.203 F 
ATOM     83  C   UNL A   1      45.970  35.682  30.381  1.00  0.00     0.198 A 
ATOM     84  C   UNL A   1      44.965  36.222  28.268  1.00  0.00     0.198 A 
ATOM     85  F   UNL A   1      43.800  34.573  27.062  1.00  0.00    -0.203 F 
ATOM     86  F   UNL A   1      46.641  36.060  31.478  1.00  0.00    -0.200 F 
ATOM     87  C   UNL A   1      45.685  36.609  29.389  1.00  0.00     0.200 A 
ATOM     88  F   UNL A   1      44.698  37.114  27.304  1.00  0.00    -0.200 F 
ATOM     89  F   UNL A   1      46.097  37.877  29.518  1.00  0.00    -0.200 F 
ENDBRANCH  56  79
ENDBRANCH  30  31
ENDBRANCH  23  25
ENDBRANCH  22  23
ENDBRANCH  21  22
ENDBRANCH  20  21
ENDBRANCH  19  20
ENDBRANCH   1  19
TORSDOF 18
ENDMDL
MODEL 2
REMARK VINA RESULT:     -10.6      1.812      4.024
REMARK SMILES CC(C)Cc1ccc([C@H](CF)C(=O)OCCOCCOC(=O)c2ccc(-c3c4nc(c(-c5c(F)c(F)c(F)c(F)c5F)c5ccc([nH]5)c(-c5c(F)c(F)c(F)c(F)c5F)c5nc(c(-c6c(F)c(F)c(F)c(F)c6F)c6ccc3[nH]6)C=C5)C=C4)cc2)cc1
REMARK SMILES IDX 16 1 15 2 14 3 12 4 13 5 9 6 8 7 5 8 6 9 87 10 7 11 86 12
REMARK SMILES IDX 4 13 2 14 1 15 3 16 10 17 11 18 17 19 18 20 19 21 20 22
REMARK SMILES IDX 21 23 22 24 23 25 24 26 85 27 25 28 84 29 26 30 27 31 28 32
REMARK SMILES IDX 78 33 29 34 83 35 77 36 79 37 30 38 82 39 76 40 75 41 31 43
REMARK SMILES IDX 63 44 43 45 62 46 44 47 47 48 61 49 80 50 45 51 46 52 60 54
REMARK SMILES IDX 81 55 48 56 32 57 33 58 41 59 34 60 35 61 39 62 42 63 36 64
REMARK SMILES IDX 37 65 40 66 38 67 64 68 65 69 73 70 66 71 67 72 71 73 74 74
REMARK SMILES IDX 68 75 69 76 72 77 70 78 49 79 50 80 58 81 51 82 52 83 56 84
REMARK SMILES IDX 59 85 53 86 54 87 57 88 55 89
REMARK H PARENT 79 42 47 53
REMARK Flexibility Score: inf
ROOT
ATOM      1  C   UNL A   1      35.208  22.742  25.888  1.00  0.00     0.202 C 
ENDROOT
BRANCH   1   2
ATOM      2  C   UNL A   1      35.338  23.231  24.444  1.00  0.00     0.261 C 
BRANCH   2   3
ATOM      3  O   UNL A   1      34.144  22.962  23.685  1.00  0.00    -0.463 OA
BRANCH   3   4
ATOM      4  C   UNL A   1      33.106  23.826  23.879  1.00  0.00     0.316 C 
ATOM      5  O   UNL A   1      32.107  23.574  24.542  1.00  0.00    -0.251 OA
BRANCH   4   6
ATOM      6  C   UNL A   1      33.297  25.136  23.135  1.00  0.00     0.160 C 
BRANCH   6   7
ATOM      7  C   UNL A   1      33.161  26.340  24.047  1.00  0.00    -0.031 A 
ATOM      8  C   UNL A   1      32.722  28.375  25.931  1.00  0.00    -0.048 A 
ATOM      9  C   UNL A   1      32.063  28.403  24.698  1.00  0.00     0.004 A 
ATOM     10  C   UNL A   1      33.681  27.387  26.171  1.00  0.00     0.004 A 
ATOM     11  C   UNL A   1      32.291  27.402  23.756  1.00  0.00     0.005 A 
ATOM     12  C   UNL A   1      33.893  26.374  25.240  1.00  0.00     0.005 A 
BRANCH   8  13
ATOM     13  C   UNL A   1      32.309  29.317  27.035  1.00  0.00     0.038 C 
BRANCH  13  14
ATOM     14  C   UNL A   1      32.677  30.781  26.703  1.00  0.00    -0.013 C 
ATOM     15  C   UNL A   1      31.450  31.697  26.640  1.00  0.00     0.008 C 
ATOM     16  C   UNL A   1      33.664  31.320  27.737  1.00  0.00     0.008 C 
ENDBRANCH  13  14
ENDBRANCH   8  13
ENDBRANCH   6   7
BRANCH   6  17
ATOM     17  C   UNL A   1      32.438  25.253  21.887  1.00  0.00     0.234 C 
ATOM     18  F   UNL A   1      33.119  25.954  20.935  1.00  0.00    -0.250 F 
ENDBRANCH   6  17
ENDBRANCH   4   6
ENDBRANCH   3   4
ENDBRANCH   2   3
ENDBRANCH   1   2
BRANCH   1  19
ATOM     19  O   UNL A   1      35.773  21.465  26.178  1.00  0.00    -0.374 OA
BRANCH  19  20
ATOM     20  C   UNL A   1      36.149  20.633  25.085  1.00  0.00     0.202 C 
BRANCH  20  21
ATOM     21  C   UNL A   1      37.636  20.272  24.974  1.00  0.00     0.261 C 
BRANCH  21  22
ATOM     22  O   UNL A   1      38.509  21.394  25.208  1.00  0.00    -0.460 OA
BRANCH  22  23
ATOM     23  C   UNL A   1      39.500  21.147  26.098  1.00  0.00     0.338 C 
ATOM     24  O   UNL A   1      40.145  20.114  26.220  1.00  0.00    -0.246 OA
BRANCH  23  25
ATOM     25  C   UNL A   1      39.850  22.356  26.866  1.00  0.00     0.060 A 
ATOM     26  C   UNL A   1      39.190  23.542  26.521  1.00  0.00     0.016 A 
ATOM     27  C   UNL A   1      40.900  22.372  27.787  1.00  0.00     0.016 A 
ATOM     28  C   UNL A   1      39.622  24.758  27.044  1.00  0.00     0.010 A 
ATOM     29  C   UNL A   1      41.336  23.599  28.309  1.00  0.00     0.010 A 
ATOM     30  C   UNL A   1      40.728  24.801  27.905  1.00  0.00    -0.014 A 
BRANCH  30  31
ATOM     31  C   UNL A   1      41.322  26.121  28.236  1.00  0.00     0.031 A 
ATOM     32  C   UNL A   1      42.721  26.437  27.773  1.00  0.00     0.074 A 
ATOM     33  C   UNL A   1      40.595  27.063  28.863  1.00  0.00     0.049 A 
ATOM     34  N   UNL A   1      43.406  27.547  27.890  1.00  0.00    -0.248 NA
ATOM     35  C   UNL A   1      43.441  25.358  27.079  1.00  0.00     0.031 C 
ATOM     36  C   UNL A   1      39.220  26.895  29.330  1.00  0.00     0.029 A 
ATOM     37  N   UNL A   1      40.912  28.356  29.202  1.00  0.00    -0.354 N 
ATOM     38  C   UNL A   1      44.628  27.305  27.277  1.00  0.00     0.074 A 
ATOM     39  C   UNL A   1      44.609  25.931  26.821  1.00  0.00     0.031 C 
ATOM     40  C   UNL A   1      38.810  28.044  29.895  1.00  0.00     0.029 A 
ATOM     41  C   UNL A   1      39.896  29.020  29.842  1.00  0.00     0.049 A 
ATOM     42  H   UNL A   1      41.785  28.766  29.005  1.00  0.00     0.167 HD
ATOM     43  C   UNL A   1      45.667  28.155  27.094  1.00  0.00     0.037 A 
ATOM     44  C   UNL A   1      39.852  30.275  30.333  1.00  0.00     0.037 A 
ATOM     45  C   UNL A   1      45.696  29.520  27.548  1.00  0.00     0.049 A 
ATOM     46  C   UNL A   1      41.043  31.181  30.160  1.00  0.00     0.074 A 
ATOM     47  C   UNL A   1      46.711  30.453  27.423  1.00  0.00     0.029 A 
ATOM     48  N   UNL A   1      44.656  30.149  28.215  1.00  0.00    -0.354 N 
ATOM     49  N   UNL A   1      42.185  30.947  29.561  1.00  0.00    -0.248 NA
ATOM     50  C   UNL A   1      40.930  32.536  30.723  1.00  0.00     0.031 C 
ATOM     51  C   UNL A   1      46.298  31.637  28.043  1.00  0.00     0.029 A 
ATOM     52  C   UNL A   1      45.010  31.455  28.516  1.00  0.00     0.049 A 
ATOM     53  H   UNL A   1      43.794  29.730  28.441  1.00  0.00     0.167 HD
ATOM     54  C   UNL A   1      42.911  32.129  29.646  1.00  0.00     0.074 A 
ATOM     55  C   UNL A   1      42.075  33.084  30.341  1.00  0.00     0.031 C 
ATOM     56  C   UNL A   1      44.160  32.399  29.193  1.00  0.00     0.037 A 
BRANCH  43  57
ATOM     57  C   UNL A   1      46.872  27.630  26.370  1.00  0.00     0.064 A 
ATOM     58  C   UNL A   1      47.929  27.018  27.060  1.00  0.00     0.173 A 
ATOM     59  C   UNL A   1      46.946  27.691  24.970  1.00  0.00     0.173 A 
ATOM     60  F   UNL A   1      47.910  26.948  28.400  1.00  0.00    -0.203 F 
ATOM     61  C   UNL A   1      49.023  26.497  26.374  1.00  0.00     0.198 A 
ATOM     62  C   UNL A   1      48.032  27.148  24.287  1.00  0.00     0.198 A 
ATOM     63  F   UNL A   1      45.959  28.263  24.265  1.00  0.00    -0.203 F 
ATOM     64  F   UNL A   1      50.036  25.944  27.055  1.00  0.00    -0.200 F 
ATOM     65  C   UNL A   1      49.070  26.555  24.990  1.00  0.00     0.200 A 
ATOM     66  F   UNL A   1      48.070  27.196  22.948  1.00  0.00    -0.200 F 
ATOM     67  F   UNL A   1      50.119  26.043  24.331  1.00  0.00    -0.200 F 
ENDBRANCH  43  57
BRANCH  44  68
ATOM     68  C   UNL A   1      38.636  30.761  31.034  1.00  0.00     0.064 A 
ATOM     69  C   UNL A   1      37.568  31.330  30.327  1.00  0.00     0.173 A 
ATOM     70  C   UNL A   1      38.538  30.707  32.432  1.00  0.00     0.173 A 
ATOM     71  F   UNL A   1      37.627  31.428  28.991  1.00  0.00    -0.203 F 
ATOM     72  C   UNL A   1      36.460  31.852  30.992  1.00  0.00     0.198 A 
ATOM     73  C   UNL A   1      37.417  31.203  33.095  1.00  0.00     0.198 A 
ATOM     74  F   UNL A   1      39.533  30.174  33.156  1.00  0.00    -0.203 F 
ATOM     75  F   UNL A   1      35.480  32.442  30.295  1.00  0.00    -0.200 F 
ATOM     76  C   UNL A   1      36.385  31.785  32.375  1.00  0.00     0.200 A 
ATOM     77  F   UNL A   1      37.344  31.129  34.430  1.00  0.00    -0.200 F 
ATOM     78  F   UNL A   1      35.323  32.292  33.015  1.00  0.00    -0.200 F 
ENDBRANCH  44  68
BRANCH  56  79
ATOM     79  C   UNL A   1      44.676  33.793  29.396  1.00  0.00     0.064 A 
ATOM     80  C   UNL A   1      44.385  34.825  28.492  1.00  0.00     0.173 A 
ATOM     81  C   UNL A   1      45.460  34.103  30.518  1.00  0.00     0.173 A 
ATOM     82  F   UNL A   1      43.652  34.575  27.397  1.00  0.00    -0.203 F 
ATOM     83  C   UNL A   1      44.888  36.110  28.685  1.00  0.00     0.198 A 
ATOM     84  C   UNL A   1      45.938  35.394  30.723  1.00  0.00     0.198 A 
ATOM     85  F   UNL A   1      45.760  33.153  31.416  1.00  0.00    -0.203 F 
ATOM     86  F   UNL A   1      44.643  37.067  27.781  1.00  0.00    -0.200 F 
ATOM     87  C   UNL A   1      45.660  36.393  29.802  1.00  0.00     0.200 A 
ATOM     88  F   UNL A   1      46.675  35.670  31.808  1.00  0.00    -0.200 F 
ATOM     89  F   UNL A   1      46.146  37.629  29.985  1.00  0.00    -0.200 F 
ENDBRANCH  56  79
ENDBRANCH  30  31
ENDBRANCH  23  25
ENDBRANCH  22  23
ENDBRANCH  21  22
ENDBRANCH  20  21
ENDBRANCH  19  20
ENDBRANCH   1  19
TORSDOF 18
ENDMDL
MODEL 3
REMARK VINA RESULT:     -10.6      2.190      8.309
REMARK SMILES CC(C)Cc1ccc([C@H](CF)C(=O)OCCOCCOC(=O)c2ccc(-c3c4nc(c(-c5c(F)c(F)c(F)c(F)c5F)c5ccc([nH]5)c(-c5c(F)c(F)c(F)c(F)c5F)c5nc(c(-c6c(F)c(F)c(F)c(F)c6F)c6ccc3[nH]6)C=C5)C=C4)cc2)cc1
REMARK SMILES IDX 16 1 15 2 14 3 12 4 13 5 9 6 8 7 5 8 6 9 87 10 7 11 86 12
REMARK SMILES IDX 4 13 2 14 1 15 3 16 10 17 11 18 17 19 18 20 19 21 20 22
REMARK SMILES IDX 21 23 22 24 23 25 24 26 85 27 25 28 84 29 26 30 27 31 28 32
REMARK SMILES IDX 78 33 29 34 83 35 77 36 79 37 30 38 82 39 76 40 75 41 31 43
REMARK SMILES IDX 63 44 43 45 62 46 44 47 47 48 61 49 80 50 45 51 46 52 60 54
REMARK SMILES IDX 81 55 48 56 32 57 33 58 41 59 34 60 35 61 39 62 42 63 36 64
REMARK SMILES IDX 37 65 40 66 38 67 64 68 65 69 73 70 66 71 67 72 71 73 74 74
REMARK SMILES IDX 68 75 69 76 72 77 70 78 49 79 50 80 58 81 51 82 52 83 56 84
REMARK SMILES IDX 59 85 53 86 54 87 57 88 55 89
REMARK H PARENT 79 42 47 53
REMARK Flexibility Score: inf
ROOT
ATOM      1  C   UNL A   1      34.595  22.757  25.967  1.00  0.00     0.202 C 
ENDROOT
BRANCH   1   2
ATOM      2  C   UNL A   1      34.331  23.235  24.538  1.00  0.00     0.261 C 
BRANCH   2   3
ATOM      3  O   UNL A   1      33.005  23.781  24.399  1.00  0.00    -0.463 OA
BRANCH   3   4
ATOM      4  C   UNL A   1      32.935  25.085  24.006  1.00  0.00     0.316 C 
ATOM      5  O   UNL A   1      33.287  25.499  22.908  1.00  0.00    -0.251 OA
BRANCH   4   6
ATOM      6  C   UNL A   1      32.412  25.994  25.104  1.00  0.00     0.160 C 
BRANCH   6   7
ATOM      7  C   UNL A   1      31.224  26.819  24.652  1.00  0.00    -0.031 A 
ATOM      8  C   UNL A   1      29.082  28.229  23.507  1.00  0.00    -0.048 A 
ATOM      9  C   UNL A   1      30.251  28.901  23.876  1.00  0.00     0.004 A 
ATOM     10  C   UNL A   1      28.949  26.871  23.815  1.00  0.00     0.004 A 
ATOM     11  C   UNL A   1      31.309  28.206  24.457  1.00  0.00     0.005 A 
ATOM     12  C   UNL A   1      30.014  26.170  24.375  1.00  0.00     0.005 A 
BRANCH   8  13
ATOM     13  C   UNL A   1      28.035  28.924  22.673  1.00  0.00     0.038 C 
BRANCH  13  14
ATOM     14  C   UNL A   1      28.378  30.415  22.453  1.00  0.00    -0.013 C 
ATOM     15  C   UNL A   1      28.028  30.898  21.040  1.00  0.00     0.008 C 
ATOM     16  C   UNL A   1      27.652  31.278  23.483  1.00  0.00     0.008 C 
ENDBRANCH  13  14
ENDBRANCH   8  13
ENDBRANCH   6   7
BRANCH   6  17
ATOM     17  C   UNL A   1      33.495  26.841  25.753  1.00  0.00     0.234 C 
ATOM     18  F   UNL A   1      34.672  26.154  25.743  1.00  0.00    -0.250 F 
ENDBRANCH   6  17
ENDBRANCH   4   6
ENDBRANCH   3   4
ENDBRANCH   2   3
ENDBRANCH   1   2
BRANCH   1  19
ATOM     19  O   UNL A   1      34.982  21.393  26.118  1.00  0.00    -0.374 OA
BRANCH  19  20
ATOM     20  C   UNL A   1      35.473  20.704  24.973  1.00  0.00     0.202 C 
BRANCH  20  21
ATOM     21  C   UNL A   1      36.949  20.285  25.001  1.00  0.00     0.261 C 
BRANCH  21  22
ATOM     22  O   UNL A   1      37.851  21.403  25.117  1.00  0.00    -0.460 OA
BRANCH  22  23
ATOM     23  C   UNL A   1      38.951  21.150  25.866  1.00  0.00     0.338 C 
ATOM     24  O   UNL A   1      39.567  20.095  25.944  1.00  0.00    -0.246 OA
BRANCH  23  25
ATOM     25  C   UNL A   1      39.454  22.374  26.515  1.00  0.00     0.060 A 
ATOM     26  C   UNL A   1      38.852  23.584  26.148  1.00  0.00     0.016 A 
ATOM     27  C   UNL A   1      40.583  22.366  27.339  1.00  0.00     0.016 A 
ATOM     28  C   UNL A   1      39.415  24.793  26.547  1.00  0.00     0.010 A 
ATOM     29  C   UNL A   1      41.151  23.586  27.735  1.00  0.00     0.010 A 
ATOM     30  C   UNL A   1      40.596  24.804  27.303  1.00  0.00    -0.014 A 
BRANCH  30  31
ATOM     31  C   UNL A   1      41.310  26.092  27.490  1.00  0.00     0.031 A 
ATOM     32  C   UNL A   1      40.635  27.205  28.250  1.00  0.00     0.074 A 
ATOM     33  C   UNL A   1      42.577  26.243  27.067  1.00  0.00     0.049 A 
ATOM     34  N   UNL A   1      41.098  28.382  28.589  1.00  0.00    -0.248 NA
ATOM     35  C   UNL A   1      39.255  26.954  28.693  1.00  0.00     0.031 C 
ATOM     36  C   UNL A   1      43.353  25.231  26.352  1.00  0.00     0.029 A 
ATOM     37  N   UNL A   1      43.440  27.304  27.192  1.00  0.00    -0.354 N 
ATOM     38  C   UNL A   1      40.076  29.004  29.293  1.00  0.00     0.074 A 
ATOM     39  C   UNL A   1      38.952  28.092  29.301  1.00  0.00     0.031 C 
ATOM     40  C   UNL A   1      44.580  25.721  26.102  1.00  0.00     0.029 A 
ATOM     41  C   UNL A   1      44.670  27.083  26.626  1.00  0.00     0.049 A 
ATOM     42  H   UNL A   1      43.198  28.144  27.645  1.00  0.00     0.167 HD
ATOM     43  C   UNL A   1      40.077  30.219  29.893  1.00  0.00     0.037 A 
ATOM     44  C   UNL A   1      45.745  27.890  26.538  1.00  0.00     0.037 A 
ATOM     45  C   UNL A   1      41.189  31.133  29.885  1.00  0.00     0.049 A 
ATOM     46  C   UNL A   1      45.699  29.258  27.170  1.00  0.00     0.074 A 
ATOM     47  C   UNL A   1      41.278  32.393  30.452  1.00  0.00     0.029 A 
ATOM     48  N   UNL A   1      42.409  30.881  29.278  1.00  0.00    -0.354 N 
ATOM     49  N   UNL A   1      44.733  29.826  27.850  1.00  0.00    -0.248 NA
ATOM     50  C   UNL A   1      46.904  30.090  27.033  1.00  0.00     0.031 C 
ATOM     51  C   UNL A   1      42.542  32.917  30.161  1.00  0.00     0.029 A 
ATOM     52  C   UNL A   1      43.254  31.967  29.449  1.00  0.00     0.049 A 
ATOM     53  H   UNL A   1      42.642  30.054  28.797  1.00  0.00     0.167 HD
ATOM     54  C   UNL A   1      45.223  31.064  28.247  1.00  0.00     0.074 A 
ATOM     55  C   UNL A   1      46.578  31.158  27.747  1.00  0.00     0.031 C 
ATOM     56  C   UNL A   1      44.605  32.038  28.960  1.00  0.00     0.037 A 
BRANCH  43  57
ATOM     57  C   UNL A   1      38.829  30.638  30.612  1.00  0.00     0.064 A 
ATOM     58  C   UNL A   1      38.716  30.524  32.006  1.00  0.00     0.173 A 
ATOM     59  C   UNL A   1      37.757  31.208  29.909  1.00  0.00     0.173 A 
ATOM     60  F   UNL A   1      39.709  29.973  32.720  1.00  0.00    -0.203 F 
ATOM     61  C   UNL A   1      37.569  30.954  32.668  1.00  0.00     0.198 A 
ATOM     62  C   UNL A   1      36.621  31.658  30.577  1.00  0.00     0.198 A 
ATOM     63  F   UNL A   1      37.818  31.341  28.575  1.00  0.00    -0.203 F 
ATOM     64  F   UNL A   1      37.470  30.808  33.996  1.00  0.00    -0.200 F 
ATOM     65  C   UNL A   1      36.527  31.527  31.955  1.00  0.00     0.200 A 
ATOM     66  F   UNL A   1      35.619  32.221  29.888  1.00  0.00    -0.200 F 
ATOM     67  F   UNL A   1      35.428  31.952  32.595  1.00  0.00    -0.200 F 
ENDBRANCH  43  57
BRANCH  44  68
ATOM     68  C   UNL A   1      46.967  27.435  25.827  1.00  0.00     0.064 A 
ATOM     69  C   UNL A   1      48.028  26.835  26.518  1.00  0.00     0.173 A 
ATOM     70  C   UNL A   1      47.116  27.631  24.446  1.00  0.00     0.173 A 
ATOM     71  F   UNL A   1      47.944  26.650  27.844  1.00  0.00    -0.203 F 
ATOM     72  C   UNL A   1      49.204  26.475  25.861  1.00  0.00     0.198 A 
ATOM     73  C   UNL A   1      48.279  27.245  23.785  1.00  0.00     0.198 A 
ATOM     74  F   UNL A   1      46.129  28.202  23.739  1.00  0.00    -0.203 F 
ATOM     75  F   UNL A   1      50.225  25.957  26.556  1.00  0.00    -0.200 F 
ATOM     76  C   UNL A   1      49.326  26.678  24.495  1.00  0.00     0.200 A 
ATOM     77  F   UNL A   1      48.391  27.434  22.463  1.00  0.00    -0.200 F 
ATOM     78  F   UNL A   1      50.459  26.337  23.864  1.00  0.00    -0.200 F 
ENDBRANCH  44  68
BRANCH  56  79
ATOM     79  C   UNL A   1      45.406  33.268  29.277  1.00  0.00     0.064 A 
ATOM     80  C   UNL A   1      46.185  33.360  30.440  1.00  0.00     0.173 A 
ATOM     81  C   UNL A   1      45.405  34.361  28.397  1.00  0.00     0.173 A 
ATOM     82  F   UNL A   1      46.207  32.347  31.319  1.00  0.00    -0.203 F 
ATOM     83  C   UNL A   1      46.906  34.516  30.728  1.00  0.00     0.198 A 
ATOM     84  C   UNL A   1      46.150  35.503  28.674  1.00  0.00     0.198 A 
ATOM     85  F   UNL A   1      44.683  34.319  27.268  1.00  0.00    -0.203 F 
ATOM     86  F   UNL A   1      47.600  34.603  31.871  1.00  0.00    -0.200 F 
ATOM     87  C   UNL A   1      46.891  35.584  29.843  1.00  0.00     0.200 A 
ATOM     88  F   UNL A   1      46.143  36.531  27.813  1.00  0.00    -0.200 F 
ATOM     89  F   UNL A   1      47.584  36.697  30.123  1.00  0.00    -0.200 F 
ENDBRANCH  56  79
ENDBRANCH  30  31
ENDBRANCH  23  25
ENDBRANCH  22  23
ENDBRANCH  21  22
ENDBRANCH  20  21
ENDBRANCH  19  20
ENDBRANCH   1  19
TORSDOF 18
ENDMDL
