MODEL 1
REMARK VINA RESULT:     -10.5      0.000      0.000
REMARK SMILES NC(=O)CC[C@H](C(=O)OCCOCCOC(=O)c1ccc(-c2c3nc(c(-c4c(F)c(F)c(F)c(F)c4F)c4ccc([nH]4)c(-c4c(F)c(F)c(F)c(F)c4F)c4nc(c(-c5c(F)c(F)c(F)c(F)c5F)c5ccc2[nH]5)C=C4)C=C3)cc1)N1CCOC1=O
REMARK SMILES IDX 11 1 10 2 9 3 7 4 8 5 6 6 5 7 4 8 2 9 1 10 3 13 81 14 82 15
REMARK SMILES IDX 85 16 83 17 84 18 86 19 12 20 13 21 14 22 15 23 16 24 17 25
REMARK SMILES IDX 18 26 19 27 80 28 20 29 79 30 21 31 22 32 23 33 73 34 24 35
REMARK SMILES IDX 78 36 72 37 74 38 25 39 77 40 71 41 70 42 26 44 58 45 38 46
REMARK SMILES IDX 57 47 39 48 42 49 56 50 75 51 40 52 41 53 55 55 76 56 43 57
REMARK SMILES IDX 27 58 28 59 36 60 29 61 30 62 34 63 37 64 31 65 32 66 35 67
REMARK SMILES IDX 33 68 59 69 60 70 68 71 61 72 62 73 66 74 69 75 63 76 64 77
REMARK SMILES IDX 67 78 65 79 44 80 45 81 53 82 46 83 47 84 51 85 54 86 48 87
REMARK SMILES IDX 49 88 52 89 50 90
REMARK H PARENT 1 11 1 12 74 43 42 54
REMARK Flexibility Score: inf
ROOT
ATOM      1  C   UNL A   1      30.764  27.146  24.412  1.00  0.00     0.202 C 
ENDROOT
BRANCH   1   2
ATOM      2  C   UNL A   1      30.503  26.318  25.681  1.00  0.00     0.261 C 
BRANCH   2   3
ATOM      3  O   UNL A   1      31.618  25.609  26.235  1.00  0.00    -0.462 OA
BRANCH   3   4
ATOM      4  C   UNL A   1      31.360  24.284  26.428  1.00  0.00     0.329 C 
ATOM      5  O   UNL A   1      30.381  23.875  27.038  1.00  0.00    -0.250 OA
BRANCH   4   6
ATOM      6  C   UNL A   1      32.466  23.394  25.861  1.00  0.00     0.199 C 
BRANCH   6   7
ATOM      7  C   UNL A   1      32.063  21.907  25.962  1.00  0.00     0.047 C 
BRANCH   7   8
ATOM      8  C   UNL A   1      33.204  20.902  25.749  1.00  0.00     0.102 C 
BRANCH   8   9
ATOM      9  C   UNL A   1      32.724  19.484  25.482  1.00  0.00     0.217 C 
ATOM     10  N   UNL A   1      32.870  18.581  26.487  1.00  0.00    -0.370 N 
ATOM     11  H   UNL A   1      32.573  17.650  26.360  1.00  0.00     0.159 HD
ATOM     12  H   UNL A   1      33.271  18.857  27.342  1.00  0.00     0.159 HD
ATOM     13  O   UNL A   1      32.252  19.142  24.403  1.00  0.00    -0.275 OA
ENDBRANCH   8   9
ENDBRANCH   7   8
ENDBRANCH   6   7
BRANCH   6  14
ATOM     14  N   UNL A   1      32.823  23.781  24.489  1.00  0.00    -0.291 N 
ATOM     15  C   UNL A   1      31.925  23.677  23.379  1.00  0.00     0.165 C 
ATOM     16  C   UNL A   1      34.032  24.290  24.084  1.00  0.00     0.410 C 
ATOM     17  C   UNL A   1      32.656  24.421  22.287  1.00  0.00     0.256 C 
ATOM     18  O   UNL A   1      34.008  24.522  22.738  1.00  0.00    -0.448 OA
ATOM     19  O   UNL A   1      35.011  24.497  24.780  1.00  0.00    -0.224 OA
ENDBRANCH   6  14
ENDBRANCH   4   6
ENDBRANCH   3   4
ENDBRANCH   2   3
ENDBRANCH   1   2
BRANCH   1  20
ATOM     20  O   UNL A   1      31.591  28.294  24.441  1.00  0.00    -0.374 OA
BRANCH  20  21
ATOM     21  C   UNL A   1      31.462  29.271  25.463  1.00  0.00     0.202 C 
BRANCH  21  22
ATOM     22  C   UNL A   1      32.654  30.135  25.900  1.00  0.00     0.261 C 
BRANCH  22  23
ATOM     23  O   UNL A   1      32.543  30.705  27.213  1.00  0.00    -0.460 OA
BRANCH  23  24
ATOM     24  C   UNL A   1      33.341  31.784  27.415  1.00  0.00     0.338 C 
ATOM     25  O   UNL A   1      33.014  32.959  27.427  1.00  0.00    -0.246 OA
BRANCH  24  26
ATOM     26  C   UNL A   1      34.692  31.354  27.805  1.00  0.00     0.060 A 
ATOM     27  C   UNL A   1      34.872  30.016  28.181  1.00  0.00     0.016 A 
ATOM     28  C   UNL A   1      35.724  32.282  27.943  1.00  0.00     0.016 A 
ATOM     29  C   UNL A   1      36.078  29.608  28.741  1.00  0.00     0.010 A 
ATOM     30  C   UNL A   1      36.928  31.874  28.520  1.00  0.00     0.010 A 
ATOM     31  C   UNL A   1      37.093  30.546  28.957  1.00  0.00    -0.014 A 
BRANCH  31  32
ATOM     32  C   UNL A   1      38.254  30.173  29.796  1.00  0.00     0.031 A 
ATOM     33  C   UNL A   1      39.255  29.192  29.256  1.00  0.00     0.074 A 
ATOM     34  C   UNL A   1      38.428  30.732  31.005  1.00  0.00     0.049 A 
ATOM     35  N   UNL A   1      40.313  28.680  29.831  1.00  0.00    -0.248 NA
ATOM     36  C   UNL A   1      39.032  28.721  27.879  1.00  0.00     0.031 C 
ATOM     37  C   UNL A   1      37.552  31.736  31.604  1.00  0.00     0.029 A 
ATOM     38  N   UNL A   1      39.404  30.527  31.947  1.00  0.00    -0.354 N 
ATOM     39  C   UNL A   1      40.875  27.825  28.893  1.00  0.00     0.074 A 
ATOM     40  C   UNL A   1      40.023  27.857  27.724  1.00  0.00     0.031 C 
ATOM     41  C   UNL A   1      38.022  32.051  32.822  1.00  0.00     0.029 A 
ATOM     42  C   UNL A   1      39.208  31.244  33.101  1.00  0.00     0.049 A 
ATOM     43  H   UNL A   1      40.171  29.925  31.809  1.00  0.00     0.167 HD
ATOM     44  C   UNL A   1      42.005  27.086  28.997  1.00  0.00     0.037 A 
ATOM     45  C   UNL A   1      39.893  31.223  34.260  1.00  0.00     0.037 A 
ATOM     46  C   UNL A   1      42.845  27.061  30.167  1.00  0.00     0.049 A 
ATOM     47  C   UNL A   1      41.100  30.328  34.381  1.00  0.00     0.074 A 
ATOM     48  C   UNL A   1      44.017  26.355  30.374  1.00  0.00     0.029 A 
ATOM     49  N   UNL A   1      42.594  27.771  31.332  1.00  0.00    -0.354 N 
ATOM     50  N   UNL A   1      41.633  29.529  33.489  1.00  0.00    -0.248 NA
ATOM     51  C   UNL A   1      41.802  30.336  35.672  1.00  0.00     0.031 C 
ATOM     52  C   UNL A   1      44.439  26.587  31.686  1.00  0.00     0.029 A 
ATOM     53  C   UNL A   1      43.573  27.495  32.274  1.00  0.00     0.049 A 
ATOM     54  H   UNL A   1      41.834  28.380  31.471  1.00  0.00     0.167 HD
ATOM     55  C   UNL A   1      42.748  28.966  34.096  1.00  0.00     0.074 A 
ATOM     56  C   UNL A   1      42.822  29.526  35.429  1.00  0.00     0.031 C 
ATOM     57  C   UNL A   1      43.634  28.068  33.596  1.00  0.00     0.037 A 
BRANCH  44  58
ATOM     58  C   UNL A   1      42.381  26.220  27.828  1.00  0.00     0.064 A 
ATOM     59  C   UNL A   1      41.859  24.928  27.663  1.00  0.00     0.173 A 
ATOM     60  C   UNL A   1      43.255  26.703  26.842  1.00  0.00     0.173 A 
ATOM     61  F   UNL A   1      41.031  24.411  28.583  1.00  0.00    -0.203 F 
ATOM     62  C   UNL A   1      42.221  24.142  26.571  1.00  0.00     0.198 A 
ATOM     63  C   UNL A   1      43.588  25.927  25.734  1.00  0.00     0.198 A 
ATOM     64  F   UNL A   1      43.783  27.931  26.946  1.00  0.00    -0.203 F 
ATOM     65  F   UNL A   1      41.753  22.890  26.464  1.00  0.00    -0.200 F 
ATOM     66  C   UNL A   1      43.078  24.644  25.604  1.00  0.00     0.200 A 
ATOM     67  F   UNL A   1      44.405  26.421  24.793  1.00  0.00    -0.200 F 
ATOM     68  F   UNL A   1      43.419  23.890  24.550  1.00  0.00    -0.200 F 
ENDBRANCH  44  58
BRANCH  45  69
ATOM     69  C   UNL A   1      39.445  32.064  35.401  1.00  0.00     0.064 A 
ATOM     70  C   UNL A   1      39.960  33.352  35.597  1.00  0.00     0.173 A 
ATOM     71  C   UNL A   1      38.500  31.592  36.324  1.00  0.00     0.173 A 
ATOM     72  F   UNL A   1      40.882  33.841  34.755  1.00  0.00    -0.203 F 
ATOM     73  C   UNL A   1      39.562  34.128  36.685  1.00  0.00     0.198 A 
ATOM     74  C   UNL A   1      38.078  32.381  37.392  1.00  0.00     0.198 A 
ATOM     75  F   UNL A   1      37.974  30.366  36.181  1.00  0.00    -0.203 F 
ATOM     76  F   UNL A   1      40.108  35.336  36.877  1.00  0.00    -0.200 F 
ATOM     77  C   UNL A   1      38.617  33.645  37.577  1.00  0.00     0.200 A 
ATOM     78  F   UNL A   1      37.153  31.915  38.241  1.00  0.00    -0.200 F 
ATOM     79  F   UNL A   1      38.231  34.393  38.619  1.00  0.00    -0.200 F 
ENDBRANCH  45  69
BRANCH  57  80
ATOM     80  C   UNL A   1      44.785  27.668  34.476  1.00  0.00     0.064 A 
ATOM     81  C   UNL A   1      44.733  26.529  35.293  1.00  0.00     0.173 A 
ATOM     82  C   UNL A   1      45.974  28.415  34.469  1.00  0.00     0.173 A 
ATOM     83  F   UNL A   1      43.616  25.787  35.348  1.00  0.00    -0.203 F 
ATOM     84  C   UNL A   1      45.816  26.171  36.093  1.00  0.00     0.198 A 
ATOM     85  C   UNL A   1      47.067  28.033  35.241  1.00  0.00     0.198 A 
ATOM     86  F   UNL A   1      46.081  29.508  33.698  1.00  0.00    -0.203 F 
ATOM     87  F   UNL A   1      45.722  25.110  36.907  1.00  0.00    -0.200 F 
ATOM     88  C   UNL A   1      46.984  26.917  36.060  1.00  0.00     0.200 A 
ATOM     89  F   UNL A   1      48.201  28.746  35.192  1.00  0.00    -0.200 F 
ATOM     90  F   UNL A   1      48.028  26.565  36.823  1.00  0.00    -0.200 F 
ENDBRANCH  57  80
ENDBRANCH  31  32
ENDBRANCH  24  26
ENDBRANCH  23  24
ENDBRANCH  22  23
ENDBRANCH  21  22
ENDBRANCH  20  21
ENDBRANCH   1  20
TORSDOF 18
ENDMDL
MODEL 2
REMARK VINA RESULT:     -10.2      4.842     10.088
REMARK SMILES NC(=O)CC[C@H](C(=O)OCCOCCOC(=O)c1ccc(-c2c3nc(c(-c4c(F)c(F)c(F)c(F)c4F)c4ccc([nH]4)c(-c4c(F)c(F)c(F)c(F)c4F)c4nc(c(-c5c(F)c(F)c(F)c(F)c5F)c5ccc2[nH]5)C=C4)C=C3)cc1)N1CCOC1=O
REMARK SMILES IDX 11 1 10 2 9 3 7 4 8 5 6 6 5 7 4 8 2 9 1 10 3 13 81 14 82 15
REMARK SMILES IDX 85 16 83 17 84 18 86 19 12 20 13 21 14 22 15 23 16 24 17 25
REMARK SMILES IDX 18 26 19 27 80 28 20 29 79 30 21 31 22 32 23 33 73 34 24 35
REMARK SMILES IDX 78 36 72 37 74 38 25 39 77 40 71 41 70 42 26 44 58 45 38 46
REMARK SMILES IDX 57 47 39 48 42 49 56 50 75 51 40 52 41 53 55 55 76 56 43 57
REMARK SMILES IDX 27 58 28 59 36 60 29 61 30 62 34 63 37 64 31 65 32 66 35 67
REMARK SMILES IDX 33 68 59 69 60 70 68 71 61 72 62 73 66 74 69 75 63 76 64 77
REMARK SMILES IDX 67 78 65 79 44 80 45 81 53 82 46 83 47 84 51 85 54 86 48 87
REMARK SMILES IDX 49 88 52 89 50 90
REMARK H PARENT 1 11 1 12 74 43 42 54
REMARK Flexibility Score: inf
ROOT
ATOM      1  C   UNL A   1      37.398  22.543  24.666  1.00  0.00     0.202 C 
ENDROOT
BRANCH   1   2
ATOM      2  C   UNL A   1      36.114  23.326  24.348  1.00  0.00     0.261 C 
BRANCH   2   3
ATOM      3  O   UNL A   1      35.645  23.284  22.995  1.00  0.00    -0.462 OA
BRANCH   3   4
ATOM      4  C   UNL A   1      34.285  23.223  22.909  1.00  0.00     0.329 C 
ATOM      5  O   UNL A   1      33.665  23.532  21.900  1.00  0.00    -0.250 OA
BRANCH   4   6
ATOM      6  C   UNL A   1      33.642  22.799  24.229  1.00  0.00     0.199 C 
BRANCH   6   7
ATOM      7  C   UNL A   1      32.394  23.660  24.519  1.00  0.00     0.047 C 
BRANCH   7   8
ATOM      8  C   UNL A   1      32.137  23.965  26.002  1.00  0.00     0.102 C 
BRANCH   8   9
ATOM      9  C   UNL A   1      30.814  23.419  26.517  1.00  0.00     0.217 C 
ATOM     10  N   UNL A   1      30.454  22.176  26.103  1.00  0.00    -0.370 N 
ATOM     11  H   UNL A   1      29.606  21.781  26.411  1.00  0.00     0.159 HD
ATOM     12  H   UNL A   1      31.040  21.670  25.495  1.00  0.00     0.159 HD
ATOM     13  O   UNL A   1      30.077  24.067  27.251  1.00  0.00    -0.275 OA
ENDBRANCH   8   9
ENDBRANCH   7   8
ENDBRANCH   6   7
BRANCH   6  14
ATOM     14  N   UNL A   1      33.344  21.360  24.250  1.00  0.00    -0.291 N 
ATOM     15  C   UNL A   1      33.941  20.443  25.171  1.00  0.00     0.165 C 
ATOM     16  C   UNL A   1      32.470  20.707  23.417  1.00  0.00     0.410 C 
ATOM     17  C   UNL A   1      33.134  19.184  24.959  1.00  0.00     0.256 C 
ATOM     18  O   UNL A   1      32.456  19.374  23.716  1.00  0.00    -0.448 OA
ATOM     19  O   UNL A   1      31.806  21.196  22.520  1.00  0.00    -0.224 OA
ENDBRANCH   6  14
ENDBRANCH   4   6
ENDBRANCH   3   4
ENDBRANCH   2   3
ENDBRANCH   1   2
BRANCH   1  20
ATOM     20  O   UNL A   1      37.371  21.384  25.476  1.00  0.00    -0.374 OA
BRANCH  20  21
ATOM     21  C   UNL A   1      37.685  20.104  24.945  1.00  0.00     0.202 C 
BRANCH  21  22
ATOM     22  C   UNL A   1      38.949  19.347  25.376  1.00  0.00     0.261 C 
BRANCH  22  23
ATOM     23  O   UNL A   1      39.837  20.083  26.232  1.00  0.00    -0.460 OA
BRANCH  23  24
ATOM     24  C   UNL A   1      41.137  19.713  26.126  1.00  0.00     0.338 C 
ATOM     25  O   UNL A   1      41.577  18.638  25.752  1.00  0.00    -0.246 OA
BRANCH  24  26
ATOM     26  C   UNL A   1      42.018  20.866  26.367  1.00  0.00     0.060 A 
ATOM     27  C   UNL A   1      42.226  21.268  27.693  1.00  0.00     0.016 A 
ATOM     28  C   UNL A   1      42.503  21.627  25.303  1.00  0.00     0.016 A 
ATOM     29  C   UNL A   1      42.887  22.460  27.962  1.00  0.00     0.010 A 
ATOM     30  C   UNL A   1      43.152  22.833  25.575  1.00  0.00     0.010 A 
ATOM     31  C   UNL A   1      43.310  23.272  26.903  1.00  0.00    -0.014 A 
BRANCH  31  32
ATOM     32  C   UNL A   1      43.758  24.654  27.187  1.00  0.00     0.031 A 
ATOM     33  C   UNL A   1      42.753  25.656  27.680  1.00  0.00     0.074 A 
ATOM     34  C   UNL A   1      45.049  24.995  27.043  1.00  0.00     0.049 A 
ATOM     35  N   UNL A   1      42.906  26.929  27.940  1.00  0.00    -0.248 NA
ATOM     36  C   UNL A   1      41.388  25.154  27.909  1.00  0.00     0.031 C 
ATOM     37  C   UNL A   1      46.118  24.090  26.627  1.00  0.00     0.029 A 
ATOM     38  N   UNL A   1      45.677  26.200  27.228  1.00  0.00    -0.354 N 
ATOM     39  C   UNL A   1      41.660  27.380  28.354  1.00  0.00     0.074 A 
ATOM     40  C   UNL A   1      40.753  26.256  28.277  1.00  0.00     0.031 C 
ATOM     41  C   UNL A   1      47.272  24.777  26.574  1.00  0.00     0.029 A 
ATOM     42  C   UNL A   1      47.012  26.174  26.915  1.00  0.00     0.049 A 
ATOM     43  H   UNL A   1      45.214  27.006  27.554  1.00  0.00     0.167 HD
ATOM     44  C   UNL A   1      41.309  28.621  28.769  1.00  0.00     0.037 A 
ATOM     45  C   UNL A   1      47.913  27.174  26.880  1.00  0.00     0.037 A 
ATOM     46  C   UNL A   1      42.221  29.733  28.840  1.00  0.00     0.049 A 
ATOM     47  C   UNL A   1      47.478  28.565  27.265  1.00  0.00     0.074 A 
ATOM     48  C   UNL A   1      41.971  31.030  29.254  1.00  0.00     0.029 A 
ATOM     49  N   UNL A   1      43.559  29.680  28.478  1.00  0.00    -0.354 N 
ATOM     50  N   UNL A   1      46.302  28.986  27.665  1.00  0.00    -0.248 NA
ATOM     51  C   UNL A   1      48.498  29.620  27.196  1.00  0.00     0.031 C 
ATOM     52  C   UNL A   1      43.142  31.775  29.082  1.00  0.00     0.029 A 
ATOM     53  C   UNL A   1      44.141  30.929  28.630  1.00  0.00     0.049 A 
ATOM     54  H   UNL A   1      44.027  28.875  28.160  1.00  0.00     0.167 HD
ATOM     55  C   UNL A   1      46.449  30.342  27.927  1.00  0.00     0.074 A 
ATOM     56  C   UNL A   1      47.832  30.670  27.653  1.00  0.00     0.031 C 
ATOM     57  C   UNL A   1      45.523  31.236  28.358  1.00  0.00     0.037 A 
BRANCH  44  58
ATOM     58  C   UNL A   1      39.872  28.849  29.146  1.00  0.00     0.064 A 
ATOM     59  C   UNL A   1      39.417  28.698  30.465  1.00  0.00     0.173 A 
ATOM     60  C   UNL A   1      38.942  29.256  28.176  1.00  0.00     0.173 A 
ATOM     61  F   UNL A   1      40.261  28.298  31.428  1.00  0.00    -0.203 F 
ATOM     62  C   UNL A   1      38.081  28.916  30.792  1.00  0.00     0.198 A 
ATOM     63  C   UNL A   1      37.614  29.505  28.514  1.00  0.00     0.198 A 
ATOM     64  F   UNL A   1      39.321  29.419  26.900  1.00  0.00    -0.203 F 
ATOM     65  F   UNL A   1      37.658  28.712  32.048  1.00  0.00    -0.200 F 
ATOM     66  C   UNL A   1      37.183  29.327  29.819  1.00  0.00     0.200 A 
ATOM     67  F   UNL A   1      36.752  29.916  27.573  1.00  0.00    -0.200 F 
ATOM     68  F   UNL A   1      35.899  29.543  30.137  1.00  0.00    -0.200 F 
ENDBRANCH  44  58
BRANCH  45  69
ATOM     69  C   UNL A   1      49.309  26.900  26.450  1.00  0.00     0.064 A 
ATOM     70  C   UNL A   1      49.677  26.965  25.100  1.00  0.00     0.173 A 
ATOM     71  C   UNL A   1      50.301  26.557  27.381  1.00  0.00     0.173 A 
ATOM     72  F   UNL A   1      48.760  27.267  24.170  1.00  0.00    -0.203 F 
ATOM     73  C   UNL A   1      50.980  26.678  24.694  1.00  0.00     0.198 A 
ATOM     74  C   UNL A   1      51.611  26.303  26.978  1.00  0.00     0.198 A 
ATOM     75  F   UNL A   1      50.003  26.482  28.686  1.00  0.00    -0.203 F 
ATOM     76  F   UNL A   1      51.292  26.699  23.392  1.00  0.00    -0.200 F 
ATOM     77  C   UNL A   1      51.946  26.354  25.634  1.00  0.00     0.200 A 
ATOM     78  F   UNL A   1      52.545  26.006  27.892  1.00  0.00    -0.200 F 
ATOM     79  F   UNL A   1      53.200  26.083  25.244  1.00  0.00    -0.200 F 
ENDBRANCH  45  69
BRANCH  57  80
ATOM     80  C   UNL A   1      45.985  32.645  28.603  1.00  0.00     0.064 A 
ATOM     81  C   UNL A   1      46.522  33.046  29.835  1.00  0.00     0.173 A 
ATOM     82  C   UNL A   1      45.927  33.597  27.573  1.00  0.00     0.173 A 
ATOM     83  F   UNL A   1      46.589  32.180  30.857  1.00  0.00    -0.203 F 
ATOM     84  C   UNL A   1      46.954  34.355  30.036  1.00  0.00     0.198 A 
ATOM     85  C   UNL A   1      46.394  34.894  27.766  1.00  0.00     0.198 A 
ATOM     86  F   UNL A   1      45.432  33.265  26.371  1.00  0.00    -0.203 F 
ATOM     87  F   UNL A   1      47.412  34.730  31.239  1.00  0.00    -0.200 F 
ATOM     88  C   UNL A   1      46.898  35.275  29.000  1.00  0.00     0.200 A 
ATOM     89  F   UNL A   1      46.356  35.776  26.757  1.00  0.00    -0.200 F 
ATOM     90  F   UNL A   1      47.323  36.531  29.193  1.00  0.00    -0.200 F 
ENDBRANCH  57  80
ENDBRANCH  31  32
ENDBRANCH  24  26
ENDBRANCH  23  24
ENDBRANCH  22  23
ENDBRANCH  21  22
ENDBRANCH  20  21
ENDBRANCH   1  20
TORSDOF 18
ENDMDL
MODEL 3
REMARK VINA RESULT:     -10.1      4.691      8.197
REMARK SMILES NC(=O)CC[C@H](C(=O)OCCOCCOC(=O)c1ccc(-c2c3nc(c(-c4c(F)c(F)c(F)c(F)c4F)c4ccc([nH]4)c(-c4c(F)c(F)c(F)c(F)c4F)c4nc(c(-c5c(F)c(F)c(F)c(F)c5F)c5ccc2[nH]5)C=C4)C=C3)cc1)N1CCOC1=O
REMARK SMILES IDX 11 1 10 2 9 3 7 4 8 5 6 6 5 7 4 8 2 9 1 10 3 13 81 14 82 15
REMARK SMILES IDX 85 16 83 17 84 18 86 19 12 20 13 21 14 22 15 23 16 24 17 25
REMARK SMILES IDX 18 26 19 27 80 28 20 29 79 30 21 31 22 32 23 33 73 34 24 35
REMARK SMILES IDX 78 36 72 37 74 38 25 39 77 40 71 41 70 42 26 44 58 45 38 46
REMARK SMILES IDX 57 47 39 48 42 49 56 50 75 51 40 52 41 53 55 55 76 56 43 57
REMARK SMILES IDX 27 58 28 59 36 60 29 61 30 62 34 63 37 64 31 65 32 66 35 67
REMARK SMILES IDX 33 68 59 69 60 70 68 71 61 72 62 73 66 74 69 75 63 76 64 77
REMARK SMILES IDX 67 78 65 79 44 80 45 81 53 82 46 83 47 84 51 85 54 86 48 87
REMARK SMILES IDX 49 88 52 89 50 90
REMARK H PARENT 1 11 1 12 74 43 42 54
REMARK Flexibility Score: inf
ROOT
ATOM      1  C   UNL A   1      37.404  22.383  24.785  1.00  0.00     0.202 C 
ENDROOT
BRANCH   1   2
ATOM      2  C   UNL A   1      36.362  23.478  25.060  1.00  0.00     0.261 C 
BRANCH   2   3
ATOM      3  O   UNL A   1      34.987  23.133  24.853  1.00  0.00    -0.462 OA
BRANCH   3   4
ATOM      4  C   UNL A   1      34.525  23.512  23.627  1.00  0.00     0.329 C 
ATOM      5  O   UNL A   1      35.151  23.329  22.591  1.00  0.00    -0.250 OA
BRANCH   4   6
ATOM      6  C   UNL A   1      33.189  24.248  23.717  1.00  0.00     0.199 C 
BRANCH   6   7
ATOM      7  C   UNL A   1      32.540  24.016  25.098  1.00  0.00     0.047 C 
BRANCH   7   8
ATOM      8  C   UNL A   1      31.071  23.571  25.067  1.00  0.00     0.102 C 
BRANCH   8   9
ATOM      9  C   UNL A   1      30.278  24.003  26.291  1.00  0.00     0.217 C 
ATOM     10  N   UNL A   1      29.619  25.189  26.216  1.00  0.00    -0.370 N 
ATOM     11  H   UNL A   1      29.091  25.509  26.984  1.00  0.00     0.159 HD
ATOM     12  H   UNL A   1      29.668  25.728  25.394  1.00  0.00     0.159 HD
ATOM     13  O   UNL A   1      30.245  23.338  27.321  1.00  0.00    -0.275 OA
ENDBRANCH   8   9
ENDBRANCH   7   8
ENDBRANCH   6   7
BRANCH   6  14
ATOM     14  N   UNL A   1      33.334  25.676  23.402  1.00  0.00    -0.291 N 
ATOM     15  C   UNL A   1      33.463  26.695  24.400  1.00  0.00     0.165 C 
ATOM     16  C   UNL A   1      33.371  26.225  22.145  1.00  0.00     0.410 C 
ATOM     17  C   UNL A   1      33.835  27.912  23.586  1.00  0.00     0.256 C 
ATOM     18  O   UNL A   1      33.502  27.581  22.237  1.00  0.00    -0.448 OA
ATOM     19  O   UNL A   1      33.281  25.634  21.083  1.00  0.00    -0.224 OA
ENDBRANCH   6  14
ENDBRANCH   4   6
ENDBRANCH   3   4
ENDBRANCH   2   3
ENDBRANCH   1   2
BRANCH   1  20
ATOM     20  O   UNL A   1      37.385  21.156  25.488  1.00  0.00    -0.374 OA
BRANCH  20  21
ATOM     21  C   UNL A   1      37.788  19.943  24.868  1.00  0.00     0.202 C 
BRANCH  21  22
ATOM     22  C   UNL A   1      38.998  19.147  25.378  1.00  0.00     0.261 C 
BRANCH  22  23
ATOM     23  O   UNL A   1      39.838  19.847  26.309  1.00  0.00    -0.460 OA
BRANCH  23  24
ATOM     24  C   UNL A   1      41.162  19.597  26.152  1.00  0.00     0.338 C 
ATOM     25  O   UNL A   1      41.683  18.569  25.753  1.00  0.00    -0.246 OA
BRANCH  24  26
ATOM     26  C   UNL A   1      41.943  20.824  26.371  1.00  0.00     0.060 A 
ATOM     27  C   UNL A   1      42.181  21.224  27.692  1.00  0.00     0.016 A 
ATOM     28  C   UNL A   1      42.299  21.643  25.299  1.00  0.00     0.016 A 
ATOM     29  C   UNL A   1      42.742  22.470  27.951  1.00  0.00     0.010 A 
ATOM     30  C   UNL A   1      42.847  22.900  25.562  1.00  0.00     0.010 A 
ATOM     31  C   UNL A   1      43.032  23.333  26.888  1.00  0.00    -0.014 A 
BRANCH  31  32
ATOM     32  C   UNL A   1      43.363  24.746  27.176  1.00  0.00     0.031 A 
ATOM     33  C   UNL A   1      44.758  25.235  26.907  1.00  0.00     0.074 A 
ATOM     34  C   UNL A   1      42.421  25.587  27.634  1.00  0.00     0.049 A 
ATOM     35  N   UNL A   1      45.286  26.410  27.133  1.00  0.00    -0.248 NA
ATOM     36  C   UNL A   1      45.685  24.263  26.303  1.00  0.00     0.031 C 
ATOM     37  C   UNL A   1      41.023  25.235  27.876  1.00  0.00     0.029 A 
ATOM     38  N   UNL A   1      42.503  26.911  27.981  1.00  0.00    -0.354 N 
ATOM     39  C   UNL A   1      46.604  26.318  26.707  1.00  0.00     0.074 A 
ATOM     40  C   UNL A   1      46.808  24.963  26.243  1.00  0.00     0.031 C 
ATOM     41  C   UNL A   1      40.379  26.316  28.348  1.00  0.00     0.029 A 
ATOM     42  C   UNL A   1      41.328  27.421  28.475  1.00  0.00     0.049 A 
ATOM     43  H   UNL A   1      43.325  27.445  27.885  1.00  0.00     0.167 HD
ATOM     44  C   UNL A   1      47.556  27.282  26.697  1.00  0.00     0.037 A 
ATOM     45  C   UNL A   1      41.062  28.632  28.997  1.00  0.00     0.037 A 
ATOM     46  C   UNL A   1      47.341  28.628  27.163  1.00  0.00     0.049 A 
ATOM     47  C   UNL A   1      42.161  29.663  29.054  1.00  0.00     0.074 A 
ATOM     48  C   UNL A   1      48.234  29.685  27.189  1.00  0.00     0.029 A 
ATOM     49  N   UNL A   1      46.148  29.098  27.693  1.00  0.00    -0.354 N 
ATOM     50  N   UNL A   1      43.403  29.575  28.642  1.00  0.00    -0.248 NA
ATOM     51  C   UNL A   1      41.819  30.963  29.647  1.00  0.00     0.031 C 
ATOM     52  C   UNL A   1      47.600  30.776  27.794  1.00  0.00     0.029 A 
ATOM     53  C   UNL A   1      46.291  30.422  28.078  1.00  0.00     0.049 A 
ATOM     54  H   UNL A   1      45.322  28.571  27.783  1.00  0.00     0.167 HD
ATOM     55  C   UNL A   1      43.979  30.814  28.894  1.00  0.00     0.074 A 
ATOM     56  C   UNL A   1      42.945  31.640  29.482  1.00  0.00     0.031 C 
ATOM     57  C   UNL A   1      45.248  31.232  28.657  1.00  0.00     0.037 A 
BRANCH  44  58
ATOM     58  C   UNL A   1      48.922  26.908  26.198  1.00  0.00     0.064 A 
ATOM     59  C   UNL A   1      49.288  27.057  24.852  1.00  0.00     0.173 A 
ATOM     60  C   UNL A   1      49.891  26.420  27.089  1.00  0.00     0.173 A 
ATOM     61  F   UNL A   1      48.397  27.505  23.956  1.00  0.00    -0.203 F 
ATOM     62  C   UNL A   1      50.562  26.704  24.411  1.00  0.00     0.198 A 
ATOM     63  C   UNL A   1      51.174  26.100  26.651  1.00  0.00     0.198 A 
ATOM     64  F   UNL A   1      49.598  26.259  28.388  1.00  0.00    -0.203 F 
ATOM     65  F   UNL A   1      50.871  26.803  23.110  1.00  0.00    -0.200 F 
ATOM     66  C   UNL A   1      51.506  26.234  25.312  1.00  0.00     0.200 A 
ATOM     67  F   UNL A   1      52.089  25.660  27.527  1.00  0.00    -0.200 F 
ATOM     68  F   UNL A   1      52.733  25.902  24.887  1.00  0.00    -0.200 F 
ENDBRANCH  44  58
BRANCH  45  69
ATOM     69  C   UNL A   1      39.704  28.931  29.523  1.00  0.00     0.064 A 
ATOM     70  C   UNL A   1      39.381  28.703  30.867  1.00  0.00     0.173 A 
ATOM     71  C   UNL A   1      38.699  29.442  28.689  1.00  0.00     0.173 A 
ATOM     72  F   UNL A   1      40.302  28.195  31.700  1.00  0.00    -0.203 F 
ATOM     73  C   UNL A   1      38.099  28.954  31.352  1.00  0.00     0.198 A 
ATOM     74  C   UNL A   1      37.427  29.724  29.182  1.00  0.00     0.198 A 
ATOM     75  F   UNL A   1      38.956  29.680  27.394  1.00  0.00    -0.203 F 
ATOM     76  F   UNL A   1      37.804  28.680  32.630  1.00  0.00    -0.200 F 
ATOM     77  C   UNL A   1      37.125  29.471  30.511  1.00  0.00     0.200 A 
ATOM     78  F   UNL A   1      36.494  30.239  28.369  1.00  0.00    -0.200 F 
ATOM     79  F   UNL A   1      35.894  29.718  30.979  1.00  0.00    -0.200 F 
ENDBRANCH  45  69
BRANCH  57  80
ATOM     80  C   UNL A   1      45.579  32.660  28.993  1.00  0.00     0.064 A 
ATOM     81  C   UNL A   1      45.369  33.704  28.080  1.00  0.00     0.173 A 
ATOM     82  C   UNL A   1      46.075  32.990  30.264  1.00  0.00     0.173 A 
ATOM     83  F   UNL A   1      44.909  33.442  26.848  1.00  0.00    -0.203 F 
ATOM     84  C   UNL A   1      45.674  35.021  28.417  1.00  0.00     0.198 A 
ATOM     85  C   UNL A   1      46.342  34.311  30.610  1.00  0.00     0.198 A 
ATOM     86  F   UNL A   1      46.285  32.031  31.178  1.00  0.00    -0.203 F 
ATOM     87  F   UNL A   1      45.517  35.995  27.509  1.00  0.00    -0.200 F 
ATOM     88  C   UNL A   1      46.151  35.325  29.683  1.00  0.00     0.200 A 
ATOM     89  F   UNL A   1      46.786  34.604  31.840  1.00  0.00    -0.200 F 
ATOM     90  F   UNL A   1      46.434  36.594  30.008  1.00  0.00    -0.200 F 
ENDBRANCH  57  80
ENDBRANCH  31  32
ENDBRANCH  24  26
ENDBRANCH  23  24
ENDBRANCH  22  23
ENDBRANCH  21  22
ENDBRANCH  20  21
ENDBRANCH   1  20
TORSDOF 18
ENDMDL
