MODEL 1
REMARK VINA RESULT:     -12.1      0.000      0.000
REMARK SMILES CCCN1CCC[C@@]2(CCN(c3ccc(C(=O)OCCOCCOC(=O)c4ccc(-c5c6nc(c(-c7c(F)c(F)c(F)c(F)c7F)c7ccc([nH]7)c(-c7c(F)c(F)c(F)c(F)c7F)c7nc(c(-c8c(F)c(F)c(F)c(F)c8F)c8ccc5[nH]8)C=C7)C=C6)cc4)cn3)C2)C1=O
REMARK SMILES IDX 20 1 19 2 18 3 16 4 17 5 15 6 12 7 13 8 91 9 14 10 90 11
REMARK SMILES IDX 11 12 4 13 5 14 93 15 6 16 8 17 94 18 7 19 9 20 92 21 10 22
REMARK SMILES IDX 3 23 2 24 1 25 21 26 22 27 23 28 24 29 25 30 26 31 27 32
REMARK SMILES IDX 28 33 89 34 29 35 88 36 30 37 31 38 32 39 82 40 33 41 87 42
REMARK SMILES IDX 81 43 83 44 34 45 86 46 80 47 79 48 35 50 67 51 47 52 66 53
REMARK SMILES IDX 48 54 51 55 65 56 84 57 49 58 50 59 64 61 85 62 52 63 36 64
REMARK SMILES IDX 37 65 45 66 38 67 39 68 43 69 46 70 40 71 41 72 44 73 42 74
REMARK SMILES IDX 68 75 69 76 77 77 70 78 71 79 75 80 78 81 72 82 73 83 76 84
REMARK SMILES IDX 74 85 53 86 54 87 62 88 55 89 56 90 60 91 63 92 57 93 58 94
REMARK SMILES IDX 61 95 59 96
REMARK H PARENT 83 49 51 60
REMARK Flexibility Score: inf
ROOT
ATOM      1  C   UNL A   1      39.400  21.969  26.501  1.00  0.00     0.202 C 
ENDROOT
BRANCH   1   2
ATOM      2  C   UNL A   1      38.538  21.318  25.416  1.00  0.00     0.261 C 
BRANCH   2   3
ATOM      3  O   UNL A   1      37.191  21.814  25.466  1.00  0.00    -0.460 OA
BRANCH   3   4
ATOM      4  C   UNL A   1      36.256  21.002  24.920  1.00  0.00     0.339 C 
ATOM      5  O   UNL A   1      36.168  19.789  25.054  1.00  0.00    -0.246 OA
BRANCH   4   6
ATOM      6  C   UNL A   1      35.232  21.805  24.236  1.00  0.00     0.078 A 
ATOM      7  C   UNL A   1      33.496  23.485  22.905  1.00  0.00     0.128 A 
ATOM      8  C   UNL A   1      32.993  22.445  23.693  1.00  0.00     0.048 A 
ATOM      9  N   UNL A   1      34.820  23.648  22.724  1.00  0.00    -0.238 NA
ATOM     10  C   UNL A   1      33.865  21.583  24.356  1.00  0.00     0.021 A 
ATOM     11  C   UNL A   1      35.658  22.830  23.405  1.00  0.00     0.129 A 
BRANCH   7  12
ATOM     12  N   UNL A   1      32.622  24.426  22.391  1.00  0.00    -0.356 N 
ATOM     13  N   UNL A   1      32.291  28.474  24.077  1.00  0.00    -0.342 N 
ATOM     14  C   UNL A   1      30.930  28.603  24.582  1.00  0.00     0.119 C 
ATOM     15  C   UNL A   1      32.576  27.789  22.894  1.00  0.00     0.230 C 
ATOM     16  C   UNL A   1      30.030  27.416  24.290  1.00  0.00     0.023 C 
ATOM     17  C   UNL A   1      31.646  26.616  22.549  1.00  0.00     0.069 C 
ATOM     18  O   UNL A   1      33.591  28.012  22.234  1.00  0.00    -0.274 OA
ATOM     19  C   UNL A   1      30.187  26.965  22.847  1.00  0.00     0.021 C 
ATOM     20  C   UNL A   1      31.829  26.166  21.084  1.00  0.00     0.040 C 
ATOM     21  C   UNL A   1      32.124  25.393  23.372  1.00  0.00     0.135 C 
ATOM     22  C   UNL A   1      32.939  25.116  21.150  1.00  0.00     0.119 C 
BRANCH  13  23
ATOM     23  C   UNL A   1      33.386  29.200  24.735  1.00  0.00     0.119 C 
BRANCH  23  24
ATOM     24  C   UNL A   1      34.191  28.468  25.816  1.00  0.00     0.018 C 
ATOM     25  C   UNL A   1      33.457  27.297  26.460  1.00  0.00     0.006 C 
ENDBRANCH  23  24
ENDBRANCH  13  23
ENDBRANCH   7  12
ENDBRANCH   4   6
ENDBRANCH   3   4
ENDBRANCH   2   3
ENDBRANCH   1   2
BRANCH   1  26
ATOM     26  O   UNL A   1      40.439  21.153  27.038  1.00  0.00    -0.374 OA
BRANCH  26  27
ATOM     27  C   UNL A   1      41.466  20.729  26.139  1.00  0.00     0.202 C 
BRANCH  27  28
ATOM     28  C   UNL A   1      42.646  21.693  25.968  1.00  0.00     0.261 C 
BRANCH  28  29
ATOM     29  O   UNL A   1      42.304  22.799  25.113  1.00  0.00    -0.460 OA
BRANCH  29  30
ATOM     30  C   UNL A   1      43.129  23.866  25.196  1.00  0.00     0.338 C 
ATOM     31  O   UNL A   1      44.164  24.059  24.572  1.00  0.00    -0.246 OA
BRANCH  30  32
ATOM     32  C   UNL A   1      42.520  24.899  26.052  1.00  0.00     0.060 A 
ATOM     33  C   UNL A   1      43.109  26.171  26.063  1.00  0.00     0.016 A 
ATOM     34  C   UNL A   1      41.435  24.610  26.882  1.00  0.00     0.016 A 
ATOM     35  C   UNL A   1      42.650  27.146  26.947  1.00  0.00     0.010 A 
ATOM     36  C   UNL A   1      40.983  25.584  27.774  1.00  0.00     0.010 A 
ATOM     37  C   UNL A   1      41.614  26.841  27.838  1.00  0.00    -0.014 A 
BRANCH  37  38
ATOM     38  C   UNL A   1      41.300  27.751  28.963  1.00  0.00     0.031 A 
ATOM     39  C   UNL A   1      42.124  27.649  30.215  1.00  0.00     0.074 A 
ATOM     40  C   UNL A   1      40.289  28.632  28.885  1.00  0.00     0.049 A 
ATOM     41  N   UNL A   1      41.955  28.230  31.374  1.00  0.00    -0.248 NA
ATOM     42  C   UNL A   1      43.295  26.760  30.151  1.00  0.00     0.031 C 
ATOM     43  C   UNL A   1      39.462  28.865  27.705  1.00  0.00     0.029 A 
ATOM     44  N   UNL A   1      39.777  29.481  29.833  1.00  0.00    -0.354 N 
ATOM     45  C   UNL A   1      42.978  27.756  32.185  1.00  0.00     0.074 A 
ATOM     46  C   UNL A   1      43.755  26.829  31.390  1.00  0.00     0.031 C 
ATOM     47  C   UNL A   1      38.531  29.790  28.003  1.00  0.00     0.029 A 
ATOM     48  C   UNL A   1      38.673  30.176  29.407  1.00  0.00     0.049 A 
ATOM     49  H   UNL A   1      40.165  29.583  30.733  1.00  0.00     0.167 HD
ATOM     50  C   UNL A   1      43.242  28.064  33.476  1.00  0.00     0.037 A 
ATOM     51  C   UNL A   1      37.855  31.004  30.085  1.00  0.00     0.037 A 
ATOM     52  C   UNL A   1      42.471  28.996  34.255  1.00  0.00     0.049 A 
ATOM     53  C   UNL A   1      38.119  31.271  31.546  1.00  0.00     0.074 A 
ATOM     54  C   UNL A   1      42.671  29.403  35.561  1.00  0.00     0.029 A 
ATOM     55  N   UNL A   1      41.342  29.659  33.795  1.00  0.00    -0.354 N 
ATOM     56  N   UNL A   1      39.093  30.830  32.305  1.00  0.00    -0.248 NA
ATOM     57  C   UNL A   1      37.167  32.146  32.244  1.00  0.00     0.031 C 
ATOM     58  C   UNL A   1      41.631  30.271  35.911  1.00  0.00     0.029 A 
ATOM     59  C   UNL A   1      40.818  30.451  34.803  1.00  0.00     0.049 A 
ATOM     60  H   UNL A   1      40.969  29.580  32.888  1.00  0.00     0.167 HD
ATOM     61  C   UNL A   1      38.897  31.406  33.554  1.00  0.00     0.074 A 
ATOM     62  C   UNL A   1      37.704  32.221  33.454  1.00  0.00     0.031 C 
ATOM     63  C   UNL A   1      39.644  31.279  34.677  1.00  0.00     0.037 A 
BRANCH  50  64
ATOM     64  C   UNL A   1      44.384  27.351  34.137  1.00  0.00     0.064 A 
ATOM     65  C   UNL A   1      45.681  27.884  34.161  1.00  0.00     0.173 A 
ATOM     66  C   UNL A   1      44.173  26.113  34.764  1.00  0.00     0.173 A 
ATOM     67  F   UNL A   1      45.940  29.057  33.563  1.00  0.00    -0.203 F 
ATOM     68  C   UNL A   1      46.731  27.188  34.756  1.00  0.00     0.198 A 
ATOM     69  C   UNL A   1      45.217  25.435  35.385  1.00  0.00     0.198 A 
ATOM     70  F   UNL A   1      42.950  25.560  34.774  1.00  0.00    -0.203 F 
ATOM     71  F   UNL A   1      47.973  27.689  34.715  1.00  0.00    -0.200 F 
ATOM     72  C   UNL A   1      46.498  25.968  35.372  1.00  0.00     0.200 A 
ATOM     73  F   UNL A   1      44.987  24.262  35.991  1.00  0.00    -0.200 F 
ATOM     74  F   UNL A   1      47.509  25.300  35.944  1.00  0.00    -0.200 F 
ENDBRANCH  50  64
BRANCH  51  75
ATOM     75  C   UNL A   1      36.707  31.640  29.392  1.00  0.00     0.064 A 
ATOM     76  C   UNL A   1      36.709  33.014  29.116  1.00  0.00     0.173 A 
ATOM     77  C   UNL A   1      35.591  30.894  28.984  1.00  0.00     0.173 A 
ATOM     78  F   UNL A   1      37.743  33.773  29.509  1.00  0.00    -0.203 F 
ATOM     79  C   UNL A   1      35.635  33.620  28.467  1.00  0.00     0.198 A 
ATOM     80  C   UNL A   1      34.529  31.496  28.313  1.00  0.00     0.198 A 
ATOM     81  F   UNL A   1      35.539  29.575  29.226  1.00  0.00    -0.203 F 
ATOM     82  F   UNL A   1      35.648  34.941  28.245  1.00  0.00    -0.200 F 
ATOM     83  C   UNL A   1      34.550  32.859  28.058  1.00  0.00     0.200 A 
ATOM     84  F   UNL A   1      33.487  30.755  27.910  1.00  0.00    -0.200 F 
ATOM     85  F   UNL A   1      33.522  33.440  27.426  1.00  0.00    -0.200 F 
ENDBRANCH  51  75
BRANCH  63  86
ATOM     86  C   UNL A   1      39.246  32.087  35.878  1.00  0.00     0.064 A 
ATOM     87  C   UNL A   1      39.694  33.400  36.071  1.00  0.00     0.173 A 
ATOM     88  C   UNL A   1      38.332  31.560  36.804  1.00  0.00     0.173 A 
ATOM     89  F   UNL A   1      40.578  33.943  35.221  1.00  0.00    -0.203 F 
ATOM     90  C   UNL A   1      39.247  34.155  37.152  1.00  0.00     0.198 A 
ATOM     91  C   UNL A   1      37.866  32.326  37.869  1.00  0.00     0.198 A 
ATOM     92  F   UNL A   1      37.868  30.308  36.660  1.00  0.00    -0.203 F 
ATOM     93  F   UNL A   1      39.709  35.400  37.334  1.00  0.00    -0.200 F 
ATOM     94  C   UNL A   1      38.327  33.622  38.043  1.00  0.00     0.200 A 
ATOM     95  F   UNL A   1      36.965  31.814  38.718  1.00  0.00    -0.200 F 
ATOM     96  F   UNL A   1      37.883  34.358  39.072  1.00  0.00    -0.200 F 
ENDBRANCH  63  86
ENDBRANCH  37  38
ENDBRANCH  30  32
ENDBRANCH  29  30
ENDBRANCH  28  29
ENDBRANCH  27  28
ENDBRANCH  26  27
ENDBRANCH   1  26
TORSDOF 17
ENDMDL
MODEL 2
REMARK VINA RESULT:     -12.1      1.136      2.557
REMARK SMILES CCCN1CCC[C@@]2(CCN(c3ccc(C(=O)OCCOCCOC(=O)c4ccc(-c5c6nc(c(-c7c(F)c(F)c(F)c(F)c7F)c7ccc([nH]7)c(-c7c(F)c(F)c(F)c(F)c7F)c7nc(c(-c8c(F)c(F)c(F)c(F)c8F)c8ccc5[nH]8)C=C7)C=C6)cc4)cn3)C2)C1=O
REMARK SMILES IDX 20 1 19 2 18 3 16 4 17 5 15 6 12 7 13 8 91 9 14 10 90 11
REMARK SMILES IDX 11 12 4 13 5 14 93 15 6 16 8 17 94 18 7 19 9 20 92 21 10 22
REMARK SMILES IDX 3 23 2 24 1 25 21 26 22 27 23 28 24 29 25 30 26 31 27 32
REMARK SMILES IDX 28 33 89 34 29 35 88 36 30 37 31 38 32 39 82 40 33 41 87 42
REMARK SMILES IDX 81 43 83 44 34 45 86 46 80 47 79 48 35 50 67 51 47 52 66 53
REMARK SMILES IDX 48 54 51 55 65 56 84 57 49 58 50 59 64 61 85 62 52 63 36 64
REMARK SMILES IDX 37 65 45 66 38 67 39 68 43 69 46 70 40 71 41 72 44 73 42 74
REMARK SMILES IDX 68 75 69 76 77 77 70 78 71 79 75 80 78 81 72 82 73 83 76 84
REMARK SMILES IDX 74 85 53 86 54 87 62 88 55 89 56 90 60 91 63 92 57 93 58 94
REMARK SMILES IDX 61 95 59 96
REMARK H PARENT 83 49 51 60
REMARK Flexibility Score: inf
ROOT
ATOM      1  C   UNL A   1      41.945  20.241  26.441  1.00  0.00     0.202 C 
ENDROOT
BRANCH   1   2
ATOM      2  C   UNL A   1      40.699  20.687  27.212  1.00  0.00     0.261 C 
BRANCH   2   3
ATOM      3  O   UNL A   1      39.666  21.118  26.310  1.00  0.00    -0.460 OA
BRANCH   3   4
ATOM      4  C   UNL A   1      39.291  22.411  26.440  1.00  0.00     0.339 C 
ATOM      5  O   UNL A   1      39.976  23.337  26.852  1.00  0.00    -0.246 OA
BRANCH   4   6
ATOM      6  C   UNL A   1      37.952  22.605  25.865  1.00  0.00     0.078 A 
ATOM      7  C   UNL A   1      35.482  22.757  24.645  1.00  0.00     0.128 A 
ATOM      8  C   UNL A   1      35.983  23.859  25.347  1.00  0.00     0.048 A 
ATOM      9  N   UNL A   1      36.153  21.590  24.607  1.00  0.00    -0.238 NA
ATOM     10  C   UNL A   1      37.223  23.783  25.978  1.00  0.00     0.021 A 
ATOM     11  C   UNL A   1      37.374  21.541  25.189  1.00  0.00     0.129 A 
BRANCH   7  12
ATOM     12  N   UNL A   1      34.333  22.902  23.890  1.00  0.00    -0.356 N 
ATOM     13  N   UNL A   1      32.241  26.754  23.537  1.00  0.00    -0.342 N 
ATOM     14  C   UNL A   1      30.919  26.563  24.121  1.00  0.00     0.119 C 
ATOM     15  C   UNL A   1      32.861  25.759  22.778  1.00  0.00     0.230 C 
ATOM     16  C   UNL A   1      30.615  25.140  24.550  1.00  0.00     0.023 C 
ATOM     17  C   UNL A   1      32.528  24.309  23.159  1.00  0.00     0.069 C 
ATOM     18  O   UNL A   1      33.734  26.014  21.948  1.00  0.00    -0.274 OA
ATOM     19  C   UNL A   1      31.039  24.153  23.475  1.00  0.00     0.021 C 
ATOM     20  C   UNL A   1      32.977  23.323  22.061  1.00  0.00     0.040 C 
ATOM     21  C   UNL A   1      33.415  23.936  24.374  1.00  0.00     0.135 C 
ATOM     22  C   UNL A   1      34.416  22.969  22.440  1.00  0.00     0.119 C 
BRANCH  13  23
ATOM     23  C   UNL A   1      32.890  28.070  23.613  1.00  0.00     0.119 C 
BRANCH  23  24
ATOM     24  C   UNL A   1      33.817  28.351  24.802  1.00  0.00     0.018 C 
ATOM     25  C   UNL A   1      33.818  27.261  25.868  1.00  0.00     0.006 C 
ENDBRANCH  23  24
ENDBRANCH  13  23
ENDBRANCH   7  12
ENDBRANCH   4   6
ENDBRANCH   3   4
ENDBRANCH   2   3
ENDBRANCH   1   2
BRANCH   1  26
ATOM     26  O   UNL A   1      42.494  21.204  25.544  1.00  0.00    -0.374 OA
BRANCH  26  27
ATOM     27  C   UNL A   1      43.895  21.117  25.272  1.00  0.00     0.202 C 
BRANCH  27  28
ATOM     28  C   UNL A   1      44.510  22.312  24.535  1.00  0.00     0.261 C 
BRANCH  28  29
ATOM     29  O   UNL A   1      43.735  23.509  24.732  1.00  0.00    -0.460 OA
BRANCH  29  30
ATOM     30  C   UNL A   1      44.451  24.615  25.032  1.00  0.00     0.338 C 
ATOM     31  O   UNL A   1      45.539  24.944  24.581  1.00  0.00    -0.246 OA
BRANCH  30  32
ATOM     32  C   UNL A   1      43.650  25.505  25.892  1.00  0.00     0.060 A 
ATOM     33  C   UNL A   1      43.892  26.884  25.811  1.00  0.00     0.016 A 
ATOM     34  C   UNL A   1      42.729  24.997  26.809  1.00  0.00     0.016 A 
ATOM     35  C   UNL A   1      43.253  27.757  26.689  1.00  0.00     0.010 A 
ATOM     36  C   UNL A   1      42.097  25.872  27.694  1.00  0.00     0.010 A 
ATOM     37  C   UNL A   1      42.387  27.249  27.664  1.00  0.00    -0.014 A 
BRANCH  37  38
ATOM     38  C   UNL A   1      41.918  28.111  28.774  1.00  0.00     0.031 A 
ATOM     39  C   UNL A   1      42.723  28.140  30.042  1.00  0.00     0.074 A 
ATOM     40  C   UNL A   1      40.790  28.832  28.668  1.00  0.00     0.049 A 
ATOM     41  N   UNL A   1      42.446  28.697  31.193  1.00  0.00    -0.248 NA
ATOM     42  C   UNL A   1      44.013  27.433  30.010  1.00  0.00     0.031 C 
ATOM     43  C   UNL A   1      39.963  28.933  27.470  1.00  0.00     0.029 A 
ATOM     44  N   UNL A   1      40.139  29.603  29.598  1.00  0.00    -0.354 N 
ATOM     45  C   UNL A   1      43.511  28.384  32.027  1.00  0.00     0.074 A 
ATOM     46  C   UNL A   1      44.432  27.577  31.257  1.00  0.00     0.031 C 
ATOM     47  C   UNL A   1      38.900  29.712  27.741  1.00  0.00     0.029 A 
ATOM     48  C   UNL A   1      38.955  30.125  29.143  1.00  0.00     0.049 A 
ATOM     49  H   UNL A   1      40.490  29.767  30.503  1.00  0.00     0.167 HD
ATOM     50  C   UNL A   1      43.700  28.737  33.320  1.00  0.00     0.037 A 
ATOM     51  C   UNL A   1      38.010  30.827  29.797  1.00  0.00     0.037 A 
ATOM     52  C   UNL A   1      42.783  29.550  34.075  1.00  0.00     0.049 A 
ATOM     53  C   UNL A   1      38.201  31.140  31.260  1.00  0.00     0.074 A 
ATOM     54  C   UNL A   1      42.894  29.990  35.381  1.00  0.00     0.029 A 
ATOM     55  N   UNL A   1      41.579  30.036  33.587  1.00  0.00    -0.354 N 
ATOM     56  N   UNL A   1      39.213  30.853  32.043  1.00  0.00    -0.248 NA
ATOM     57  C   UNL A   1      37.116  31.869  31.931  1.00  0.00     0.031 C 
ATOM     58  C   UNL A   1      41.731  30.698  35.702  1.00  0.00     0.029 A 
ATOM     59  C   UNL A   1      40.923  30.748  34.577  1.00  0.00     0.049 A 
ATOM     60  H   UNL A   1      41.241  29.897  32.673  1.00  0.00     0.167 HD
ATOM     61  C   UNL A   1      38.908  31.402  33.282  1.00  0.00     0.074 A 
ATOM     62  C   UNL A   1      37.611  32.031  33.150  1.00  0.00     0.031 C 
ATOM     63  C   UNL A   1      39.643  31.394  34.420  1.00  0.00     0.037 A 
BRANCH  50  64
ATOM     64  C   UNL A   1      44.921  28.204  34.010  1.00  0.00     0.064 A 
ATOM     65  C   UNL A   1      44.914  26.981  34.696  1.00  0.00     0.173 A 
ATOM     66  C   UNL A   1      46.122  28.930  33.976  1.00  0.00     0.173 A 
ATOM     67  F   UNL A   1      43.788  26.255  34.771  1.00  0.00    -0.203 F 
ATOM     68  C   UNL A   1      46.053  26.522  35.354  1.00  0.00     0.198 A 
ATOM     69  C   UNL A   1      47.266  28.454  34.607  1.00  0.00     0.198 A 
ATOM     70  F   UNL A   1      46.184  30.105  33.330  1.00  0.00    -0.203 F 
ATOM     71  F   UNL A   1      46.008  25.380  36.053  1.00  0.00    -0.200 F 
ATOM     72  C   UNL A   1      47.230  27.256  35.304  1.00  0.00     0.200 A 
ATOM     73  F   UNL A   1      48.405  29.158  34.548  1.00  0.00    -0.200 F 
ATOM     74  F   UNL A   1      48.325  26.813  35.937  1.00  0.00    -0.200 F 
ENDBRANCH  50  64
BRANCH  51  75
ATOM     75  C   UNL A   1      36.795  31.282  29.075  1.00  0.00     0.064 A 
ATOM     76  C   UNL A   1      35.769  30.380  28.762  1.00  0.00     0.173 A 
ATOM     77  C   UNL A   1      36.628  32.619  28.689  1.00  0.00     0.173 A 
ATOM     78  F   UNL A   1      35.893  29.085  29.089  1.00  0.00    -0.203 F 
ATOM     79  C   UNL A   1      34.625  30.798  28.084  1.00  0.00     0.198 A 
ATOM     80  C   UNL A   1      35.474  33.041  28.033  1.00  0.00     0.198 A 
ATOM     81  F   UNL A   1      37.583  33.522  28.963  1.00  0.00    -0.203 F 
ATOM     82  F   UNL A   1      33.674  29.909  27.768  1.00  0.00    -0.200 F 
ATOM     83  C   UNL A   1      34.475  32.129  27.727  1.00  0.00     0.200 A 
ATOM     84  F   UNL A   1      35.328  34.331  27.699  1.00  0.00    -0.200 F 
ATOM     85  F   UNL A   1      33.372  32.532  27.083  1.00  0.00    -0.200 F 
ENDBRANCH  51  75
BRANCH  63  86
ATOM     86  C   UNL A   1      39.105  32.142  35.605  1.00  0.00     0.064 A 
ATOM     87  C   UNL A   1      38.336  31.512  36.593  1.00  0.00     0.173 A 
ATOM     88  C   UNL A   1      39.441  33.492  35.792  1.00  0.00     0.173 A 
ATOM     89  F   UNL A   1      37.978  30.227  36.453  1.00  0.00    -0.203 F 
ATOM     90  C   UNL A   1      37.916  32.210  37.723  1.00  0.00     0.198 A 
ATOM     91  C   UNL A   1      39.042  34.179  36.936  1.00  0.00     0.198 A 
ATOM     92  F   UNL A   1      40.182  34.138  34.878  1.00  0.00    -0.203 F 
ATOM     93  F   UNL A   1      37.158  31.597  38.643  1.00  0.00    -0.200 F 
ATOM     94  C   UNL A   1      38.277  33.538  37.898  1.00  0.00     0.200 A 
ATOM     95  F   UNL A   1      39.406  35.457  37.109  1.00  0.00    -0.200 F 
ATOM     96  F   UNL A   1      37.888  34.202  38.995  1.00  0.00    -0.200 F 
ENDBRANCH  63  86
ENDBRANCH  37  38
ENDBRANCH  30  32
ENDBRANCH  29  30
ENDBRANCH  28  29
ENDBRANCH  27  28
ENDBRANCH  26  27
ENDBRANCH   1  26
TORSDOF 17
ENDMDL
MODEL 3
REMARK VINA RESULT:     -12.0      1.383      2.562
REMARK SMILES CCCN1CCC[C@@]2(CCN(c3ccc(C(=O)OCCOCCOC(=O)c4ccc(-c5c6nc(c(-c7c(F)c(F)c(F)c(F)c7F)c7ccc([nH]7)c(-c7c(F)c(F)c(F)c(F)c7F)c7nc(c(-c8c(F)c(F)c(F)c(F)c8F)c8ccc5[nH]8)C=C7)C=C6)cc4)cn3)C2)C1=O
REMARK SMILES IDX 20 1 19 2 18 3 16 4 17 5 15 6 12 7 13 8 91 9 14 10 90 11
REMARK SMILES IDX 11 12 4 13 5 14 93 15 6 16 8 17 94 18 7 19 9 20 92 21 10 22
REMARK SMILES IDX 3 23 2 24 1 25 21 26 22 27 23 28 24 29 25 30 26 31 27 32
REMARK SMILES IDX 28 33 89 34 29 35 88 36 30 37 31 38 32 39 82 40 33 41 87 42
REMARK SMILES IDX 81 43 83 44 34 45 86 46 80 47 79 48 35 50 67 51 47 52 66 53
REMARK SMILES IDX 48 54 51 55 65 56 84 57 49 58 50 59 64 61 85 62 52 63 36 64
REMARK SMILES IDX 37 65 45 66 38 67 39 68 43 69 46 70 40 71 41 72 44 73 42 74
REMARK SMILES IDX 68 75 69 76 77 77 70 78 71 79 75 80 78 81 72 82 73 83 76 84
REMARK SMILES IDX 74 85 53 86 54 87 62 88 55 89 56 90 60 91 63 92 57 93 58 94
REMARK SMILES IDX 61 95 59 96
REMARK H PARENT 83 49 51 60
REMARK Flexibility Score: inf
ROOT
ATOM      1  C   UNL A   1      43.394  19.341  25.620  1.00  0.00     0.202 C 
ENDROOT
BRANCH   1   2
ATOM      2  C   UNL A   1      41.944  19.357  26.113  1.00  0.00     0.261 C 
BRANCH   2   3
ATOM      3  O   UNL A   1      41.310  20.608  25.800  1.00  0.00    -0.460 OA
BRANCH   3   4
ATOM      4  C   UNL A   1      40.487  21.093  26.758  1.00  0.00     0.339 C 
ATOM      5  O   UNL A   1      40.773  21.319  27.926  1.00  0.00    -0.246 OA
BRANCH   4   6
ATOM      6  C   UNL A   1      39.194  21.467  26.167  1.00  0.00     0.078 A 
ATOM      7  C   UNL A   1      36.777  21.947  24.927  1.00  0.00     0.128 A 
ATOM      8  C   UNL A   1      37.448  22.990  25.575  1.00  0.00     0.048 A 
ATOM      9  N   UNL A   1      37.254  20.688  24.951  1.00  0.00    -0.238 NA
ATOM     10  C   UNL A   1      38.662  22.750  26.216  1.00  0.00     0.021 A 
ATOM     11  C   UNL A   1      38.454  20.476  25.541  1.00  0.00     0.129 A 
BRANCH   7  12
ATOM     12  N   UNL A   1      35.663  22.234  24.159  1.00  0.00    -0.356 N 
ATOM     13  N   UNL A   1      32.452  24.873  25.596  1.00  0.00    -0.342 N 
ATOM     14  C   UNL A   1      31.247  24.056  25.670  1.00  0.00     0.119 C 
ATOM     15  C   UNL A   1      33.381  24.722  24.564  1.00  0.00     0.230 C 
ATOM     16  C   UNL A   1      31.406  22.641  25.145  1.00  0.00     0.023 C 
ATOM     17  C   UNL A   1      33.522  23.309  23.980  1.00  0.00     0.069 C 
ATOM     18  O   UNL A   1      34.147  25.628  24.233  1.00  0.00    -0.274 OA
ATOM     19  C   UNL A   1      32.156  22.641  23.823  1.00  0.00     0.021 C 
ATOM     20  C   UNL A   1      34.295  23.329  22.644  1.00  0.00     0.040 C 
ATOM     21  C   UNL A   1      34.448  22.508  24.930  1.00  0.00     0.135 C 
ATOM     22  C   UNL A   1      35.760  23.179  23.057  1.00  0.00     0.119 C 
BRANCH  13  23
ATOM     23  C   UNL A   1      32.640  25.985  26.537  1.00  0.00     0.119 C 
BRANCH  23  24
ATOM     24  C   UNL A   1      31.618  27.127  26.521  1.00  0.00     0.018 C 
ATOM     25  C   UNL A   1      31.514  27.857  25.186  1.00  0.00     0.006 C 
ENDBRANCH  23  24
ENDBRANCH  13  23
ENDBRANCH   7  12
ENDBRANCH   4   6
ENDBRANCH   3   4
ENDBRANCH   2   3
ENDBRANCH   1   2
BRANCH   1  26
ATOM     26  O   UNL A   1      43.834  20.525  24.958  1.00  0.00    -0.374 OA
BRANCH  26  27
ATOM     27  C   UNL A   1      45.159  20.976  25.245  1.00  0.00     0.202 C 
BRANCH  27  28
ATOM     28  C   UNL A   1      45.284  22.426  25.729  1.00  0.00     0.261 C 
BRANCH  28  29
ATOM     29  O   UNL A   1      44.029  22.924  26.229  1.00  0.00    -0.460 OA
BRANCH  29  30
ATOM     30  C   UNL A   1      43.421  23.841  25.445  1.00  0.00     0.338 C 
ATOM     31  O   UNL A   1      43.276  23.805  24.230  1.00  0.00    -0.246 OA
BRANCH  30  32
ATOM     32  C   UNL A   1      42.779  24.866  26.287  1.00  0.00     0.060 A 
ATOM     33  C   UNL A   1      43.346  26.148  26.306  1.00  0.00     0.016 A 
ATOM     34  C   UNL A   1      41.682  24.561  27.095  1.00  0.00     0.016 A 
ATOM     35  C   UNL A   1      42.854  27.116  27.179  1.00  0.00     0.010 A 
ATOM     36  C   UNL A   1      41.196  25.529  27.976  1.00  0.00     0.010 A 
ATOM     37  C   UNL A   1      41.806  26.796  28.049  1.00  0.00    -0.014 A 
BRANCH  37  38
ATOM     38  C   UNL A   1      41.454  27.704  29.166  1.00  0.00     0.031 A 
ATOM     39  C   UNL A   1      42.248  27.610  30.437  1.00  0.00     0.074 A 
ATOM     40  C   UNL A   1      40.436  28.573  29.062  1.00  0.00     0.049 A 
ATOM     41  N   UNL A   1      42.044  28.190  31.592  1.00  0.00    -0.248 NA
ATOM     42  C   UNL A   1      43.429  26.734  30.403  1.00  0.00     0.031 C 
ATOM     43  C   UNL A   1      39.636  28.798  27.862  1.00  0.00     0.029 A 
ATOM     44  N   UNL A   1      39.892  29.418  29.997  1.00  0.00    -0.354 N 
ATOM     45  C   UNL A   1      43.052  27.726  32.428  1.00  0.00     0.074 A 
ATOM     46  C   UNL A   1      43.858  26.808  31.653  1.00  0.00     0.031 C 
ATOM     47  C   UNL A   1      38.690  29.713  28.136  1.00  0.00     0.029 A 
ATOM     48  C   UNL A   1      38.792  30.101  29.543  1.00  0.00     0.049 A 
ATOM     49  H   UNL A   1      40.257  29.524  30.906  1.00  0.00     0.167 HD
ATOM     50  C   UNL A   1      43.280  28.038  33.725  1.00  0.00     0.037 A 
ATOM     51  C   UNL A   1      37.949  30.921  30.200  1.00  0.00     0.037 A 
ATOM     52  C   UNL A   1      42.480  28.961  34.484  1.00  0.00     0.049 A 
ATOM     53  C   UNL A   1      38.174  31.191  31.667  1.00  0.00     0.074 A 
ATOM     54  C   UNL A   1      42.644  29.371  35.795  1.00  0.00     0.029 A 
ATOM     55  N   UNL A   1      41.356  29.613  33.997  1.00  0.00    -0.354 N 
ATOM     56  N   UNL A   1      39.133  30.761  32.451  1.00  0.00    -0.248 NA
ATOM     57  C   UNL A   1      37.196  32.056  32.341  1.00  0.00     0.031 C 
ATOM     58  C   UNL A   1      41.587  30.228  36.118  1.00  0.00     0.029 A 
ATOM     59  C   UNL A   1      40.799  30.399  34.991  1.00  0.00     0.049 A 
ATOM     60  H   UNL A   1      41.007  29.530  33.080  1.00  0.00     0.167 HD
ATOM     61  C   UNL A   1      38.900  31.335  33.694  1.00  0.00     0.074 A 
ATOM     62  C   UNL A   1      37.701  32.138  33.564  1.00  0.00     0.031 C 
ATOM     63  C   UNL A   1      39.621  31.216  34.835  1.00  0.00     0.037 A 
BRANCH  50  64
ATOM     64  C   UNL A   1      44.413  27.336  34.415  1.00  0.00     0.064 A 
ATOM     65  C   UNL A   1      44.246  26.097  35.048  1.00  0.00     0.173 A 
ATOM     66  C   UNL A   1      45.692  27.915  34.434  1.00  0.00     0.173 A 
ATOM     67  F   UNL A   1      43.040  25.507  35.071  1.00  0.00    -0.203 F 
ATOM     68  C   UNL A   1      45.307  25.479  35.707  1.00  0.00     0.198 A 
ATOM     69  C   UNL A   1      46.757  27.281  35.065  1.00  0.00     0.198 A 
ATOM     70  F   UNL A   1      45.908  29.098  33.839  1.00  0.00    -0.203 F 
ATOM     71  F   UNL A   1      45.110  24.323  36.356  1.00  0.00    -0.200 F 
ATOM     72  C   UNL A   1      46.562  26.069  35.710  1.00  0.00     0.200 A 
ATOM     73  F   UNL A   1      47.973  27.846  35.057  1.00  0.00    -0.200 F 
ATOM     74  F   UNL A   1      47.582  25.474  36.344  1.00  0.00    -0.200 F 
ENDBRANCH  50  64
BRANCH  51  75
ATOM     75  C   UNL A   1      36.812  31.544  29.478  1.00  0.00     0.064 A 
ATOM     76  C   UNL A   1      36.812  32.916  29.192  1.00  0.00     0.173 A 
ATOM     77  C   UNL A   1      35.709  30.789  29.053  1.00  0.00     0.173 A 
ATOM     78  F   UNL A   1      37.833  33.685  29.600  1.00  0.00    -0.203 F 
ATOM     79  C   UNL A   1      35.748  33.511  28.516  1.00  0.00     0.198 A 
ATOM     80  C   UNL A   1      34.658  31.380  28.356  1.00  0.00     0.198 A 
ATOM     81  F   UNL A   1      35.660  29.472  29.304  1.00  0.00    -0.203 F 
ATOM     82  F   UNL A   1      35.758  34.830  28.285  1.00  0.00    -0.200 F 
ATOM     83  C   UNL A   1      34.677  32.741  28.091  1.00  0.00     0.200 A 
ATOM     84  F   UNL A   1      33.629  30.630  27.937  1.00  0.00    -0.200 F 
ATOM     85  F   UNL A   1      33.658  33.311  27.432  1.00  0.00    -0.200 F 
ENDBRANCH  51  75
BRANCH  63  86
ATOM     86  C   UNL A   1      39.184  32.019  36.025  1.00  0.00     0.064 A 
ATOM     87  C   UNL A   1      39.618  33.336  36.232  1.00  0.00     0.173 A 
ATOM     88  C   UNL A   1      38.249  31.485  36.926  1.00  0.00     0.173 A 
ATOM     89  F   UNL A   1      40.522  33.885  35.407  1.00  0.00    -0.203 F 
ATOM     90  C   UNL A   1      39.137  34.087  37.301  1.00  0.00     0.198 A 
ATOM     91  C   UNL A   1      37.749  32.248  37.978  1.00  0.00     0.198 A 
ATOM     92  F   UNL A   1      37.797  30.232  36.768  1.00  0.00    -0.203 F 
ATOM     93  F   UNL A   1      39.585  35.335  37.496  1.00  0.00    -0.200 F 
ATOM     94  C   UNL A   1      38.196  33.547  38.165  1.00  0.00     0.200 A 
ATOM     95  F   UNL A   1      36.829  31.729  38.802  1.00  0.00    -0.200 F 
ATOM     96  F   UNL A   1      37.719  34.278  39.182  1.00  0.00    -0.200 F 
ENDBRANCH  63  86
ENDBRANCH  37  38
ENDBRANCH  30  32
ENDBRANCH  29  30
ENDBRANCH  28  29
ENDBRANCH  27  28
ENDBRANCH  26  27
ENDBRANCH   1  26
TORSDOF 17
ENDMDL
