MODEL 1
REMARK VINA RESULT:     -15.4      0.000      0.000
REMARK SMILES Cc1ccc(NC(=O)c2cnn3c2NC2=C(C(=O)CCC2)[C@H]3c2ccc(C(=O)OCCOCCOC(=O)c3ccc(-c4c5nc(c(-c6c(F)c(F)c(F)c(F)c6F)c6ccc([nH]6)c(-c6c(F)c(F)c(F)c(F)c6F)c6nc(c(-c7c(F)c(F)c(F)c(F)c7F)c7ccc4[nH]7)C=C6)C=C5)cc3)cc2)cc1
REMARK SMILES IDX 31 1 30 2 29 3 27 4 28 5 26 6 23 7 24 8 102 9 25 10 101 11
REMARK SMILES IDX 22 12 9 13 10 14 13 15 11 16 12 17 14 18 15 19 16 21 21 22
REMARK SMILES IDX 17 23 20 24 18 25 19 26 7 27 6 28 8 30 5 31 1 32 2 33 3 34
REMARK SMILES IDX 104 35 4 36 103 37 32 38 33 39 34 40 35 41 36 42 37 43 38 44
REMARK SMILES IDX 39 45 100 46 40 47 99 48 41 49 42 50 43 51 93 52 44 53 98 54
REMARK SMILES IDX 92 55 94 56 45 57 97 58 91 59 90 60 46 62 78 63 58 64 77 65
REMARK SMILES IDX 59 66 62 67 76 68 95 69 60 70 61 71 75 73 96 74 63 75 47 76
REMARK SMILES IDX 48 77 56 78 49 79 50 80 54 81 57 82 51 83 52 84 55 85 53 86
REMARK SMILES IDX 79 87 80 88 88 89 81 90 82 91 86 92 89 93 83 94 84 95 87 96
REMARK SMILES IDX 85 97 64 98 65 99 73 100 66 101 67 102 71 103 74 104 68 105
REMARK SMILES IDX 69 106 72 107 70 108
REMARK H PARENT 14 20 6 29 94 61 62 72
REMARK Flexibility Score: inf
ROOT
ATOM      1  C   UNL A   1      33.171  33.822  28.058  1.00  0.00     0.202 C 
ENDROOT
BRANCH   1   2
ATOM      2  C   UNL A   1      34.362  32.336  28.161  1.00  0.00     0.261 C 
BRANCH   2   3
ATOM      3  O   UNL A   1      33.843  30.503  27.395  1.00  0.00    -0.460 OA
BRANCH   3   4
ATOM      4  C   UNL A   1      32.732  29.467  27.243  1.00  0.00     0.338 C 
ATOM      5  O   UNL A   1      31.533  29.778  27.268  1.00  0.00    -0.246 OA
BRANCH   4   6
ATOM      6  C   UNL A   1      32.903  28.018  26.942  1.00  0.00     0.060 A 
ATOM      7  C   UNL A   1      32.939  25.332  26.011  1.00  0.00    -0.019 A 
ATOM      8  C   UNL A   1      31.731  25.914  26.409  1.00  0.00     0.007 A 
ATOM      9  C   UNL A   1      34.030  26.194  25.837  1.00  0.00     0.007 A 
ATOM     10  C   UNL A   1      31.723  27.238  26.868  1.00  0.00     0.016 A 
ATOM     11  C   UNL A   1      34.048  27.475  26.394  1.00  0.00     0.016 A 
BRANCH   7  12
ATOM     12  C   UNL A   1      33.210  23.787  26.107  1.00  0.00     0.175 C 
ATOM     13  C   UNL A   1      32.867  23.296  22.605  1.00  0.00     0.102 A 
ATOM     14  C   UNL A   1      31.843  22.471  23.165  1.00  0.00     0.151 A 
ATOM     15  C   UNL A   1      33.690  23.563  23.686  1.00  0.00     0.142 A 
ATOM     16  N   UNL A   1      31.838  22.463  24.500  1.00  0.00    -0.178 NA
ATOM     17  N   UNL A   1      32.910  23.215  24.784  1.00  0.00    -0.237 N 
ATOM     18  N   UNL A   1      34.925  24.118  23.952  1.00  0.00    -0.343 N 
ATOM     19  C   UNL A   1      35.490  23.982  25.243  1.00  0.00     0.026 C 
ATOM     20  H   UNL A   1      35.411  24.605  23.249  1.00  0.00     0.168 HD
ATOM     21  C   UNL A   1      34.692  23.502  26.230  1.00  0.00     0.044 C 
ATOM     22  C   UNL A   1      36.972  23.920  25.472  1.00  0.00     0.055 C 
ATOM     23  C   UNL A   1      35.075  22.073  26.507  1.00  0.00     0.163 C 
ATOM     24  C   UNL A   1      37.412  22.475  25.727  1.00  0.00     0.014 C 
ATOM     25  O   UNL A   1      34.378  21.373  27.234  1.00  0.00    -0.294 OA
ATOM     26  C   UNL A   1      36.234  21.504  25.684  1.00  0.00     0.081 C 
BRANCH  13  27
ATOM     27  C   UNL A   1      33.015  23.701  21.222  1.00  0.00     0.261 C 
ATOM     28  N   UNL A   1      32.564  24.953  20.822  1.00  0.00    -0.322 N 
ATOM     29  H   UNL A   1      32.361  25.016  19.860  1.00  0.00     0.170 HD
ATOM     30  O   UNL A   1      33.486  22.937  20.379  1.00  0.00    -0.269 OA
BRANCH  28  31
ATOM     31  C   UNL A   1      32.342  26.157  21.536  1.00  0.00     0.041 A 
ATOM     32  C   UNL A   1      31.568  29.794  23.776  1.00  0.00     0.044 C 
ATOM     33  C   UNL A   1      31.814  28.549  22.976  1.00  0.00    -0.051 A 
ATOM     34  C   UNL A   1      33.121  28.171  22.678  1.00  0.00     0.005 A 
ATOM     35  C   UNL A   1      30.769  27.735  22.526  1.00  0.00     0.005 A 
ATOM     36  C   UNL A   1      33.364  27.008  21.942  1.00  0.00     0.026 A 
ATOM     37  C   UNL A   1      31.031  26.555  21.806  1.00  0.00     0.026 A 
ENDBRANCH  28  31
ENDBRANCH  13  27
ENDBRANCH   7  12
ENDBRANCH   4   6
ENDBRANCH   3   4
ENDBRANCH   2   3
ENDBRANCH   1   2
BRANCH   1  38
ATOM     38  O   UNL A   1      32.579  34.842  29.038  1.00  0.00    -0.374 OA
BRANCH  38  39
ATOM     39  C   UNL A   1      33.020  36.142  29.584  1.00  0.00     0.202 C 
BRANCH  39  40
ATOM     40  C   UNL A   1      33.251  36.307  31.108  1.00  0.00     0.261 C 
BRANCH  40  41
ATOM     41  O   UNL A   1      34.297  35.574  31.782  1.00  0.00    -0.460 OA
BRANCH  41  42
ATOM     42  C   UNL A   1      34.049  34.337  32.255  1.00  0.00     0.338 C 
ATOM     43  O   UNL A   1      33.056  34.018  32.884  1.00  0.00    -0.246 OA
BRANCH  42  44
ATOM     44  C   UNL A   1      35.158  33.413  31.884  1.00  0.00     0.060 A 
ATOM     45  C   UNL A   1      35.393  32.303  32.705  1.00  0.00     0.016 A 
ATOM     46  C   UNL A   1      36.111  33.792  30.923  1.00  0.00     0.016 A 
ATOM     47  C   UNL A   1      36.645  31.684  32.672  1.00  0.00     0.010 A 
ATOM     48  C   UNL A   1      37.374  33.220  30.945  1.00  0.00     0.010 A 
ATOM     49  C   UNL A   1      37.669  32.209  31.863  1.00  0.00    -0.014 A 
BRANCH  49  50
ATOM     50  C   UNL A   1      38.983  31.566  31.746  1.00  0.00     0.031 A 
ATOM     51  C   UNL A   1      38.930  30.212  31.216  1.00  0.00     0.074 A 
ATOM     52  C   UNL A   1      40.190  32.118  32.009  1.00  0.00     0.049 A 
ATOM     53  N   UNL A   1      39.736  29.265  31.543  1.00  0.00    -0.248 NA
ATOM     54  C   UNL A   1      37.861  29.790  30.311  1.00  0.00     0.031 C 
ATOM     55  C   UNL A   1      41.558  31.690  31.759  1.00  0.00     0.029 A 
ATOM     56  N   UNL A   1      40.435  33.300  32.668  1.00  0.00    -0.354 N 
ATOM     57  C   UNL A   1      39.629  28.375  30.506  1.00  0.00     0.074 A 
ATOM     58  C   UNL A   1      38.278  28.553  30.045  1.00  0.00     0.031 C 
ATOM     59  C   UNL A   1      42.404  32.368  32.574  1.00  0.00     0.029 A 
ATOM     60  C   UNL A   1      41.594  33.203  33.457  1.00  0.00     0.049 A 
ATOM     61  H   UNL A   1      39.874  34.106  32.596  1.00  0.00     0.167 HD
ATOM     62  C   UNL A   1      40.790  27.918  29.944  1.00  0.00     0.037 A 
ATOM     63  C   UNL A   1      41.504  33.196  34.839  1.00  0.00     0.037 A 
ATOM     64  C   UNL A   1      41.970  28.253  30.798  1.00  0.00     0.049 A 
ATOM     65  C   UNL A   1      41.859  31.754  35.317  1.00  0.00     0.074 A 
ATOM     66  C   UNL A   1      43.194  28.892  30.630  1.00  0.00     0.029 A 
ATOM     67  N   UNL A   1      41.840  28.138  32.184  1.00  0.00    -0.354 N 
ATOM     68  N   UNL A   1      42.070  30.775  34.466  1.00  0.00    -0.248 NA
ATOM     69  C   UNL A   1      42.034  31.262  36.686  1.00  0.00     0.031 C 
ATOM     70  C   UNL A   1      43.777  29.134  31.920  1.00  0.00     0.029 A 
ATOM     71  C   UNL A   1      42.906  28.661  32.884  1.00  0.00     0.049 A 
ATOM     72  H   UNL A   1      41.061  27.723  32.621  1.00  0.00     0.167 HD
ATOM     73  C   UNL A   1      42.488  29.631  35.074  1.00  0.00     0.074 A 
ATOM     74  C   UNL A   1      42.377  29.966  36.486  1.00  0.00     0.031 C 
ATOM     75  C   UNL A   1      42.906  28.542  34.343  1.00  0.00     0.037 A 
BRANCH  62  76
ATOM     76  C   UNL A   1      40.869  27.411  28.498  1.00  0.00     0.064 A 
ATOM     77  C   UNL A   1      40.380  26.131  28.159  1.00  0.00     0.173 A 
ATOM     78  C   UNL A   1      41.448  28.092  27.396  1.00  0.00     0.173 A 
ATOM     79  F   UNL A   1      39.741  25.366  29.051  1.00  0.00    -0.203 F 
ATOM     80  C   UNL A   1      40.509  25.576  26.878  1.00  0.00     0.198 A 
ATOM     81  C   UNL A   1      41.573  27.541  26.117  1.00  0.00     0.198 A 
ATOM     82  F   UNL A   1      41.908  29.338  27.463  1.00  0.00    -0.203 F 
ATOM     83  F   UNL A   1      40.041  24.342  26.642  1.00  0.00    -0.200 F 
ATOM     84  C   UNL A   1      41.109  26.279  25.856  1.00  0.00     0.200 A 
ATOM     85  F   UNL A   1      42.150  28.263  25.144  1.00  0.00    -0.200 F 
ATOM     86  F   UNL A   1      41.221  25.756  24.629  1.00  0.00    -0.200 F 
ENDBRANCH  62  76
BRANCH  63  87
ATOM     87  C   UNL A   1      40.389  34.199  35.411  1.00  0.00     0.064 A 
ATOM     88  C   UNL A   1      38.833  33.595  36.014  1.00  0.00     0.173 A 
ATOM     89  C   UNL A   1      41.237  35.351  36.386  1.00  0.00     0.173 A 
ATOM     90  F   UNL A   1      38.185  32.666  35.292  1.00  0.00    -0.203 F 
ATOM     91  C   UNL A   1      38.176  33.990  37.639  1.00  0.00     0.198 A 
ATOM     92  C   UNL A   1      40.751  35.754  38.048  1.00  0.00     0.198 A 
ATOM     93  F   UNL A   1      42.113  36.130  35.736  1.00  0.00    -0.203 F 
ATOM     94  F   UNL A   1      36.981  33.526  38.025  1.00  0.00    -0.200 F 
ATOM     95  C   UNL A   1      39.141  35.043  38.746  1.00  0.00     0.200 A 
ATOM     96  F   UNL A   1      41.375  36.847  38.453  1.00  0.00    -0.200 F 
ATOM     97  F   UNL A   1      38.619  35.244  39.948  1.00  0.00    -0.200 F 
ENDBRANCH  63  87
BRANCH  75  98
ATOM     98  C   UNL A   1      43.349  27.209  34.905  1.00  0.00     0.064 A 
ATOM     99  C   UNL A   1      44.680  26.892  35.197  1.00  0.00     0.173 A 
ATOM    100  C   UNL A   1      42.420  26.148  35.094  1.00  0.00     0.173 A 
ATOM    101  F   UNL A   1      45.672  27.743  34.903  1.00  0.00    -0.203 F 
ATOM    102  C   UNL A   1      45.032  25.662  35.765  1.00  0.00     0.198 A 
ATOM    103  C   UNL A   1      42.780  24.912  35.615  1.00  0.00     0.198 A 
ATOM    104  F   UNL A   1      41.121  26.266  34.792  1.00  0.00    -0.203 F 
ATOM    105  F   UNL A   1      46.310  25.429  36.097  1.00  0.00    -0.200 F 
ATOM    106  C   UNL A   1      44.082  24.679  35.986  1.00  0.00     0.200 A 
ATOM    107  F   UNL A   1      41.848  23.959  35.766  1.00  0.00    -0.200 F 
ATOM    108  F   UNL A   1      44.422  23.510  36.544  1.00  0.00    -0.200 F 
ENDBRANCH  75  98
ENDBRANCH  49  50
ENDBRANCH  42  44
ENDBRANCH  41  42
ENDBRANCH  40  41
ENDBRANCH  39  40
ENDBRANCH  38  39
ENDBRANCH   1  38
TORSDOF 17
ENDMDL
MODEL 2
REMARK VINA RESULT:     -14.2      1.527      2.988
REMARK SMILES Cc1ccc(NC(=O)c2cnn3c2NC2=C(C(=O)CCC2)[C@H]3c2ccc(C(=O)OCCOCCOC(=O)c3ccc(-c4c5nc(c(-c6c(F)c(F)c(F)c(F)c6F)c6ccc([nH]6)c(-c6c(F)c(F)c(F)c(F)c6F)c6nc(c(-c7c(F)c(F)c(F)c(F)c7F)c7ccc4[nH]7)C=C6)C=C5)cc3)cc2)cc1
REMARK SMILES IDX 31 1 30 2 29 3 27 4 28 5 26 6 23 7 24 8 102 9 25 10 101 11
REMARK SMILES IDX 22 12 9 13 10 14 13 15 11 16 12 17 14 18 15 19 16 21 21 22
REMARK SMILES IDX 17 23 20 24 18 25 19 26 7 27 6 28 8 30 5 31 1 32 2 33 3 34
REMARK SMILES IDX 104 35 4 36 103 37 32 38 33 39 34 40 35 41 36 42 37 43 38 44
REMARK SMILES IDX 39 45 100 46 40 47 99 48 41 49 42 50 43 51 93 52 44 53 98 54
REMARK SMILES IDX 92 55 94 56 45 57 97 58 91 59 90 60 46 62 78 63 58 64 77 65
REMARK SMILES IDX 59 66 62 67 76 68 95 69 60 70 61 71 75 73 96 74 63 75 47 76
REMARK SMILES IDX 48 77 56 78 49 79 50 80 54 81 57 82 51 83 52 84 55 85 53 86
REMARK SMILES IDX 79 87 80 88 88 89 81 90 82 91 86 92 89 93 83 94 84 95 87 96
REMARK SMILES IDX 85 97 64 98 65 99 73 100 66 101 67 102 71 103 74 104 68 105
REMARK SMILES IDX 69 106 72 107 70 108
REMARK H PARENT 14 20 6 29 94 61 62 72
REMARK Flexibility Score: inf
ROOT
ATOM      1  C   UNL A   1      33.459  35.441  29.176  1.00  0.00     0.202 C 
ENDROOT
BRANCH   1   2
ATOM      2  C   UNL A   1      34.180  33.696  29.444  1.00  0.00     0.261 C 
BRANCH   2   3
ATOM      3  O   UNL A   1      34.452  32.407  27.870  1.00  0.00    -0.460 OA
BRANCH   3   4
ATOM      4  C   UNL A   1      34.808  30.982  27.452  1.00  0.00     0.338 C 
ATOM      5  O   UNL A   1      35.965  30.544  27.520  1.00  0.00    -0.246 OA
BRANCH   4   6
ATOM      6  C   UNL A   1      33.856  29.915  27.031  1.00  0.00     0.060 A 
ATOM      7  C   UNL A   1      32.203  27.959  25.797  1.00  0.00    -0.019 A 
ATOM      8  C   UNL A   1      32.103  29.298  25.409  1.00  0.00     0.007 A 
ATOM      9  C   UNL A   1      33.307  27.609  26.586  1.00  0.00     0.007 A 
ATOM     10  C   UNL A   1      32.921  30.257  26.023  1.00  0.00     0.016 A 
ATOM     11  C   UNL A   1      34.047  28.571  27.278  1.00  0.00     0.016 A 
BRANCH   7  12
ATOM     12  C   UNL A   1      30.998  26.955  25.705  1.00  0.00     0.175 C 
ATOM     13  C   UNL A   1      31.985  25.732  22.519  1.00  0.00     0.102 A 
ATOM     14  C   UNL A   1      30.682  26.272  22.285  1.00  0.00     0.151 A 
ATOM     15  C   UNL A   1      32.044  25.620  23.898  1.00  0.00     0.142 A 
ATOM     16  N   UNL A   1      30.095  26.737  23.391  1.00  0.00    -0.178 NA
ATOM     17  N   UNL A   1      30.990  26.417  24.335  1.00  0.00    -0.237 N 
ATOM     18  N   UNL A   1      32.846  25.062  24.871  1.00  0.00    -0.343 N 
ATOM     19  C   UNL A   1      32.388  25.007  26.209  1.00  0.00     0.026 C 
ATOM     20  H   UNL A   1      33.733  24.705  24.638  1.00  0.00     0.168 HD
ATOM     21  C   UNL A   1      31.267  25.706  26.518  1.00  0.00     0.044 C 
ATOM     22  C   UNL A   1      32.793  23.914  27.155  1.00  0.00     0.055 C 
ATOM     23  C   UNL A   1      30.120  24.742  26.658  1.00  0.00     0.163 C 
ATOM     24  C   UNL A   1      31.664  22.890  27.304  1.00  0.00     0.014 C 
ATOM     25  O   UNL A   1      28.969  25.156  26.759  1.00  0.00    -0.294 OA
ATOM     26  C   UNL A   1      30.446  23.259  26.461  1.00  0.00     0.081 C 
BRANCH  13  27
ATOM     27  C   UNL A   1      32.972  25.352  21.528  1.00  0.00     0.261 C 
ATOM     28  N   UNL A   1      33.774  24.239  21.752  1.00  0.00    -0.322 N 
ATOM     29  H   UNL A   1      34.625  24.253  21.255  1.00  0.00     0.170 HD
ATOM     30  O   UNL A   1      33.153  26.026  20.514  1.00  0.00    -0.269 OA
BRANCH  28  31
ATOM     31  C   UNL A   1      33.599  23.087  22.559  1.00  0.00     0.041 A 
ATOM     32  C   UNL A   1      33.114  19.615  25.119  1.00  0.00     0.044 C 
ATOM     33  C   UNL A   1      33.314  20.802  24.224  1.00  0.00    -0.051 A 
ATOM     34  C   UNL A   1      32.347  21.113  23.270  1.00  0.00     0.005 A 
ATOM     35  C   UNL A   1      34.438  21.628  24.322  1.00  0.00     0.005 A 
ATOM     36  C   UNL A   1      32.516  22.223  22.437  1.00  0.00     0.026 A 
ATOM     37  C   UNL A   1      34.583  22.755  23.492  1.00  0.00     0.026 A 
ENDBRANCH  28  31
ENDBRANCH  13  27
ENDBRANCH   7  12
ENDBRANCH   4   6
ENDBRANCH   3   4
ENDBRANCH   2   3
ENDBRANCH   1   2
BRANCH   1  38
ATOM     38  O   UNL A   1      32.878  36.551  30.061  1.00  0.00    -0.374 OA
BRANCH  38  39
ATOM     39  C   UNL A   1      32.689  36.737  31.514  1.00  0.00     0.202 C 
BRANCH  39  40
ATOM     40  C   UNL A   1      33.921  36.889  32.444  1.00  0.00     0.261 C 
BRANCH  40  41
ATOM     41  O   UNL A   1      34.211  35.901  33.457  1.00  0.00    -0.460 OA
BRANCH  41  42
ATOM     42  C   UNL A   1      34.305  34.601  33.116  1.00  0.00     0.338 C 
ATOM     43  O   UNL A   1      33.362  33.886  32.828  1.00  0.00    -0.246 OA
BRANCH  42  44
ATOM     44  C   UNL A   1      35.732  34.170  33.127  1.00  0.00     0.060 A 
ATOM     45  C   UNL A   1      36.542  34.547  32.048  1.00  0.00     0.016 A 
ATOM     46  C   UNL A   1      36.173  33.186  34.027  1.00  0.00     0.016 A 
ATOM     47  C   UNL A   1      37.708  33.823  31.785  1.00  0.00     0.010 A 
ATOM     48  C   UNL A   1      37.293  32.426  33.722  1.00  0.00     0.010 A 
ATOM     49  C   UNL A   1      38.028  32.697  32.565  1.00  0.00    -0.014 A 
BRANCH  49  50
ATOM     50  C   UNL A   1      39.268  31.936  32.371  1.00  0.00     0.031 A 
ATOM     51  C   UNL A   1      39.056  30.585  31.875  1.00  0.00     0.074 A 
ATOM     52  C   UNL A   1      40.535  32.380  32.536  1.00  0.00     0.049 A 
ATOM     53  N   UNL A   1      39.795  29.574  32.166  1.00  0.00    -0.248 NA
ATOM     54  C   UNL A   1      37.890  30.247  31.057  1.00  0.00     0.031 C 
ATOM     55  C   UNL A   1      41.837  31.825  32.200  1.00  0.00     0.029 A 
ATOM     56  N   UNL A   1      40.931  33.546  33.149  1.00  0.00    -0.354 N 
ATOM     57  C   UNL A   1      39.534  28.681  31.159  1.00  0.00     0.074 A 
ATOM     58  C   UNL A   1      38.175  28.973  30.790  1.00  0.00     0.031 C 
ATOM     59  C   UNL A   1      42.797  32.436  32.938  1.00  0.00     0.029 A 
ATOM     60  C   UNL A   1      42.131  33.356  33.858  1.00  0.00     0.049 A 
ATOM     61  H   UNL A   1      40.441  34.397  33.099  1.00  0.00     0.167 HD
ATOM     62  C   UNL A   1      40.606  28.111  30.528  1.00  0.00     0.037 A 
ATOM     63  C   UNL A   1      42.141  33.379  35.242  1.00  0.00     0.037 A 
ATOM     64  C   UNL A   1      41.870  28.350  31.289  1.00  0.00     0.049 A 
ATOM     65  C   UNL A   1      42.398  31.918  35.725  1.00  0.00     0.074 A 
ATOM     66  C   UNL A   1      43.130  28.873  31.021  1.00  0.00     0.029 A 
ATOM     67  N   UNL A   1      41.830  28.269  32.683  1.00  0.00    -0.354 N 
ATOM     68  N   UNL A   1      42.458  30.910  34.884  1.00  0.00    -0.248 NA
ATOM     69  C   UNL A   1      42.626  31.434  37.090  1.00  0.00     0.031 C 
ATOM     70  C   UNL A   1      43.824  29.081  32.261  1.00  0.00     0.029 A 
ATOM     71  C   UNL A   1      42.986  28.705  33.294  1.00  0.00     0.049 A 
ATOM     72  H   UNL A   1      41.050  27.934  33.182  1.00  0.00     0.167 HD
ATOM     73  C   UNL A   1      42.815  29.743  35.486  1.00  0.00     0.074 A 
ATOM     74  C   UNL A   1      42.837  30.109  36.895  1.00  0.00     0.031 C 
ATOM     75  C   UNL A   1      43.080  28.609  34.752  1.00  0.00     0.037 A 
BRANCH  62  76
ATOM     76  C   UNL A   1      40.536  27.576  29.091  1.00  0.00     0.064 A 
ATOM     77  C   UNL A   1      39.767  26.431  28.789  1.00  0.00     0.173 A 
ATOM     78  C   UNL A   1      41.223  28.094  27.963  1.00  0.00     0.173 A 
ATOM     79  F   UNL A   1      38.996  25.842  29.709  1.00  0.00    -0.203 F 
ATOM     80  C   UNL A   1      39.738  25.841  27.517  1.00  0.00     0.198 A 
ATOM     81  C   UNL A   1      41.192  27.509  26.694  1.00  0.00     0.198 A 
ATOM     82  F   UNL A   1      41.950  29.208  27.995  1.00  0.00    -0.203 F 
ATOM     83  F   UNL A   1      39.003  24.739  27.317  1.00  0.00    -0.200 F 
ATOM     84  C   UNL A   1      40.453  26.378  26.468  1.00  0.00     0.200 A 
ATOM     85  F   UNL A   1      41.890  28.070  25.694  1.00  0.00    -0.200 F 
ATOM     86  F   UNL A   1      40.417  25.823  25.251  1.00  0.00    -0.200 F 
ENDBRANCH  62  76
BRANCH  63  87
ATOM     87  C   UNL A   1      41.164  34.488  35.869  1.00  0.00     0.064 A 
ATOM     88  C   UNL A   1      39.736  34.025  36.816  1.00  0.00     0.173 A 
ATOM     89  C   UNL A   1      42.192  35.720  36.516  1.00  0.00     0.173 A 
ATOM     90  F   UNL A   1      38.954  33.037  36.350  1.00  0.00    -0.203 F 
ATOM     91  C   UNL A   1      39.393  34.646  38.466  1.00  0.00     0.198 A 
ATOM     92  C   UNL A   1      42.025  36.348  38.170  1.00  0.00     0.198 A 
ATOM     93  F   UNL A   1      42.946  36.377  35.622  1.00  0.00    -0.203 F 
ATOM     94  F   UNL A   1      38.283  34.281  39.118  1.00  0.00    -0.200 F 
ATOM     95  C   UNL A   1      40.561  35.794  39.234  1.00  0.00     0.200 A 
ATOM     96  F   UNL A   1      42.729  37.459  38.310  1.00  0.00    -0.200 F 
ATOM     97  F   UNL A   1      40.270  36.164  40.473  1.00  0.00    -0.200 F 
ENDBRANCH  63  87
BRANCH  75  98
ATOM     98  C   UNL A   1      43.442  27.250  35.311  1.00  0.00     0.064 A 
ATOM     99  C   UNL A   1      42.552  26.172  35.370  1.00  0.00     0.173 A 
ATOM    100  C   UNL A   1      44.717  27.014  35.896  1.00  0.00     0.173 A 
ATOM    101  F   UNL A   1      41.270  26.315  35.009  1.00  0.00    -0.203 F 
ATOM    102  C   UNL A   1      42.951  24.919  35.848  1.00  0.00     0.198 A 
ATOM    103  C   UNL A   1      45.095  25.781  36.412  1.00  0.00     0.198 A 
ATOM    104  F   UNL A   1      45.656  27.964  35.985  1.00  0.00    -0.203 F 
ATOM    105  F   UNL A   1      42.087  23.894  35.818  1.00  0.00    -0.200 F 
ATOM    106  C   UNL A   1      44.225  24.720  36.355  1.00  0.00     0.200 A 
ATOM    107  F   UNL A   1      46.316  25.634  36.948  1.00  0.00    -0.200 F 
ATOM    108  F   UNL A   1      44.606  23.515  36.797  1.00  0.00    -0.200 F 
ENDBRANCH  75  98
ENDBRANCH  49  50
ENDBRANCH  42  44
ENDBRANCH  41  42
ENDBRANCH  40  41
ENDBRANCH  39  40
ENDBRANCH  38  39
ENDBRANCH   1  38
TORSDOF 17
ENDMDL
MODEL 3
REMARK VINA RESULT:     -12.9      4.873      9.466
REMARK SMILES Cc1ccc(NC(=O)c2cnn3c2NC2=C(C(=O)CCC2)[C@H]3c2ccc(C(=O)OCCOCCOC(=O)c3ccc(-c4c5nc(c(-c6c(F)c(F)c(F)c(F)c6F)c6ccc([nH]6)c(-c6c(F)c(F)c(F)c(F)c6F)c6nc(c(-c7c(F)c(F)c(F)c(F)c7F)c7ccc4[nH]7)C=C6)C=C5)cc3)cc2)cc1
REMARK SMILES IDX 31 1 30 2 29 3 27 4 28 5 26 6 23 7 24 8 102 9 25 10 101 11
REMARK SMILES IDX 22 12 9 13 10 14 13 15 11 16 12 17 14 18 15 19 16 21 21 22
REMARK SMILES IDX 17 23 20 24 18 25 19 26 7 27 6 28 8 30 5 31 1 32 2 33 3 34
REMARK SMILES IDX 104 35 4 36 103 37 32 38 33 39 34 40 35 41 36 42 37 43 38 44
REMARK SMILES IDX 39 45 100 46 40 47 99 48 41 49 42 50 43 51 93 52 44 53 98 54
REMARK SMILES IDX 92 55 94 56 45 57 97 58 91 59 90 60 46 62 78 63 58 64 77 65
REMARK SMILES IDX 59 66 62 67 76 68 95 69 60 70 61 71 75 73 96 74 63 75 47 76
REMARK SMILES IDX 48 77 56 78 49 79 50 80 54 81 57 82 51 83 52 84 55 85 53 86
REMARK SMILES IDX 79 87 80 88 88 89 81 90 82 91 86 92 89 93 83 94 84 95 87 96
REMARK SMILES IDX 85 97 64 98 65 99 73 100 66 101 67 102 71 103 74 104 68 105
REMARK SMILES IDX 69 106 72 107 70 108
REMARK H PARENT 14 20 6 29 94 61 62 72
REMARK Flexibility Score: inf
ROOT
ATOM      1  C   UNL A   1      36.366  33.009  30.364  1.00  0.00     0.202 C 
ENDROOT
BRANCH   1   2
ATOM      2  C   UNL A   1      36.412  32.822  28.467  1.00  0.00     0.261 C 
BRANCH   2   3
ATOM      3  O   UNL A   1      34.952  31.781  27.467  1.00  0.00    -0.460 OA
BRANCH   3   4
ATOM      4  C   UNL A   1      33.450  31.594  27.261  1.00  0.00     0.338 C 
ATOM      5  O   UNL A   1      32.662  32.549  27.256  1.00  0.00    -0.246 OA
BRANCH   4   6
ATOM      6  C   UNL A   1      32.749  30.320  26.936  1.00  0.00     0.060 A 
ATOM      7  C   UNL A   1      31.706  27.865  25.953  1.00  0.00    -0.019 A 
ATOM      8  C   UNL A   1      31.674  29.006  25.146  1.00  0.00     0.007 A 
ATOM      9  C   UNL A   1      32.498  27.927  27.107  1.00  0.00     0.007 A 
ATOM     10  C   UNL A   1      32.189  30.213  25.639  1.00  0.00     0.016 A 
ATOM     11  C   UNL A   1      32.914  29.147  27.645  1.00  0.00     0.016 A 
BRANCH   7  12
ATOM     12  C   UNL A   1      30.653  26.705  25.827  1.00  0.00     0.175 C 
ATOM     13  C   UNL A   1      31.840  25.690  22.636  1.00  0.00     0.102 A 
ATOM     14  C   UNL A   1      30.477  26.048  22.392  1.00  0.00     0.151 A 
ATOM     15  C   UNL A   1      31.896  25.562  24.014  1.00  0.00     0.142 A 
ATOM     16  N   UNL A   1      29.818  26.407  23.496  1.00  0.00    -0.178 NA
ATOM     17  N   UNL A   1      30.737  26.196  24.448  1.00  0.00    -0.237 N 
ATOM     18  N   UNL A   1      32.757  25.103  24.990  1.00  0.00    -0.343 N 
ATOM     19  C   UNL A   1      32.294  24.960  26.319  1.00  0.00     0.026 C 
ATOM     20  H   UNL A   1      33.687  24.877  24.764  1.00  0.00     0.168 HD
ATOM     21  C   UNL A   1      31.083  25.491  26.623  1.00  0.00     0.044 C 
ATOM     22  C   UNL A   1      32.836  23.917  27.253  1.00  0.00     0.055 C 
ATOM     23  C   UNL A   1      30.079  24.374  26.731  1.00  0.00     0.163 C 
ATOM     24  C   UNL A   1      31.858  22.744  27.369  1.00  0.00     0.014 C 
ATOM     25  O   UNL A   1      28.881  24.623  26.821  1.00  0.00    -0.294 OA
ATOM     26  C   UNL A   1      30.611  22.955  26.514  1.00  0.00     0.081 C 
BRANCH  13  27
ATOM     27  C   UNL A   1      32.882  25.469  21.654  1.00  0.00     0.261 C 
ATOM     28  N   UNL A   1      33.818  24.462  21.863  1.00  0.00    -0.322 N 
ATOM     29  H   UNL A   1      34.667  24.600  21.383  1.00  0.00     0.170 HD
ATOM     30  O   UNL A   1      32.989  26.189  20.661  1.00  0.00    -0.269 OA
BRANCH  28  31
ATOM     31  C   UNL A   1      33.782  23.275  22.636  1.00  0.00     0.041 A 
ATOM     32  C   UNL A   1      33.728  19.695  25.090  1.00  0.00     0.044 C 
ATOM     33  C   UNL A   1      33.778  20.921  24.228  1.00  0.00    -0.051 A 
ATOM     34  C   UNL A   1      32.709  21.212  23.384  1.00  0.00     0.005 A 
ATOM     35  C   UNL A   1      34.863  21.804  24.252  1.00  0.00     0.005 A 
ATOM     36  C   UNL A   1      32.738  22.357  22.584  1.00  0.00     0.026 A 
ATOM     37  C   UNL A   1      34.868  22.965  23.457  1.00  0.00     0.026 A 
ENDBRANCH  28  31
ENDBRANCH  13  27
ENDBRANCH   7  12
ENDBRANCH   4   6
ENDBRANCH   3   4
ENDBRANCH   2   3
ENDBRANCH   1   2
BRANCH   1  38
ATOM     38  O   UNL A   1      36.897  32.226  31.571  1.00  0.00    -0.374 OA
BRANCH  38  39
ATOM     39  C   UNL A   1      36.867  30.810  31.992  1.00  0.00     0.202 C 
BRANCH  39  40
ATOM     40  C   UNL A   1      36.517  29.702  30.965  1.00  0.00     0.261 C 
BRANCH  40  41
ATOM     41  O   UNL A   1      37.555  29.030  30.218  1.00  0.00    -0.460 OA
BRANCH  41  42
ATOM     42  C   UNL A   1      37.732  29.317  28.913  1.00  0.00     0.338 C 
ATOM     43  O   UNL A   1      36.847  29.330  28.076  1.00  0.00    -0.246 OA
BRANCH  42  44
ATOM     44  C   UNL A   1      39.165  29.631  28.647  1.00  0.00     0.060 A 
ATOM     45  C   UNL A   1      39.698  29.266  27.403  1.00  0.00     0.016 A 
ATOM     46  C   UNL A   1      40.019  30.010  29.695  1.00  0.00     0.016 A 
ATOM     47  C   UNL A   1      41.081  29.124  27.271  1.00  0.00     0.010 A 
ATOM     48  C   UNL A   1      41.385  29.799  29.579  1.00  0.00     0.010 A 
ATOM     49  C   UNL A   1      41.917  29.293  28.390  1.00  0.00    -0.014 A 
BRANCH  49  50
ATOM     50  C   UNL A   1      43.379  29.213  28.296  1.00  0.00     0.031 A 
ATOM     51  C   UNL A   1      43.982  30.314  27.561  1.00  0.00     0.074 A 
ATOM     52  C   UNL A   1      44.186  28.287  28.863  1.00  0.00     0.049 A 
ATOM     53  N   UNL A   1      45.045  30.221  26.844  1.00  0.00    -0.248 NA
ATOM     54  C   UNL A   1      43.348  31.632  27.508  1.00  0.00     0.031 C 
ATOM     55  C   UNL A   1      45.628  28.187  29.026  1.00  0.00     0.029 A 
ATOM     56  N   UNL A   1      43.805  27.097  29.439  1.00  0.00    -0.354 N 
ATOM     57  C   UNL A   1      45.488  31.515  26.751  1.00  0.00     0.074 A 
ATOM     58  C   UNL A   1      44.280  32.293  26.823  1.00  0.00     0.031 C 
ATOM     59  C   UNL A   1      45.971  26.898  29.272  1.00  0.00     0.029 A 
ATOM     60  C   UNL A   1      44.755  26.092  29.185  1.00  0.00     0.049 A 
ATOM     61  H   UNL A   1      42.980  26.966  29.958  1.00  0.00     0.167 HD
ATOM     62  C   UNL A   1      46.808  31.752  27.024  1.00  0.00     0.037 A 
ATOM     63  C   UNL A   1      44.455  25.038  28.338  1.00  0.00     0.037 A 
ATOM     64  C   UNL A   1      47.586  30.476  27.069  1.00  0.00     0.049 A 
ATOM     65  C   UNL A   1      45.296  25.238  27.039  1.00  0.00     0.074 A 
ATOM     66  C   UNL A   1      48.441  29.842  27.963  1.00  0.00     0.029 A 
ATOM     67  N   UNL A   1      47.294  29.488  26.126  1.00  0.00    -0.354 N 
ATOM     68  N   UNL A   1      46.031  26.310  26.847  1.00  0.00    -0.248 NA
ATOM     69  C   UNL A   1      45.437  24.334  25.894  1.00  0.00     0.031 C 
ATOM     70  C   UNL A   1      48.653  28.489  27.529  1.00  0.00     0.029 A 
ATOM     71  C   UNL A   1      47.916  28.284  26.378  1.00  0.00     0.049 A 
ATOM     72  H   UNL A   1      46.699  29.636  25.355  1.00  0.00     0.167 HD
ATOM     73  C   UNL A   1      46.784  26.237  25.716  1.00  0.00     0.074 A 
ATOM     74  C   UNL A   1      46.317  24.999  25.107  1.00  0.00     0.031 C 
ATOM     75  C   UNL A   1      47.730  27.192  25.421  1.00  0.00     0.037 A 
BRANCH  62  76
ATOM     76  C   UNL A   1      47.324  33.112  27.514  1.00  0.00     0.064 A 
ATOM     77  C   UNL A   1      47.474  33.367  28.894  1.00  0.00     0.173 A 
ATOM     78  C   UNL A   1      47.651  34.231  26.706  1.00  0.00     0.173 A 
ATOM     79  F   UNL A   1      47.278  32.411  29.809  1.00  0.00    -0.203 F 
ATOM     80  C   UNL A   1      47.852  34.617  29.406  1.00  0.00     0.198 A 
ATOM     81  C   UNL A   1      48.031  35.476  27.215  1.00  0.00     0.198 A 
ATOM     82  F   UNL A   1      47.652  34.200  25.376  1.00  0.00    -0.203 F 
ATOM     83  F   UNL A   1      47.947  34.786  30.732  1.00  0.00    -0.200 F 
ATOM     84  C   UNL A   1      48.127  35.674  28.567  1.00  0.00     0.200 A 
ATOM     85  F   UNL A   1      48.306  36.478  26.365  1.00  0.00    -0.200 F 
ATOM     86  F   UNL A   1      48.500  36.864  29.054  1.00  0.00    -0.200 F 
ENDBRANCH  62  76
BRANCH  63  87
ATOM     87  C   UNL A   1      42.947  24.509  28.487  1.00  0.00     0.064 A 
ATOM     88  C   UNL A   1      41.637  25.173  27.490  1.00  0.00     0.173 A 
ATOM     89  C   UNL A   1      43.055  22.788  28.628  1.00  0.00     0.173 A 
ATOM     90  F   UNL A   1      41.567  26.506  27.333  1.00  0.00    -0.203 F 
ATOM     91  C   UNL A   1      40.529  24.162  26.502  1.00  0.00     0.198 A 
ATOM     92  C   UNL A   1      42.090  21.674  27.635  1.00  0.00     0.198 A 
ATOM     93  F   UNL A   1      43.699  22.334  29.713  1.00  0.00    -0.203 F 
ATOM     94  F   UNL A   1      39.541  24.721  25.793  1.00  0.00    -0.200 F 
ATOM     95  C   UNL A   1      40.751  22.368  26.491  1.00  0.00     0.200 A 
ATOM     96  F   UNL A   1      42.150  20.451  28.133  1.00  0.00    -0.200 F 
ATOM     97  F   UNL A   1      39.933  21.693  25.696  1.00  0.00    -0.200 F 
ENDBRANCH  63  87
BRANCH  75  98
ATOM     98  C   UNL A   1      48.592  27.238  24.178  1.00  0.00     0.064 A 
ATOM     99  C   UNL A   1      49.962  26.955  24.171  1.00  0.00     0.173 A 
ATOM    100  C   UNL A   1      48.056  27.663  22.931  1.00  0.00     0.173 A 
ATOM    101  F   UNL A   1      50.621  26.710  25.311  1.00  0.00    -0.203 F 
ATOM    102  C   UNL A   1      50.705  26.961  22.985  1.00  0.00     0.198 A 
ATOM    103  C   UNL A   1      48.808  27.712  21.762  1.00  0.00     0.198 A 
ATOM    104  F   UNL A   1      46.780  28.040  22.785  1.00  0.00    -0.203 F 
ATOM    105  F   UNL A   1      51.999  26.612  23.013  1.00  0.00    -0.200 F 
ATOM    106  C   UNL A   1      50.125  27.325  21.781  1.00  0.00     0.200 A 
ATOM    107  F   UNL A   1      48.233  28.123  20.622  1.00  0.00    -0.200 F 
ATOM    108  F   UNL A   1      50.837  27.314  20.646  1.00  0.00    -0.200 F 
ENDBRANCH  75  98
ENDBRANCH  49  50
ENDBRANCH  42  44
ENDBRANCH  41  42
ENDBRANCH  40  41
ENDBRANCH  39  40
ENDBRANCH  38  39
ENDBRANCH   1  38
TORSDOF 17
ENDMDL
