MODEL 1
REMARK VINA RESULT:     -10.8      0.000      0.000
REMARK SMILES Cc1ccsc1[C@@H]1C[C@H]1C(=O)OCCOCCOC(=O)c1ccc(-c2c3nc(c(-c4c(F)c(F)c(F)c(F)c4F)c4ccc([nH]4)c(-c4c(F)c(F)c(F)c(F)c4F)c4nc(c(-c5c(F)c(F)c(F)c(F)c5F)c5ccc2[nH]5)C=C4)C=C3)cc1
REMARK SMILES IDX 16 1 15 2 14 3 13 4 12 5 10 6 11 7 9 8 7 9 8 10 6 11 1 12
REMARK SMILES IDX 2 13 3 14 4 15 5 16 17 17 18 18 19 19 20 20 21 21 22 22
REMARK SMILES IDX 83 23 23 24 82 25 24 26 25 27 26 28 76 29 27 30 81 31 75 32
REMARK SMILES IDX 77 33 28 34 80 35 74 36 73 37 29 39 61 40 41 41 60 42 42 43
REMARK SMILES IDX 45 44 59 45 78 46 43 47 44 48 58 50 79 51 46 52 30 53 31 54
REMARK SMILES IDX 39 55 32 56 33 57 37 58 40 59 34 60 35 61 38 62 36 63 62 64
REMARK SMILES IDX 63 65 71 66 64 67 65 68 69 69 72 70 66 71 67 72 70 73 68 74
REMARK SMILES IDX 47 75 48 76 56 77 49 78 50 79 54 80 57 81 51 82 52 83 55 84
REMARK SMILES IDX 53 85
REMARK H PARENT 77 38 45 49
REMARK Flexibility Score: inf
ROOT
ATOM      1  C   UNL A   1      42.797  20.742  25.959  1.00  0.00     0.202 C 
ENDROOT
BRANCH   1   2
ATOM      2  O   UNL A   1      42.147  20.865  27.224  1.00  0.00    -0.374 OA
BRANCH   2   3
ATOM      3  C   UNL A   1      40.731  21.056  27.233  1.00  0.00     0.202 C 
BRANCH   3   4
ATOM      4  C   UNL A   1      40.100  21.445  25.895  1.00  0.00     0.261 C 
BRANCH   4   5
ATOM      5  O   UNL A   1      38.678  21.590  26.049  1.00  0.00    -0.463 OA
BRANCH   5   6
ATOM      6  C   UNL A   1      37.921  20.801  25.246  1.00  0.00     0.309 C 
ATOM      7  O   UNL A   1      38.124  19.625  24.983  1.00  0.00    -0.252 OA
BRANCH   6   8
ATOM      8  C   UNL A   1      36.693  21.483  24.772  1.00  0.00     0.108 C 
ATOM      9  C   UNL A   1      35.326  21.258  25.385  1.00  0.00     0.045 C 
ATOM     10  C   UNL A   1      36.083  22.542  25.640  1.00  0.00     0.026 C 
BRANCH   9  11
ATOM     11  C   UNL A   1      34.022  21.321  24.562  1.00  0.00     0.011 A 
ATOM     12  C   UNL A   1      33.240  18.831  24.359  1.00  0.00     0.045 C 
ATOM     13  C   UNL A   1      33.178  20.307  24.127  1.00  0.00    -0.037 A 
ATOM     14  C   UNL A   1      32.131  20.854  23.295  1.00  0.00     0.015 A 
ATOM     15  C   UNL A   1      32.200  22.217  23.151  1.00  0.00     0.065 A 
ATOM     16  S   UNL A   1      33.501  22.873  24.027  1.00  0.00    -0.148 S 
ENDBRANCH   9  11
ENDBRANCH   6   8
ENDBRANCH   5   6
ENDBRANCH   4   5
ENDBRANCH   3   4
ENDBRANCH   2   3
ENDBRANCH   1   2
BRANCH   1  17
ATOM     17  C   UNL A   1      43.760  21.869  25.565  1.00  0.00     0.261 C 
BRANCH  17  18
ATOM     18  O   UNL A   1      43.114  22.953  24.877  1.00  0.00    -0.460 OA
BRANCH  18  19
ATOM     19  C   UNL A   1      43.758  24.142  24.976  1.00  0.00     0.338 C 
ATOM     20  O   UNL A   1      44.729  24.515  24.339  1.00  0.00    -0.246 OA
BRANCH  19  21
ATOM     21  C   UNL A   1      43.036  25.042  25.894  1.00  0.00     0.060 A 
ATOM     22  C   UNL A   1      43.567  26.324  26.092  1.00  0.00     0.016 A 
ATOM     23  C   UNL A   1      41.922  24.617  26.621  1.00  0.00     0.016 A 
ATOM     24  C   UNL A   1      43.015  27.168  27.053  1.00  0.00     0.010 A 
ATOM     25  C   UNL A   1      41.375  25.463  27.593  1.00  0.00     0.010 A 
ATOM     26  C   UNL A   1      41.939  26.729  27.836  1.00  0.00    -0.014 A 
BRANCH  26  27
ATOM     27  C   UNL A   1      41.497  27.545  28.995  1.00  0.00     0.031 A 
ATOM     28  C   UNL A   1      42.253  27.446  30.291  1.00  0.00     0.074 A 
ATOM     29  C   UNL A   1      40.462  28.396  28.882  1.00  0.00     0.049 A 
ATOM     30  N   UNL A   1      42.029  28.046  31.434  1.00  0.00    -0.248 NA
ATOM     31  C   UNL A   1      43.424  26.553  30.302  1.00  0.00     0.031 C 
ATOM     32  C   UNL A   1      39.680  28.617  27.668  1.00  0.00     0.029 A 
ATOM     33  N   UNL A   1      39.890  29.232  29.809  1.00  0.00    -0.354 N 
ATOM     34  C   UNL A   1      43.030  27.611  32.293  1.00  0.00     0.074 A 
ATOM     35  C   UNL A   1      43.843  26.670  31.553  1.00  0.00     0.031 C 
ATOM     36  C   UNL A   1      38.722  29.527  27.925  1.00  0.00     0.029 A 
ATOM     37  C   UNL A   1      38.808  29.927  29.329  1.00  0.00     0.049 A 
ATOM     38  H   UNL A   1      40.225  29.325  30.730  1.00  0.00     0.167 HD
ATOM     39  C   UNL A   1      43.257  27.973  33.577  1.00  0.00     0.037 A 
ATOM     40  C   UNL A   1      37.971  30.773  29.959  1.00  0.00     0.037 A 
ATOM     41  C   UNL A   1      42.446  28.904  34.317  1.00  0.00     0.049 A 
ATOM     42  C   UNL A   1      38.196  31.091  31.416  1.00  0.00     0.074 A 
ATOM     43  C   UNL A   1      42.589  29.323  35.629  1.00  0.00     0.029 A 
ATOM     44  N   UNL A   1      41.337  29.561  33.807  1.00  0.00    -0.354 N 
ATOM     45  N   UNL A   1      39.150  30.683  32.216  1.00  0.00    -0.248 NA
ATOM     46  C   UNL A   1      37.225  31.991  32.056  1.00  0.00     0.031 C 
ATOM     47  C   UNL A   1      41.544  30.205  35.923  1.00  0.00     0.029 A 
ATOM     48  C   UNL A   1      40.778  30.370  34.782  1.00  0.00     0.049 A 
ATOM     49  H   UNL A   1      40.997  29.466  32.888  1.00  0.00     0.167 HD
ATOM     50  C   UNL A   1      38.916  31.302  33.438  1.00  0.00     0.074 A 
ATOM     51  C   UNL A   1      37.736  32.123  33.272  1.00  0.00     0.031 C 
ATOM     52  C   UNL A   1      39.616  31.200  34.594  1.00  0.00     0.037 A 
BRANCH  39  53
ATOM     53  C   UNL A   1      44.431  27.355  34.276  1.00  0.00     0.064 A 
ATOM     54  C   UNL A   1      45.685  27.984  34.293  1.00  0.00     0.173 A 
ATOM     55  C   UNL A   1      44.289  26.151  34.981  1.00  0.00     0.173 A 
ATOM     56  F   UNL A   1      45.874  29.131  33.623  1.00  0.00    -0.203 F 
ATOM     57  C   UNL A   1      46.758  27.422  34.980  1.00  0.00     0.198 A 
ATOM     58  C   UNL A   1      45.357  25.604  35.687  1.00  0.00     0.198 A 
ATOM     59  F   UNL A   1      43.109  25.513  34.997  1.00  0.00    -0.203 F 
ATOM     60  F   UNL A   1      47.954  28.024  34.958  1.00  0.00    -0.200 F 
ATOM     61  C   UNL A   1      46.591  26.237  35.682  1.00  0.00     0.200 A 
ATOM     62  F   UNL A   1      45.191  24.466  36.375  1.00  0.00    -0.200 F 
ATOM     63  F   UNL A   1      47.620  25.704  36.354  1.00  0.00    -0.200 F 
ENDBRANCH  39  53
BRANCH  40  64
ATOM     64  C   UNL A   1      36.826  31.379  29.230  1.00  0.00     0.064 A 
ATOM     65  C   UNL A   1      36.831  32.735  28.874  1.00  0.00     0.173 A 
ATOM     66  C   UNL A   1      35.682  30.628  28.922  1.00  0.00     0.173 A 
ATOM     67  F   UNL A   1      37.890  33.501  29.172  1.00  0.00    -0.203 F 
ATOM     68  C   UNL A   1      35.725  33.323  28.262  1.00  0.00     0.198 A 
ATOM     69  C   UNL A   1      34.589  31.210  28.284  1.00  0.00     0.198 A 
ATOM     70  F   UNL A   1      35.624  29.328  29.245  1.00  0.00    -0.203 F 
ATOM     71  F   UNL A   1      35.734  34.634  27.987  1.00  0.00    -0.200 F 
ATOM     72  C   UNL A   1      34.606  32.560  27.965  1.00  0.00     0.200 A 
ATOM     73  F   UNL A   1      33.512  30.467  27.992  1.00  0.00    -0.200 F 
ATOM     74  F   UNL A   1      33.541  33.126  27.384  1.00  0.00    -0.200 F 
ENDBRANCH  40  64
BRANCH  52  75
ATOM     75  C   UNL A   1      39.158  32.034  35.755  1.00  0.00     0.064 A 
ATOM     76  C   UNL A   1      38.280  31.529  36.724  1.00  0.00     0.173 A 
ATOM     77  C   UNL A   1      39.635  33.344  35.918  1.00  0.00     0.173 A 
ATOM     78  F   UNL A   1      37.785  30.288  36.605  1.00  0.00    -0.203 F 
ATOM     79  C   UNL A   1      37.876  32.314  37.801  1.00  0.00     0.198 A 
ATOM     80  C   UNL A   1      39.252  34.116  37.011  1.00  0.00     0.198 A 
ATOM     81  F   UNL A   1      40.483  33.871  35.021  1.00  0.00    -0.203 F 
ATOM     82  F   UNL A   1      37.000  31.828  38.692  1.00  0.00    -0.200 F 
ATOM     83  C   UNL A   1      38.366  33.603  37.947  1.00  0.00     0.200 A 
ATOM     84  F   UNL A   1      39.736  35.357  37.156  1.00  0.00    -0.200 F 
ATOM     85  F   UNL A   1      37.981  34.355  38.987  1.00  0.00    -0.200 F 
ENDBRANCH  52  75
ENDBRANCH  26  27
ENDBRANCH  19  21
ENDBRANCH  18  19
ENDBRANCH  17  18
ENDBRANCH   1  17
TORSDOF 15
ENDMDL
MODEL 2
REMARK VINA RESULT:     -10.8      1.486      2.782
REMARK SMILES Cc1ccsc1[C@@H]1C[C@H]1C(=O)OCCOCCOC(=O)c1ccc(-c2c3nc(c(-c4c(F)c(F)c(F)c(F)c4F)c4ccc([nH]4)c(-c4c(F)c(F)c(F)c(F)c4F)c4nc(c(-c5c(F)c(F)c(F)c(F)c5F)c5ccc2[nH]5)C=C4)C=C3)cc1
REMARK SMILES IDX 16 1 15 2 14 3 13 4 12 5 10 6 11 7 9 8 7 9 8 10 6 11 1 12
REMARK SMILES IDX 2 13 3 14 4 15 5 16 17 17 18 18 19 19 20 20 21 21 22 22
REMARK SMILES IDX 83 23 23 24 82 25 24 26 25 27 26 28 76 29 27 30 81 31 75 32
REMARK SMILES IDX 77 33 28 34 80 35 74 36 73 37 29 39 61 40 41 41 60 42 42 43
REMARK SMILES IDX 45 44 59 45 78 46 43 47 44 48 58 50 79 51 46 52 30 53 31 54
REMARK SMILES IDX 39 55 32 56 33 57 37 58 40 59 34 60 35 61 38 62 36 63 62 64
REMARK SMILES IDX 63 65 71 66 64 67 65 68 69 69 72 70 66 71 67 72 70 73 68 74
REMARK SMILES IDX 47 75 48 76 56 77 49 78 50 79 54 80 57 81 51 82 52 83 55 84
REMARK SMILES IDX 53 85
REMARK H PARENT 77 38 45 49
REMARK Flexibility Score: inf
ROOT
ATOM      1  C   UNL A   1      45.254  21.574  24.146  1.00  0.00     0.202 C 
ENDROOT
BRANCH   1   2
ATOM      2  O   UNL A   1      45.270  20.148  24.174  1.00  0.00    -0.374 OA
BRANCH   2   3
ATOM      3  C   UNL A   1      44.829  19.498  25.369  1.00  0.00     0.202 C 
BRANCH   3   4
ATOM      4  C   UNL A   1      43.551  18.666  25.246  1.00  0.00     0.261 C 
BRANCH   4   5
ATOM      5  O   UNL A   1      42.411  19.535  25.144  1.00  0.00    -0.463 OA
BRANCH   5   6
ATOM      6  C   UNL A   1      41.878  19.938  26.326  1.00  0.00     0.309 C 
ATOM      7  O   UNL A   1      42.111  19.463  27.427  1.00  0.00    -0.252 OA
BRANCH   6   8
ATOM      8  C   UNL A   1      41.024  21.142  26.184  1.00  0.00     0.108 C 
ATOM      9  C   UNL A   1      39.574  21.190  26.618  1.00  0.00     0.045 C 
ATOM     10  C   UNL A   1      40.641  21.897  27.421  1.00  0.00     0.026 C 
BRANCH   9  11
ATOM     11  C   UNL A   1      38.513  22.041  25.889  1.00  0.00     0.011 A 
ATOM     12  C   UNL A   1      38.787  24.447  26.886  1.00  0.00     0.045 C 
ATOM     13  C   UNL A   1      38.185  23.384  26.023  1.00  0.00    -0.037 A 
ATOM     14  C   UNL A   1      37.046  23.704  25.192  1.00  0.00     0.015 A 
ATOM     15  C   UNL A   1      36.582  22.637  24.464  1.00  0.00     0.065 A 
ATOM     16  S   UNL A   1      37.511  21.240  24.741  1.00  0.00    -0.148 S 
ENDBRANCH   9  11
ENDBRANCH   6   8
ENDBRANCH   5   6
ENDBRANCH   4   5
ENDBRANCH   3   4
ENDBRANCH   2   3
ENDBRANCH   1   2
BRANCH   1  17
ATOM     17  C   UNL A   1      44.826  22.286  25.435  1.00  0.00     0.261 C 
BRANCH  17  18
ATOM     18  O   UNL A   1      43.833  23.303  25.219  1.00  0.00    -0.460 OA
BRANCH  18  19
ATOM     19  C   UNL A   1      44.307  24.571  25.279  1.00  0.00     0.338 C 
ATOM     20  O   UNL A   1      45.187  25.068  24.595  1.00  0.00    -0.246 OA
BRANCH  19  21
ATOM     21  C   UNL A   1      43.506  25.374  26.221  1.00  0.00     0.060 A 
ATOM     22  C   UNL A   1      43.789  26.744  26.305  1.00  0.00     0.016 A 
ATOM     23  C   UNL A   1      42.568  24.792  27.077  1.00  0.00     0.016 A 
ATOM     24  C   UNL A   1      43.170  27.528  27.275  1.00  0.00     0.010 A 
ATOM     25  C   UNL A   1      41.954  25.579  28.058  1.00  0.00     0.010 A 
ATOM     26  C   UNL A   1      42.277  26.943  28.183  1.00  0.00    -0.014 A 
BRANCH  26  27
ATOM     27  C   UNL A   1      41.789  27.733  29.341  1.00  0.00     0.031 A 
ATOM     28  C   UNL A   1      42.529  27.651  30.648  1.00  0.00     0.074 A 
ATOM     29  C   UNL A   1      40.724  28.547  29.219  1.00  0.00     0.049 A 
ATOM     30  N   UNL A   1      42.266  28.234  31.791  1.00  0.00    -0.248 NA
ATOM     31  C   UNL A   1      43.731  26.802  30.669  1.00  0.00     0.031 C 
ATOM     32  C   UNL A   1      39.953  28.749  27.995  1.00  0.00     0.029 A 
ATOM     33  N   UNL A   1      40.109  29.354  30.143  1.00  0.00    -0.354 N 
ATOM     34  C   UNL A   1      43.269  27.829  32.662  1.00  0.00     0.074 A 
ATOM     35  C   UNL A   1      44.127  26.924  31.928  1.00  0.00     0.031 C 
ATOM     36  C   UNL A   1      38.959  29.621  28.245  1.00  0.00     0.029 A 
ATOM     37  C   UNL A   1      39.009  30.013  29.652  1.00  0.00     0.049 A 
ATOM     38  H   UNL A   1      40.427  29.452  31.070  1.00  0.00     0.167 HD
ATOM     39  C   UNL A   1      43.464  28.190  33.952  1.00  0.00     0.037 A 
ATOM     40  C   UNL A   1      38.133  30.823  30.276  1.00  0.00     0.037 A 
ATOM     41  C   UNL A   1      42.608  29.084  34.686  1.00  0.00     0.049 A 
ATOM     42  C   UNL A   1      38.325  31.138  31.738  1.00  0.00     0.074 A 
ATOM     43  C   UNL A   1      42.717  29.498  36.004  1.00  0.00     0.029 A 
ATOM     44  N   UNL A   1      41.484  29.704  34.165  1.00  0.00    -0.354 N 
ATOM     45  N   UNL A   1      39.281  30.758  32.550  1.00  0.00    -0.248 NA
ATOM     46  C   UNL A   1      37.312  31.997  32.370  1.00  0.00     0.031 C 
ATOM     47  C   UNL A   1      41.636  30.339  36.289  1.00  0.00     0.029 A 
ATOM     48  C   UNL A   1      40.881  30.485  35.137  1.00  0.00     0.049 A 
ATOM     49  H   UNL A   1      41.161  29.604  33.240  1.00  0.00     0.167 HD
ATOM     50  C   UNL A   1      39.007  31.359  33.772  1.00  0.00     0.074 A 
ATOM     51  C   UNL A   1      37.800  32.138  33.594  1.00  0.00     0.031 C 
ATOM     52  C   UNL A   1      39.693  31.273  34.938  1.00  0.00     0.037 A 
BRANCH  39  53
ATOM     53  C   UNL A   1      44.649  27.608  34.664  1.00  0.00     0.064 A 
ATOM     54  C   UNL A   1      45.879  28.283  34.705  1.00  0.00     0.173 A 
ATOM     55  C   UNL A   1      44.541  26.395  35.357  1.00  0.00     0.173 A 
ATOM     56  F   UNL A   1      46.035  29.442  34.047  1.00  0.00    -0.203 F 
ATOM     57  C   UNL A   1      46.961  27.755  35.404  1.00  0.00     0.198 A 
ATOM     58  C   UNL A   1      45.618  25.882  36.076  1.00  0.00     0.198 A 
ATOM     59  F   UNL A   1      43.385  25.713  35.352  1.00  0.00    -0.203 F 
ATOM     60  F   UNL A   1      48.135  28.401  35.405  1.00  0.00    -0.200 F 
ATOM     61  C   UNL A   1      46.827  26.559  36.095  1.00  0.00     0.200 A 
ATOM     62  F   UNL A   1      45.484  24.733  36.752  1.00  0.00    -0.200 F 
ATOM     63  F   UNL A   1      47.866  26.059  36.778  1.00  0.00    -0.200 F 
ENDBRANCH  39  53
BRANCH  40  64
ATOM     64  C   UNL A   1      36.977  31.393  29.534  1.00  0.00     0.064 A 
ATOM     65  C   UNL A   1      35.907  30.583  29.128  1.00  0.00     0.173 A 
ATOM     66  C   UNL A   1      36.945  32.747  29.170  1.00  0.00     0.173 A 
ATOM     67  F   UNL A   1      35.907  29.276  29.428  1.00  0.00    -0.203 F 
ATOM     68  C   UNL A   1      34.863  31.100  28.363  1.00  0.00     0.198 A 
ATOM     69  C   UNL A   1      35.886  33.269  28.430  1.00  0.00     0.198 A 
ATOM     70  F   UNL A   1      37.946  33.564  29.528  1.00  0.00    -0.203 F 
ATOM     71  F   UNL A   1      33.884  30.290  27.939  1.00  0.00    -0.200 F 
ATOM     72  C   UNL A   1      34.851  32.442  28.017  1.00  0.00     0.200 A 
ATOM     73  F   UNL A   1      35.874  34.569  28.105  1.00  0.00    -0.200 F 
ATOM     74  F   UNL A   1      33.852  32.937  27.277  1.00  0.00    -0.200 F 
ENDBRANCH  40  64
BRANCH  52  75
ATOM     75  C   UNL A   1      39.188  32.081  36.098  1.00  0.00     0.064 A 
ATOM     76  C   UNL A   1      39.604  33.402  36.312  1.00  0.00     0.173 A 
ATOM     77  C   UNL A   1      38.247  31.535  36.985  1.00  0.00     0.173 A 
ATOM     78  F   UNL A   1      40.512  33.964  35.501  1.00  0.00    -0.203 F 
ATOM     79  C   UNL A   1      39.115  34.140  37.388  1.00  0.00     0.198 A 
ATOM     80  C   UNL A   1      37.739  32.285  38.042  1.00  0.00     0.198 A 
ATOM     81  F   UNL A   1      37.812  30.277  36.818  1.00  0.00    -0.203 F 
ATOM     82  F   UNL A   1      39.560  35.386  37.601  1.00  0.00    -0.200 F 
ATOM     83  C   UNL A   1      38.179  33.584  38.247  1.00  0.00     0.200 A 
ATOM     84  F   UNL A   1      36.826  31.749  38.863  1.00  0.00    -0.200 F 
ATOM     85  F   UNL A   1      37.706  34.297  39.278  1.00  0.00    -0.200 F 
ENDBRANCH  52  75
ENDBRANCH  26  27
ENDBRANCH  19  21
ENDBRANCH  18  19
ENDBRANCH  17  18
ENDBRANCH   1  17
TORSDOF 15
ENDMDL
MODEL 3
REMARK VINA RESULT:     -10.7      1.797      2.840
REMARK SMILES Cc1ccsc1[C@@H]1C[C@H]1C(=O)OCCOCCOC(=O)c1ccc(-c2c3nc(c(-c4c(F)c(F)c(F)c(F)c4F)c4ccc([nH]4)c(-c4c(F)c(F)c(F)c(F)c4F)c4nc(c(-c5c(F)c(F)c(F)c(F)c5F)c5ccc2[nH]5)C=C4)C=C3)cc1
REMARK SMILES IDX 16 1 15 2 14 3 13 4 12 5 10 6 11 7 9 8 7 9 8 10 6 11 1 12
REMARK SMILES IDX 2 13 3 14 4 15 5 16 17 17 18 18 19 19 20 20 21 21 22 22
REMARK SMILES IDX 83 23 23 24 82 25 24 26 25 27 26 28 76 29 27 30 81 31 75 32
REMARK SMILES IDX 77 33 28 34 80 35 74 36 73 37 29 39 61 40 41 41 60 42 42 43
REMARK SMILES IDX 45 44 59 45 78 46 43 47 44 48 58 50 79 51 46 52 30 53 31 54
REMARK SMILES IDX 39 55 32 56 33 57 37 58 40 59 34 60 35 61 38 62 36 63 62 64
REMARK SMILES IDX 63 65 71 66 64 67 65 68 69 69 72 70 66 71 67 72 70 73 68 74
REMARK SMILES IDX 47 75 48 76 56 77 49 78 50 79 54 80 57 81 51 82 52 83 55 84
REMARK SMILES IDX 53 85
REMARK H PARENT 77 38 45 49
REMARK Flexibility Score: inf
ROOT
ATOM      1  C   UNL A   1      46.334  22.081  24.653  1.00  0.00     0.202 C 
ENDROOT
BRANCH   1   2
ATOM      2  O   UNL A   1      45.858  21.002  25.456  1.00  0.00    -0.374 OA
BRANCH   2   3
ATOM      3  C   UNL A   1      46.043  19.672  24.966  1.00  0.00     0.202 C 
BRANCH   3   4
ATOM      4  C   UNL A   1      44.771  18.840  24.793  1.00  0.00     0.261 C 
BRANCH   4   5
ATOM      5  O   UNL A   1      43.615  19.689  24.890  1.00  0.00    -0.463 OA
BRANCH   5   6
ATOM      6  C   UNL A   1      42.654  19.269  25.751  1.00  0.00     0.309 C 
ATOM      7  O   UNL A   1      42.532  18.143  26.210  1.00  0.00    -0.252 OA
BRANCH   6   8
ATOM      8  C   UNL A   1      41.775  20.373  26.206  1.00  0.00     0.108 C 
ATOM      9  C   UNL A   1      40.281  20.219  26.406  1.00  0.00     0.045 C 
ATOM     10  C   UNL A   1      41.211  20.312  27.594  1.00  0.00     0.026 C 
BRANCH   9  11
ATOM     11  C   UNL A   1      39.285  21.372  26.157  1.00  0.00     0.011 A 
ATOM     12  C   UNL A   1      37.431  20.332  24.627  1.00  0.00     0.045 C 
ATOM     13  C   UNL A   1      38.119  21.410  25.403  1.00  0.00    -0.037 A 
ATOM     14  C   UNL A   1      37.579  22.751  25.390  1.00  0.00     0.015 A 
ATOM     15  C   UNL A   1      38.314  23.645  26.128  1.00  0.00     0.065 A 
ATOM     16  S   UNL A   1      39.648  22.897  26.869  1.00  0.00    -0.148 S 
ENDBRANCH   9  11
ENDBRANCH   6   8
ENDBRANCH   5   6
ENDBRANCH   4   5
ENDBRANCH   3   4
ENDBRANCH   2   3
ENDBRANCH   1   2
BRANCH   1  17
ATOM     17  C   UNL A   1      45.288  22.841  23.828  1.00  0.00     0.261 C 
BRANCH  17  18
ATOM     18  O   UNL A   1      44.752  23.988  24.509  1.00  0.00    -0.460 OA
BRANCH  18  19
ATOM     19  C   UNL A   1      43.532  23.790  25.066  1.00  0.00     0.338 C 
ATOM     20  O   UNL A   1      42.689  22.972  24.735  1.00  0.00    -0.246 OA
BRANCH  19  21
ATOM     21  C   UNL A   1      43.375  24.625  26.271  1.00  0.00     0.060 A 
ATOM     22  C   UNL A   1      42.638  24.091  27.336  1.00  0.00     0.016 A 
ATOM     23  C   UNL A   1      43.850  25.937  26.327  1.00  0.00     0.016 A 
ATOM     24  C   UNL A   1      42.332  24.881  28.441  1.00  0.00     0.010 A 
ATOM     25  C   UNL A   1      43.534  26.734  27.434  1.00  0.00     0.010 A 
ATOM     26  C   UNL A   1      42.746  26.220  28.480  1.00  0.00    -0.014 A 
BRANCH  26  27
ATOM     27  C   UNL A   1      42.238  27.111  29.553  1.00  0.00     0.031 A 
ATOM     28  C   UNL A   1      42.955  27.150  30.874  1.00  0.00     0.074 A 
ATOM     29  C   UNL A   1      41.176  27.908  29.339  1.00  0.00     0.049 A 
ATOM     30  N   UNL A   1      42.672  27.833  31.955  1.00  0.00    -0.248 NA
ATOM     31  C   UNL A   1      44.157  26.308  30.994  1.00  0.00     0.031 C 
ATOM     32  C   UNL A   1      40.425  27.997  28.088  1.00  0.00     0.029 A 
ATOM     33  N   UNL A   1      40.544  28.795  30.175  1.00  0.00    -0.354 N 
ATOM     34  C   UNL A   1      43.660  27.511  32.876  1.00  0.00     0.074 A 
ATOM     35  C   UNL A   1      44.531  26.545  32.243  1.00  0.00     0.031 C 
ATOM     36  C   UNL A   1      39.428  28.887  28.241  1.00  0.00     0.029 A 
ATOM     37  C   UNL A   1      39.453  29.405  29.608  1.00  0.00     0.049 A 
ATOM     38  H   UNL A   1      40.846  28.978  31.094  1.00  0.00     0.167 HD
ATOM     39  C   UNL A   1      43.832  27.987  34.131  1.00  0.00     0.037 A 
ATOM     40  C   UNL A   1      38.565  30.267  30.140  1.00  0.00     0.037 A 
ATOM     41  C   UNL A   1      42.964  28.944  34.767  1.00  0.00     0.049 A 
ATOM     42  C   UNL A   1      38.732  30.713  31.571  1.00  0.00     0.074 A 
ATOM     43  C   UNL A   1      43.049  29.475  36.043  1.00  0.00     0.029 A 
ATOM     44  N   UNL A   1      41.849  29.512  34.171  1.00  0.00    -0.354 N 
ATOM     45  N   UNL A   1      39.674  30.410  32.430  1.00  0.00    -0.248 NA
ATOM     46  C   UNL A   1      37.708  31.624  32.104  1.00  0.00     0.031 C 
ATOM     47  C   UNL A   1      41.964  30.337  36.231  1.00  0.00     0.029 A 
ATOM     48  C   UNL A   1      41.229  30.377  35.059  1.00  0.00     0.049 A 
ATOM     49  H   UNL A   1      41.542  29.327  33.254  1.00  0.00     0.167 HD
ATOM     50  C   UNL A   1      39.378  31.119  33.587  1.00  0.00     0.074 A 
ATOM     51  C   UNL A   1      38.175  31.877  33.319  1.00  0.00     0.031 C 
ATOM     52  C   UNL A   1      40.044  31.141  34.768  1.00  0.00     0.037 A 
BRANCH  39  53
ATOM     53  C   UNL A   1      45.005  27.475  34.914  1.00  0.00     0.064 A 
ATOM     54  C   UNL A   1      44.906  26.324  35.709  1.00  0.00     0.173 A 
ATOM     55  C   UNL A   1      46.253  28.108  34.825  1.00  0.00     0.173 A 
ATOM     56  F   UNL A   1      43.730  25.690  35.834  1.00  0.00    -0.203 F 
ATOM     57  C   UNL A   1      46.011  25.832  36.398  1.00  0.00     0.198 A 
ATOM     58  C   UNL A   1      47.363  27.600  35.496  1.00  0.00     0.198 A 
ATOM     59  F   UNL A   1      46.401  29.210  34.075  1.00  0.00    -0.203 F 
ATOM     60  F   UNL A   1      45.886  24.749  37.176  1.00  0.00    -0.200 F 
ATOM     61  C   UNL A   1      47.240  26.466  36.285  1.00  0.00     0.200 A 
ATOM     62  F   UNL A   1      48.552  28.207  35.377  1.00  0.00    -0.200 F 
ATOM     63  F   UNL A   1      48.306  25.985  36.938  1.00  0.00    -0.200 F 
ENDBRANCH  39  53
BRANCH  40  64
ATOM     64  C   UNL A   1      37.423  30.765  29.329  1.00  0.00     0.064 A 
ATOM     65  C   UNL A   1      37.368  32.097  28.897  1.00  0.00     0.173 A 
ATOM     66  C   UNL A   1      36.339  29.932  29.015  1.00  0.00     0.173 A 
ATOM     67  F   UNL A   1      38.368  32.939  29.197  1.00  0.00    -0.203 F 
ATOM     68  C   UNL A   1      36.261  32.585  28.207  1.00  0.00     0.198 A 
ATOM     69  C   UNL A   1      35.244  30.414  28.300  1.00  0.00     0.198 A 
ATOM     70  F   UNL A   1      36.338  28.651  29.409  1.00  0.00    -0.203 F 
ATOM     71  F   UNL A   1      36.209  33.878  27.858  1.00  0.00    -0.200 F 
ATOM     72  C   UNL A   1      35.201  31.744  27.906  1.00  0.00     0.200 A 
ATOM     73  F   UNL A   1      34.226  29.595  28.004  1.00  0.00    -0.200 F 
ATOM     74  F   UNL A   1      34.133  32.214  27.249  1.00  0.00    -0.200 F 
ENDBRANCH  40  64
BRANCH  52  75
ATOM     75  C   UNL A   1      39.519  32.050  35.841  1.00  0.00     0.064 A 
ATOM     76  C   UNL A   1      38.516  31.638  36.729  1.00  0.00     0.173 A 
ATOM     77  C   UNL A   1      40.053  33.337  36.003  1.00  0.00     0.173 A 
ATOM     78  F   UNL A   1      37.963  30.422  36.607  1.00  0.00    -0.203 F 
ATOM     79  C   UNL A   1      38.050  32.492  37.727  1.00  0.00     0.198 A 
ATOM     80  C   UNL A   1      39.605  34.177  37.018  1.00  0.00     0.198 A 
ATOM     81  F   UNL A   1      41.020  33.776  35.182  1.00  0.00    -0.203 F 
ATOM     82  F   UNL A   1      37.059  32.094  38.537  1.00  0.00    -0.200 F 
ATOM     83  C   UNL A   1      38.599  33.757  37.874  1.00  0.00     0.200 A 
ATOM     84  F   UNL A   1      40.146  35.395  37.166  1.00  0.00    -0.200 F 
ATOM     85  F   UNL A   1      38.153  34.574  38.838  1.00  0.00    -0.200 F 
ENDBRANCH  52  75
ENDBRANCH  26  27
ENDBRANCH  19  21
ENDBRANCH  18  19
ENDBRANCH  17  18
ENDBRANCH   1  17
TORSDOF 15
ENDMDL
