MODEL 1
REMARK VINA RESULT:     -11.2      0.000      0.000
REMARK SMILES C[C@H]1C[NH+](CC[C@@H]2CCC[C@]2([NH3+])C(=O)OCCOCCOC(=O)c2ccc(-c3c4nc(c(-c5c(F)c(F)c(F)c(F)c5F)c5ccc([nH]5)c(-c5c(F)c(F)c(F)c(F)c5F)c5nc(c(-c6c(F)c(F)c(F)c(F)c6F)c6ccc3[nH]6)C=C5)C=C4)cc2)C[C@H](C)O1
REMARK SMILES IDX 17 1 16 2 15 3 13 4 14 5 11 6 7 7 8 8 9 9 10 10 6 11 5 12
REMARK SMILES IDX 4 13 1 14 2 15 3 16 90 17 88 18 87 19 89 21 12 22 18 26
REMARK SMILES IDX 19 27 20 28 21 29 22 30 23 31 24 32 25 33 86 34 26 35 85 36
REMARK SMILES IDX 27 37 28 38 29 39 79 40 30 41 84 42 78 43 80 44 31 45 83 46
REMARK SMILES IDX 77 47 76 48 32 50 64 51 44 52 63 53 45 54 48 55 62 56 81 57
REMARK SMILES IDX 46 58 47 59 61 61 82 62 49 63 33 64 34 65 42 66 35 67 36 68
REMARK SMILES IDX 40 69 43 70 37 71 38 72 41 73 39 74 65 75 66 76 74 77 67 78
REMARK SMILES IDX 68 79 72 80 75 81 69 82 70 83 73 84 71 85 50 86 51 87 59 88
REMARK SMILES IDX 52 89 53 90 57 91 60 92 54 93 55 94 58 95 56 96
REMARK H PARENT 4 20 12 23 12 24 12 25 80 49 48 60
REMARK Flexibility Score: inf
ROOT
ATOM      1  C   UNL A   1      39.790  20.405  26.161  1.00  0.00     0.202 C 
ENDROOT
BRANCH   1   2
ATOM      2  C   UNL A   1      39.268  21.843  26.088  1.00  0.00     0.261 C 
BRANCH   2   3
ATOM      3  O   UNL A   1      38.218  21.987  25.115  1.00  0.00    -0.459 OA
BRANCH   3   4
ATOM      4  C   UNL A   1      37.295  22.944  25.402  1.00  0.00     0.368 C 
ATOM      5  O   UNL A   1      37.507  23.893  26.152  1.00  0.00    -0.245 OA
BRANCH   4   6
ATOM      6  C   UNL A   1      35.891  22.644  24.796  1.00  0.00     0.195 C 
ATOM      7  C   UNL A   1      34.680  23.541  25.197  1.00  0.00     0.068 C 
ATOM      8  C   UNL A   1      34.234  23.045  26.584  1.00  0.00     0.011 C 
ATOM      9  C   UNL A   1      34.818  21.642  26.731  1.00  0.00     0.008 C 
ATOM     10  C   UNL A   1      35.402  21.291  25.365  1.00  0.00     0.081 C 
BRANCH   7  11
ATOM     11  C   UNL A   1      34.743  25.071  25.090  1.00  0.00     0.072 C 
BRANCH  11  12
ATOM     12  C   UNL A   1      33.898  25.752  23.986  1.00  0.00     0.262 C 
BRANCH  12  13
ATOM     13  N   UNL A   1      32.753  26.612  24.342  1.00  0.00    -0.331 N 
ATOM     14  C   UNL A   1      28.949  26.470  23.939  1.00  0.00     0.045 C 
ATOM     15  C   UNL A   1      30.308  27.016  24.371  1.00  0.00     0.170 C 
ATOM     16  C   UNL A   1      31.452  26.082  23.921  1.00  0.00     0.294 C 
ATOM     17  O   UNL A   1      30.451  28.315  23.777  1.00  0.00    -0.364 OA
ATOM     18  C   UNL A   1      31.699  28.942  24.097  1.00  0.00     0.170 C 
ATOM     19  C   UNL A   1      32.912  28.007  23.918  1.00  0.00     0.294 C 
ATOM     20  H   UNL A   1      32.757  26.602  25.362  1.00  0.00     0.348 HD
ATOM     21  C   UNL A   1      31.657  29.611  25.460  1.00  0.00     0.045 C 
ENDBRANCH  12  13
ENDBRANCH  11  12
ENDBRANCH   7  11
BRANCH   6  22
ATOM     22  N   UNL A   1      36.090  22.523  23.337  1.00  0.00    -0.343 N 
ATOM     23  H   UNL A   1      35.199  22.662  22.859  1.00  0.00     0.345 HD
ATOM     24  H   UNL A   1      36.450  21.594  23.118  1.00  0.00     0.345 HD
ATOM     25  H   UNL A   1      36.758  23.228  23.025  1.00  0.00     0.345 HD
ENDBRANCH   6  22
ENDBRANCH   4   6
ENDBRANCH   3   4
ENDBRANCH   2   3
ENDBRANCH   1   2
BRANCH   1  26
ATOM     26  O   UNL A   1      41.200  20.222  26.033  1.00  0.00    -0.374 OA
BRANCH  26  27
ATOM     27  C   UNL A   1      42.029  21.236  26.597  1.00  0.00     0.202 C 
BRANCH  27  28
ATOM     28  C   UNL A   1      43.110  21.825  25.688  1.00  0.00     0.261 C 
BRANCH  28  29
ATOM     29  O   UNL A   1      42.618  22.966  24.966  1.00  0.00    -0.460 OA
BRANCH  29  30
ATOM     30  C   UNL A   1      43.387  24.071  25.082  1.00  0.00     0.338 C 
ATOM     31  O   UNL A   1      44.422  24.321  24.479  1.00  0.00    -0.246 OA
BRANCH  30  32
ATOM     32  C   UNL A   1      42.707  25.069  25.927  1.00  0.00     0.060 A 
ATOM     33  C   UNL A   1      43.330  26.318  26.066  1.00  0.00     0.016 A 
ATOM     34  C   UNL A   1      41.525  24.781  26.611  1.00  0.00     0.016 A 
ATOM     35  C   UNL A   1      42.816  27.256  26.955  1.00  0.00     0.010 A 
ATOM     36  C   UNL A   1      41.012  25.723  27.504  1.00  0.00     0.010 A 
ATOM     37  C   UNL A   1      41.686  26.940  27.716  1.00  0.00    -0.014 A 
BRANCH  37  38
ATOM     38  C   UNL A   1      41.320  27.794  28.868  1.00  0.00     0.031 A 
ATOM     39  C   UNL A   1      42.125  27.675  30.131  1.00  0.00     0.074 A 
ATOM     40  C   UNL A   1      40.301  28.663  28.787  1.00  0.00     0.049 A 
ATOM     41  N   UNL A   1      41.948  28.251  31.292  1.00  0.00    -0.248 NA
ATOM     42  C   UNL A   1      43.287  26.772  30.079  1.00  0.00     0.031 C 
ATOM     43  C   UNL A   1      39.481  28.891  27.600  1.00  0.00     0.029 A 
ATOM     44  N   UNL A   1      39.772  29.503  29.734  1.00  0.00    -0.354 N 
ATOM     45  C   UNL A   1      42.958  27.765  32.110  1.00  0.00     0.074 A 
ATOM     46  C   UNL A   1      43.728  26.826  31.326  1.00  0.00     0.031 C 
ATOM     47  C   UNL A   1      38.534  29.798  27.895  1.00  0.00     0.029 A 
ATOM     48  C   UNL A   1      38.662  30.182  29.300  1.00  0.00     0.049 A 
ATOM     49  H   UNL A   1      40.153  29.608  30.635  1.00  0.00     0.167 HD
ATOM     50  C   UNL A   1      43.221  28.081  33.401  1.00  0.00     0.037 A 
ATOM     51  C   UNL A   1      37.827  30.995  29.975  1.00  0.00     0.037 A 
ATOM     52  C   UNL A   1      42.449  29.021  34.169  1.00  0.00     0.049 A 
ATOM     53  C   UNL A   1      38.101  31.288  31.427  1.00  0.00     0.074 A 
ATOM     54  C   UNL A   1      42.643  29.439  35.473  1.00  0.00     0.029 A 
ATOM     55  N   UNL A   1      41.320  29.682  33.701  1.00  0.00    -0.354 N 
ATOM     56  N   UNL A   1      39.070  30.847  32.193  1.00  0.00    -0.248 NA
ATOM     57  C   UNL A   1      37.168  32.195  32.107  1.00  0.00     0.031 C 
ATOM     58  C   UNL A   1      41.597  30.302  35.815  1.00  0.00     0.029 A 
ATOM     59  C   UNL A   1      40.790  30.479  34.701  1.00  0.00     0.049 A 
ATOM     60  H   UNL A   1      40.952  29.596  32.792  1.00  0.00     0.167 HD
ATOM     61  C   UNL A   1      38.885  31.445  33.432  1.00  0.00     0.074 A 
ATOM     62  C   UNL A   1      37.710  32.286  33.314  1.00  0.00     0.031 C 
ATOM     63  C   UNL A   1      39.623  31.316  34.563  1.00  0.00     0.037 A 
BRANCH  50  64
ATOM     64  C   UNL A   1      44.362  27.367  34.070  1.00  0.00     0.064 A 
ATOM     65  C   UNL A   1      44.194  26.133  34.715  1.00  0.00     0.173 A 
ATOM     66  C   UNL A   1      45.648  27.929  34.059  1.00  0.00     0.173 A 
ATOM     67  F   UNL A   1      42.984  25.557  34.769  1.00  0.00    -0.203 F 
ATOM     68  C   UNL A   1      45.260  25.510  35.360  1.00  0.00     0.198 A 
ATOM     69  C   UNL A   1      46.720  27.286  34.673  1.00  0.00     0.198 A 
ATOM     70  F   UNL A   1      45.867  29.106  33.452  1.00  0.00    -0.203 F 
ATOM     71  F   UNL A   1      45.062  24.364  36.027  1.00  0.00    -0.200 F 
ATOM     72  C   UNL A   1      46.523  26.084  35.333  1.00  0.00     0.200 A 
ATOM     73  F   UNL A   1      47.941  27.836  34.634  1.00  0.00    -0.200 F 
ATOM     74  F   UNL A   1      47.548  25.483  35.954  1.00  0.00    -0.200 F 
ENDBRANCH  50  64
BRANCH  51  75
ATOM     75  C   UNL A   1      36.652  31.577  29.278  1.00  0.00     0.064 A 
ATOM     76  C   UNL A   1      36.621  32.929  28.914  1.00  0.00     0.173 A 
ATOM     77  C   UNL A   1      35.544  30.784  28.940  1.00  0.00     0.173 A 
ATOM     78  F   UNL A   1      37.646  33.732  29.235  1.00  0.00    -0.203 F 
ATOM     79  C   UNL A   1      35.524  33.470  28.245  1.00  0.00     0.198 A 
ATOM     80  C   UNL A   1      34.461  31.318  28.245  1.00  0.00     0.198 A 
ATOM     81  F   UNL A   1      35.524  29.484  29.265  1.00  0.00    -0.203 F 
ATOM     82  F   UNL A   1      35.506  34.774  27.938  1.00  0.00    -0.200 F 
ATOM     83  C   UNL A   1      34.450  32.662  27.903  1.00  0.00     0.200 A 
ATOM     84  F   UNL A   1      33.432  30.531  27.904  1.00  0.00    -0.200 F 
ATOM     85  F   UNL A   1      33.402  33.179  27.247  1.00  0.00    -0.200 F 
ENDBRANCH  51  75
BRANCH  63  86
ATOM     86  C   UNL A   1      39.215  32.136  35.754  1.00  0.00     0.064 A 
ATOM     87  C   UNL A   1      38.369  31.629  36.750  1.00  0.00     0.173 A 
ATOM     88  C   UNL A   1      39.729  33.432  35.926  1.00  0.00     0.173 A 
ATOM     89  F   UNL A   1      37.841  30.402  36.628  1.00  0.00    -0.203 F 
ATOM     90  C   UNL A   1      38.034  32.396  37.864  1.00  0.00     0.198 A 
ATOM     91  C   UNL A   1      39.419  34.183  37.056  1.00  0.00     0.198 A 
ATOM     92  F   UNL A   1      40.550  33.961  35.008  1.00  0.00    -0.203 F 
ATOM     93  F   UNL A   1      37.187  31.909  38.781  1.00  0.00    -0.200 F 
ATOM     94  C   UNL A   1      38.566  33.667  38.020  1.00  0.00     0.200 A 
ATOM     95  F   UNL A   1      39.949  35.403  37.214  1.00  0.00    -0.200 F 
ATOM     96  F   UNL A   1      38.254  34.399  39.099  1.00  0.00    -0.200 F 
ENDBRANCH  63  86
ENDBRANCH  37  38
ENDBRANCH  30  32
ENDBRANCH  29  30
ENDBRANCH  28  29
ENDBRANCH  27  28
ENDBRANCH  26  27
ENDBRANCH   1  26
TORSDOF 18
ENDMDL
MODEL 2
REMARK VINA RESULT:     -11.1      4.547      8.628
REMARK SMILES C[C@H]1C[NH+](CC[C@@H]2CCC[C@]2([NH3+])C(=O)OCCOCCOC(=O)c2ccc(-c3c4nc(c(-c5c(F)c(F)c(F)c(F)c5F)c5ccc([nH]5)c(-c5c(F)c(F)c(F)c(F)c5F)c5nc(c(-c6c(F)c(F)c(F)c(F)c6F)c6ccc3[nH]6)C=C5)C=C4)cc2)C[C@H](C)O1
REMARK SMILES IDX 17 1 16 2 15 3 13 4 14 5 11 6 7 7 8 8 9 9 10 10 6 11 5 12
REMARK SMILES IDX 4 13 1 14 2 15 3 16 90 17 88 18 87 19 89 21 12 22 18 26
REMARK SMILES IDX 19 27 20 28 21 29 22 30 23 31 24 32 25 33 86 34 26 35 85 36
REMARK SMILES IDX 27 37 28 38 29 39 79 40 30 41 84 42 78 43 80 44 31 45 83 46
REMARK SMILES IDX 77 47 76 48 32 50 64 51 44 52 63 53 45 54 48 55 62 56 81 57
REMARK SMILES IDX 46 58 47 59 61 61 82 62 49 63 33 64 34 65 42 66 35 67 36 68
REMARK SMILES IDX 40 69 43 70 37 71 38 72 41 73 39 74 65 75 66 76 74 77 67 78
REMARK SMILES IDX 68 79 72 80 75 81 69 82 70 83 73 84 71 85 50 86 51 87 59 88
REMARK SMILES IDX 52 89 53 90 57 91 60 92 54 93 55 94 58 95 56 96
REMARK H PARENT 4 20 12 23 12 24 12 25 80 49 48 60
REMARK Flexibility Score: inf
ROOT
ATOM      1  C   UNL A   1      33.985  19.197  24.629  1.00  0.00     0.202 C 
ENDROOT
BRANCH   1   2
ATOM      2  C   UNL A   1      32.523  19.537  24.328  1.00  0.00     0.261 C 
BRANCH   2   3
ATOM      3  O   UNL A   1      31.962  20.423  25.313  1.00  0.00    -0.459 OA
BRANCH   3   4
ATOM      4  C   UNL A   1      31.857  21.723  24.924  1.00  0.00     0.368 C 
ATOM      5  O   UNL A   1      32.107  22.117  23.788  1.00  0.00    -0.245 OA
BRANCH   4   6
ATOM      6  C   UNL A   1      31.522  22.690  26.099  1.00  0.00     0.195 C 
ATOM      7  C   UNL A   1      31.631  24.228  25.874  1.00  0.00     0.068 C 
ATOM      8  C   UNL A   1      33.131  24.560  25.974  1.00  0.00     0.011 C 
ATOM      9  C   UNL A   1      33.768  23.383  26.708  1.00  0.00     0.008 C 
ATOM     10  C   UNL A   1      32.607  22.516  27.187  1.00  0.00     0.081 C 
BRANCH   7  11
ATOM     11  C   UNL A   1      30.933  24.921  24.695  1.00  0.00     0.072 C 
BRANCH  11  12
ATOM     12  C   UNL A   1      30.252  26.286  24.961  1.00  0.00     0.262 C 
BRANCH  12  13
ATOM     13  N   UNL A   1      31.026  27.538  24.874  1.00  0.00    -0.331 N 
ATOM     14  C   UNL A   1      33.934  28.859  22.764  1.00  0.00     0.045 C 
ATOM     15  C   UNL A   1      32.823  28.874  23.810  1.00  0.00     0.170 C 
ATOM     16  C   UNL A   1      32.093  27.515  23.867  1.00  0.00     0.294 C 
ATOM     17  O   UNL A   1      33.436  29.173  25.074  1.00  0.00    -0.364 OA
ATOM     18  C   UNL A   1      32.498  29.209  26.157  1.00  0.00     0.170 C 
ATOM     19  C   UNL A   1      31.538  28.003  26.168  1.00  0.00     0.294 C 
ATOM     20  H   UNL A   1      30.339  28.222  24.557  1.00  0.00     0.348 HD
ATOM     21  C   UNL A   1      31.779  30.545  26.231  1.00  0.00     0.045 C 
ENDBRANCH  12  13
ENDBRANCH  11  12
ENDBRANCH   7  11
BRANCH   6  22
ATOM     22  N   UNL A   1      30.214  22.253  26.631  1.00  0.00    -0.343 N 
ATOM     23  H   UNL A   1      29.465  22.704  26.104  1.00  0.00     0.345 HD
ATOM     24  H   UNL A   1      30.142  22.513  27.614  1.00  0.00     0.345 HD
ATOM     25  H   UNL A   1      30.131  21.240  26.541  1.00  0.00     0.345 HD
ENDBRANCH   6  22
ENDBRANCH   4   6
ENDBRANCH   3   4
ENDBRANCH   2   3
ENDBRANCH   1   2
BRANCH   1  26
ATOM     26  O   UNL A   1      34.908  20.286  24.660  1.00  0.00    -0.374 OA
BRANCH  26  27
ATOM     27  C   UNL A   1      36.257  19.970  24.999  1.00  0.00     0.202 C 
BRANCH  27  28
ATOM     28  C   UNL A   1      37.329  20.968  24.557  1.00  0.00     0.261 C 
BRANCH  28  29
ATOM     29  O   UNL A   1      37.741  21.807  25.649  1.00  0.00    -0.460 OA
BRANCH  29  30
ATOM     30  C   UNL A   1      38.976  21.531  26.125  1.00  0.00     0.338 C 
ATOM     31  O   UNL A   1      39.635  20.518  25.936  1.00  0.00    -0.246 OA
BRANCH  30  32
ATOM     32  C   UNL A   1      39.537  22.725  26.782  1.00  0.00     0.060 A 
ATOM     33  C   UNL A   1      38.948  23.960  26.476  1.00  0.00     0.016 A 
ATOM     34  C   UNL A   1      40.643  22.653  27.632  1.00  0.00     0.016 A 
ATOM     35  C   UNL A   1      39.513  25.138  26.951  1.00  0.00     0.010 A 
ATOM     36  C   UNL A   1      41.211  23.837  28.106  1.00  0.00     0.010 A 
ATOM     37  C   UNL A   1      40.677  25.082  27.724  1.00  0.00    -0.014 A 
BRANCH  37  38
ATOM     38  C   UNL A   1      41.449  26.321  27.971  1.00  0.00     0.031 A 
ATOM     39  C   UNL A   1      40.779  27.446  28.708  1.00  0.00     0.074 A 
ATOM     40  C   UNL A   1      42.720  26.436  27.556  1.00  0.00     0.049 A 
ATOM     41  N   UNL A   1      41.217  28.651  28.969  1.00  0.00    -0.248 NA
ATOM     42  C   UNL A   1      39.423  27.176  29.213  1.00  0.00     0.031 C 
ATOM     43  C   UNL A   1      43.480  25.395  26.870  1.00  0.00     0.029 A 
ATOM     44  N   UNL A   1      43.588  27.495  27.638  1.00  0.00    -0.354 N 
ATOM     45  C   UNL A   1      40.186  29.286  29.646  1.00  0.00     0.074 A 
ATOM     46  C   UNL A   1      39.089  28.348  29.731  1.00  0.00     0.031 C 
ATOM     47  C   UNL A   1      44.700  25.873  26.573  1.00  0.00     0.029 A 
ATOM     48  C   UNL A   1      44.788  27.265  27.013  1.00  0.00     0.049 A 
ATOM     49  H   UNL A   1      43.371  28.337  28.099  1.00  0.00     0.167 HD
ATOM     50  C   UNL A   1      40.160  30.542  30.154  1.00  0.00     0.037 A 
ATOM     51  C   UNL A   1      45.824  28.098  26.796  1.00  0.00     0.037 A 
ATOM     52  C   UNL A   1      41.261  31.465  30.065  1.00  0.00     0.049 A 
ATOM     53  C   UNL A   1      45.753  29.509  27.318  1.00  0.00     0.074 A 
ATOM     54  C   UNL A   1      41.356  32.748  30.571  1.00  0.00     0.029 A 
ATOM     55  N   UNL A   1      42.459  31.202  29.413  1.00  0.00    -0.354 N 
ATOM     56  N   UNL A   1      44.788  30.101  27.979  1.00  0.00    -0.248 NA
ATOM     57  C   UNL A   1      46.919  30.366  27.068  1.00  0.00     0.031 C 
ATOM     58  C   UNL A   1      42.583  33.285  30.170  1.00  0.00     0.029 A 
ATOM     59  C   UNL A   1      43.285  32.311  29.476  1.00  0.00     0.049 A 
ATOM     60  H   UNL A   1      42.687  30.352  28.971  1.00  0.00     0.167 HD
ATOM     61  C   UNL A   1      45.238  31.386  28.251  1.00  0.00     0.074 A 
ATOM     62  C   UNL A   1      46.570  31.485  27.687  1.00  0.00     0.031 C 
ATOM     63  C   UNL A   1      44.611  32.389  28.914  1.00  0.00     0.037 A 
BRANCH  50  64
ATOM     64  C   UNL A   1      38.886  30.998  30.808  1.00  0.00     0.064 A 
ATOM     65  C   UNL A   1      37.833  31.566  30.076  1.00  0.00     0.173 A 
ATOM     66  C   UNL A   1      38.718  30.859  32.194  1.00  0.00     0.173 A 
ATOM     67  F   UNL A   1      37.946  31.736  28.750  1.00  0.00    -0.203 F 
ATOM     68  C   UNL A   1      36.678  32.015  30.711  1.00  0.00     0.198 A 
ATOM     69  C   UNL A   1      37.546  31.276  32.822  1.00  0.00     0.198 A 
ATOM     70  F   UNL A   1      39.690  30.319  32.945  1.00  0.00    -0.203 F 
ATOM     71  F   UNL A   1      35.713  32.615  29.999  1.00  0.00    -0.200 F 
ATOM     72  C   UNL A   1      36.533  31.865  32.082  1.00  0.00     0.200 A 
ATOM     73  F   UNL A   1      37.403  31.117  34.145  1.00  0.00    -0.200 F 
ATOM     74  F   UNL A   1      35.420  32.297  32.692  1.00  0.00    -0.200 F 
ENDBRANCH  50  64
BRANCH  51  75
ATOM     75  C   UNL A   1      47.006  27.611  26.041  1.00  0.00     0.064 A 
ATOM     76  C   UNL A   1      47.064  27.704  24.644  1.00  0.00     0.173 A 
ATOM     77  C   UNL A   1      48.115  27.063  26.705  1.00  0.00     0.173 A 
ATOM     78  F   UNL A   1      46.020  28.199  23.964  1.00  0.00    -0.203 F 
ATOM     79  C   UNL A   1      48.182  27.261  23.939  1.00  0.00     0.198 A 
ATOM     80  C   UNL A   1      49.244  26.648  26.002  1.00  0.00     0.198 A 
ATOM     81  F   UNL A   1      48.110  26.952  28.041  1.00  0.00    -0.203 F 
ATOM     82  F   UNL A   1      48.197  27.331  22.601  1.00  0.00    -0.200 F 
ATOM     83  C   UNL A   1      49.274  26.743  24.619  1.00  0.00     0.200 A 
ATOM     84  F   UNL A   1      50.302  26.162  26.664  1.00  0.00    -0.200 F 
ATOM     85  F   UNL A   1      50.354  26.331  23.941  1.00  0.00    -0.200 F 
ENDBRANCH  51  75
BRANCH  63  86
ATOM     86  C   UNL A   1      45.371  33.671  29.111  1.00  0.00     0.064 A 
ATOM     87  C   UNL A   1      46.223  33.867  30.206  1.00  0.00     0.173 A 
ATOM     88  C   UNL A   1      45.285  34.695  28.154  1.00  0.00     0.173 A 
ATOM     89  F   UNL A   1      46.332  32.926  31.156  1.00  0.00    -0.203 F 
ATOM     90  C   UNL A   1      46.945  35.051  30.349  1.00  0.00     0.198 A 
ATOM     91  C   UNL A   1      46.032  35.862  28.282  1.00  0.00     0.198 A 
ATOM     92  F   UNL A   1      44.491  34.555  27.082  1.00  0.00    -0.203 F 
ATOM     93  F   UNL A   1      47.718  35.236  31.427  1.00  0.00    -0.200 F 
ATOM     94  C   UNL A   1      46.855  36.042  29.383  1.00  0.00     0.200 A 
ATOM     95  F   UNL A   1      45.958  36.810  27.339  1.00  0.00    -0.200 F 
ATOM     96  F   UNL A   1      47.561  37.174  29.515  1.00  0.00    -0.200 F 
ENDBRANCH  63  86
ENDBRANCH  37  38
ENDBRANCH  30  32
ENDBRANCH  29  30
ENDBRANCH  28  29
ENDBRANCH  27  28
ENDBRANCH  26  27
ENDBRANCH   1  26
TORSDOF 18
ENDMDL
MODEL 3
REMARK VINA RESULT:     -11.0      2.976      8.899
REMARK SMILES C[C@H]1C[NH+](CC[C@@H]2CCC[C@]2([NH3+])C(=O)OCCOCCOC(=O)c2ccc(-c3c4nc(c(-c5c(F)c(F)c(F)c(F)c5F)c5ccc([nH]5)c(-c5c(F)c(F)c(F)c(F)c5F)c5nc(c(-c6c(F)c(F)c(F)c(F)c6F)c6ccc3[nH]6)C=C5)C=C4)cc2)C[C@H](C)O1
REMARK SMILES IDX 17 1 16 2 15 3 13 4 14 5 11 6 7 7 8 8 9 9 10 10 6 11 5 12
REMARK SMILES IDX 4 13 1 14 2 15 3 16 90 17 88 18 87 19 89 21 12 22 18 26
REMARK SMILES IDX 19 27 20 28 21 29 22 30 23 31 24 32 25 33 86 34 26 35 85 36
REMARK SMILES IDX 27 37 28 38 29 39 79 40 30 41 84 42 78 43 80 44 31 45 83 46
REMARK SMILES IDX 77 47 76 48 32 50 64 51 44 52 63 53 45 54 48 55 62 56 81 57
REMARK SMILES IDX 46 58 47 59 61 61 82 62 49 63 33 64 34 65 42 66 35 67 36 68
REMARK SMILES IDX 40 69 43 70 37 71 38 72 41 73 39 74 65 75 66 76 74 77 67 78
REMARK SMILES IDX 68 79 72 80 75 81 69 82 70 83 73 84 71 85 50 86 51 87 59 88
REMARK SMILES IDX 52 89 53 90 57 91 60 92 54 93 55 94 58 95 56 96
REMARK H PARENT 4 20 12 23 12 24 12 25 80 49 48 60
REMARK Flexibility Score: inf
ROOT
ATOM      1  C   UNL A   1      30.887  29.357  24.254  1.00  0.00     0.202 C 
ENDROOT
BRANCH   1   2
ATOM      2  C   UNL A   1      30.053  29.147  22.987  1.00  0.00     0.261 C 
BRANCH   2   3
ATOM      3  O   UNL A   1      30.652  28.186  22.100  1.00  0.00    -0.459 OA
BRANCH   3   4
ATOM      4  C   UNL A   1      30.760  26.927  22.603  1.00  0.00     0.368 C 
ATOM      5  O   UNL A   1      30.009  26.468  23.459  1.00  0.00    -0.245 OA
BRANCH   4   6
ATOM      6  C   UNL A   1      32.020  26.167  22.090  1.00  0.00     0.195 C 
ATOM      7  C   UNL A   1      32.541  24.932  22.886  1.00  0.00     0.068 C 
ATOM      8  C   UNL A   1      33.322  25.504  24.081  1.00  0.00     0.011 C 
ATOM      9  C   UNL A   1      33.653  26.947  23.709  1.00  0.00     0.008 C 
ATOM     10  C   UNL A   1      33.241  27.102  22.247  1.00  0.00     0.081 C 
BRANCH   7  11
ATOM     11  C   UNL A   1      31.612  23.770  23.267  1.00  0.00     0.072 C 
BRANCH  11  12
ATOM     12  C   UNL A   1      32.023  22.344  22.827  1.00  0.00     0.262 C 
BRANCH  12  13
ATOM     13  N   UNL A   1      32.663  21.421  23.784  1.00  0.00    -0.331 N 
ATOM     14  C   UNL A   1      36.088  21.105  25.464  1.00  0.00     0.045 C 
ATOM     15  C   UNL A   1      34.636  20.767  25.134  1.00  0.00     0.170 C 
ATOM     16  C   UNL A   1      34.058  21.751  24.095  1.00  0.00     0.294 C 
ATOM     17  O   UNL A   1      34.620  19.425  24.624  1.00  0.00    -0.364 OA
ATOM     18  C   UNL A   1      33.307  18.979  24.262  1.00  0.00     0.170 C 
ATOM     19  C   UNL A   1      32.530  20.007  23.415  1.00  0.00     0.294 C 
ATOM     20  H   UNL A   1      32.131  21.561  24.642  1.00  0.00     0.348 HD
ATOM     21  C   UNL A   1      32.528  18.490  25.470  1.00  0.00     0.045 C 
ENDBRANCH  12  13
ENDBRANCH  11  12
ENDBRANCH   7  11
BRANCH   6  22
ATOM     22  N   UNL A   1      31.783  25.900  20.656  1.00  0.00    -0.343 N 
ATOM     23  H   UNL A   1      32.460  25.213  20.321  1.00  0.00     0.345 HD
ATOM     24  H   UNL A   1      31.888  26.765  20.126  1.00  0.00     0.345 HD
ATOM     25  H   UNL A   1      30.839  25.536  20.528  1.00  0.00     0.345 HD
ENDBRANCH   6  22
ENDBRANCH   4   6
ENDBRANCH   3   4
ENDBRANCH   2   3
ENDBRANCH   1   2
BRANCH   1  26
ATOM     26  O   UNL A   1      30.827  30.647  24.861  1.00  0.00    -0.374 OA
BRANCH  26  27
ATOM     27  C   UNL A   1      31.405  30.770  26.159  1.00  0.00     0.202 C 
BRANCH  27  28
ATOM     28  C   UNL A   1      31.812  32.178  26.600  1.00  0.00     0.261 C 
BRANCH  28  29
ATOM     29  O   UNL A   1      32.653  32.135  27.764  1.00  0.00    -0.460 OA
BRANCH  29  30
ATOM     30  C   UNL A   1      33.666  33.029  27.751  1.00  0.00     0.338 C 
ATOM     31  O   UNL A   1      33.582  34.244  27.626  1.00  0.00    -0.246 OA
BRANCH  30  32
ATOM     32  C   UNL A   1      34.931  32.359  28.104  1.00  0.00     0.060 A 
ATOM     33  C   UNL A   1      34.889  30.969  28.283  1.00  0.00     0.016 A 
ATOM     34  C   UNL A   1      36.115  33.070  28.309  1.00  0.00     0.016 A 
ATOM     35  C   UNL A   1      36.011  30.293  28.749  1.00  0.00     0.010 A 
ATOM     36  C   UNL A   1      37.240  32.391  28.779  1.00  0.00     0.010 A 
ATOM     37  C   UNL A   1      37.174  31.011  29.049  1.00  0.00    -0.014 A 
BRANCH  37  38
ATOM     38  C   UNL A   1      38.253  30.359  29.825  1.00  0.00     0.031 A 
ATOM     39  C   UNL A   1      38.438  30.752  31.263  1.00  0.00     0.074 A 
ATOM     40  C   UNL A   1      39.043  29.431  29.263  1.00  0.00     0.049 A 
ATOM     41  N   UNL A   1      39.358  30.386  32.117  1.00  0.00    -0.248 NA
ATOM     42  C   UNL A   1      37.451  31.698  31.811  1.00  0.00     0.031 C 
ATOM     43  C   UNL A   1      38.926  28.944  27.891  1.00  0.00     0.029 A 
ATOM     44  N   UNL A   1      40.114  28.746  29.778  1.00  0.00    -0.354 N 
ATOM     45  C   UNL A   1      39.075  31.070  33.291  1.00  0.00     0.074 A 
ATOM     46  C   UNL A   1      37.916  31.897  33.034  1.00  0.00     0.031 C 
ATOM     47  C   UNL A   1      39.904  28.051  27.664  1.00  0.00     0.029 A 
ATOM     48  C   UNL A   1      40.734  27.936  28.862  1.00  0.00     0.049 A 
ATOM     49  H   UNL A   1      40.408  28.829  30.714  1.00  0.00     0.167 HD
ATOM     50  C   UNL A   1      39.724  31.010  34.479  1.00  0.00     0.037 A 
ATOM     51  C   UNL A   1      41.863  27.211  28.973  1.00  0.00     0.037 A 
ATOM     52  C   UNL A   1      40.874  30.180  34.722  1.00  0.00     0.049 A 
ATOM     53  C   UNL A   1      42.605  27.202  30.284  1.00  0.00     0.074 A 
ATOM     54  C   UNL A   1      41.590  30.017  35.893  1.00  0.00     0.029 A 
ATOM     55  N   UNL A   1      41.484  29.380  33.764  1.00  0.00    -0.354 N 
ATOM     56  N   UNL A   1      42.322  27.830  31.400  1.00  0.00    -0.248 NA
ATOM     57  C   UNL A   1      43.819  26.379  30.353  1.00  0.00     0.031 C 
ATOM     58  C   UNL A   1      42.672  29.170  35.629  1.00  0.00     0.029 A 
ATOM     59  C   UNL A   1      42.588  28.746  34.311  1.00  0.00     0.049 A 
ATOM     60  H   UNL A   1      41.178  29.278  32.835  1.00  0.00     0.167 HD
ATOM     61  C   UNL A   1      43.301  27.456  32.311  1.00  0.00     0.074 A 
ATOM     62  C   UNL A   1      44.184  26.540  31.617  1.00  0.00     0.031 C 
ATOM     63  C   UNL A   1      43.452  27.831  33.606  1.00  0.00     0.037 A 
BRANCH  50  64
ATOM     64  C   UNL A   1      39.228  31.899  35.584  1.00  0.00     0.064 A 
ATOM     65  C   UNL A   1      39.606  33.246  35.685  1.00  0.00     0.173 A 
ATOM     66  C   UNL A   1      38.355  31.391  36.559  1.00  0.00     0.173 A 
ATOM     67  F   UNL A   1      40.451  33.780  34.789  1.00  0.00    -0.203 F 
ATOM     68  C   UNL A   1      39.163  34.039  36.741  1.00  0.00     0.198 A 
ATOM     69  C   UNL A   1      37.885  32.197  37.593  1.00  0.00     0.198 A 
ATOM     70  F   UNL A   1      37.957  30.110  36.510  1.00  0.00    -0.203 F 
ATOM     71  F   UNL A   1      39.590  35.305  36.852  1.00  0.00    -0.200 F 
ATOM     72  C   UNL A   1      38.298  33.515  37.690  1.00  0.00     0.200 A 
ATOM     73  F   UNL A   1      37.038  31.692  38.501  1.00  0.00    -0.200 F 
ATOM     74  F   UNL A   1      37.871  34.280  38.706  1.00  0.00    -0.200 F 
ENDBRANCH  50  64
BRANCH  51  75
ATOM     75  C   UNL A   1      42.357  26.444  27.801  1.00  0.00     0.064 A 
ATOM     76  C   UNL A   1      43.309  26.987  26.927  1.00  0.00     0.173 A 
ATOM     77  C   UNL A   1      41.903  25.141  27.544  1.00  0.00     0.173 A 
ATOM     78  F   UNL A   1      43.756  28.237  27.119  1.00  0.00    -0.203 F 
ATOM     79  C   UNL A   1      43.783  26.259  25.837  1.00  0.00     0.198 A 
ATOM     80  C   UNL A   1      42.400  24.404  26.471  1.00  0.00     0.198 A 
ATOM     81  F   UNL A   1      40.993  24.575  28.349  1.00  0.00    -0.203 F 
ATOM     82  F   UNL A   1      44.668  26.815  24.999  1.00  0.00    -0.200 F 
ATOM     83  C   UNL A   1      43.335  24.966  25.616  1.00  0.00     0.200 A 
ATOM     84  F   UNL A   1      41.975  23.148  26.269  1.00  0.00    -0.200 F 
ATOM     85  F   UNL A   1      43.803  24.262  24.576  1.00  0.00    -0.200 F 
ENDBRANCH  51  75
BRANCH  63  86
ATOM     86  C   UNL A   1      44.585  27.217  34.378  1.00  0.00     0.064 A 
ATOM     87  C   UNL A   1      44.451  25.990  35.044  1.00  0.00     0.173 A 
ATOM     88  C   UNL A   1      45.843  27.842  34.401  1.00  0.00     0.173 A 
ATOM     89  F   UNL A   1      43.268  25.358  35.064  1.00  0.00    -0.203 F 
ATOM     90  C   UNL A   1      45.526  25.423  35.724  1.00  0.00     0.198 A 
ATOM     91  C   UNL A   1      46.924  27.256  35.052  1.00  0.00     0.198 A 
ATOM     92  F   UNL A   1      46.028  29.012  33.772  1.00  0.00    -0.203 F 
ATOM     93  F   UNL A   1      45.363  24.274  36.393  1.00  0.00    -0.200 F 
ATOM     94  C   UNL A   1      46.763  26.052  35.719  1.00  0.00     0.200 A 
ATOM     95  F   UNL A   1      48.122  27.856  35.032  1.00  0.00    -0.200 F 
ATOM     96  F   UNL A   1      47.800  25.497  36.363  1.00  0.00    -0.200 F 
ENDBRANCH  63  86
ENDBRANCH  37  38
ENDBRANCH  30  32
ENDBRANCH  29  30
ENDBRANCH  28  29
ENDBRANCH  27  28
ENDBRANCH  26  27
ENDBRANCH   1  26
TORSDOF 18
ENDMDL
