MODEL 1
REMARK VINA RESULT:     -11.1      0.000      0.000
REMARK SMILES CCC[C@@]1(C(=O)OCCOCCOC(=O)c2ccc(-c3c4nc(c(-c5c(F)c(F)c(F)c(F)c5F)c5ccc([nH]5)c(-c5c(F)c(F)c(F)c(F)c5F)c5nc(c(-c6c(F)c(F)c(F)c(F)c6F)c6ccc3[nH]6)C=C5)C=C4)cc2)CCN(C(=O)[C@@H]2CC[NH2+][C@@H]2C)C1
REMARK SMILES IDX 10 1 9 2 8 3 7 4 5 5 6 6 4 7 79 8 90 9 80 10 81 11 3 12 2 13
REMARK SMILES IDX 1 14 82 15 83 16 84 17 85 18 88 19 86 20 87 21 89 22 11 25
REMARK SMILES IDX 12 26 13 27 14 28 15 29 16 30 17 31 78 32 18 33 77 34 19 35
REMARK SMILES IDX 20 36 21 37 71 38 22 39 76 40 70 41 72 42 23 43 75 44 69 45
REMARK SMILES IDX 68 46 24 48 56 49 36 50 55 51 37 52 40 53 54 54 73 55 38 56
REMARK SMILES IDX 39 57 53 59 74 60 41 61 25 62 26 63 34 64 27 65 28 66 32 67
REMARK SMILES IDX 35 68 29 69 30 70 33 71 31 72 57 73 58 74 66 75 59 76 60 77
REMARK SMILES IDX 64 78 67 79 61 80 62 81 65 82 63 83 42 84 43 85 51 86 44 87
REMARK SMILES IDX 45 88 49 89 52 90 46 91 47 92 50 93 48 94
REMARK H PARENT 87 23 87 24 72 47 40 58
REMARK Flexibility Score: inf
ROOT
ATOM      1  O   UNL A   1      35.495  21.683  25.658  1.00  0.00    -0.374 OA
ENDROOT
BRANCH   1   2
ATOM      2  C   UNL A   1      34.627  21.509  26.770  1.00  0.00     0.202 C 
BRANCH   2   3
ATOM      3  C   UNL A   1      33.128  21.782  26.591  1.00  0.00     0.261 C 
BRANCH   3   4
ATOM      4  O   UNL A   1      32.757  22.332  25.312  1.00  0.00    -0.463 OA
BRANCH   4   5
ATOM      5  C   UNL A   1      31.669  23.151  25.356  1.00  0.00     0.314 C 
ATOM      6  O   UNL A   1      30.648  22.884  25.981  1.00  0.00    -0.252 OA
BRANCH   5   7
ATOM      7  C   UNL A   1      31.858  24.477  24.603  1.00  0.00     0.087 C 
ATOM      8  C   UNL A   1      33.295  24.945  24.909  1.00  0.00     0.042 C 
ATOM      9  C   UNL A   1      31.017  25.611  25.229  1.00  0.00     0.138 C 
ATOM     10  C   UNL A   1      33.150  25.556  26.286  1.00  0.00     0.120 C 
ATOM     11  N   UNL A   1      31.924  26.315  26.138  1.00  0.00    -0.341 N 
BRANCH   7  12
ATOM     12  C   UNL A   1      31.588  24.262  23.098  1.00  0.00     0.020 C 
BRANCH  12  13
ATOM     13  C   UNL A   1      32.755  24.512  22.129  1.00  0.00    -0.002 C 
ATOM     14  C   UNL A   1      32.608  25.802  21.328  1.00  0.00     0.004 C 
ENDBRANCH  12  13
ENDBRANCH   7  12
BRANCH  11  15
ATOM     15  C   UNL A   1      31.614  27.563  26.619  1.00  0.00     0.231 C 
ATOM     16  O   UNL A   1      31.059  27.679  27.720  1.00  0.00    -0.274 OA
BRANCH  15  17
ATOM     17  C   UNL A   1      31.949  28.840  25.838  1.00  0.00     0.142 C 
ATOM     18  C   UNL A   1      31.724  28.777  24.327  1.00  0.00     0.081 C 
ATOM     19  C   UNL A   1      33.361  29.396  26.001  1.00  0.00     0.192 C 
ATOM     20  C   UNL A   1      33.080  29.097  23.698  1.00  0.00     0.261 C 
ATOM     21  N   UNL A   1      34.062  28.991  24.779  1.00  0.00    -0.343 N 
ATOM     22  C   UNL A   1      34.109  28.989  27.261  1.00  0.00     0.076 C 
ATOM     23  H   UNL A   1      34.852  29.611  24.602  1.00  0.00     0.346 HD
ATOM     24  H   UNL A   1      34.431  28.044  24.856  1.00  0.00     0.346 HD
ENDBRANCH  15  17
ENDBRANCH  11  15
ENDBRANCH   5   7
ENDBRANCH   4   5
ENDBRANCH   3   4
ENDBRANCH   2   3
ENDBRANCH   1   2
BRANCH   1  25
ATOM     25  C   UNL A   1      35.977  20.524  24.986  1.00  0.00     0.202 C 
BRANCH  25  26
ATOM     26  C   UNL A   1      37.488  20.266  24.982  1.00  0.00     0.261 C 
BRANCH  26  27
ATOM     27  O   UNL A   1      38.251  21.435  25.335  1.00  0.00    -0.460 OA
BRANCH  27  28
ATOM     28  C   UNL A   1      39.332  21.191  26.109  1.00  0.00     0.338 C 
ATOM     29  O   UNL A   1      40.001  20.164  26.154  1.00  0.00    -0.246 OA
BRANCH  28  30
ATOM     30  C   UNL A   1      39.750  22.414  26.809  1.00  0.00     0.060 A 
ATOM     31  C   UNL A   1      39.157  23.625  26.423  1.00  0.00     0.016 A 
ATOM     32  C   UNL A   1      40.799  22.394  27.728  1.00  0.00     0.016 A 
ATOM     33  C   UNL A   1      39.652  24.832  26.910  1.00  0.00     0.010 A 
ATOM     34  C   UNL A   1      41.306  23.607  28.203  1.00  0.00     0.010 A 
ATOM     35  C   UNL A   1      40.765  24.828  27.759  1.00  0.00    -0.014 A 
BRANCH  35  36
ATOM     36  C   UNL A   1      41.498  26.090  28.010  1.00  0.00     0.031 A 
ATOM     37  C   UNL A   1      40.781  27.200  28.727  1.00  0.00     0.074 A 
ATOM     38  C   UNL A   1      42.773  26.244  27.618  1.00  0.00     0.049 A 
ATOM     39  N   UNL A   1      41.166  28.428  28.960  1.00  0.00    -0.248 NA
ATOM     40  C   UNL A   1      39.442  26.880  29.250  1.00  0.00     0.031 C 
ATOM     41  C   UNL A   1      43.588  25.219  26.972  1.00  0.00     0.029 A 
ATOM     42  N   UNL A   1      43.599  27.337  27.696  1.00  0.00    -0.354 N 
ATOM     43  C   UNL A   1      40.113  29.030  29.637  1.00  0.00     0.074 A 
ATOM     44  C   UNL A   1      39.066  28.040  29.766  1.00  0.00     0.031 C 
ATOM     45  C   UNL A   1      44.794  25.739  26.687  1.00  0.00     0.029 A 
ATOM     46  C   UNL A   1      44.819  27.143  27.097  1.00  0.00     0.049 A 
ATOM     47  H   UNL A   1      43.342  28.179  28.138  1.00  0.00     0.167 HD
ATOM     48  C   UNL A   1      40.030  30.296  30.110  1.00  0.00     0.037 A 
ATOM     49  C   UNL A   1      45.821  28.014  26.875  1.00  0.00     0.037 A 
ATOM     50  C   UNL A   1      41.077  31.273  29.983  1.00  0.00     0.049 A 
ATOM     51  C   UNL A   1      45.678  29.439  27.346  1.00  0.00     0.074 A 
ATOM     52  C   UNL A   1      41.096  32.583  30.428  1.00  0.00     0.029 A 
ATOM     53  N   UNL A   1      42.294  31.044  29.357  1.00  0.00    -0.354 N 
ATOM     54  N   UNL A   1      44.682  30.004  27.986  1.00  0.00    -0.248 NA
ATOM     55  C   UNL A   1      46.800  30.347  27.065  1.00  0.00     0.031 C 
ATOM     56  C   UNL A   1      42.308  33.158  30.034  1.00  0.00     0.029 A 
ATOM     57  C   UNL A   1      43.065  32.193  29.390  1.00  0.00     0.049 A 
ATOM     58  H   UNL A   1      42.568  30.190  28.951  1.00  0.00     0.167 HD
ATOM     59  C   UNL A   1      45.069  31.319  28.214  1.00  0.00     0.074 A 
ATOM     60  C   UNL A   1      46.393  31.469  27.646  1.00  0.00     0.031 C 
ATOM     61  C   UNL A   1      44.392  32.311  28.840  1.00  0.00     0.037 A 
BRANCH  48  62
ATOM     62  C   UNL A   1      38.749  30.704  30.776  1.00  0.00     0.064 A 
ATOM     63  C   UNL A   1      38.614  30.717  32.173  1.00  0.00     0.173 A 
ATOM     64  C   UNL A   1      37.651  31.112  30.006  1.00  0.00     0.173 A 
ATOM     65  F   UNL A   1      39.630  30.319  32.953  1.00  0.00    -0.203 F 
ATOM     66  C   UNL A   1      37.417  31.101  32.772  1.00  0.00     0.198 A 
ATOM     67  C   UNL A   1      36.465  31.524  30.609  1.00  0.00     0.198 A 
ATOM     68  F   UNL A   1      37.729  31.120  28.666  1.00  0.00    -0.203 F 
ATOM     69  F   UNL A   1      37.294  31.063  34.105  1.00  0.00    -0.200 F 
ATOM     70  C   UNL A   1      36.347  31.511  31.990  1.00  0.00     0.200 A 
ATOM     71  F   UNL A   1      35.436  31.929  29.852  1.00  0.00    -0.200 F 
ATOM     72  F   UNL A   1      35.198  31.887  32.568  1.00  0.00    -0.200 F 
ENDBRANCH  48  62
BRANCH  49  73
ATOM     73  C   UNL A   1      47.043  27.572  26.154  1.00  0.00     0.064 A 
ATOM     74  C   UNL A   1      48.151  27.070  26.849  1.00  0.00     0.173 A 
ATOM     75  C   UNL A   1      47.132  27.655  24.756  1.00  0.00     0.173 A 
ATOM     76  F   UNL A   1      48.124  26.995  28.188  1.00  0.00    -0.203 F 
ATOM     77  C   UNL A   1      49.308  26.682  26.175  1.00  0.00     0.198 A 
ATOM     78  C   UNL A   1      48.278  27.241  24.081  1.00  0.00     0.198 A 
ATOM     79  F   UNL A   1      46.100  28.133  24.045  1.00  0.00    -0.203 F 
ATOM     80  F   UNL A   1      50.369  26.247  26.867  1.00  0.00    -0.200 F 
ATOM     81  C   UNL A   1      49.368  26.761  24.792  1.00  0.00     0.200 A 
ATOM     82  F   UNL A   1      48.329  27.311  22.745  1.00  0.00    -0.200 F 
ATOM     83  F   UNL A   1      50.479  26.386  24.145  1.00  0.00    -0.200 F 
ENDBRANCH  49  73
BRANCH  61  84
ATOM     84  C   UNL A   1      45.087  33.631  29.004  1.00  0.00     0.064 A 
ATOM     85  C   UNL A   1      45.923  33.895  30.097  1.00  0.00     0.173 A 
ATOM     86  C   UNL A   1      44.962  34.619  28.014  1.00  0.00     0.173 A 
ATOM     87  F   UNL A   1      46.065  32.988  31.074  1.00  0.00    -0.203 F 
ATOM     88  C   UNL A   1      46.597  35.110  30.203  1.00  0.00     0.198 A 
ATOM     89  C   UNL A   1      45.658  35.820  28.110  1.00  0.00     0.198 A 
ATOM     90  F   UNL A   1      44.180  34.410  26.945  1.00  0.00    -0.203 F 
ATOM     91  F   UNL A   1      47.364  35.358  31.273  1.00  0.00    -0.200 F 
ATOM     92  C   UNL A   1      46.471  36.066  29.206  1.00  0.00     0.200 A 
ATOM     93  F   UNL A   1      45.547  36.737  27.138  1.00  0.00    -0.200 F 
ATOM     94  F   UNL A   1      47.132  37.228  29.303  1.00  0.00    -0.200 F 
ENDBRANCH  61  84
ENDBRANCH  35  36
ENDBRANCH  28  30
ENDBRANCH  27  28
ENDBRANCH  26  27
ENDBRANCH  25  26
ENDBRANCH   1  25
TORSDOF 18
ENDMDL
MODEL 2
REMARK VINA RESULT:     -11.0      0.692      7.229
REMARK SMILES CCC[C@@]1(C(=O)OCCOCCOC(=O)c2ccc(-c3c4nc(c(-c5c(F)c(F)c(F)c(F)c5F)c5ccc([nH]5)c(-c5c(F)c(F)c(F)c(F)c5F)c5nc(c(-c6c(F)c(F)c(F)c(F)c6F)c6ccc3[nH]6)C=C5)C=C4)cc2)CCN(C(=O)[C@@H]2CC[NH2+][C@@H]2C)C1
REMARK SMILES IDX 10 1 9 2 8 3 7 4 5 5 6 6 4 7 79 8 90 9 80 10 81 11 3 12 2 13
REMARK SMILES IDX 1 14 82 15 83 16 84 17 85 18 88 19 86 20 87 21 89 22 11 25
REMARK SMILES IDX 12 26 13 27 14 28 15 29 16 30 17 31 78 32 18 33 77 34 19 35
REMARK SMILES IDX 20 36 21 37 71 38 22 39 76 40 70 41 72 42 23 43 75 44 69 45
REMARK SMILES IDX 68 46 24 48 56 49 36 50 55 51 37 52 40 53 54 54 73 55 38 56
REMARK SMILES IDX 39 57 53 59 74 60 41 61 25 62 26 63 34 64 27 65 28 66 32 67
REMARK SMILES IDX 35 68 29 69 30 70 33 71 31 72 57 73 58 74 66 75 59 76 60 77
REMARK SMILES IDX 64 78 67 79 61 80 62 81 65 82 63 83 42 84 43 85 51 86 44 87
REMARK SMILES IDX 45 88 49 89 52 90 46 91 47 92 50 93 48 94
REMARK H PARENT 87 23 87 24 72 47 40 58
REMARK Flexibility Score: inf
ROOT
ATOM      1  O   UNL A   1      35.759  19.950  25.105  1.00  0.00    -0.374 OA
ENDROOT
BRANCH   1   2
ATOM      2  C   UNL A   1      34.524  20.597  24.832  1.00  0.00     0.202 C 
BRANCH   2   3
ATOM      3  C   UNL A   1      33.731  21.206  25.995  1.00  0.00     0.261 C 
BRANCH   3   4
ATOM      4  O   UNL A   1      33.775  22.644  26.077  1.00  0.00    -0.463 OA
BRANCH   4   5
ATOM      5  C   UNL A   1      32.624  23.208  26.538  1.00  0.00     0.314 C 
ATOM      6  O   UNL A   1      32.144  22.959  27.639  1.00  0.00    -0.252 OA
BRANCH   5   7
ATOM      7  C   UNL A   1      32.009  24.240  25.580  1.00  0.00     0.087 C 
ATOM      8  C   UNL A   1      33.188  25.050  25.005  1.00  0.00     0.042 C 
ATOM      9  C   UNL A   1      31.222  25.327  26.345  1.00  0.00     0.138 C 
ATOM     10  C   UNL A   1      33.489  26.023  26.124  1.00  0.00     0.120 C 
ATOM     11  N   UNL A   1      32.156  26.444  26.508  1.00  0.00    -0.341 N 
BRANCH   7  12
ATOM     12  C   UNL A   1      31.176  23.515  24.502  1.00  0.00     0.020 C 
BRANCH  12  13
ATOM     13  C   UNL A   1      31.634  23.659  23.041  1.00  0.00    -0.002 C 
ATOM     14  C   UNL A   1      32.478  22.483  22.556  1.00  0.00     0.004 C 
ENDBRANCH  12  13
ENDBRANCH   7  12
BRANCH  11  15
ATOM     15  C   UNL A   1      31.709  27.695  26.855  1.00  0.00     0.231 C 
ATOM     16  O   UNL A   1      31.290  27.903  28.001  1.00  0.00    -0.274 OA
BRANCH  15  17
ATOM     17  C   UNL A   1      31.723  28.865  25.864  1.00  0.00     0.142 C 
ATOM     18  C   UNL A   1      31.361  28.520  24.418  1.00  0.00     0.081 C 
ATOM     19  C   UNL A   1      33.019  29.665  25.762  1.00  0.00     0.192 C 
ATOM     20  C   UNL A   1      32.564  28.953  23.580  1.00  0.00     0.261 C 
ATOM     21  N   UNL A   1      33.654  29.187  24.530  1.00  0.00    -0.343 N 
ATOM     22  C   UNL A   1      33.954  29.597  26.960  1.00  0.00     0.076 C 
ATOM     23  H   UNL A   1      34.295  29.892  24.166  1.00  0.00     0.346 HD
ATOM     24  H   UNL A   1      34.196  28.339  24.693  1.00  0.00     0.346 HD
ENDBRANCH  15  17
ENDBRANCH  11  15
ENDBRANCH   5   7
ENDBRANCH   4   5
ENDBRANCH   3   4
ENDBRANCH   2   3
ENDBRANCH   1   2
BRANCH   1  25
ATOM     25  C   UNL A   1      36.961  20.704  24.987  1.00  0.00     0.202 C 
BRANCH  25  26
ATOM     26  C   UNL A   1      38.284  20.017  25.345  1.00  0.00     0.261 C 
BRANCH  26  27
ATOM     27  O   UNL A   1      39.392  20.935  25.384  1.00  0.00    -0.460 OA
BRANCH  27  28
ATOM     28  C   UNL A   1      40.151  20.858  26.499  1.00  0.00     0.338 C 
ATOM     29  O   UNL A   1      40.748  19.876  26.930  1.00  0.00    -0.246 OA
BRANCH  28  30
ATOM     30  C   UNL A   1      40.338  22.191  27.088  1.00  0.00     0.060 A 
ATOM     31  C   UNL A   1      39.554  23.243  26.591  1.00  0.00     0.016 A 
ATOM     32  C   UNL A   1      41.356  22.435  28.010  1.00  0.00     0.016 A 
ATOM     33  C   UNL A   1      39.823  24.555  26.969  1.00  0.00     0.010 A 
ATOM     34  C   UNL A   1      41.637  23.755  28.377  1.00  0.00     0.010 A 
ATOM     35  C   UNL A   1      40.903  24.819  27.821  1.00  0.00    -0.014 A 
BRANCH  35  36
ATOM     36  C   UNL A   1      41.401  26.207  27.961  1.00  0.00     0.031 A 
ATOM     37  C   UNL A   1      42.777  26.526  27.445  1.00  0.00     0.074 A 
ATOM     38  C   UNL A   1      40.646  27.163  28.524  1.00  0.00     0.049 A 
ATOM     39  N   UNL A   1      43.473  27.627  27.554  1.00  0.00    -0.248 NA
ATOM     40  C   UNL A   1      43.463  25.450  26.709  1.00  0.00     0.031 C 
ATOM     41  C   UNL A   1      39.277  26.988  29.001  1.00  0.00     0.029 A 
ATOM     42  N   UNL A   1      40.937  28.476  28.801  1.00  0.00    -0.354 N 
ATOM     43  C   UNL A   1      44.682  27.372  26.919  1.00  0.00     0.074 A 
ATOM     44  C   UNL A   1      44.633  26.008  26.440  1.00  0.00     0.031 C 
ATOM     45  C   UNL A   1      38.853  28.144  29.539  1.00  0.00     0.029 A 
ATOM     46  C   UNL A   1      39.935  29.126  29.476  1.00  0.00     0.049 A 
ATOM     47  H   UNL A   1      41.783  28.908  28.543  1.00  0.00     0.167 HD
ATOM     48  C   UNL A   1      45.737  28.203  26.751  1.00  0.00     0.037 A 
ATOM     49  C   UNL A   1      39.914  30.362  30.012  1.00  0.00     0.037 A 
ATOM     50  C   UNL A   1      45.777  29.560  27.225  1.00  0.00     0.049 A 
ATOM     51  C   UNL A   1      41.127  31.245  29.875  1.00  0.00     0.074 A 
ATOM     52  C   UNL A   1      46.795  30.489  27.106  1.00  0.00     0.029 A 
ATOM     53  N   UNL A   1      44.747  30.180  27.917  1.00  0.00    -0.354 N 
ATOM     54  N   UNL A   1      42.267  31.001  29.275  1.00  0.00    -0.248 NA
ATOM     55  C   UNL A   1      41.050  32.579  30.491  1.00  0.00     0.031 C 
ATOM     56  C   UNL A   1      46.398  31.657  27.763  1.00  0.00     0.029 A 
ATOM     57  C   UNL A   1      45.112  31.475  28.246  1.00  0.00     0.049 A 
ATOM     58  H   UNL A   1      43.884  29.762  28.141  1.00  0.00     0.167 HD
ATOM     59  C   UNL A   1      43.028  32.156  29.409  1.00  0.00     0.074 A 
ATOM     60  C   UNL A   1      42.219  33.104  30.146  1.00  0.00     0.031 C 
ATOM     61  C   UNL A   1      44.280  32.410  28.958  1.00  0.00     0.037 A 
BRANCH  48  62
ATOM     62  C   UNL A   1      46.948  27.655  26.055  1.00  0.00     0.064 A 
ATOM     63  C   UNL A   1      48.016  27.088  26.767  1.00  0.00     0.173 A 
ATOM     64  C   UNL A   1      47.028  27.675  24.655  1.00  0.00     0.173 A 
ATOM     65  F   UNL A   1      47.995  27.061  28.108  1.00  0.00    -0.203 F 
ATOM     66  C   UNL A   1      49.130  26.582  26.102  1.00  0.00     0.198 A 
ATOM     67  C   UNL A   1      48.131  27.143  23.992  1.00  0.00     0.198 A 
ATOM     68  F   UNL A   1      46.033  28.204  23.927  1.00  0.00    -0.203 F 
ATOM     69  F   UNL A   1      50.159  26.087  26.802  1.00  0.00    -0.200 F 
ATOM     70  C   UNL A   1      49.184  26.604  24.716  1.00  0.00     0.200 A 
ATOM     71  F   UNL A   1      48.176  27.154  22.653  1.00  0.00    -0.200 F 
ATOM     72  F   UNL A   1      50.254  26.110  24.077  1.00  0.00    -0.200 F 
ENDBRANCH  48  62
BRANCH  49  73
ATOM     73  C   UNL A   1      38.710  30.832  30.747  1.00  0.00     0.064 A 
ATOM     74  C   UNL A   1      38.623  30.718  32.140  1.00  0.00     0.173 A 
ATOM     75  C   UNL A   1      37.617  31.391  30.067  1.00  0.00     0.173 A 
ATOM     76  F   UNL A   1      39.632  30.166  32.831  1.00  0.00    -0.203 F 
ATOM     77  C   UNL A   1      37.483  31.132  32.826  1.00  0.00     0.198 A 
ATOM     78  C   UNL A   1      36.489  31.830  30.756  1.00  0.00     0.198 A 
ATOM     79  F   UNL A   1      37.649  31.518  28.732  1.00  0.00    -0.203 F 
ATOM     80  F   UNL A   1      37.408  30.972  34.154  1.00  0.00    -0.200 F 
ATOM     81  C   UNL A   1      36.420  31.694  32.135  1.00  0.00     0.200 A 
ATOM     82  F   UNL A   1      35.468  32.380  30.086  1.00  0.00    -0.200 F 
ATOM     83  F   UNL A   1      35.325  32.094  32.795  1.00  0.00    -0.200 F 
ENDBRANCH  49  73
BRANCH  61  84
ATOM     84  C   UNL A   1      44.836  33.784  29.192  1.00  0.00     0.064 A 
ATOM     85  C   UNL A   1      45.613  34.085  30.319  1.00  0.00     0.173 A 
ATOM     86  C   UNL A   1      44.640  34.795  28.237  1.00  0.00     0.173 A 
ATOM     87  F   UNL A   1      45.818  33.157  31.266  1.00  0.00    -0.203 F 
ATOM     88  C   UNL A   1      46.160  35.354  30.491  1.00  0.00     0.198 A 
ATOM     89  C   UNL A   1      45.211  36.053  28.399  1.00  0.00     0.198 A 
ATOM     90  F   UNL A   1      43.912  34.553  27.137  1.00  0.00    -0.203 F 
ATOM     91  F   UNL A   1      46.869  35.633  31.593  1.00  0.00    -0.200 F 
ATOM     92  C   UNL A   1      45.967  36.333  29.527  1.00  0.00     0.200 A 
ATOM     93  F   UNL A   1      45.036  36.993  27.459  1.00  0.00    -0.200 F 
ATOM     94  F   UNL A   1      46.506  37.550  29.688  1.00  0.00    -0.200 F 
ENDBRANCH  61  84
ENDBRANCH  35  36
ENDBRANCH  28  30
ENDBRANCH  27  28
ENDBRANCH  26  27
ENDBRANCH  25  26
ENDBRANCH   1  25
TORSDOF 18
ENDMDL
MODEL 3
REMARK VINA RESULT:     -11.0      4.285      9.998
REMARK SMILES CCC[C@@]1(C(=O)OCCOCCOC(=O)c2ccc(-c3c4nc(c(-c5c(F)c(F)c(F)c(F)c5F)c5ccc([nH]5)c(-c5c(F)c(F)c(F)c(F)c5F)c5nc(c(-c6c(F)c(F)c(F)c(F)c6F)c6ccc3[nH]6)C=C5)C=C4)cc2)CCN(C(=O)[C@@H]2CC[NH2+][C@@H]2C)C1
REMARK SMILES IDX 10 1 9 2 8 3 7 4 5 5 6 6 4 7 79 8 90 9 80 10 81 11 3 12 2 13
REMARK SMILES IDX 1 14 82 15 83 16 84 17 85 18 88 19 86 20 87 21 89 22 11 25
REMARK SMILES IDX 12 26 13 27 14 28 15 29 16 30 17 31 78 32 18 33 77 34 19 35
REMARK SMILES IDX 20 36 21 37 71 38 22 39 76 40 70 41 72 42 23 43 75 44 69 45
REMARK SMILES IDX 68 46 24 48 56 49 36 50 55 51 37 52 40 53 54 54 73 55 38 56
REMARK SMILES IDX 39 57 53 59 74 60 41 61 25 62 26 63 34 64 27 65 28 66 32 67
REMARK SMILES IDX 35 68 29 69 30 70 33 71 31 72 57 73 58 74 66 75 59 76 60 77
REMARK SMILES IDX 64 78 67 79 61 80 62 81 65 82 63 83 42 84 43 85 51 86 44 87
REMARK SMILES IDX 45 88 49 89 52 90 46 91 47 92 50 93 48 94
REMARK H PARENT 87 23 87 24 72 47 40 58
REMARK Flexibility Score: inf
ROOT
ATOM      1  O   UNL A   1      31.195  28.484  24.570  1.00  0.00    -0.374 OA
ENDROOT
BRANCH   1   2
ATOM      2  C   UNL A   1      31.552  27.572  23.540  1.00  0.00     0.202 C 
BRANCH   2   3
ATOM      3  C   UNL A   1      31.307  26.073  23.758  1.00  0.00     0.261 C 
BRANCH   3   4
ATOM      4  O   UNL A   1      32.485  25.246  23.685  1.00  0.00    -0.463 OA
BRANCH   4   5
ATOM      5  C   UNL A   1      32.614  24.373  24.723  1.00  0.00     0.314 C 
ATOM      6  O   UNL A   1      31.725  24.161  25.541  1.00  0.00    -0.252 OA
BRANCH   5   7
ATOM      7  C   UNL A   1      33.955  23.624  24.742  1.00  0.00     0.087 C 
ATOM      8  C   UNL A   1      34.231  23.194  23.287  1.00  0.00     0.042 C 
ATOM      9  C   UNL A   1      33.834  22.260  25.457  1.00  0.00     0.138 C 
ATOM     10  C   UNL A   1      33.358  21.966  23.142  1.00  0.00     0.120 C 
ATOM     11  N   UNL A   1      33.616  21.279  24.392  1.00  0.00    -0.341 N 
BRANCH   7  12
ATOM     12  C   UNL A   1      35.051  24.537  25.333  1.00  0.00     0.020 C 
BRANCH  12  13
ATOM     13  C   UNL A   1      36.185  23.860  26.120  1.00  0.00    -0.002 C 
ATOM     14  C   UNL A   1      37.331  23.381  25.233  1.00  0.00     0.004 C 
ENDBRANCH  12  13
ENDBRANCH   7  12
BRANCH  11  15
ATOM     15  C   UNL A   1      33.781  19.935  24.623  1.00  0.00     0.231 C 
ATOM     16  O   UNL A   1      34.919  19.447  24.627  1.00  0.00    -0.274 OA
BRANCH  15  17
ATOM     17  C   UNL A   1      32.592  19.006  24.894  1.00  0.00     0.142 C 
ATOM     18  C   UNL A   1      32.736  18.068  26.093  1.00  0.00     0.081 C 
ATOM     19  C   UNL A   1      32.146  18.106  23.745  1.00  0.00     0.192 C 
ATOM     20  C   UNL A   1      32.573  16.656  25.531  1.00  0.00     0.261 C 
ATOM     21  N   UNL A   1      32.689  16.785  24.077  1.00  0.00    -0.343 N 
ATOM     22  C   UNL A   1      32.530  18.554  22.343  1.00  0.00     0.076 C 
ATOM     23  H   UNL A   1      32.150  16.054  23.613  1.00  0.00     0.346 HD
ATOM     24  H   UNL A   1      33.656  16.690  23.770  1.00  0.00     0.346 HD
ENDBRANCH  15  17
ENDBRANCH  11  15
ENDBRANCH   5   7
ENDBRANCH   4   5
ENDBRANCH   3   4
ENDBRANCH   2   3
ENDBRANCH   1   2
BRANCH   1  25
ATOM     25  C   UNL A   1      32.235  29.177  25.253  1.00  0.00     0.202 C 
BRANCH  25  26
ATOM     26  C   UNL A   1      31.891  30.503  25.941  1.00  0.00     0.261 C 
BRANCH  26  27
ATOM     27  O   UNL A   1      32.508  30.633  27.235  1.00  0.00    -0.460 OA
BRANCH  27  28
ATOM     28  C   UNL A   1      33.260  31.745  27.394  1.00  0.00     0.338 C 
ATOM     29  O   UNL A   1      32.876  32.911  27.391  1.00  0.00    -0.246 OA
BRANCH  28  30
ATOM     30  C   UNL A   1      34.637  31.389  27.759  1.00  0.00     0.060 A 
ATOM     31  C   UNL A   1      34.929  30.033  27.973  1.00  0.00     0.016 A 
ATOM     32  C   UNL A   1      35.591  32.373  28.020  1.00  0.00     0.016 A 
ATOM     33  C   UNL A   1      36.157  29.659  28.509  1.00  0.00     0.010 A 
ATOM     34  C   UNL A   1      36.818  31.997  28.573  1.00  0.00     0.010 A 
ATOM     35  C   UNL A   1      37.085  30.646  28.863  1.00  0.00    -0.014 A 
BRANCH  35  36
ATOM     36  C   UNL A   1      38.234  30.293  29.727  1.00  0.00     0.031 A 
ATOM     37  C   UNL A   1      39.257  29.328  29.195  1.00  0.00     0.074 A 
ATOM     38  C   UNL A   1      38.372  30.825  30.953  1.00  0.00     0.049 A 
ATOM     39  N   UNL A   1      40.280  28.781  29.799  1.00  0.00    -0.248 NA
ATOM     40  C   UNL A   1      39.100  28.922  27.789  1.00  0.00     0.031 C 
ATOM     41  C   UNL A   1      37.480  31.816  31.549  1.00  0.00     0.029 A 
ATOM     42  N   UNL A   1      39.313  30.587  31.923  1.00  0.00    -0.354 N 
ATOM     43  C   UNL A   1      40.875  27.954  28.855  1.00  0.00     0.074 A 
ATOM     44  C   UNL A   1      40.092  28.058  27.642  1.00  0.00     0.031 C 
ATOM     45  C   UNL A   1      37.902  32.085  32.796  1.00  0.00     0.029 A 
ATOM     46  C   UNL A   1      39.069  31.256  33.096  1.00  0.00     0.049 A 
ATOM     47  H   UNL A   1      40.088  29.994  31.790  1.00  0.00     0.167 HD
ATOM     48  C   UNL A   1      41.977  27.179  28.989  1.00  0.00     0.037 A 
ATOM     49  C   UNL A   1      39.698  31.175  34.284  1.00  0.00     0.037 A 
ATOM     50  C   UNL A   1      42.753  27.085  30.196  1.00  0.00     0.049 A 
ATOM     51  C   UNL A   1      40.879  30.251  34.432  1.00  0.00     0.074 A 
ATOM     52  C   UNL A   1      43.888  26.331  30.437  1.00  0.00     0.029 A 
ATOM     53  N   UNL A   1      42.466  27.767  31.369  1.00  0.00    -0.354 N 
ATOM     54  N   UNL A   1      41.438  29.472  33.538  1.00  0.00    -0.248 NA
ATOM     55  C   UNL A   1      41.518  30.196  35.755  1.00  0.00     0.031 C 
ATOM     56  C   UNL A   1      44.263  26.525  31.770  1.00  0.00     0.029 A 
ATOM     57  C   UNL A   1      43.394  27.440  32.343  1.00  0.00     0.049 A 
ATOM     58  H   UNL A   1      41.715  28.392  31.490  1.00  0.00     0.167 HD
ATOM     59  C   UNL A   1      42.512  28.862  34.176  1.00  0.00     0.074 A 
ATOM     60  C   UNL A   1      42.527  29.363  35.535  1.00  0.00     0.031 C 
ATOM     61  C   UNL A   1      43.405  27.972  33.682  1.00  0.00     0.037 A 
BRANCH  48  62
ATOM     62  C   UNL A   1      42.385  26.345  27.810  1.00  0.00     0.064 A 
ATOM     63  C   UNL A   1      43.391  26.761  26.924  1.00  0.00     0.173 A 
ATOM     64  C   UNL A   1      41.779  25.102  27.579  1.00  0.00     0.173 A 
ATOM     65  F   UNL A   1      43.990  27.949  27.091  1.00  0.00    -0.203 F 
ATOM     66  C   UNL A   1      43.757  25.971  25.837  1.00  0.00     0.198 A 
ATOM     67  C   UNL A   1      42.168  24.302  26.508  1.00  0.00     0.198 A 
ATOM     68  F   UNL A   1      40.813  24.658  28.398  1.00  0.00    -0.203 F 
ATOM     69  F   UNL A   1      44.688  26.407  24.978  1.00  0.00    -0.200 F 
ATOM     70  C   UNL A   1      43.151  24.740  25.634  1.00  0.00     0.200 A 
ATOM     71  F   UNL A   1      41.588  23.109  26.320  1.00  0.00    -0.200 F 
ATOM     72  F   UNL A   1      43.509  23.979  24.591  1.00  0.00    -0.200 F 
ENDBRANCH  48  62
BRANCH  49  73
ATOM     73  C   UNL A   1      39.212  31.978  35.437  1.00  0.00     0.064 A 
ATOM     74  C   UNL A   1      39.620  33.306  35.617  1.00  0.00     0.173 A 
ATOM     75  C   UNL A   1      38.339  31.427  36.388  1.00  0.00     0.173 A 
ATOM     76  F   UNL A   1      40.473  33.867  34.749  1.00  0.00    -0.203 F 
ATOM     77  C   UNL A   1      39.187  34.048  36.714  1.00  0.00     0.198 A 
ATOM     78  C   UNL A   1      37.886  32.179  37.469  1.00  0.00     0.198 A 
ATOM     79  F   UNL A   1      37.923  30.158  36.263  1.00  0.00    -0.203 F 
ATOM     80  F   UNL A   1      39.627  35.302  36.887  1.00  0.00    -0.200 F 
ATOM     81  C   UNL A   1      38.315  33.487  37.635  1.00  0.00     0.200 A 
ATOM     82  F   UNL A   1      37.037  31.637  38.352  1.00  0.00    -0.200 F 
ATOM     83  F   UNL A   1      37.897  34.203  38.688  1.00  0.00    -0.200 F 
ENDBRANCH  49  73
BRANCH  61  84
ATOM     84  C   UNL A   1      44.514  27.524  34.589  1.00  0.00     0.064 A 
ATOM     85  C   UNL A   1      45.713  28.241  34.699  1.00  0.00     0.173 A 
ATOM     86  C   UNL A   1      44.342  26.396  35.406  1.00  0.00     0.173 A 
ATOM     87  F   UNL A   1      45.930  29.318  33.930  1.00  0.00    -0.203 F 
ATOM     88  C   UNL A   1      46.709  27.834  35.584  1.00  0.00     0.198 A 
ATOM     89  C   UNL A   1      45.328  26.009  36.309  1.00  0.00     0.198 A 
ATOM     90  F   UNL A   1      43.208  25.682  35.344  1.00  0.00    -0.203 F 
ATOM     91  F   UNL A   1      47.863  28.512  35.648  1.00  0.00    -0.200 F 
ATOM     92  C   UNL A   1      46.512  26.725  36.393  1.00  0.00     0.200 A 
ATOM     93  F   UNL A   1      45.129  24.946  37.101  1.00  0.00    -0.200 F 
ATOM     94  F   UNL A   1      47.466  26.344  37.254  1.00  0.00    -0.200 F 
ENDBRANCH  61  84
ENDBRANCH  35  36
ENDBRANCH  28  30
ENDBRANCH  27  28
ENDBRANCH  26  27
ENDBRANCH  25  26
ENDBRANCH   1  25
TORSDOF 18
ENDMDL
