MODEL 1
REMARK VINA RESULT:     -10.9      0.000      0.000
REMARK SMILES C=C(C)CN(CC)c1ccc(F)cc1C(=O)OCCOCCOC(=O)c1ccc(-c2c3nc(c(-c4c(F)c(F)c(F)c(F)c4F)c4ccc([nH]4)c(-c4c(F)c(F)c(F)c(F)c4F)c4nc(c(-c5c(F)c(F)c(F)c(F)c5F)c5ccc2[nH]5)C=C4)C=C3)cc1
REMARK SMILES IDX 19 1 18 2 17 3 15 4 16 5 14 6 8 7 9 8 10 9 13 10 11 11 12 12
REMARK SMILES IDX 5 13 4 14 2 15 1 16 3 17 6 18 7 19 20 20 21 21 22 22 23 23
REMARK SMILES IDX 24 24 25 25 26 26 27 27 88 28 28 29 87 30 29 31 30 32 31 33
REMARK SMILES IDX 81 34 32 35 86 36 80 37 82 38 33 39 85 40 79 41 78 42 34 44
REMARK SMILES IDX 66 45 46 46 65 47 47 48 50 49 64 50 83 51 48 52 49 53 63 55
REMARK SMILES IDX 84 56 51 57 35 58 36 59 44 60 37 61 38 62 42 63 45 64 39 65
REMARK SMILES IDX 40 66 43 67 41 68 67 69 68 70 76 71 69 72 70 73 74 74 77 75
REMARK SMILES IDX 71 76 72 77 75 78 73 79 52 80 53 81 61 82 54 83 55 84 59 85
REMARK SMILES IDX 62 86 56 87 57 88 60 89 58 90
REMARK H PARENT 82 43 50 54
REMARK Flexibility Score: inf
ROOT
ATOM      1  C   UNL A   1      31.435  27.443  24.391  1.00  0.00     0.202 C 
ENDROOT
BRANCH   1   2
ATOM      2  C   UNL A   1      32.793  26.760  24.228  1.00  0.00     0.261 C 
BRANCH   2   3
ATOM      3  O   UNL A   1      32.655  25.331  24.306  1.00  0.00    -0.460 OA
BRANCH   3   4
ATOM      4  C   UNL A   1      33.278  24.674  23.301  1.00  0.00     0.340 C 
ATOM      5  O   UNL A   1      34.043  25.161  22.480  1.00  0.00    -0.246 OA
BRANCH   4   6
ATOM      6  C   UNL A   1      33.113  23.225  23.467  1.00  0.00     0.086 A 
ATOM      7  C   UNL A   1      33.572  22.479  24.573  1.00  0.00     0.052 A 
ATOM      8  C   UNL A   1      33.222  21.111  24.566  1.00  0.00     0.030 A 
ATOM      9  C   UNL A   1      32.527  20.503  23.514  1.00  0.00     0.041 A 
ATOM     10  C   UNL A   1      32.423  22.620  22.396  1.00  0.00     0.057 A 
ATOM     11  C   UNL A   1      32.151  21.264  22.426  1.00  0.00     0.124 A 
ATOM     12  F   UNL A   1      31.504  20.691  21.404  1.00  0.00    -0.207 F 
BRANCH   7  13
ATOM     13  N   UNL A   1      34.314  22.981  25.638  1.00  0.00    -0.367 N 
BRANCH  13  14
ATOM     14  C   UNL A   1      35.673  23.500  25.406  1.00  0.00     0.146 C 
BRANCH  14  15
ATOM     15  C   UNL A   1      36.494  22.659  24.441  1.00  0.00    -0.061 C 
ATOM     16  C   UNL A   1      36.664  22.939  23.136  1.00  0.00     0.009 C 
ATOM     17  C   UNL A   1      37.147  21.437  25.036  1.00  0.00     0.041 C 
ENDBRANCH  14  15
ENDBRANCH  13  14
BRANCH  13  18
ATOM     18  C   UNL A   1      33.795  22.959  27.010  1.00  0.00     0.113 C 
ATOM     19  C   UNL A   1      32.319  23.318  27.107  1.00  0.00     0.027 C 
ENDBRANCH  13  18
ENDBRANCH   7  13
ENDBRANCH   4   6
ENDBRANCH   3   4
ENDBRANCH   2   3
ENDBRANCH   1   2
BRANCH   1  20
ATOM     20  O   UNL A   1      31.433  28.868  24.290  1.00  0.00    -0.374 OA
BRANCH  20  21
ATOM     21  C   UNL A   1      32.407  29.587  25.043  1.00  0.00     0.202 C 
BRANCH  21  22
ATOM     22  C   UNL A   1      31.883  30.539  26.127  1.00  0.00     0.261 C 
BRANCH  22  23
ATOM     23  O   UNL A   1      32.630  30.519  27.358  1.00  0.00    -0.460 OA
BRANCH  23  24
ATOM     24  C   UNL A   1      33.416  31.606  27.546  1.00  0.00     0.338 C 
ATOM     25  O   UNL A   1      33.062  32.773  27.623  1.00  0.00    -0.246 OA
BRANCH  24  26
ATOM     26  C   UNL A   1      34.826  31.226  27.745  1.00  0.00     0.060 A 
ATOM     27  C   UNL A   1      35.114  29.863  27.890  1.00  0.00     0.016 A 
ATOM     28  C   UNL A   1      35.808  32.189  27.991  1.00  0.00     0.016 A 
ATOM     29  C   UNL A   1      36.364  29.462  28.357  1.00  0.00     0.010 A 
ATOM     30  C   UNL A   1      37.062  31.782  28.465  1.00  0.00     0.010 A 
ATOM     31  C   UNL A   1      37.325  30.421  28.702  1.00  0.00    -0.014 A 
BRANCH  31  32
ATOM     32  C   UNL A   1      38.515  29.995  29.482  1.00  0.00     0.031 A 
ATOM     33  C   UNL A   1      38.690  30.503  30.888  1.00  0.00     0.074 A 
ATOM     34  C   UNL A   1      39.395  29.111  28.977  1.00  0.00     0.049 A 
ATOM     35  N   UNL A   1      39.623  30.224  31.764  1.00  0.00    -0.248 NA
ATOM     36  C   UNL A   1      37.675  31.450  31.376  1.00  0.00     0.031 C 
ATOM     37  C   UNL A   1      39.320  28.516  27.646  1.00  0.00     0.029 A 
ATOM     38  N   UNL A   1      40.516  28.553  29.537  1.00  0.00    -0.354 N 
ATOM     39  C   UNL A   1      39.307  30.955  32.902  1.00  0.00     0.074 A 
ATOM     40  C   UNL A   1      38.115  31.717  32.597  1.00  0.00     0.031 C 
ATOM     41  C   UNL A   1      40.352  27.668  27.492  1.00  0.00     0.029 A 
ATOM     42  C   UNL A   1      41.165  27.673  28.708  1.00  0.00     0.049 A 
ATOM     43  H   UNL A   1      40.827  28.764  30.448  1.00  0.00     0.167 HD
ATOM     44  C   UNL A   1      39.942  30.982  34.096  1.00  0.00     0.037 A 
ATOM     45  C   UNL A   1      42.285  26.951  28.908  1.00  0.00     0.037 A 
ATOM     46  C   UNL A   1      41.124  30.223  34.410  1.00  0.00     0.049 A 
ATOM     47  C   UNL A   1      42.995  27.021  30.235  1.00  0.00     0.074 A 
ATOM     48  C   UNL A   1      41.840  30.191  35.595  1.00  0.00     0.029 A 
ATOM     49  N   UNL A   1      41.761  29.359  33.534  1.00  0.00    -0.354 N 
ATOM     50  N   UNL A   1      42.681  27.709  31.305  1.00  0.00    -0.248 NA
ATOM     51  C   UNL A   1      44.208  26.204  30.383  1.00  0.00     0.031 C 
ATOM     52  C   UNL A   1      42.930  29.332  35.424  1.00  0.00     0.029 A 
ATOM     53  C   UNL A   1      42.868  28.796  34.148  1.00  0.00     0.049 A 
ATOM     54  H   UNL A   1      41.471  29.173  32.611  1.00  0.00     0.167 HD
ATOM     55  C   UNL A   1      43.637  27.388  32.261  1.00  0.00     0.074 A 
ATOM     56  C   UNL A   1      44.541  26.438  31.646  1.00  0.00     0.031 C 
ATOM     57  C   UNL A   1      43.751  27.839  33.533  1.00  0.00     0.037 A 
BRANCH  44  58
ATOM     58  C   UNL A   1      39.377  31.871  35.163  1.00  0.00     0.064 A 
ATOM     59  C   UNL A   1      39.729  33.228  35.218  1.00  0.00     0.173 A 
ATOM     60  C   UNL A   1      38.527  31.370  36.158  1.00  0.00     0.173 A 
ATOM     61  F   UNL A   1      40.543  33.753  34.290  1.00  0.00    -0.203 F 
ATOM     62  C   UNL A   1      39.256  34.048  36.238  1.00  0.00     0.198 A 
ATOM     63  C   UNL A   1      38.037  32.199  37.164  1.00  0.00     0.198 A 
ATOM     64  F   UNL A   1      38.151  30.082  36.139  1.00  0.00    -0.203 F 
ATOM     65  F   UNL A   1      39.623  35.336  36.284  1.00  0.00    -0.200 F 
ATOM     66  C   UNL A   1      38.408  33.535  37.208  1.00  0.00     0.200 A 
ATOM     67  F   UNL A   1      37.200  31.707  38.088  1.00  0.00    -0.200 F 
ATOM     68  F   UNL A   1      37.943  34.329  38.182  1.00  0.00    -0.200 F 
ENDBRANCH  44  58
BRANCH  45  69
ATOM     69  C   UNL A   1      42.789  26.073  27.824  1.00  0.00     0.064 A 
ATOM     70  C   UNL A   1      42.401  24.729  27.740  1.00  0.00     0.173 A 
ATOM     71  C   UNL A   1      43.682  26.560  26.858  1.00  0.00     0.173 A 
ATOM     72  F   UNL A   1      41.548  24.219  28.640  1.00  0.00    -0.203 F 
ATOM     73  C   UNL A   1      42.902  23.898  26.740  1.00  0.00     0.198 A 
ATOM     74  C   UNL A   1      44.165  25.734  25.846  1.00  0.00     0.198 A 
ATOM     75  F   UNL A   1      44.061  27.846  26.887  1.00  0.00    -0.203 F 
ATOM     76  F   UNL A   1      42.535  22.610  26.696  1.00  0.00    -0.200 F 
ATOM     77  C   UNL A   1      43.780  24.402  25.792  1.00  0.00     0.200 A 
ATOM     78  F   UNL A   1      44.995  26.229  24.919  1.00  0.00    -0.200 F 
ATOM     79  F   UNL A   1      44.252  23.605  24.824  1.00  0.00    -0.200 F 
ENDBRANCH  45  69
BRANCH  57  80
ATOM     80  C   UNL A   1      44.867  27.290  34.371  1.00  0.00     0.064 A 
ATOM     81  C   UNL A   1      44.661  26.153  35.168  1.00  0.00     0.173 A 
ATOM     82  C   UNL A   1      46.114  27.926  34.441  1.00  0.00     0.173 A 
ATOM     83  F   UNL A   1      43.482  25.515  35.143  1.00  0.00    -0.203 F 
ATOM     84  C   UNL A   1      45.662  25.678  36.011  1.00  0.00     0.198 A 
ATOM     85  C   UNL A   1      47.121  27.434  35.268  1.00  0.00     0.198 A 
ATOM     86  F   UNL A   1      46.363  29.010  33.691  1.00  0.00    -0.203 F 
ATOM     87  F   UNL A   1      45.434  24.606  36.782  1.00  0.00    -0.200 F 
ATOM     88  C   UNL A   1      46.892  26.316  36.058  1.00  0.00     0.200 A 
ATOM     89  F   UNL A   1      48.317  28.039  35.299  1.00  0.00    -0.200 F 
ATOM     90  F   UNL A   1      47.859  25.851  36.862  1.00  0.00    -0.200 F 
ENDBRANCH  57  80
ENDBRANCH  31  32
ENDBRANCH  24  26
ENDBRANCH  23  24
ENDBRANCH  22  23
ENDBRANCH  21  22
ENDBRANCH  20  21
ENDBRANCH   1  20
TORSDOF 18
ENDMDL
MODEL 2
REMARK VINA RESULT:     -10.7      1.504      3.030
REMARK SMILES C=C(C)CN(CC)c1ccc(F)cc1C(=O)OCCOCCOC(=O)c1ccc(-c2c3nc(c(-c4c(F)c(F)c(F)c(F)c4F)c4ccc([nH]4)c(-c4c(F)c(F)c(F)c(F)c4F)c4nc(c(-c5c(F)c(F)c(F)c(F)c5F)c5ccc2[nH]5)C=C4)C=C3)cc1
REMARK SMILES IDX 19 1 18 2 17 3 15 4 16 5 14 6 8 7 9 8 10 9 13 10 11 11 12 12
REMARK SMILES IDX 5 13 4 14 2 15 1 16 3 17 6 18 7 19 20 20 21 21 22 22 23 23
REMARK SMILES IDX 24 24 25 25 26 26 27 27 88 28 28 29 87 30 29 31 30 32 31 33
REMARK SMILES IDX 81 34 32 35 86 36 80 37 82 38 33 39 85 40 79 41 78 42 34 44
REMARK SMILES IDX 66 45 46 46 65 47 47 48 50 49 64 50 83 51 48 52 49 53 63 55
REMARK SMILES IDX 84 56 51 57 35 58 36 59 44 60 37 61 38 62 42 63 45 64 39 65
REMARK SMILES IDX 40 66 43 67 41 68 67 69 68 70 76 71 69 72 70 73 74 74 77 75
REMARK SMILES IDX 71 76 72 77 75 78 73 79 52 80 53 81 61 82 54 83 55 84 59 85
REMARK SMILES IDX 62 86 56 87 57 88 60 89 58 90
REMARK H PARENT 82 43 50 54
REMARK Flexibility Score: inf
ROOT
ATOM      1  C   UNL A   1      32.887  29.686  26.327  1.00  0.00     0.202 C 
ENDROOT
BRANCH   1   2
ATOM      2  C   UNL A   1      33.404  28.454  27.069  1.00  0.00     0.261 C 
BRANCH   2   3
ATOM      3  O   UNL A   1      33.427  27.310  26.199  1.00  0.00    -0.460 OA
BRANCH   3   4
ATOM      4  C   UNL A   1      32.218  26.719  26.056  1.00  0.00     0.340 C 
ATOM      5  O   UNL A   1      31.384  26.550  26.935  1.00  0.00    -0.246 OA
BRANCH   4   6
ATOM      6  C   UNL A   1      31.920  26.519  24.633  1.00  0.00     0.086 A 
ATOM      7  C   UNL A   1      32.368  25.427  23.857  1.00  0.00     0.052 A 
ATOM      8  C   UNL A   1      31.883  25.391  22.531  1.00  0.00     0.030 A 
ATOM      9  C   UNL A   1      31.071  26.391  21.984  1.00  0.00     0.041 A 
ATOM     10  C   UNL A   1      31.112  27.537  24.087  1.00  0.00     0.057 A 
ATOM     11  C   UNL A   1      30.709  27.468  22.766  1.00  0.00     0.124 A 
ATOM     12  F   UNL A   1      29.949  28.441  22.249  1.00  0.00    -0.207 F 
BRANCH   7  13
ATOM     13  N   UNL A   1      33.216  24.416  24.295  1.00  0.00    -0.367 N 
BRANCH  13  14
ATOM     14  C   UNL A   1      32.667  23.267  25.038  1.00  0.00     0.146 C 
BRANCH  14  15
ATOM     15  C   UNL A   1      32.533  22.004  24.203  1.00  0.00    -0.061 C 
ATOM     16  C   UNL A   1      32.788  21.926  22.885  1.00  0.00     0.009 C 
ATOM     17  C   UNL A   1      32.083  20.775  24.952  1.00  0.00     0.041 C 
ENDBRANCH  14  15
ENDBRANCH  13  14
BRANCH  13  18
ATOM     18  C   UNL A   1      34.665  24.486  24.082  1.00  0.00     0.113 C 
ATOM     19  C   UNL A   1      35.477  24.297  25.356  1.00  0.00     0.027 C 
ENDBRANCH  13  18
ENDBRANCH   7  13
ENDBRANCH   4   6
ENDBRANCH   3   4
ENDBRANCH   2   3
ENDBRANCH   1   2
BRANCH   1  20
ATOM     20  O   UNL A   1      31.815  30.393  26.955  1.00  0.00    -0.374 OA
BRANCH  20  21
ATOM     21  C   UNL A   1      31.385  31.612  26.356  1.00  0.00     0.202 C 
BRANCH  21  22
ATOM     22  C   UNL A   1      31.989  32.910  26.911  1.00  0.00     0.261 C 
BRANCH  22  23
ATOM     23  O   UNL A   1      32.881  32.729  28.027  1.00  0.00    -0.460 OA
BRANCH  23  24
ATOM     24  C   UNL A   1      33.933  33.582  28.037  1.00  0.00     0.338 C 
ATOM     25  O   UNL A   1      33.899  34.804  28.004  1.00  0.00    -0.246 OA
BRANCH  24  26
ATOM     26  C   UNL A   1      35.211  32.863  28.185  1.00  0.00     0.060 A 
ATOM     27  C   UNL A   1      35.153  31.491  28.454  1.00  0.00     0.016 A 
ATOM     28  C   UNL A   1      36.425  33.551  28.264  1.00  0.00     0.016 A 
ATOM     29  C   UNL A   1      36.295  30.815  28.880  1.00  0.00     0.010 A 
ATOM     30  C   UNL A   1      37.570  32.871  28.698  1.00  0.00     0.010 A 
ATOM     31  C   UNL A   1      37.497  31.514  29.060  1.00  0.00    -0.014 A 
BRANCH  31  32
ATOM     32  C   UNL A   1      38.603  30.858  29.803  1.00  0.00     0.031 A 
ATOM     33  C   UNL A   1      38.808  31.191  31.257  1.00  0.00     0.074 A 
ATOM     34  C   UNL A   1      39.374  29.925  29.216  1.00  0.00     0.049 A 
ATOM     35  N   UNL A   1      39.675  30.702  32.108  1.00  0.00    -0.248 NA
ATOM     36  C   UNL A   1      37.911  32.206  31.832  1.00  0.00     0.031 C 
ATOM     37  C   UNL A   1      39.256  29.486  27.829  1.00  0.00     0.029 A 
ATOM     38  N   UNL A   1      40.401  29.170  29.726  1.00  0.00    -0.354 N 
ATOM     39  C   UNL A   1      39.428  31.347  33.313  1.00  0.00     0.074 A 
ATOM     40  C   UNL A   1      38.351  32.285  33.079  1.00  0.00     0.031 C 
ATOM     41  C   UNL A   1      40.174  28.532  27.597  1.00  0.00     0.029 A 
ATOM     42  C   UNL A   1      40.951  28.304  28.815  1.00  0.00     0.049 A 
ATOM     43  H   UNL A   1      40.713  29.244  30.657  1.00  0.00     0.167 HD
ATOM     44  C   UNL A   1      40.032  31.166  34.511  1.00  0.00     0.037 A 
ATOM     45  C   UNL A   1      41.965  27.426  28.950  1.00  0.00     0.037 A 
ATOM     46  C   UNL A   1      41.099  30.232  34.755  1.00  0.00     0.049 A 
ATOM     47  C   UNL A   1      42.645  27.265  30.284  1.00  0.00     0.074 A 
ATOM     48  C   UNL A   1      41.776  29.984  35.937  1.00  0.00     0.029 A 
ATOM     49  N   UNL A   1      41.641  29.388  33.799  1.00  0.00    -0.354 N 
ATOM     50  N   UNL A   1      42.396  27.873  31.418  1.00  0.00    -0.248 NA
ATOM     51  C   UNL A   1      43.739  26.286  30.358  1.00  0.00     0.031 C 
ATOM     52  C   UNL A   1      42.751  29.013  35.688  1.00  0.00     0.029 A 
ATOM     53  C   UNL A   1      42.651  28.625  34.362  1.00  0.00     0.049 A 
ATOM     54  H   UNL A   1      41.352  29.338  32.859  1.00  0.00     0.167 HD
ATOM     55  C   UNL A   1      43.280  27.333  32.344  1.00  0.00     0.074 A 
ATOM     56  C   UNL A   1      44.069  26.343  31.641  1.00  0.00     0.031 C 
ATOM     57  C   UNL A   1      43.419  27.631  33.658  1.00  0.00     0.037 A 
BRANCH  44  58
ATOM     58  C   UNL A   1      39.560  32.006  35.660  1.00  0.00     0.064 A 
ATOM     59  C   UNL A   1      38.516  31.562  36.484  1.00  0.00     0.173 A 
ATOM     60  C   UNL A   1      40.107  33.272  35.913  1.00  0.00     0.173 A 
ATOM     61  F   UNL A   1      37.957  30.360  36.279  1.00  0.00    -0.203 F 
ATOM     62  C   UNL A   1      38.032  32.360  37.517  1.00  0.00     0.198 A 
ATOM     63  C   UNL A   1      39.636  34.058  36.961  1.00  0.00     0.198 A 
ATOM     64  F   UNL A   1      41.117  33.733  35.159  1.00  0.00    -0.203 F 
ATOM     65  F   UNL A   1      37.019  31.925  38.279  1.00  0.00    -0.200 F 
ATOM     66  C   UNL A   1      38.594  33.605  37.757  1.00  0.00     0.200 A 
ATOM     67  F   UNL A   1      40.195  35.251  37.206  1.00  0.00    -0.200 F 
ATOM     68  F   UNL A   1      38.135  34.367  38.760  1.00  0.00    -0.200 F 
ENDBRANCH  44  58
BRANCH  45  69
ATOM     69  C   UNL A   1      42.378  26.608  27.784  1.00  0.00     0.064 A 
ATOM     70  C   UNL A   1      43.372  27.052  26.902  1.00  0.00     0.173 A 
ATOM     71  C   UNL A   1      41.775  25.369  27.522  1.00  0.00     0.173 A 
ATOM     72  F   UNL A   1      43.979  28.229  27.113  1.00  0.00    -0.203 F 
ATOM     73  C   UNL A   1      43.736  26.296  25.789  1.00  0.00     0.198 A 
ATOM     74  C   UNL A   1      42.155  24.605  26.421  1.00  0.00     0.198 A 
ATOM     75  F   UNL A   1      40.836  24.894  28.353  1.00  0.00    -0.203 F 
ATOM     76  F   UNL A   1      44.671  26.755  24.947  1.00  0.00    -0.200 F 
ATOM     77  C   UNL A   1      43.129  25.072  25.552  1.00  0.00     0.200 A 
ATOM     78  F   UNL A   1      41.583  23.412  26.208  1.00  0.00    -0.200 F 
ATOM     79  F   UNL A   1      43.487  24.340  24.488  1.00  0.00    -0.200 F 
ENDBRANCH  45  69
BRANCH  57  80
ATOM     80  C   UNL A   1      44.435  26.857  34.445  1.00  0.00     0.064 A 
ATOM     81  C   UNL A   1      45.761  27.310  34.527  1.00  0.00     0.173 A 
ATOM     82  C   UNL A   1      44.116  25.638  35.058  1.00  0.00     0.173 A 
ATOM     83  F   UNL A   1      46.118  28.467  33.950  1.00  0.00    -0.203 F 
ATOM     84  C   UNL A   1      46.733  26.563  35.188  1.00  0.00     0.198 A 
ATOM     85  C   UNL A   1      45.086  24.905  35.738  1.00  0.00     0.198 A 
ATOM     86  F   UNL A   1      42.860  25.169  35.016  1.00  0.00    -0.203 F 
ATOM     87  F   UNL A   1      47.999  27.002  35.232  1.00  0.00    -0.200 F 
ATOM     88  C   UNL A   1      46.394  25.364  35.796  1.00  0.00     0.200 A 
ATOM     89  F   UNL A   1      44.754  23.755  36.342  1.00  0.00    -0.200 F 
ATOM     90  F   UNL A   1      47.329  24.651  36.441  1.00  0.00    -0.200 F 
ENDBRANCH  57  80
ENDBRANCH  31  32
ENDBRANCH  24  26
ENDBRANCH  23  24
ENDBRANCH  22  23
ENDBRANCH  21  22
ENDBRANCH  20  21
ENDBRANCH   1  20
TORSDOF 18
ENDMDL
MODEL 3
REMARK VINA RESULT:     -10.6      2.277      3.678
REMARK SMILES C=C(C)CN(CC)c1ccc(F)cc1C(=O)OCCOCCOC(=O)c1ccc(-c2c3nc(c(-c4c(F)c(F)c(F)c(F)c4F)c4ccc([nH]4)c(-c4c(F)c(F)c(F)c(F)c4F)c4nc(c(-c5c(F)c(F)c(F)c(F)c5F)c5ccc2[nH]5)C=C4)C=C3)cc1
REMARK SMILES IDX 19 1 18 2 17 3 15 4 16 5 14 6 8 7 9 8 10 9 13 10 11 11 12 12
REMARK SMILES IDX 5 13 4 14 2 15 1 16 3 17 6 18 7 19 20 20 21 21 22 22 23 23
REMARK SMILES IDX 24 24 25 25 26 26 27 27 88 28 28 29 87 30 29 31 30 32 31 33
REMARK SMILES IDX 81 34 32 35 86 36 80 37 82 38 33 39 85 40 79 41 78 42 34 44
REMARK SMILES IDX 66 45 46 46 65 47 47 48 50 49 64 50 83 51 48 52 49 53 63 55
REMARK SMILES IDX 84 56 51 57 35 58 36 59 44 60 37 61 38 62 42 63 45 64 39 65
REMARK SMILES IDX 40 66 43 67 41 68 67 69 68 70 76 71 69 72 70 73 74 74 77 75
REMARK SMILES IDX 71 76 72 77 75 78 73 79 52 80 53 81 61 82 54 83 55 84 59 85
REMARK SMILES IDX 62 86 56 87 57 88 60 89 58 90
REMARK H PARENT 82 43 50 54
REMARK Flexibility Score: inf
ROOT
ATOM      1  C   UNL A   1      33.817  30.197  27.001  1.00  0.00     0.202 C 
ENDROOT
BRANCH   1   2
ATOM      2  C   UNL A   1      34.100  28.709  27.203  1.00  0.00     0.261 C 
BRANCH   2   3
ATOM      3  O   UNL A   1      33.455  27.927  26.184  1.00  0.00    -0.460 OA
BRANCH   3   4
ATOM      4  C   UNL A   1      32.237  27.464  26.550  1.00  0.00     0.340 C 
ATOM      5  O   UNL A   1      31.779  27.445  27.684  1.00  0.00    -0.246 OA
BRANCH   4   6
ATOM      6  C   UNL A   1      31.417  27.207  25.360  1.00  0.00     0.086 A 
ATOM      7  C   UNL A   1      31.073  25.926  24.875  1.00  0.00     0.052 A 
ATOM      8  C   UNL A   1      30.198  25.917  23.766  1.00  0.00     0.030 A 
ATOM      9  C   UNL A   1      29.745  27.081  23.137  1.00  0.00     0.041 A 
ATOM     10  C   UNL A   1      30.976  28.386  24.725  1.00  0.00     0.057 A 
ATOM     11  C   UNL A   1      30.157  28.309  23.613  1.00  0.00     0.124 A 
ATOM     12  F   UNL A   1      29.747  29.430  23.007  1.00  0.00    -0.207 F 
BRANCH   7  13
ATOM     13  N   UNL A   1      31.515  24.716  25.399  1.00  0.00    -0.367 N 
BRANCH  13  14
ATOM     14  C   UNL A   1      32.499  23.909  24.654  1.00  0.00     0.146 C 
BRANCH  14  15
ATOM     15  C   UNL A   1      33.819  24.623  24.411  1.00  0.00    -0.061 C 
ATOM     16  C   UNL A   1      34.771  24.810  25.342  1.00  0.00     0.009 C 
ATOM     17  C   UNL A   1      34.031  25.137  23.009  1.00  0.00     0.041 C 
ENDBRANCH  14  15
ENDBRANCH  13  14
BRANCH  13  18
ATOM     18  C   UNL A   1      30.983  24.188  26.659  1.00  0.00     0.113 C 
ATOM     19  C   UNL A   1      30.241  22.868  26.501  1.00  0.00     0.027 C 
ENDBRANCH  13  18
ENDBRANCH   7  13
ENDBRANCH   4   6
ENDBRANCH   3   4
ENDBRANCH   2   3
ENDBRANCH   1   2
BRANCH   1  20
ATOM     20  O   UNL A   1      32.570  30.674  27.508  1.00  0.00    -0.374 OA
BRANCH  20  21
ATOM     21  C   UNL A   1      31.802  31.537  26.673  1.00  0.00     0.202 C 
BRANCH  21  22
ATOM     22  C   UNL A   1      31.823  33.034  27.013  1.00  0.00     0.261 C 
BRANCH  22  23
ATOM     23  O   UNL A   1      33.130  33.568  27.297  1.00  0.00    -0.460 OA
BRANCH  23  24
ATOM     24  C   UNL A   1      33.155  34.451  28.323  1.00  0.00     0.338 C 
ATOM     25  O   UNL A   1      32.351  35.341  28.556  1.00  0.00    -0.246 OA
BRANCH  24  26
ATOM     26  C   UNL A   1      34.272  34.176  29.245  1.00  0.00     0.060 A 
ATOM     27  C   UNL A   1      35.564  34.485  28.805  1.00  0.00     0.016 A 
ATOM     28  C   UNL A   1      34.077  33.447  30.421  1.00  0.00     0.016 A 
ATOM     29  C   UNL A   1      36.671  33.998  29.499  1.00  0.00     0.010 A 
ATOM     30  C   UNL A   1      35.191  32.953  31.113  1.00  0.00     0.010 A 
ATOM     31  C   UNL A   1      36.490  33.181  30.623  1.00  0.00    -0.014 A 
BRANCH  31  32
ATOM     32  C   UNL A   1      37.653  32.424  31.154  1.00  0.00     0.031 A 
ATOM     33  C   UNL A   1      38.134  32.707  32.552  1.00  0.00     0.074 A 
ATOM     34  C   UNL A   1      38.231  31.448  30.433  1.00  0.00     0.049 A 
ATOM     35  N   UNL A   1      39.095  32.133  33.233  1.00  0.00    -0.248 NA
ATOM     36  C   UNL A   1      37.437  33.775  33.284  1.00  0.00     0.031 C 
ATOM     37  C   UNL A   1      37.838  31.051  29.084  1.00  0.00     0.029 A 
ATOM     38  N   UNL A   1      39.267  30.604  30.747  1.00  0.00    -0.354 N 
ATOM     39  C   UNL A   1      39.114  32.767  34.469  1.00  0.00     0.074 A 
ATOM     40  C   UNL A   1      38.093  33.792  34.435  1.00  0.00     0.031 C 
ATOM     41  C   UNL A   1      38.621  30.033  28.685  1.00  0.00     0.029 A 
ATOM     42  C   UNL A   1      39.578  29.718  29.746  1.00  0.00     0.049 A 
ATOM     43  H   UNL A   1      39.742  30.632  31.609  1.00  0.00     0.167 HD
ATOM     44  C   UNL A   1      39.902  32.513  35.540  1.00  0.00     0.037 A 
ATOM     45  C   UNL A   1      40.525  28.761  29.693  1.00  0.00     0.037 A 
ATOM     46  C   UNL A   1      40.916  31.493  35.584  1.00  0.00     0.049 A 
ATOM     47  C   UNL A   1      41.413  28.517  30.885  1.00  0.00     0.074 A 
ATOM     48  C   UNL A   1      41.767  31.166  36.626  1.00  0.00     0.029 A 
ATOM     49  N   UNL A   1      41.213  30.631  34.540  1.00  0.00    -0.354 N 
ATOM     50  N   UNL A   1      41.416  29.117  32.050  1.00  0.00    -0.248 NA
ATOM     51  C   UNL A   1      42.420  27.454  30.756  1.00  0.00     0.031 C 
ATOM     52  C   UNL A   1      42.602  30.128  36.201  1.00  0.00     0.029 A 
ATOM     53  C   UNL A   1      42.241  29.780  34.910  1.00  0.00     0.049 A 
ATOM     54  H   UNL A   1      40.761  30.626  33.665  1.00  0.00     0.167 HD
ATOM     55  C   UNL A   1      42.401  28.488  32.801  1.00  0.00     0.074 A 
ATOM     56  C   UNL A   1      42.972  27.456  31.962  1.00  0.00     0.031 C 
ATOM     57  C   UNL A   1      42.792  28.744  34.073  1.00  0.00     0.037 A 
BRANCH  44  58
ATOM     58  C   UNL A   1      39.708  33.361  36.760  1.00  0.00     0.064 A 
ATOM     59  C   UNL A   1      38.762  33.003  37.732  1.00  0.00     0.173 A 
ATOM     60  C   UNL A   1      40.422  34.553  36.943  1.00  0.00     0.173 A 
ATOM     61  F   UNL A   1      38.050  31.874  37.599  1.00  0.00    -0.203 F 
ATOM     62  C   UNL A   1      38.532  33.814  38.840  1.00  0.00     0.198 A 
ATOM     63  C   UNL A   1      40.207  35.350  38.065  1.00  0.00     0.198 A 
ATOM     64  F   UNL A   1      41.347  34.930  36.048  1.00  0.00    -0.203 F 
ATOM     65  F   UNL A   1      37.608  33.464  39.745  1.00  0.00    -0.200 F 
ATOM     66  C   UNL A   1      39.257  34.985  39.008  1.00  0.00     0.200 A 
ATOM     67  F   UNL A   1      40.923  36.470  38.237  1.00  0.00    -0.200 F 
ATOM     68  F   UNL A   1      39.044  35.758  40.081  1.00  0.00    -0.200 F 
ENDBRANCH  44  58
BRANCH  45  69
ATOM     69  C   UNL A   1      40.661  27.939  28.465  1.00  0.00     0.064 A 
ATOM     70  C   UNL A   1      41.437  28.376  27.383  1.00  0.00     0.173 A 
ATOM     71  C   UNL A   1      40.004  26.707  28.346  1.00  0.00     0.173 A 
ATOM     72  F   UNL A   1      42.087  29.547  27.452  1.00  0.00    -0.203 F 
ATOM     73  C   UNL A   1      41.537  27.617  26.218  1.00  0.00     0.198 A 
ATOM     74  C   UNL A   1      40.121  25.940  27.189  1.00  0.00     0.198 A 
ATOM     75  F   UNL A   1      39.270  26.240  29.366  1.00  0.00    -0.203 F 
ATOM     76  F   UNL A   1      42.265  28.068  25.188  1.00  0.00    -0.200 F 
ATOM     77  C   UNL A   1      40.882  26.398  26.124  1.00  0.00     0.200 A 
ATOM     78  F   UNL A   1      39.506  24.752  27.111  1.00  0.00    -0.200 F 
ATOM     79  F   UNL A   1      40.987  25.664  25.008  1.00  0.00    -0.200 F 
ENDBRANCH  45  69
BRANCH  57  80
ATOM     80  C   UNL A   1      43.863  27.877  34.662  1.00  0.00     0.064 A 
ATOM     81  C   UNL A   1      43.527  26.679  35.312  1.00  0.00     0.173 A 
ATOM     82  C   UNL A   1      45.211  28.261  34.646  1.00  0.00     0.173 A 
ATOM     83  F   UNL A   1      42.249  26.273  35.363  1.00  0.00    -0.203 F 
ATOM     84  C   UNL A   1      44.502  25.903  35.933  1.00  0.00     0.198 A 
ATOM     85  C   UNL A   1      46.187  27.469  35.248  1.00  0.00     0.198 A 
ATOM     86  F   UNL A   1      45.584  29.391  34.028  1.00  0.00    -0.203 F 
ATOM     87  F   UNL A   1      44.154  24.776  36.570  1.00  0.00    -0.200 F 
ATOM     88  C   UNL A   1      45.830  26.295  35.897  1.00  0.00     0.200 A 
ATOM     89  F   UNL A   1      47.474  27.839  35.196  1.00  0.00    -0.200 F 
ATOM     90  F   UNL A   1      46.769  25.541  36.485  1.00  0.00    -0.200 F 
ENDBRANCH  57  80
ENDBRANCH  31  32
ENDBRANCH  24  26
ENDBRANCH  23  24
ENDBRANCH  22  23
ENDBRANCH  21  22
ENDBRANCH  20  21
ENDBRANCH   1  20
TORSDOF 18
ENDMDL
