MODEL 1
REMARK VINA RESULT:     -12.0      0.000      0.000
REMARK SMILES NC(=O)c1cc(NC(=O)/C=C\C(=O)OCCOCCOC(=O)c2ccc(-c3c4nc(c(-c5c(F)c(F)c(F)c(F)c5F)c5ccc([nH]5)c(-c5c(F)c(F)c(F)c(F)c5F)c5nc(c(-c6c(F)c(F)c(F)c(F)c6F)c6ccc3[nH]6)C=C5)C=C4)cc2)ccc1N1CCOCC1
REMARK SMILES IDX 16 1 15 2 14 3 12 4 13 5 11 6 10 7 8 8 7 9 9 11 6 12 4 13
REMARK SMILES IDX 5 14 88 15 87 16 86 17 2 18 1 19 3 22 89 23 90 24 94 25
REMARK SMILES IDX 91 26 93 27 92 28 17 29 18 30 19 31 20 32 21 33 22 34 23 35
REMARK SMILES IDX 24 36 85 37 25 38 84 39 26 40 27 41 28 42 78 43 29 44 83 45
REMARK SMILES IDX 77 46 79 47 30 48 82 49 76 50 75 51 31 53 63 54 43 55 62 56
REMARK SMILES IDX 44 57 47 58 61 59 80 60 45 61 46 62 60 64 81 65 48 66 32 67
REMARK SMILES IDX 33 68 41 69 34 70 35 71 39 72 42 73 36 74 37 75 40 76 38 77
REMARK SMILES IDX 64 78 65 79 73 80 66 81 67 82 71 83 74 84 68 85 69 86 72 87
REMARK SMILES IDX 70 88 49 89 50 90 58 91 51 92 52 93 56 94 59 95 53 96 54 97
REMARK SMILES IDX 57 98 55 99
REMARK H PARENT 7 10 1 20 1 21 79 52 47 63
REMARK Flexibility Score: inf
ROOT
ATOM      1  C   UNL A   1      33.696  30.227  26.643  1.00  0.00     0.202 C 
ENDROOT
BRANCH   1   2
ATOM      2  C   UNL A   1      34.347  28.858  26.852  1.00  0.00     0.261 C 
BRANCH   2   3
ATOM      3  O   UNL A   1      33.968  27.642  26.173  1.00  0.00    -0.460 OA
BRANCH   3   4
ATOM      4  C   UNL A   1      32.871  26.886  26.125  1.00  0.00     0.331 C 
ATOM      5  O   UNL A   1      31.855  26.958  26.776  1.00  0.00    -0.247 OA
BRANCH   4   6
ATOM      6  C   UNL A   1      33.013  25.851  25.075  1.00  0.00     0.099 C 
ATOM      7  C   UNL A   1      32.153  24.895  24.692  1.00  0.00     0.079 C 
BRANCH   7   8
ATOM      8  C   UNL A   1      30.817  24.554  25.238  1.00  0.00     0.248 C 
ATOM      9  N   UNL A   1      29.650  25.147  24.837  1.00  0.00    -0.322 N 
ATOM     10  H   UNL A   1      28.841  24.731  25.214  1.00  0.00     0.170 HD
ATOM     11  O   UNL A   1      30.769  23.669  26.097  1.00  0.00    -0.270 OA
BRANCH   9  12
ATOM     12  C   UNL A   1      29.390  26.242  23.988  1.00  0.00     0.042 A 
ATOM     13  C   UNL A   1      30.093  28.347  23.047  1.00  0.00     0.064 A 
ATOM     14  C   UNL A   1      30.382  27.027  23.429  1.00  0.00     0.042 A 
ATOM     15  C   UNL A   1      28.778  28.866  23.085  1.00  0.00     0.050 A 
ATOM     16  C   UNL A   1      27.763  27.975  23.450  1.00  0.00     0.029 A 
ATOM     17  C   UNL A   1      28.061  26.669  23.883  1.00  0.00     0.028 A 
BRANCH  13  18
ATOM     18  C   UNL A   1      31.295  29.185  22.803  1.00  0.00     0.250 C 
ATOM     19  N   UNL A   1      31.298  29.912  21.648  1.00  0.00    -0.366 N 
ATOM     20  H   UNL A   1      32.067  30.487  21.430  1.00  0.00     0.159 HD
ATOM     21  H   UNL A   1      30.531  29.862  21.033  1.00  0.00     0.159 HD
ATOM     22  O   UNL A   1      32.180  29.297  23.640  1.00  0.00    -0.269 OA
ENDBRANCH  13  18
BRANCH  15  23
ATOM     23  N   UNL A   1      28.506  30.178  22.747  1.00  0.00    -0.366 N 
ATOM     24  C   UNL A   1      27.793  30.401  21.478  1.00  0.00     0.145 C 
ATOM     25  C   UNL A   1      28.390  31.303  23.687  1.00  0.00     0.145 C 
ATOM     26  C   UNL A   1      28.281  31.717  20.857  1.00  0.00     0.181 C 
ATOM     27  C   UNL A   1      28.845  32.594  22.977  1.00  0.00     0.181 C 
ATOM     28  O   UNL A   1      28.109  32.820  21.764  1.00  0.00    -0.378 OA
ENDBRANCH  15  23
ENDBRANCH   9  12
ENDBRANCH   7   8
ENDBRANCH   4   6
ENDBRANCH   3   4
ENDBRANCH   2   3
ENDBRANCH   1   2
BRANCH   1  29
ATOM     29  O   UNL A   1      32.472  30.592  27.268  1.00  0.00    -0.374 OA
BRANCH  29  30
ATOM     30  C   UNL A   1      31.652  31.496  26.554  1.00  0.00     0.202 C 
BRANCH  30  31
ATOM     31  C   UNL A   1      31.817  32.943  27.054  1.00  0.00     0.261 C 
BRANCH  31  32
ATOM     32  O   UNL A   1      33.156  33.270  27.492  1.00  0.00    -0.460 OA
BRANCH  32  33
ATOM     33  C   UNL A   1      33.239  34.276  28.407  1.00  0.00     0.338 C 
ATOM     34  O   UNL A   1      32.449  35.191  28.562  1.00  0.00    -0.246 OA
BRANCH  33  35
ATOM     35  C   UNL A   1      34.379  34.046  29.335  1.00  0.00     0.060 A 
ATOM     36  C   UNL A   1      35.680  34.306  28.875  1.00  0.00     0.016 A 
ATOM     37  C   UNL A   1      34.188  33.560  30.629  1.00  0.00     0.016 A 
ATOM     38  C   UNL A   1      36.790  34.002  29.673  1.00  0.00     0.010 A 
ATOM     39  C   UNL A   1      35.301  33.232  31.420  1.00  0.00     0.010 A 
ATOM     40  C   UNL A   1      36.608  33.402  30.926  1.00  0.00    -0.014 A 
BRANCH  40  41
ATOM     41  C   UNL A   1      37.761  32.731  31.590  1.00  0.00     0.031 A 
ATOM     42  C   UNL A   1      38.407  31.566  30.880  1.00  0.00     0.074 A 
ATOM     43  C   UNL A   1      38.262  33.151  32.766  1.00  0.00     0.049 A 
ATOM     44  N   UNL A   1      39.392  30.793  31.262  1.00  0.00    -0.248 NA
ATOM     45  C   UNL A   1      37.864  31.231  29.553  1.00  0.00     0.031 C 
ATOM     46  C   UNL A   1      37.770  34.290  33.535  1.00  0.00     0.029 A 
ATOM     47  N   UNL A   1      39.295  32.654  33.526  1.00  0.00    -0.354 N 
ATOM     48  C   UNL A   1      39.575  29.877  30.233  1.00  0.00     0.074 A 
ATOM     49  C   UNL A   1      38.588  30.175  29.219  1.00  0.00     0.031 C 
ATOM     50  C   UNL A   1      38.487  34.393  34.669  1.00  0.00     0.029 A 
ATOM     51  C   UNL A   1      39.465  33.306  34.723  1.00  0.00     0.049 A 
ATOM     52  H   UNL A   1      39.861  31.900  33.238  1.00  0.00     0.167 HD
ATOM     53  C   UNL A   1      40.485  28.878  30.139  1.00  0.00     0.037 A 
ATOM     54  C   UNL A   1      40.292  33.037  35.755  1.00  0.00     0.037 A 
ATOM     55  C   UNL A   1      41.472  28.582  31.143  1.00  0.00     0.049 A 
ATOM     56  C   UNL A   1      41.251  31.873  35.655  1.00  0.00     0.074 A 
ATOM     57  C   UNL A   1      42.457  27.610  31.124  1.00  0.00     0.029 A 
ATOM     58  N   UNL A   1      41.590  29.248  32.354  1.00  0.00    -0.354 N 
ATOM     59  N   UNL A   1      41.440  31.033  34.666  1.00  0.00    -0.248 NA
ATOM     60  C   UNL A   1      42.116  31.622  36.819  1.00  0.00     0.031 C 
ATOM     61  C   UNL A   1      43.127  27.643  32.351  1.00  0.00     0.029 A 
ATOM     62  C   UNL A   1      42.609  28.682  33.105  1.00  0.00     0.049 A 
ATOM     63  H   UNL A   1      41.034  30.009  32.638  1.00  0.00     0.167 HD
ATOM     64  C   UNL A   1      42.458  30.179  35.073  1.00  0.00     0.074 A 
ATOM     65  C   UNL A   1      42.863  30.614  36.392  1.00  0.00     0.031 C 
ATOM     66  C   UNL A   1      43.008  29.128  34.415  1.00  0.00     0.037 A 
BRANCH  53  67
ATOM     67  C   UNL A   1      40.435  27.997  28.922  1.00  0.00     0.064 A 
ATOM     68  C   UNL A   1      41.162  28.293  27.759  1.00  0.00     0.173 A 
ATOM     69  C   UNL A   1      39.686  26.810  28.944  1.00  0.00     0.173 A 
ATOM     70  F   UNL A   1      41.881  29.422  27.682  1.00  0.00    -0.203 F 
ATOM     71  C   UNL A   1      41.125  27.442  26.657  1.00  0.00     0.198 A 
ATOM     72  C   UNL A   1      39.677  25.946  27.852  1.00  0.00     0.198 A 
ATOM     73  F   UNL A   1      38.976  26.477  30.033  1.00  0.00    -0.203 F 
ATOM     74  F   UNL A   1      41.794  27.765  25.542  1.00  0.00    -0.200 F 
ATOM     75  C   UNL A   1      40.391  26.265  26.708  1.00  0.00     0.200 A 
ATOM     76  F   UNL A   1      38.982  24.803  27.910  1.00  0.00    -0.200 F 
ATOM     77  F   UNL A   1      40.371  25.441  25.652  1.00  0.00    -0.200 F 
ENDBRANCH  53  67
BRANCH  54  78
ATOM     78  C   UNL A   1      40.232  33.854  37.000  1.00  0.00     0.064 A 
ATOM     79  C   UNL A   1      39.380  33.512  38.060  1.00  0.00     0.173 A 
ATOM     80  C   UNL A   1      40.993  35.026  37.133  1.00  0.00     0.173 A 
ATOM     81  F   UNL A   1      38.608  32.419  37.973  1.00  0.00    -0.203 F 
ATOM     82  C   UNL A   1      39.271  34.323  39.190  1.00  0.00     0.198 A 
ATOM     83  C   UNL A   1      40.910  35.816  38.277  1.00  0.00     0.198 A 
ATOM     84  F   UNL A   1      41.819  35.407  36.146  1.00  0.00    -0.203 F 
ATOM     85  F   UNL A   1      38.403  34.004  40.159  1.00  0.00    -0.200 F 
ATOM     86  C   UNL A   1      40.042  35.471  39.300  1.00  0.00     0.200 A 
ATOM     87  F   UNL A   1      41.666  36.918  38.385  1.00  0.00    -0.200 F 
ATOM     88  F   UNL A   1      39.938  36.249  40.386  1.00  0.00    -0.200 F 
ENDBRANCH  54  78
BRANCH  66  89
ATOM     89  C   UNL A   1      44.137  28.398  35.090  1.00  0.00     0.064 A 
ATOM     90  C   UNL A   1      45.474  28.797  34.937  1.00  0.00     0.173 A 
ATOM     91  C   UNL A   1      43.873  27.307  35.932  1.00  0.00     0.173 A 
ATOM     92  F   UNL A   1      45.784  29.826  34.135  1.00  0.00    -0.203 F 
ATOM     93  C   UNL A   1      46.504  28.108  35.574  1.00  0.00     0.198 A 
ATOM     94  C   UNL A   1      44.902  26.645  36.597  1.00  0.00     0.198 A 
ATOM     95  F   UNL A   1      42.612  26.889  36.124  1.00  0.00    -0.203 F 
ATOM     96  F   UNL A   1      47.777  28.472  35.366  1.00  0.00    -0.200 F 
ATOM     97  C   UNL A   1      46.217  27.039  36.408  1.00  0.00     0.200 A 
ATOM     98  F   UNL A   1      44.620  25.624  37.418  1.00  0.00    -0.200 F 
ATOM     99  F   UNL A   1      47.209  26.384  37.026  1.00  0.00    -0.200 F 
ENDBRANCH  66  89
ENDBRANCH  40  41
ENDBRANCH  33  35
ENDBRANCH  32  33
ENDBRANCH  31  32
ENDBRANCH  30  31
ENDBRANCH  29  30
ENDBRANCH   1  29
TORSDOF 18
ENDMDL
MODEL 2
REMARK VINA RESULT:     -11.9      6.154     11.434
REMARK SMILES NC(=O)c1cc(NC(=O)/C=C\C(=O)OCCOCCOC(=O)c2ccc(-c3c4nc(c(-c5c(F)c(F)c(F)c(F)c5F)c5ccc([nH]5)c(-c5c(F)c(F)c(F)c(F)c5F)c5nc(c(-c6c(F)c(F)c(F)c(F)c6F)c6ccc3[nH]6)C=C5)C=C4)cc2)ccc1N1CCOCC1
REMARK SMILES IDX 16 1 15 2 14 3 12 4 13 5 11 6 10 7 8 8 7 9 9 11 6 12 4 13
REMARK SMILES IDX 5 14 88 15 87 16 86 17 2 18 1 19 3 22 89 23 90 24 94 25
REMARK SMILES IDX 91 26 93 27 92 28 17 29 18 30 19 31 20 32 21 33 22 34 23 35
REMARK SMILES IDX 24 36 85 37 25 38 84 39 26 40 27 41 28 42 78 43 29 44 83 45
REMARK SMILES IDX 77 46 79 47 30 48 82 49 76 50 75 51 31 53 63 54 43 55 62 56
REMARK SMILES IDX 44 57 47 58 61 59 80 60 45 61 46 62 60 64 81 65 48 66 32 67
REMARK SMILES IDX 33 68 41 69 34 70 35 71 39 72 42 73 36 74 37 75 40 76 38 77
REMARK SMILES IDX 64 78 65 79 73 80 66 81 67 82 71 83 74 84 68 85 69 86 72 87
REMARK SMILES IDX 70 88 49 89 50 90 58 91 51 92 52 93 56 94 59 95 53 96 54 97
REMARK SMILES IDX 57 98 55 99
REMARK H PARENT 7 10 1 20 1 21 79 52 47 63
REMARK Flexibility Score: inf
ROOT
ATOM      1  C   UNL A   1      36.729  23.875  25.671  1.00  0.00     0.202 C 
ENDROOT
BRANCH   1   2
ATOM      2  C   UNL A   1      35.221  24.087  25.518  1.00  0.00     0.261 C 
BRANCH   2   3
ATOM      3  O   UNL A   1      34.599  25.061  24.654  1.00  0.00    -0.460 OA
BRANCH   3   4
ATOM      4  C   UNL A   1      33.769  26.089  24.829  1.00  0.00     0.331 C 
ATOM      5  O   UNL A   1      34.017  27.250  25.060  1.00  0.00    -0.247 OA
BRANCH   4   6
ATOM      6  C   UNL A   1      32.365  25.641  24.677  1.00  0.00     0.099 C 
ATOM      7  C   UNL A   1      31.780  24.989  23.661  1.00  0.00     0.079 C 
BRANCH   7   8
ATOM      8  C   UNL A   1      32.348  24.563  22.360  1.00  0.00     0.248 C 
ATOM      9  N   UNL A   1      32.537  23.256  21.997  1.00  0.00    -0.322 N 
ATOM     10  H   UNL A   1      32.818  23.139  21.060  1.00  0.00     0.170 HD
ATOM     11  O   UNL A   1      32.652  25.452  21.560  1.00  0.00    -0.270 OA
BRANCH   9  12
ATOM     12  C   UNL A   1      32.406  22.049  22.711  1.00  0.00     0.042 A 
ATOM     13  C   UNL A   1      33.226  20.547  24.410  1.00  0.00     0.064 A 
ATOM     14  C   UNL A   1      32.930  21.849  23.976  1.00  0.00     0.042 A 
ATOM     15  C   UNL A   1      32.878  19.407  23.648  1.00  0.00     0.050 A 
ATOM     16  C   UNL A   1      32.153  19.636  22.474  1.00  0.00     0.029 A 
ATOM     17  C   UNL A   1      31.904  20.944  22.014  1.00  0.00     0.028 A 
BRANCH  13  18
ATOM     18  C   UNL A   1      34.098  20.491  25.612  1.00  0.00     0.250 C 
ATOM     19  N   UNL A   1      35.427  20.284  25.382  1.00  0.00    -0.366 N 
ATOM     20  H   UNL A   1      36.056  20.237  26.138  1.00  0.00     0.159 HD
ATOM     21  H   UNL A   1      35.757  20.182  24.460  1.00  0.00     0.159 HD
ATOM     22  O   UNL A   1      33.663  20.724  26.731  1.00  0.00    -0.269 OA
ENDBRANCH  13  18
BRANCH  15  23
ATOM     23  N   UNL A   1      33.209  18.130  24.061  1.00  0.00    -0.366 N 
ATOM     24  C   UNL A   1      32.156  17.364  24.750  1.00  0.00     0.145 C 
ATOM     25  C   UNL A   1      34.262  17.285  23.482  1.00  0.00     0.145 C 
ATOM     26  C   UNL A   1      32.809  16.461  25.806  1.00  0.00     0.181 C 
ATOM     27  C   UNL A   1      34.831  16.370  24.587  1.00  0.00     0.181 C 
ATOM     28  O   UNL A   1      33.798  15.597  25.219  1.00  0.00    -0.378 OA
ENDBRANCH  15  23
ENDBRANCH   9  12
ENDBRANCH   7   8
ENDBRANCH   4   6
ENDBRANCH   3   4
ENDBRANCH   2   3
ENDBRANCH   1   2
BRANCH   1  29
ATOM     29  O   UNL A   1      37.374  22.671  25.275  1.00  0.00    -0.374 OA
BRANCH  29  30
ATOM     30  C   UNL A   1      38.462  22.253  26.076  1.00  0.00     0.202 C 
BRANCH  30  31
ATOM     31  C   UNL A   1      38.996  20.873  25.648  1.00  0.00     0.261 C 
BRANCH  31  32
ATOM     32  O   UNL A   1      39.779  20.200  26.660  1.00  0.00    -0.460 OA
BRANCH  32  33
ATOM     33  C   UNL A   1      41.041  19.854  26.284  1.00  0.00     0.338 C 
ATOM     34  O   UNL A   1      41.386  18.815  25.746  1.00  0.00    -0.246 OA
BRANCH  33  35
ATOM     35  C   UNL A   1      41.978  20.993  26.480  1.00  0.00     0.060 A 
ATOM     36  C   UNL A   1      42.272  21.399  27.791  1.00  0.00     0.016 A 
ATOM     37  C   UNL A   1      42.544  21.674  25.401  1.00  0.00     0.016 A 
ATOM     38  C   UNL A   1      43.060  22.534  28.023  1.00  0.00     0.010 A 
ATOM     39  C   UNL A   1      43.313  22.826  25.632  1.00  0.00     0.010 A 
ATOM     40  C   UNL A   1      43.532  23.292  26.943  1.00  0.00    -0.014 A 
BRANCH  40  41
ATOM     41  C   UNL A   1      44.020  24.679  27.181  1.00  0.00     0.031 A 
ATOM     42  C   UNL A   1      43.026  25.706  27.667  1.00  0.00     0.074 A 
ATOM     43  C   UNL A   1      45.308  25.030  27.016  1.00  0.00     0.049 A 
ATOM     44  N   UNL A   1      43.189  26.982  27.909  1.00  0.00    -0.248 NA
ATOM     45  C   UNL A   1      41.659  25.219  27.917  1.00  0.00     0.031 C 
ATOM     46  C   UNL A   1      46.382  24.133  26.600  1.00  0.00     0.029 A 
ATOM     47  N   UNL A   1      45.930  26.248  27.170  1.00  0.00    -0.354 N 
ATOM     48  C   UNL A   1      41.947  27.450  28.323  1.00  0.00     0.074 A 
ATOM     49  C   UNL A   1      41.036  26.329  28.282  1.00  0.00     0.031 C 
ATOM     50  C   UNL A   1      47.527  24.834  26.510  1.00  0.00     0.029 A 
ATOM     51  C   UNL A   1      47.260  26.238  26.828  1.00  0.00     0.049 A 
ATOM     52  H   UNL A   1      45.463  27.053  27.494  1.00  0.00     0.167 HD
ATOM     53  C   UNL A   1      41.597  28.702  28.706  1.00  0.00     0.037 A 
ATOM     54  C   UNL A   1      48.150  27.249  26.750  1.00  0.00     0.037 A 
ATOM     55  C   UNL A   1      42.503  29.818  28.754  1.00  0.00     0.049 A 
ATOM     56  C   UNL A   1      47.717  28.650  27.115  1.00  0.00     0.074 A 
ATOM     57  C   UNL A   1      42.249  31.117  29.158  1.00  0.00     0.029 A 
ATOM     58  N   UNL A   1      43.835  29.771  28.371  1.00  0.00    -0.354 N 
ATOM     59  N   UNL A   1      46.551  29.077  27.538  1.00  0.00    -0.248 NA
ATOM     60  C   UNL A   1      48.730  29.712  26.997  1.00  0.00     0.031 C 
ATOM     61  C   UNL A   1      43.409  31.872  28.956  1.00  0.00     0.029 A 
ATOM     62  C   UNL A   1      44.406  31.029  28.495  1.00  0.00     0.049 A 
ATOM     63  H   UNL A   1      44.306  28.965  28.058  1.00  0.00     0.167 HD
ATOM     64  C   UNL A   1      46.698  30.441  27.761  1.00  0.00     0.074 A 
ATOM     65  C   UNL A   1      48.071  30.769  27.449  1.00  0.00     0.031 C 
ATOM     66  C   UNL A   1      45.777  31.343  28.187  1.00  0.00     0.037 A 
BRANCH  53  67
ATOM     67  C   UNL A   1      40.160  28.946  29.069  1.00  0.00     0.064 A 
ATOM     68  C   UNL A   1      39.194  29.272  28.105  1.00  0.00     0.173 A 
ATOM     69  C   UNL A   1      39.735  28.799  30.399  1.00  0.00     0.173 A 
ATOM     70  F   UNL A   1      39.549  29.439  26.823  1.00  0.00    -0.203 F 
ATOM     71  C   UNL A   1      37.861  29.460  28.463  1.00  0.00     0.198 A 
ATOM     72  C   UNL A   1      38.397  28.957  30.748  1.00  0.00     0.198 A 
ATOM     73  F   UNL A   1      40.618  28.484  31.360  1.00  0.00    -0.203 F 
ATOM     74  F   UNL A   1      36.963  29.812  27.532  1.00  0.00    -0.200 F 
ATOM     75  C   UNL A   1      37.462  29.293  29.781  1.00  0.00     0.200 A 
ATOM     76  F   UNL A   1      38.012  28.779  32.018  1.00  0.00    -0.200 F 
ATOM     77  F   UNL A   1      36.176  29.459  30.120  1.00  0.00    -0.200 F 
ENDBRANCH  53  67
BRANCH  54  78
ATOM     78  C   UNL A   1      49.537  26.995  26.268  1.00  0.00     0.064 A 
ATOM     79  C   UNL A   1      49.866  27.078  24.907  1.00  0.00     0.173 A 
ATOM     80  C   UNL A   1      50.554  26.613  27.158  1.00  0.00     0.173 A 
ATOM     81  F   UNL A   1      48.925  27.409  24.009  1.00  0.00    -0.203 F 
ATOM     82  C   UNL A   1      51.147  26.764  24.453  1.00  0.00     0.198 A 
ATOM     83  C   UNL A   1      51.842  26.334  26.707  1.00  0.00     0.198 A 
ATOM     84  F   UNL A   1      50.294  26.509  28.470  1.00  0.00    -0.203 F 
ATOM     85  F   UNL A   1      51.415  26.793  23.140  1.00  0.00    -0.200 F 
ATOM     86  C   UNL A   1      52.135  26.399  25.354  1.00  0.00     0.200 A 
ATOM     87  F   UNL A   1      52.797  25.993  27.583  1.00  0.00    -0.200 F 
ATOM     88  F   UNL A   1      53.366  26.098  24.918  1.00  0.00    -0.200 F 
ENDBRANCH  54  78
BRANCH  66  89
ATOM     89  C   UNL A   1      46.231  32.763  28.380  1.00  0.00     0.064 A 
ATOM     90  C   UNL A   1      46.171  33.708  27.344  1.00  0.00     0.173 A 
ATOM     91  C   UNL A   1      46.697  33.195  29.631  1.00  0.00     0.173 A 
ATOM     92  F   UNL A   1      45.745  33.346  26.124  1.00  0.00    -0.203 F 
ATOM     93  C   UNL A   1      46.594  35.020  27.545  1.00  0.00     0.198 A 
ATOM     94  C   UNL A   1      47.083  34.517  29.838  1.00  0.00     0.198 A 
ATOM     95  F   UNL A   1      46.765  32.337  30.661  1.00  0.00    -0.203 F 
ATOM     96  F   UNL A   1      46.582  35.888  26.524  1.00  0.00    -0.200 F 
ATOM     97  C   UNL A   1      47.042  35.425  28.792  1.00  0.00     0.200 A 
ATOM     98  F   UNL A   1      47.498  34.910  31.051  1.00  0.00    -0.200 F 
ATOM     99  F   UNL A   1      47.441  36.689  28.986  1.00  0.00    -0.200 F 
ENDBRANCH  66  89
ENDBRANCH  40  41
ENDBRANCH  33  35
ENDBRANCH  32  33
ENDBRANCH  31  32
ENDBRANCH  30  31
ENDBRANCH  29  30
ENDBRANCH   1  29
TORSDOF 18
ENDMDL
MODEL 3
REMARK VINA RESULT:     -11.8      3.479      8.976
REMARK SMILES NC(=O)c1cc(NC(=O)/C=C\C(=O)OCCOCCOC(=O)c2ccc(-c3c4nc(c(-c5c(F)c(F)c(F)c(F)c5F)c5ccc([nH]5)c(-c5c(F)c(F)c(F)c(F)c5F)c5nc(c(-c6c(F)c(F)c(F)c(F)c6F)c6ccc3[nH]6)C=C5)C=C4)cc2)ccc1N1CCOCC1
REMARK SMILES IDX 16 1 15 2 14 3 12 4 13 5 11 6 10 7 8 8 7 9 9 11 6 12 4 13
REMARK SMILES IDX 5 14 88 15 87 16 86 17 2 18 1 19 3 22 89 23 90 24 94 25
REMARK SMILES IDX 91 26 93 27 92 28 17 29 18 30 19 31 20 32 21 33 22 34 23 35
REMARK SMILES IDX 24 36 85 37 25 38 84 39 26 40 27 41 28 42 78 43 29 44 83 45
REMARK SMILES IDX 77 46 79 47 30 48 82 49 76 50 75 51 31 53 63 54 43 55 62 56
REMARK SMILES IDX 44 57 47 58 61 59 80 60 45 61 46 62 60 64 81 65 48 66 32 67
REMARK SMILES IDX 33 68 41 69 34 70 35 71 39 72 42 73 36 74 37 75 40 76 38 77
REMARK SMILES IDX 64 78 65 79 73 80 66 81 67 82 71 83 74 84 68 85 69 86 72 87
REMARK SMILES IDX 70 88 49 89 50 90 58 91 51 92 52 93 56 94 59 95 53 96 54 97
REMARK SMILES IDX 57 98 55 99
REMARK H PARENT 7 10 1 20 1 21 79 52 47 63
REMARK Flexibility Score: inf
ROOT
ATOM      1  C   UNL A   1      40.329  21.169  26.620  1.00  0.00     0.202 C 
ENDROOT
BRANCH   1   2
ATOM      2  C   UNL A   1      39.192  22.063  26.119  1.00  0.00     0.261 C 
BRANCH   2   3
ATOM      3  O   UNL A   1      38.037  21.609  25.382  1.00  0.00    -0.460 OA
BRANCH   3   4
ATOM      4  C   UNL A   1      37.079  22.198  24.665  1.00  0.00     0.331 C 
ATOM      5  O   UNL A   1      37.029  22.417  23.477  1.00  0.00    -0.247 OA
BRANCH   4   6
ATOM      6  C   UNL A   1      35.951  22.582  25.545  1.00  0.00     0.099 C 
ATOM      7  C   UNL A   1      34.695  22.113  25.580  1.00  0.00     0.079 C 
BRANCH   7   8
ATOM      8  C   UNL A   1      34.040  21.101  24.717  1.00  0.00     0.248 C 
ATOM      9  N   UNL A   1      33.048  21.387  23.817  1.00  0.00    -0.322 N 
ATOM     10  H   UNL A   1      32.798  20.626  23.242  1.00  0.00     0.170 HD
ATOM     11  O   UNL A   1      34.432  19.936  24.817  1.00  0.00    -0.270 OA
BRANCH   9  12
ATOM     12  C   UNL A   1      32.318  22.564  23.558  1.00  0.00     0.042 A 
ATOM     13  C   UNL A   1      32.215  24.764  22.576  1.00  0.00     0.064 A 
ATOM     14  C   UNL A   1      32.588  23.413  22.499  1.00  0.00     0.042 A 
ATOM     15  C   UNL A   1      31.442  25.267  23.649  1.00  0.00     0.050 A 
ATOM     16  C   UNL A   1      31.001  24.334  24.594  1.00  0.00     0.029 A 
ATOM     17  C   UNL A   1      31.421  22.991  24.543  1.00  0.00     0.028 A 
BRANCH  13  18
ATOM     18  C   UNL A   1      32.863  25.632  21.559  1.00  0.00     0.250 C 
ATOM     19  N   UNL A   1      32.275  25.662  20.329  1.00  0.00    -0.366 N 
ATOM     20  H   UNL A   1      32.659  26.219  19.613  1.00  0.00     0.159 HD
ATOM     21  H   UNL A   1      31.467  25.127  20.157  1.00  0.00     0.159 HD
ATOM     22  O   UNL A   1      33.806  26.358  21.844  1.00  0.00    -0.269 OA
ENDBRANCH  13  18
BRANCH  15  23
ATOM     23  N   UNL A   1      31.113  26.606  23.740  1.00  0.00    -0.366 N 
ATOM     24  C   UNL A   1      29.725  26.971  23.408  1.00  0.00     0.145 C 
ATOM     25  C   UNL A   1      31.795  27.604  24.576  1.00  0.00     0.145 C 
ATOM     26  C   UNL A   1      29.718  28.361  22.757  1.00  0.00     0.181 C 
ATOM     27  C   UNL A   1      31.699  28.981  23.886  1.00  0.00     0.181 C 
ATOM     28  O   UNL A   1      30.337  29.341  23.609  1.00  0.00    -0.378 OA
ENDBRANCH  15  23
ENDBRANCH   9  12
ENDBRANCH   7   8
ENDBRANCH   4   6
ENDBRANCH   3   4
ENDBRANCH   2   3
ENDBRANCH   1   2
BRANCH   1  29
ATOM     29  O   UNL A   1      41.267  20.564  25.740  1.00  0.00    -0.374 OA
BRANCH  29  30
ATOM     30  C   UNL A   1      42.608  20.525  26.187  1.00  0.00     0.202 C 
BRANCH  30  31
ATOM     31  C   UNL A   1      43.504  21.507  25.409  1.00  0.00     0.261 C 
BRANCH  31  32
ATOM     32  O   UNL A   1      42.863  22.759  25.075  1.00  0.00    -0.460 OA
BRANCH  32  33
ATOM     33  C   UNL A   1      43.664  23.859  25.138  1.00  0.00     0.338 C 
ATOM     34  O   UNL A   1      44.360  24.309  24.243  1.00  0.00    -0.246 OA
BRANCH  33  35
ATOM     35  C   UNL A   1      43.481  24.568  26.432  1.00  0.00     0.060 A 
ATOM     36  C   UNL A   1      42.396  24.205  27.246  1.00  0.00     0.016 A 
ATOM     37  C   UNL A   1      44.339  25.591  26.839  1.00  0.00     0.016 A 
ATOM     38  C   UNL A   1      42.119  24.917  28.420  1.00  0.00     0.010 A 
ATOM     39  C   UNL A   1      44.047  26.321  28.002  1.00  0.00     0.010 A 
ATOM     40  C   UNL A   1      42.906  26.022  28.771  1.00  0.00    -0.014 A 
BRANCH  40  41
ATOM     41  C   UNL A   1      42.393  26.997  29.774  1.00  0.00     0.031 A 
ATOM     42  C   UNL A   1      43.083  27.062  31.115  1.00  0.00     0.074 A 
ATOM     43  C   UNL A   1      41.376  27.837  29.511  1.00  0.00     0.049 A 
ATOM     44  N   UNL A   1      42.805  27.791  32.167  1.00  0.00    -0.248 NA
ATOM     45  C   UNL A   1      44.249  26.179  31.290  1.00  0.00     0.031 C 
ATOM     46  C   UNL A   1      40.653  27.918  28.245  1.00  0.00     0.029 A 
ATOM     47  N   UNL A   1      40.766  28.780  30.306  1.00  0.00    -0.354 N 
ATOM     48  C   UNL A   1      43.750  27.446  33.126  1.00  0.00     0.074 A 
ATOM     49  C   UNL A   1      44.596  26.429  32.543  1.00  0.00     0.031 C 
ATOM     50  C   UNL A   1      39.683  28.845  28.355  1.00  0.00     0.029 A 
ATOM     51  C   UNL A   1      39.692  29.396  29.711  1.00  0.00     0.049 A 
ATOM     52  H   UNL A   1      41.071  28.992  31.219  1.00  0.00     0.167 HD
ATOM     53  C   UNL A   1      43.902  27.934  34.381  1.00  0.00     0.037 A 
ATOM     54  C   UNL A   1      38.803  30.279  30.211  1.00  0.00     0.037 A 
ATOM     55  C   UNL A   1      43.066  28.950  34.962  1.00  0.00     0.049 A 
ATOM     56  C   UNL A   1      38.952  30.756  31.638  1.00  0.00     0.074 A 
ATOM     57  C   UNL A   1      43.160  29.531  36.215  1.00  0.00     0.029 A 
ATOM     58  N   UNL A   1      41.971  29.527  34.335  1.00  0.00    -0.354 N 
ATOM     59  N   UNL A   1      39.868  30.450  32.526  1.00  0.00    -0.248 NA
ATOM     60  C   UNL A   1      37.943  31.708  32.129  1.00  0.00     0.031 C 
ATOM     61  C   UNL A   1      42.083  30.410  36.372  1.00  0.00     0.029 A 
ATOM     62  C   UNL A   1      41.360  30.431  35.190  1.00  0.00     0.049 A 
ATOM     63  H   UNL A   1      41.673  29.325  33.419  1.00  0.00     0.167 HD
ATOM     64  C   UNL A   1      39.563  31.188  33.663  1.00  0.00     0.074 A 
ATOM     65  C   UNL A   1      38.391  31.975  33.348  1.00  0.00     0.031 C 
ATOM     66  C   UNL A   1      40.196  31.213  34.863  1.00  0.00     0.037 A 
BRANCH  53  67
ATOM     67  C   UNL A   1      44.992  27.348  35.233  1.00  0.00     0.064 A 
ATOM     68  C   UNL A   1      46.248  27.959  35.359  1.00  0.00     0.173 A 
ATOM     69  C   UNL A   1      44.752  26.181  35.977  1.00  0.00     0.173 A 
ATOM     70  F   UNL A   1      46.533  29.067  34.659  1.00  0.00    -0.203 F 
ATOM     71  C   UNL A   1      47.230  27.414  36.183  1.00  0.00     0.198 A 
ATOM     72  C   UNL A   1      45.725  25.657  36.823  1.00  0.00     0.198 A 
ATOM     73  F   UNL A   1      43.567  25.559  35.896  1.00  0.00    -0.203 F 
ATOM     74  F   UNL A   1      48.437  27.992  36.256  1.00  0.00    -0.200 F 
ATOM     75  C   UNL A   1      46.965  26.270  36.921  1.00  0.00     0.200 A 
ATOM     76  F   UNL A   1      45.461  24.562  37.548  1.00  0.00    -0.200 F 
ATOM     77  F   UNL A   1      47.906  25.756  37.725  1.00  0.00    -0.200 F 
ENDBRANCH  53  67
BRANCH  54  78
ATOM     78  C   UNL A   1      37.660  30.749  29.379  1.00  0.00     0.064 A 
ATOM     79  C   UNL A   1      37.599  32.065  28.895  1.00  0.00     0.173 A 
ATOM     80  C   UNL A   1      36.578  29.902  29.092  1.00  0.00     0.173 A 
ATOM     81  F   UNL A   1      38.592  32.925  29.166  1.00  0.00    -0.203 F 
ATOM     82  C   UNL A   1      36.491  32.521  28.181  1.00  0.00     0.198 A 
ATOM     83  C   UNL A   1      35.488  30.349  28.348  1.00  0.00     0.198 A 
ATOM     84  F   UNL A   1      36.579  28.637  29.537  1.00  0.00    -0.203 F 
ATOM     85  F   UNL A   1      36.432  33.799  27.785  1.00  0.00    -0.200 F 
ATOM     86  C   UNL A   1      35.439  31.660  27.903  1.00  0.00     0.200 A 
ATOM     87  F   UNL A   1      34.479  29.511  28.072  1.00  0.00    -0.200 F 
ATOM     88  F   UNL A   1      34.374  32.099  27.217  1.00  0.00    -0.200 F 
ENDBRANCH  54  78
BRANCH  66  89
ATOM     89  C   UNL A   1      39.663  32.148  35.913  1.00  0.00     0.064 A 
ATOM     90  C   UNL A   1      38.626  31.774  36.781  1.00  0.00     0.173 A 
ATOM     91  C   UNL A   1      40.225  33.424  36.078  1.00  0.00     0.173 A 
ATOM     92  F   UNL A   1      38.045  30.571  36.660  1.00  0.00    -0.203 F 
ATOM     93  C   UNL A   1      38.148  32.655  37.749  1.00  0.00     0.198 A 
ATOM     94  C   UNL A   1      39.771  34.287  37.072  1.00  0.00     0.198 A 
ATOM     95  F   UNL A   1      41.227  33.830  35.284  1.00  0.00    -0.203 F 
ATOM     96  F   UNL A   1      37.118  32.296  38.527  1.00  0.00    -0.200 F 
ATOM     97  C   UNL A   1      38.726  33.906  37.899  1.00  0.00     0.200 A 
ATOM     98  F   UNL A   1      40.343  35.489  37.226  1.00  0.00    -0.200 F 
ATOM     99  F   UNL A   1      38.270  34.749  38.836  1.00  0.00    -0.200 F 
ENDBRANCH  66  89
ENDBRANCH  40  41
ENDBRANCH  33  35
ENDBRANCH  32  33
ENDBRANCH  31  32
ENDBRANCH  30  31
ENDBRANCH  29  30
ENDBRANCH   1  29
TORSDOF 18
ENDMDL
