MODEL 1
REMARK VINA RESULT:     -13.5      0.000      0.000
REMARK SMILES COc1cccc([C@@H]2CC(c3cccc(C)c3)=NN2C(=O)CCC(=O)OCCOCCOC(=O)c2ccc(-c3c4nc(c(-c5c(F)c(F)c(F)c(F)c5F)c5ccc([nH]5)c(-c5c(F)c(F)c(F)c(F)c5F)c5nc(c(-c6c(F)c(F)c(F)c(F)c6F)c6ccc3[nH]6)C=C5)C=C4)cc2)c1
REMARK SMILES IDX 27 1 26 2 24 3 25 4 23 5 22 6 20 7 21 8 19 9 8 10 9 11 10 12
REMARK SMILES IDX 18 13 7 14 3 15 4 16 98 17 5 18 6 19 2 20 1 21 11 22 12 23
REMARK SMILES IDX 17 24 13 25 15 26 14 27 16 28 28 29 29 30 30 31 31 32 32 33
REMARK SMILES IDX 33 34 34 35 35 36 36 37 97 38 37 39 96 40 38 41 39 42 40 43
REMARK SMILES IDX 90 44 41 45 95 46 89 47 91 48 42 49 94 50 88 51 87 52 43 54
REMARK SMILES IDX 75 55 55 56 74 57 56 58 59 59 73 60 92 61 57 62 58 63 72 65
REMARK SMILES IDX 93 66 60 67 44 68 45 69 53 70 46 71 47 72 51 73 54 74 48 75
REMARK SMILES IDX 49 76 52 77 50 78 76 79 77 80 85 81 78 82 79 83 83 84 86 85
REMARK SMILES IDX 80 86 81 87 84 88 82 89 61 90 62 91 70 92 63 93 64 94 68 95
REMARK SMILES IDX 71 96 65 97 66 98 69 99 67 100
REMARK H PARENT 91 53 59 64
REMARK Flexibility Score: inf
ROOT
ATOM      1  C   UNL A   1      33.681  30.955  27.488  1.00  0.00     0.261 C 
ENDROOT
BRANCH   1   2
ATOM      2  O   UNL A   1      34.406  29.830  27.023  1.00  0.00    -0.463 OA
BRANCH   2   3
ATOM      3  C   UNL A   1      33.662  28.918  26.379  1.00  0.00     0.306 C 
ATOM      4  O   UNL A   1      33.329  27.836  26.821  1.00  0.00    -0.252 OA
BRANCH   3   5
ATOM      5  C   UNL A   1      33.280  29.456  25.045  1.00  0.00     0.132 C 
BRANCH   5   6
ATOM      6  C   UNL A   1      34.116  28.994  23.855  1.00  0.00     0.114 C 
BRANCH   6   7
ATOM      7  C   UNL A   1      33.708  28.053  22.647  1.00  0.00     0.243 C 
ATOM      8  O   UNL A   1      34.373  28.255  21.613  1.00  0.00    -0.273 OA
BRANCH   7   9
ATOM      9  N   UNL A   1      32.596  27.156  22.694  1.00  0.00    -0.225 N 
ATOM     10  C   UNL A   1      30.936  27.028  23.290  1.00  0.00     0.147 C 
ATOM     11  C   UNL A   1      31.048  25.897  24.305  1.00  0.00     0.091 C 
ATOM     12  C   UNL A   1      32.486  25.503  24.121  1.00  0.00     0.071 C 
ATOM     13  N   UNL A   1      33.206  26.017  23.189  1.00  0.00    -0.174 NA
BRANCH  10  14
ATOM     14  C   UNL A   1      29.496  27.950  22.988  1.00  0.00    -0.019 A 
ATOM     15  C   UNL A   1      28.582  30.221  22.501  1.00  0.00     0.119 A 
ATOM     16  C   UNL A   1      27.322  29.924  22.996  1.00  0.00     0.046 A 
ATOM     17  C   UNL A   1      29.603  29.231  22.383  1.00  0.00     0.052 A 
ATOM     18  C   UNL A   1      27.080  28.638  23.382  1.00  0.00     0.004 A 
ATOM     19  C   UNL A   1      28.144  27.715  23.394  1.00  0.00     0.006 A 
BRANCH  15  20
ATOM     20  O   UNL A   1      28.743  31.542  22.176  1.00  0.00    -0.497 OA
ATOM     21  C   UNL A   1      28.112  31.910  20.956  1.00  0.00     0.278 C 
ENDBRANCH  15  20
ENDBRANCH  10  14
BRANCH  12  22
ATOM     22  C   UNL A   1      33.198  24.812  25.172  1.00  0.00    -0.002 A 
ATOM     23  C   UNL A   1      32.332  24.213  26.068  1.00  0.00     0.010 A 
ATOM     24  C   UNL A   1      34.565  24.599  25.203  1.00  0.00     0.013 A 
ATOM     25  C   UNL A   1      32.825  23.205  26.844  1.00  0.00     0.001 A 
ATOM     26  C   UNL A   1      35.060  23.635  26.086  1.00  0.00    -0.050 A 
ATOM     27  C   UNL A   1      34.166  22.864  26.828  1.00  0.00     0.003 A 
ATOM     28  C   UNL A   1      36.522  23.352  26.197  1.00  0.00     0.044 C 
ENDBRANCH  12  22
ENDBRANCH   7   9
ENDBRANCH   6   7
ENDBRANCH   5   6
ENDBRANCH   3   5
ENDBRANCH   2   3
ENDBRANCH   1   2
BRANCH   1  29
ATOM     29  C   UNL A   1      34.453  31.871  28.503  1.00  0.00     0.202 C 
BRANCH  29  30
ATOM     30  O   UNL A   1      33.925  33.165  28.847  1.00  0.00    -0.374 OA
BRANCH  30  31
ATOM     31  C   UNL A   1      33.684  34.389  28.143  1.00  0.00     0.202 C 
BRANCH  31  32
ATOM     32  C   UNL A   1      33.073  35.887  28.929  1.00  0.00     0.261 C 
BRANCH  32  33
ATOM     33  O   UNL A   1      32.552  36.253  30.465  1.00  0.00    -0.460 OA
BRANCH  33  34
ATOM     34  C   UNL A   1      32.793  35.995  31.811  1.00  0.00     0.338 C 
ATOM     35  O   UNL A   1      32.137  36.420  32.763  1.00  0.00    -0.246 OA
BRANCH  34  36
ATOM     36  C   UNL A   1      33.813  35.059  32.406  1.00  0.00     0.060 A 
ATOM     37  C   UNL A   1      35.147  35.568  32.455  1.00  0.00     0.016 A 
ATOM     38  C   UNL A   1      33.665  33.707  32.681  1.00  0.00     0.016 A 
ATOM     39  C   UNL A   1      36.246  34.826  32.876  1.00  0.00     0.010 A 
ATOM     40  C   UNL A   1      34.801  32.923  33.054  1.00  0.00     0.010 A 
ATOM     41  C   UNL A   1      36.089  33.479  33.185  1.00  0.00    -0.014 A 
BRANCH  41  42
ATOM     42  C   UNL A   1      37.330  32.755  33.596  1.00  0.00     0.031 A 
ATOM     43  C   UNL A   1      38.142  32.061  32.553  1.00  0.00     0.074 A 
ATOM     44  C   UNL A   1      37.825  32.889  34.844  1.00  0.00     0.049 A 
ATOM     45  N   UNL A   1      39.203  31.324  32.737  1.00  0.00    -0.248 NA
ATOM     46  C   UNL A   1      37.658  32.088  31.165  1.00  0.00     0.031 C 
ATOM     47  C   UNL A   1      37.078  33.419  35.965  1.00  0.00     0.029 A 
ATOM     48  N   UNL A   1      39.082  32.716  35.373  1.00  0.00    -0.354 N 
ATOM     49  C   UNL A   1      39.410  30.670  31.536  1.00  0.00     0.074 A 
ATOM     50  C   UNL A   1      38.449  31.193  30.591  1.00  0.00     0.031 C 
ATOM     51  C   UNL A   1      37.927  33.844  36.912  1.00  0.00     0.029 A 
ATOM     52  C   UNL A   1      39.251  33.339  36.601  1.00  0.00     0.049 A 
ATOM     53  H   UNL A   1      39.792  32.203  34.923  1.00  0.00     0.167 HD
ATOM     54  C   UNL A   1      40.262  29.640  31.322  1.00  0.00     0.037 A 
ATOM     55  C   UNL A   1      40.334  33.411  37.405  1.00  0.00     0.037 A 
ATOM     56  C   UNL A   1      41.164  29.168  32.344  1.00  0.00     0.049 A 
ATOM     57  C   UNL A   1      41.393  32.391  37.076  1.00  0.00     0.074 A 
ATOM     58  C   UNL A   1      41.987  28.061  32.352  1.00  0.00     0.029 A 
ATOM     59  N   UNL A   1      41.358  29.822  33.561  1.00  0.00    -0.354 N 
ATOM     60  N   UNL A   1      41.489  31.629  36.009  1.00  0.00    -0.248 NA
ATOM     61  C   UNL A   1      42.383  32.099  38.117  1.00  0.00     0.031 C 
ATOM     62  C   UNL A   1      42.681  28.048  33.572  1.00  0.00     0.029 A 
ATOM     63  C   UNL A   1      42.325  29.171  34.307  1.00  0.00     0.049 A 
ATOM     64  H   UNL A   1      40.877  30.631  33.850  1.00  0.00     0.167 HD
ATOM     65  C   UNL A   1      42.476  30.705  36.288  1.00  0.00     0.074 A 
ATOM     66  C   UNL A   1      43.028  31.072  37.581  1.00  0.00     0.031 C 
ATOM     67  C   UNL A   1      42.845  29.608  35.581  1.00  0.00     0.037 A 
BRANCH  54  68
ATOM     68  C   UNL A   1      40.113  28.916  30.017  1.00  0.00     0.064 A 
ATOM     69  C   UNL A   1      39.434  27.691  29.922  1.00  0.00     0.173 A 
ATOM     70  C   UNL A   1      40.774  29.385  28.869  1.00  0.00     0.173 A 
ATOM     71  F   UNL A   1      38.820  27.178  30.998  1.00  0.00    -0.203 F 
ATOM     72  C   UNL A   1      39.471  26.939  28.750  1.00  0.00     0.198 A 
ATOM     73  C   UNL A   1      40.781  28.645  27.688  1.00  0.00     0.198 A 
ATOM     74  F   UNL A   1      41.451  30.542  28.903  1.00  0.00    -0.203 F 
ATOM     75  F   UNL A   1      38.898  25.727  28.717  1.00  0.00    -0.200 F 
ATOM     76  C   UNL A   1      40.146  27.414  27.635  1.00  0.00     0.200 A 
ATOM     77  F   UNL A   1      41.437  29.105  26.614  1.00  0.00    -0.200 F 
ATOM     78  F   UNL A   1      40.206  26.673  26.520  1.00  0.00    -0.200 F 
ENDBRANCH  54  68
BRANCH  55  79
ATOM     79  C   UNL A   1      40.416  34.251  38.650  1.00  0.00     0.064 A 
ATOM     80  C   UNL A   1      39.863  33.794  39.862  1.00  0.00     0.173 A 
ATOM     81  C   UNL A   1      40.997  35.529  38.680  1.00  0.00     0.173 A 
ATOM     82  F   UNL A   1      39.237  32.608  39.909  1.00  0.00    -0.203 F 
ATOM     83  C   UNL A   1      39.899  34.567  41.030  1.00  0.00     0.198 A 
ATOM     84  C   UNL A   1      41.094  36.272  39.861  1.00  0.00     0.198 A 
ATOM     85  F   UNL A   1      41.458  36.093  37.556  1.00  0.00    -0.203 F 
ATOM     86  F   UNL A   1      39.297  34.128  42.145  1.00  0.00    -0.200 F 
ATOM     87  C   UNL A   1      40.535  35.796  41.033  1.00  0.00     0.200 A 
ATOM     88  F   UNL A   1      41.718  37.458  39.851  1.00  0.00    -0.200 F 
ATOM     89  F   UNL A   1      40.586  36.531  42.152  1.00  0.00    -0.200 F 
ENDBRANCH  55  79
BRANCH  67  90
ATOM     90  C   UNL A   1      43.929  28.783  36.190  1.00  0.00     0.064 A 
ATOM     91  C   UNL A   1      45.280  29.139  36.078  1.00  0.00     0.173 A 
ATOM     92  C   UNL A   1      43.596  27.629  36.910  1.00  0.00     0.173 A 
ATOM     93  F   UNL A   1      45.639  30.223  35.373  1.00  0.00    -0.203 F 
ATOM     94  C   UNL A   1      46.267  28.350  36.656  1.00  0.00     0.198 A 
ATOM     95  C   UNL A   1      44.584  26.858  37.508  1.00  0.00     0.198 A 
ATOM     96  F   UNL A   1      42.312  27.256  37.032  1.00  0.00    -0.203 F 
ATOM     97  F   UNL A   1      47.558  28.675  36.502  1.00  0.00    -0.200 F 
ATOM     98  C   UNL A   1      45.918  27.216  37.375  1.00  0.00     0.200 A 
ATOM     99  F   UNL A   1      44.245  25.766  38.205  1.00  0.00    -0.200 F 
ATOM    100  F   UNL A   1      46.870  26.458  37.934  1.00  0.00    -0.200 F 
ENDBRANCH  67  90
ENDBRANCH  41  42
ENDBRANCH  34  36
ENDBRANCH  33  34
ENDBRANCH  32  33
ENDBRANCH  31  32
ENDBRANCH  30  31
ENDBRANCH  29  30
ENDBRANCH   1  29
TORSDOF 20
ENDMDL
MODEL 2
REMARK VINA RESULT:     -13.5      0.710      7.088
REMARK SMILES COc1cccc([C@@H]2CC(c3cccc(C)c3)=NN2C(=O)CCC(=O)OCCOCCOC(=O)c2ccc(-c3c4nc(c(-c5c(F)c(F)c(F)c(F)c5F)c5ccc([nH]5)c(-c5c(F)c(F)c(F)c(F)c5F)c5nc(c(-c6c(F)c(F)c(F)c(F)c6F)c6ccc3[nH]6)C=C5)C=C4)cc2)c1
REMARK SMILES IDX 27 1 26 2 24 3 25 4 23 5 22 6 20 7 21 8 19 9 8 10 9 11 10 12
REMARK SMILES IDX 18 13 7 14 3 15 4 16 98 17 5 18 6 19 2 20 1 21 11 22 12 23
REMARK SMILES IDX 17 24 13 25 15 26 14 27 16 28 28 29 29 30 30 31 31 32 32 33
REMARK SMILES IDX 33 34 34 35 35 36 36 37 97 38 37 39 96 40 38 41 39 42 40 43
REMARK SMILES IDX 90 44 41 45 95 46 89 47 91 48 42 49 94 50 88 51 87 52 43 54
REMARK SMILES IDX 75 55 55 56 74 57 56 58 59 59 73 60 92 61 57 62 58 63 72 65
REMARK SMILES IDX 93 66 60 67 44 68 45 69 53 70 46 71 47 72 51 73 54 74 48 75
REMARK SMILES IDX 49 76 52 77 50 78 76 79 77 80 85 81 78 82 79 83 83 84 86 85
REMARK SMILES IDX 80 86 81 87 84 88 82 89 61 90 62 91 70 92 63 93 64 94 68 95
REMARK SMILES IDX 71 96 65 97 66 98 69 99 67 100
REMARK H PARENT 91 53 59 64
REMARK Flexibility Score: inf
ROOT
ATOM      1  C   UNL A   1      33.722  30.960  27.479  1.00  0.00     0.261 C 
ENDROOT
BRANCH   1   2
ATOM      2  O   UNL A   1      34.433  29.858  26.942  1.00  0.00    -0.463 OA
BRANCH   2   3
ATOM      3  C   UNL A   1      33.661  28.929  26.359  1.00  0.00     0.306 C 
ATOM      4  O   UNL A   1      33.367  27.851  26.838  1.00  0.00    -0.252 OA
BRANCH   3   5
ATOM      5  C   UNL A   1      33.193  29.442  25.043  1.00  0.00     0.132 C 
BRANCH   5   6
ATOM      6  C   UNL A   1      34.024  29.057  23.823  1.00  0.00     0.114 C 
BRANCH   6   7
ATOM      7  C   UNL A   1      33.674  28.058  22.644  1.00  0.00     0.243 C 
ATOM      8  O   UNL A   1      34.325  28.269  21.604  1.00  0.00    -0.273 OA
BRANCH   7   9
ATOM      9  N   UNL A   1      32.618  27.097  22.719  1.00  0.00    -0.225 N 
ATOM     10  C   UNL A   1      30.985  26.872  23.359  1.00  0.00     0.147 C 
ATOM     11  C   UNL A   1      31.190  25.751  24.369  1.00  0.00     0.091 C 
ATOM     12  C   UNL A   1      32.643  25.442  24.148  1.00  0.00     0.071 C 
ATOM     13  N   UNL A   1      33.307  25.997  23.197  1.00  0.00    -0.174 NA
BRANCH  10  14
ATOM     14  C   UNL A   1      29.486  27.709  23.095  1.00  0.00    -0.019 A 
ATOM     15  C   UNL A   1      28.428  29.922  22.636  1.00  0.00     0.119 A 
ATOM     16  C   UNL A   1      27.200  29.551  23.163  1.00  0.00     0.046 A 
ATOM     17  C   UNL A   1      29.501  28.994  22.490  1.00  0.00     0.052 A 
ATOM     18  C   UNL A   1      27.044  28.253  23.554  1.00  0.00     0.004 A 
ATOM     19  C   UNL A   1      28.161  27.394  23.536  1.00  0.00     0.006 A 
BRANCH  15  20
ATOM     20  O   UNL A   1      28.502  31.250  22.309  1.00  0.00    -0.497 OA
ATOM     21  C   UNL A   1      28.180  31.522  20.952  1.00  0.00     0.278 C 
ENDBRANCH  15  20
ENDBRANCH  10  14
BRANCH  12  22
ATOM     22  C   UNL A   1      33.422  24.795  25.178  1.00  0.00    -0.002 A 
ATOM     23  C   UNL A   1      32.616  24.147  26.097  1.00  0.00     0.010 A 
ATOM     24  C   UNL A   1      34.799  24.662  25.174  1.00  0.00     0.013 A 
ATOM     25  C   UNL A   1      33.187  23.170  26.859  1.00  0.00     0.001 A 
ATOM     26  C   UNL A   1      35.373  23.729  26.042  1.00  0.00    -0.050 A 
ATOM     27  C   UNL A   1      34.545  22.908  26.807  1.00  0.00     0.003 A 
ATOM     28  C   UNL A   1      36.851  23.533  26.115  1.00  0.00     0.044 C 
ENDBRANCH  12  22
ENDBRANCH   7   9
ENDBRANCH   6   7
ENDBRANCH   5   6
ENDBRANCH   3   5
ENDBRANCH   2   3
ENDBRANCH   1   2
BRANCH   1  29
ATOM     29  C   UNL A   1      34.592  31.985  28.289  1.00  0.00     0.202 C 
BRANCH  29  30
ATOM     30  O   UNL A   1      34.004  33.210  28.764  1.00  0.00    -0.374 OA
BRANCH  30  31
ATOM     31  C   UNL A   1      33.206  34.249  28.186  1.00  0.00     0.202 C 
BRANCH  31  32
ATOM     32  C   UNL A   1      32.910  35.836  28.978  1.00  0.00     0.261 C 
BRANCH  32  33
ATOM     33  O   UNL A   1      32.428  36.291  30.503  1.00  0.00    -0.460 OA
BRANCH  33  34
ATOM     34  C   UNL A   1      32.630  36.032  31.855  1.00  0.00     0.338 C 
ATOM     35  O   UNL A   1      31.906  36.398  32.782  1.00  0.00    -0.246 OA
BRANCH  34  36
ATOM     36  C   UNL A   1      33.686  35.160  32.483  1.00  0.00     0.060 A 
ATOM     37  C   UNL A   1      35.005  35.706  32.480  1.00  0.00     0.016 A 
ATOM     38  C   UNL A   1      33.580  33.821  32.837  1.00  0.00     0.016 A 
ATOM     39  C   UNL A   1      36.132  35.021  32.921  1.00  0.00     0.010 A 
ATOM     40  C   UNL A   1      34.745  33.091  33.232  1.00  0.00     0.010 A 
ATOM     41  C   UNL A   1      36.018  33.690  33.309  1.00  0.00    -0.014 A 
BRANCH  41  42
ATOM     42  C   UNL A   1      37.285  33.024  33.736  1.00  0.00     0.031 A 
ATOM     43  C   UNL A   1      37.621  32.970  35.191  1.00  0.00     0.074 A 
ATOM     44  C   UNL A   1      38.018  32.306  32.859  1.00  0.00     0.049 A 
ATOM     45  N   UNL A   1      38.709  32.500  35.735  1.00  0.00    -0.248 NA
ATOM     46  C   UNL A   1      36.700  33.616  36.138  1.00  0.00     0.031 C 
ATOM     47  C   UNL A   1      37.873  32.385  31.421  1.00  0.00     0.029 A 
ATOM     48  N   UNL A   1      38.932  31.293  33.016  1.00  0.00    -0.354 N 
ATOM     49  C   UNL A   1      38.685  32.940  37.046  1.00  0.00     0.074 A 
ATOM     50  C   UNL A   1      37.415  33.600  37.254  1.00  0.00     0.031 C 
ATOM     51  C   UNL A   1      38.378  31.278  30.855  1.00  0.00     0.029 A 
ATOM     52  C   UNL A   1      39.149  30.564  31.856  1.00  0.00     0.049 A 
ATOM     53  H   UNL A   1      39.388  31.102  33.868  1.00  0.00     0.167 HD
ATOM     54  C   UNL A   1      39.709  32.881  37.929  1.00  0.00     0.037 A 
ATOM     55  C   UNL A   1      39.946  29.497  31.627  1.00  0.00     0.037 A 
ATOM     56  C   UNL A   1      40.953  32.225  37.614  1.00  0.00     0.049 A 
ATOM     57  C   UNL A   1      40.990  29.290  32.693  1.00  0.00     0.074 A 
ATOM     58  C   UNL A   1      42.137  32.188  38.323  1.00  0.00     0.029 A 
ATOM     59  N   UNL A   1      41.152  31.460  36.464  1.00  0.00    -0.354 N 
ATOM     60  N   UNL A   1      41.069  29.852  33.878  1.00  0.00    -0.248 NA
ATOM     61  C   UNL A   1      42.144  28.457  32.342  1.00  0.00     0.031 C 
ATOM     62  C   UNL A   1      43.048  31.400  37.603  1.00  0.00     0.029 A 
ATOM     63  C   UNL A   1      42.420  30.907  36.467  1.00  0.00     0.049 A 
ATOM     64  H   UNL A   1      40.485  31.332  35.750  1.00  0.00     0.167 HD
ATOM     65  C   UNL A   1      42.318  29.530  34.371  1.00  0.00     0.074 A 
ATOM     66  C   UNL A   1      42.918  28.626  33.405  1.00  0.00     0.031 C 
ATOM     67  C   UNL A   1      42.945  29.992  35.480  1.00  0.00     0.037 A 
BRANCH  54  68
ATOM     68  C   UNL A   1      39.539  33.666  39.195  1.00  0.00     0.064 A 
ATOM     69  C   UNL A   1      38.830  33.157  40.294  1.00  0.00     0.173 A 
ATOM     70  C   UNL A   1      39.974  35.001  39.263  1.00  0.00     0.173 A 
ATOM     71  F   UNL A   1      38.357  31.902  40.265  1.00  0.00    -0.203 F 
ATOM     72  C   UNL A   1      38.514  33.966  41.383  1.00  0.00     0.198 A 
ATOM     73  C   UNL A   1      39.684  35.798  40.370  1.00  0.00     0.198 A 
ATOM     74  F   UNL A   1      40.644  35.548  38.239  1.00  0.00    -0.203 F 
ATOM     75  F   UNL A   1      37.751  33.483  42.374  1.00  0.00    -0.200 F 
ATOM     76  C   UNL A   1      38.939  35.286  41.420  1.00  0.00     0.200 A 
ATOM     77  F   UNL A   1      40.093  37.074  40.401  1.00  0.00    -0.200 F 
ATOM     78  F   UNL A   1      38.606  36.070  42.455  1.00  0.00    -0.200 F 
ENDBRANCH  54  68
BRANCH  55  79
ATOM     79  C   UNL A   1      39.970  28.712  30.344  1.00  0.00     0.064 A 
ATOM     80  C   UNL A   1      40.602  29.231  29.197  1.00  0.00     0.173 A 
ATOM     81  C   UNL A   1      39.349  27.462  30.193  1.00  0.00     0.173 A 
ATOM     82  F   UNL A   1      41.170  30.446  29.235  1.00  0.00    -0.203 F 
ATOM     83  C   UNL A   1      40.615  28.536  27.981  1.00  0.00     0.198 A 
ATOM     84  C   UNL A   1      39.421  26.737  29.001  1.00  0.00     0.198 A 
ATOM     85  F   UNL A   1      38.636  26.932  31.197  1.00  0.00    -0.203 F 
ATOM     86  F   UNL A   1      41.162  29.096  26.892  1.00  0.00    -0.200 F 
ATOM     87  C   UNL A   1      40.044  27.278  27.891  1.00  0.00     0.200 A 
ATOM     88  F   UNL A   1      38.868  25.518  28.929  1.00  0.00    -0.200 F 
ATOM     89  F   UNL A   1      40.069  26.602  26.734  1.00  0.00    -0.200 F 
ENDBRANCH  55  79
BRANCH  67  90
ATOM     90  C   UNL A   1      44.325  29.471  35.706  1.00  0.00     0.064 A 
ATOM     91  C   UNL A   1      45.453  30.115  35.180  1.00  0.00     0.173 A 
ATOM     92  C   UNL A   1      44.509  28.317  36.477  1.00  0.00     0.173 A 
ATOM     93  F   UNL A   1      45.314  31.207  34.413  1.00  0.00    -0.203 F 
ATOM     94  C   UNL A   1      46.726  29.605  35.406  1.00  0.00     0.198 A 
ATOM     95  C   UNL A   1      45.784  27.826  36.723  1.00  0.00     0.198 A 
ATOM     96  F   UNL A   1      43.450  27.672  36.990  1.00  0.00    -0.203 F 
ATOM     97  F   UNL A   1      47.793  30.203  34.859  1.00  0.00    -0.200 F 
ATOM     98  C   UNL A   1      46.890  28.467  36.182  1.00  0.00     0.200 A 
ATOM     99  F   UNL A   1      45.941  26.730  37.476  1.00  0.00    -0.200 F 
ATOM    100  F   UNL A   1      48.118  27.978  36.403  1.00  0.00    -0.200 F 
ENDBRANCH  67  90
ENDBRANCH  41  42
ENDBRANCH  34  36
ENDBRANCH  33  34
ENDBRANCH  32  33
ENDBRANCH  31  32
ENDBRANCH  30  31
ENDBRANCH  29  30
ENDBRANCH   1  29
TORSDOF 20
ENDMDL
MODEL 3
REMARK VINA RESULT:     -13.1      7.087     12.188
REMARK SMILES COc1cccc([C@@H]2CC(c3cccc(C)c3)=NN2C(=O)CCC(=O)OCCOCCOC(=O)c2ccc(-c3c4nc(c(-c5c(F)c(F)c(F)c(F)c5F)c5ccc([nH]5)c(-c5c(F)c(F)c(F)c(F)c5F)c5nc(c(-c6c(F)c(F)c(F)c(F)c6F)c6ccc3[nH]6)C=C5)C=C4)cc2)c1
REMARK SMILES IDX 27 1 26 2 24 3 25 4 23 5 22 6 20 7 21 8 19 9 8 10 9 11 10 12
REMARK SMILES IDX 18 13 7 14 3 15 4 16 98 17 5 18 6 19 2 20 1 21 11 22 12 23
REMARK SMILES IDX 17 24 13 25 15 26 14 27 16 28 28 29 29 30 30 31 31 32 32 33
REMARK SMILES IDX 33 34 34 35 35 36 36 37 97 38 37 39 96 40 38 41 39 42 40 43
REMARK SMILES IDX 90 44 41 45 95 46 89 47 91 48 42 49 94 50 88 51 87 52 43 54
REMARK SMILES IDX 75 55 55 56 74 57 56 58 59 59 73 60 92 61 57 62 58 63 72 65
REMARK SMILES IDX 93 66 60 67 44 68 45 69 53 70 46 71 47 72 51 73 54 74 48 75
REMARK SMILES IDX 49 76 52 77 50 78 76 79 77 80 85 81 78 82 79 83 83 84 86 85
REMARK SMILES IDX 80 86 81 87 84 88 82 89 61 90 62 91 70 92 63 93 64 94 68 95
REMARK SMILES IDX 71 96 65 97 66 98 69 99 67 100
REMARK H PARENT 91 53 59 64
REMARK Flexibility Score: inf
ROOT
ATOM      1  C   UNL A   1      39.602  21.250  25.858  1.00  0.00     0.261 C 
ENDROOT
BRANCH   1   2
ATOM      2  O   UNL A   1      38.437  22.055  25.921  1.00  0.00    -0.463 OA
BRANCH   2   3
ATOM      3  C   UNL A   1      37.417  21.615  25.168  1.00  0.00     0.306 C 
ATOM      4  O   UNL A   1      37.354  20.530  24.626  1.00  0.00    -0.252 OA
BRANCH   3   5
ATOM      5  C   UNL A   1      36.356  22.658  25.130  1.00  0.00     0.132 C 
BRANCH   5   6
ATOM      6  C   UNL A   1      35.598  22.911  26.430  1.00  0.00     0.114 C 
BRANCH   6   7
ATOM      7  C   UNL A   1      34.085  22.605  26.786  1.00  0.00     0.243 C 
ATOM      8  O   UNL A   1      33.878  22.469  28.007  1.00  0.00    -0.273 OA
BRANCH   7   9
ATOM      9  N   UNL A   1      33.079  22.371  25.796  1.00  0.00    -0.225 N 
ATOM     10  C   UNL A   1      32.749  21.411  24.349  1.00  0.00     0.147 C 
ATOM     11  C   UNL A   1      32.623  22.485  23.276  1.00  0.00     0.091 C 
ATOM     12  C   UNL A   1      32.761  23.726  24.111  1.00  0.00     0.071 C 
ATOM     13  N   UNL A   1      32.810  23.667  25.394  1.00  0.00    -0.174 NA
BRANCH  10  14
ATOM     14  C   UNL A   1      32.682  19.701  24.054  1.00  0.00    -0.019 A 
ATOM     15  C   UNL A   1      33.417  17.453  24.852  1.00  0.00     0.119 A 
ATOM     16  C   UNL A   1      33.278  16.860  23.607  1.00  0.00     0.046 A 
ATOM     17  C   UNL A   1      33.012  18.799  25.100  1.00  0.00     0.052 A 
ATOM     18  C   UNL A   1      32.743  17.613  22.603  1.00  0.00     0.004 A 
ATOM     19  C   UNL A   1      32.488  18.980  22.832  1.00  0.00     0.006 A 
BRANCH  15  20
ATOM     20  O   UNL A   1      33.997  16.634  25.784  1.00  0.00    -0.497 OA
ATOM     21  C   UNL A   1      34.837  15.635  25.222  1.00  0.00     0.278 C 
ENDBRANCH  15  20
ENDBRANCH  10  14
BRANCH  12  22
ATOM     22  C   UNL A   1      33.183  24.972  23.511  1.00  0.00    -0.002 A 
ATOM     23  C   UNL A   1      32.986  24.972  22.142  1.00  0.00     0.010 A 
ATOM     24  C   UNL A   1      33.565  26.104  24.208  1.00  0.00     0.013 A 
ATOM     25  C   UNL A   1      32.938  26.182  21.513  1.00  0.00     0.001 A 
ATOM     26  C   UNL A   1      33.613  27.317  23.516  1.00  0.00    -0.050 A 
ATOM     27  C   UNL A   1      33.191  27.364  22.187  1.00  0.00     0.003 A 
ATOM     28  C   UNL A   1      34.030  28.585  24.185  1.00  0.00     0.044 C 
ENDBRANCH  12  22
ENDBRANCH   7   9
ENDBRANCH   6   7
ENDBRANCH   5   6
ENDBRANCH   3   5
ENDBRANCH   2   3
ENDBRANCH   1   2
BRANCH   1  29
ATOM     29  C   UNL A   1      40.859  21.840  26.591  1.00  0.00     0.202 C 
BRANCH  29  30
ATOM     30  O   UNL A   1      41.873  20.956  27.102  1.00  0.00    -0.374 OA
BRANCH  30  31
ATOM     31  C   UNL A   1      41.943  19.563  27.425  1.00  0.00     0.202 C 
BRANCH  31  32
ATOM     32  C   UNL A   1      42.720  18.332  26.369  1.00  0.00     0.261 C 
BRANCH  32  33
ATOM     33  O   UNL A   1      43.901  18.397  25.200  1.00  0.00    -0.460 OA
BRANCH  33  34
ATOM     34  C   UNL A   1      44.577  19.268  24.351  1.00  0.00     0.338 C 
ATOM     35  O   UNL A   1      45.018  18.999  23.233  1.00  0.00    -0.246 OA
BRANCH  34  36
ATOM     36  C   UNL A   1      44.817  20.743  24.539  1.00  0.00     0.060 A 
ATOM     37  C   UNL A   1      45.566  21.092  25.703  1.00  0.00     0.016 A 
ATOM     38  C   UNL A   1      44.207  21.794  23.867  1.00  0.00     0.016 A 
ATOM     39  C   UNL A   1      45.811  22.401  26.107  1.00  0.00     0.010 A 
ATOM     40  C   UNL A   1      44.402  23.139  24.314  1.00  0.00     0.010 A 
ATOM     41  C   UNL A   1      45.227  23.455  25.412  1.00  0.00    -0.014 A 
BRANCH  41  42
ATOM     42  C   UNL A   1      45.518  24.823  25.936  1.00  0.00     0.031 A 
ATOM     43  C   UNL A   1      46.694  25.570  25.400  1.00  0.00     0.074 A 
ATOM     44  C   UNL A   1      44.629  25.462  26.727  1.00  0.00     0.049 A 
ATOM     45  N   UNL A   1      47.139  26.733  25.791  1.00  0.00    -0.248 NA
ATOM     46  C   UNL A   1      47.542  24.903  24.402  1.00  0.00     0.031 C 
ATOM     47  C   UNL A   1      43.532  24.811  27.411  1.00  0.00     0.029 A 
ATOM     48  N   UNL A   1      44.414  26.791  27.004  1.00  0.00    -0.354 N 
ATOM     49  C   UNL A   1      48.393  26.858  25.222  1.00  0.00     0.074 A 
ATOM     50  C   UNL A   1      48.586  25.718  24.354  1.00  0.00     0.031 C 
ATOM     51  C   UNL A   1      42.595  25.718  27.726  1.00  0.00     0.029 A 
ATOM     52  C   UNL A   1      43.161  27.042  27.544  1.00  0.00     0.049 A 
ATOM     53  H   UNL A   1      45.082  27.494  26.836  1.00  0.00     0.167 HD
ATOM     54  C   UNL A   1      49.317  27.800  25.522  1.00  0.00     0.037 A 
ATOM     55  C   UNL A   1      42.585  28.206  27.918  1.00  0.00     0.037 A 
ATOM     56  C   UNL A   1      49.037  28.886  26.429  1.00  0.00     0.049 A 
ATOM     57  C   UNL A   1      43.570  29.334  28.085  1.00  0.00     0.074 A 
ATOM     58  C   UNL A   1      49.885  29.840  26.954  1.00  0.00     0.029 A 
ATOM     59  N   UNL A   1      47.766  29.157  26.937  1.00  0.00    -0.354 N 
ATOM     60  N   UNL A   1      44.827  29.383  27.706  1.00  0.00    -0.248 NA
ATOM     61  C   UNL A   1      43.135  30.485  28.882  1.00  0.00     0.031 C 
ATOM     62  C   UNL A   1      49.126  30.688  27.774  1.00  0.00     0.029 A 
ATOM     63  C   UNL A   1      47.796  30.292  27.727  1.00  0.00     0.049 A 
ATOM     64  H   UNL A   1      46.961  28.618  26.758  1.00  0.00     0.167 HD
ATOM     65  C   UNL A   1      45.361  30.510  28.298  1.00  0.00     0.074 A 
ATOM     66  C   UNL A   1      44.261  31.180  28.970  1.00  0.00     0.031 C 
ATOM     67  C   UNL A   1      46.653  30.919  28.348  1.00  0.00     0.037 A 
BRANCH  54  68
ATOM     68  C   UNL A   1      50.697  27.571  24.982  1.00  0.00     0.064 A 
ATOM     69  C   UNL A   1      51.738  27.083  25.787  1.00  0.00     0.173 A 
ATOM     70  C   UNL A   1      51.019  27.972  23.674  1.00  0.00     0.173 A 
ATOM     71  F   UNL A   1      51.493  26.724  27.056  1.00  0.00    -0.203 F 
ATOM     72  C   UNL A   1      53.052  27.060  25.326  1.00  0.00     0.198 A 
ATOM     73  C   UNL A   1      52.331  27.917  23.205  1.00  0.00     0.198 A 
ATOM     74  F   UNL A   1      50.071  28.460  22.862  1.00  0.00    -0.203 F 
ATOM     75  F   UNL A   1      54.041  26.683  26.149  1.00  0.00    -0.200 F 
ATOM     76  C   UNL A   1      53.350  27.478  24.038  1.00  0.00     0.200 A 
ATOM     77  F   UNL A   1      52.615  28.325  21.961  1.00  0.00    -0.200 F 
ATOM     78  F   UNL A   1      54.619  27.485  23.609  1.00  0.00    -0.200 F 
ENDBRANCH  54  68
BRANCH  55  79
ATOM     79  C   UNL A   1      41.153  28.346  28.355  1.00  0.00     0.064 A 
ATOM     80  C   UNL A   1      40.194  28.922  27.498  1.00  0.00     0.173 A 
ATOM     81  C   UNL A   1      40.693  27.962  29.625  1.00  0.00     0.173 A 
ATOM     82  F   UNL A   1      40.559  29.371  26.288  1.00  0.00    -0.203 F 
ATOM     83  C   UNL A   1      38.860  29.091  27.890  1.00  0.00     0.198 A 
ATOM     84  C   UNL A   1      39.349  28.067  29.991  1.00  0.00     0.198 A 
ATOM     85  F   UNL A   1      41.550  27.499  30.546  1.00  0.00    -0.203 F 
ATOM     86  F   UNL A   1      37.994  29.709  27.074  1.00  0.00    -0.200 F 
ATOM     87  C   UNL A   1      38.433  28.643  29.128  1.00  0.00     0.200 A 
ATOM     88  F   UNL A   1      38.948  27.624  31.190  1.00  0.00    -0.200 F 
ATOM     89  F   UNL A   1      37.154  28.788  29.499  1.00  0.00    -0.200 F 
ENDBRANCH  55  79
BRANCH  67  90
ATOM     90  C   UNL A   1      46.902  32.174  29.117  1.00  0.00     0.064 A 
ATOM     91  C   UNL A   1      46.841  33.436  28.511  1.00  0.00     0.173 A 
ATOM     92  C   UNL A   1      47.189  32.099  30.485  1.00  0.00     0.173 A 
ATOM     93  F   UNL A   1      46.596  33.545  27.195  1.00  0.00    -0.203 F 
ATOM     94  C   UNL A   1      47.079  34.587  29.252  1.00  0.00     0.198 A 
ATOM     95  C   UNL A   1      47.400  33.253  31.228  1.00  0.00     0.198 A 
ATOM     96  F   UNL A   1      47.262  30.906  31.096  1.00  0.00    -0.203 F 
ATOM     97  F   UNL A   1      47.064  35.784  28.651  1.00  0.00    -0.200 F 
ATOM     98  C   UNL A   1      47.351  34.495  30.610  1.00  0.00     0.200 A 
ATOM     99  F   UNL A   1      47.658  33.163  32.539  1.00  0.00    -0.200 F 
ATOM    100  F   UNL A   1      47.577  35.605  31.324  1.00  0.00    -0.200 F 
ENDBRANCH  67  90
ENDBRANCH  41  42
ENDBRANCH  34  36
ENDBRANCH  33  34
ENDBRANCH  32  33
ENDBRANCH  31  32
ENDBRANCH  30  31
ENDBRANCH  29  30
ENDBRANCH   1  29
TORSDOF 20
ENDMDL
