MODEL 1
REMARK VINA RESULT:     -12.9      0.000      0.000
REMARK SMILES O=C(OCCOCCOC(=O)[C@@H](Cc1ccc(O)cc1)Nc1c2ccccc2nc2ccccc12)c1ccc(-c2c3nc(c(-c4c(F)c(F)c(F)c(F)c4F)c4ccc([nH]4)c(-c4c(F)c(F)c(F)c(F)c4F)c4nc(c(-c5c(F)c(F)c(F)c(F)c5F)c5ccc2[nH]5)C=C4)C=C3)cc1
REMARK SMILES IDX 7 1 6 2 5 3 4 4 3 5 2 6 1 7 36 8 37 9 98 10 38 11 97 12
REMARK SMILES IDX 39 13 40 14 41 15 91 16 42 17 96 18 90 19 92 20 43 21 95 22
REMARK SMILES IDX 89 23 88 24 44 26 76 27 56 28 75 29 57 30 60 31 74 32 93 33
REMARK SMILES IDX 58 34 59 35 73 37 94 38 61 39 45 40 46 41 54 42 47 43 48 44
REMARK SMILES IDX 52 45 55 46 49 47 50 48 53 49 51 50 77 51 78 52 86 53 79 54
REMARK SMILES IDX 80 55 84 56 87 57 81 58 82 59 85 60 83 61 62 62 63 63 71 64
REMARK SMILES IDX 64 65 65 66 69 67 72 68 66 69 67 70 70 71 68 72 8 73 9 74
REMARK SMILES IDX 10 75 11 76 12 77 13 78 14 79 15 80 20 81 16 82 19 83 17 84
REMARK SMILES IDX 18 85 21 87 22 89 23 90 35 91 24 92 28 93 30 94 34 95 25 96
REMARK SMILES IDX 27 97 29 98 31 99 33 100 26 101 32 102
REMARK H PARENT 92 25 60 36 18 86 21 88
REMARK Flexibility Score: inf
ROOT
ATOM      1  C   UNL A   1      33.429  27.322  26.211  1.00  0.00     0.202 C 
ENDROOT
BRANCH   1   2
ATOM      2  O   UNL A   1      32.903  28.219  25.227  1.00  0.00    -0.374 OA
BRANCH   2   3
ATOM      3  C   UNL A   1      31.753  28.975  25.607  1.00  0.00     0.202 C 
BRANCH   3   4
ATOM      4  C   UNL A   1      31.951  30.482  25.843  1.00  0.00     0.261 C 
BRANCH   4   5
ATOM      5  O   UNL A   1      32.430  30.762  27.167  1.00  0.00    -0.460 OA
BRANCH   5   6
ATOM      6  C   UNL A   1      33.359  31.677  27.537  1.00  0.00     0.338 C 
ATOM      7  O   UNL A   1      33.080  32.872  27.450  1.00  0.00    -0.246 OA
BRANCH   6   8
ATOM      8  C   UNL A   1      34.724  31.315  28.033  1.00  0.00     0.060 A 
ATOM      9  C   UNL A   1      35.120  30.030  28.395  1.00  0.00     0.016 A 
ATOM     10  C   UNL A   1      35.696  32.329  28.084  1.00  0.00     0.016 A 
ATOM     11  C   UNL A   1      36.396  29.741  28.815  1.00  0.00     0.010 A 
ATOM     12  C   UNL A   1      37.003  32.054  28.509  1.00  0.00     0.010 A 
ATOM     13  C   UNL A   1      37.339  30.753  28.888  1.00  0.00    -0.014 A 
BRANCH  13  14
ATOM     14  C   UNL A   1      38.579  30.368  29.568  1.00  0.00     0.031 A 
ATOM     15  C   UNL A   1      38.726  30.776  31.000  1.00  0.00     0.074 A 
ATOM     16  C   UNL A   1      39.349  29.419  29.006  1.00  0.00     0.049 A 
ATOM     17  N   UNL A   1      39.652  30.458  31.860  1.00  0.00    -0.248 NA
ATOM     18  C   UNL A   1      37.653  31.623  31.551  1.00  0.00     0.031 C 
ATOM     19  C   UNL A   1      39.110  28.816  27.691  1.00  0.00     0.029 A 
ATOM     20  N   UNL A   1      40.422  28.732  29.498  1.00  0.00    -0.354 N 
ATOM     21  C   UNL A   1      39.294  31.094  33.039  1.00  0.00     0.074 A 
ATOM     22  C   UNL A   1      38.055  31.795  32.800  1.00  0.00     0.031 C 
ATOM     23  C   UNL A   1      39.987  27.818  27.501  1.00  0.00     0.029 A 
ATOM     24  C   UNL A   1      40.889  27.764  28.645  1.00  0.00     0.049 A 
ATOM     25  H   UNL A   1      40.821  28.914  30.380  1.00  0.00     0.167 HD
ATOM     26  C   UNL A   1      39.968  31.100  34.210  1.00  0.00     0.037 A 
ATOM     27  C   UNL A   1      41.951  26.949  28.779  1.00  0.00     0.037 A 
ATOM     28  C   UNL A   1      41.197  30.384  34.402  1.00  0.00     0.049 A 
ATOM     29  C   UNL A   1      42.751  27.066  30.048  1.00  0.00     0.074 A 
ATOM     30  C   UNL A   1      42.052  30.394  35.487  1.00  0.00     0.029 A 
ATOM     31  N   UNL A   1      41.742  29.514  33.465  1.00  0.00    -0.354 N 
ATOM     32  N   UNL A   1      42.496  27.776  31.123  1.00  0.00    -0.248 NA
ATOM     33  C   UNL A   1      43.996  26.295  30.118  1.00  0.00     0.031 C 
ATOM     34  C   UNL A   1      43.137  29.562  35.186  1.00  0.00     0.029 A 
ATOM     35  C   UNL A   1      42.932  28.993  33.937  1.00  0.00     0.049 A 
ATOM     36  H   UNL A   1      41.340  29.301  32.592  1.00  0.00     0.167 HD
ATOM     37  C   UNL A   1      43.538  27.530  32.002  1.00  0.00     0.074 A 
ATOM     38  C   UNL A   1      44.417  26.584  31.340  1.00  0.00     0.031 C 
ATOM     39  C   UNL A   1      43.761  28.042  33.238  1.00  0.00     0.037 A 
BRANCH  26  40
ATOM     40  C   UNL A   1      39.441  31.999  35.287  1.00  0.00     0.064 A 
ATOM     41  C   UNL A   1      39.811  33.348  35.389  1.00  0.00     0.173 A 
ATOM     42  C   UNL A   1      38.604  31.471  36.282  1.00  0.00     0.173 A 
ATOM     43  F   UNL A   1      40.644  33.890  34.487  1.00  0.00    -0.203 F 
ATOM     44  C   UNL A   1      39.384  34.127  36.463  1.00  0.00     0.198 A 
ATOM     45  C   UNL A   1      38.160  32.259  37.340  1.00  0.00     0.198 A 
ATOM     46  F   UNL A   1      38.237  30.181  36.241  1.00  0.00    -0.203 F 
ATOM     47  F   UNL A   1      39.803  35.396  36.577  1.00  0.00    -0.200 F 
ATOM     48  C   UNL A   1      38.558  33.583  37.436  1.00  0.00     0.200 A 
ATOM     49  F   UNL A   1      37.366  31.728  38.280  1.00  0.00    -0.200 F 
ATOM     50  F   UNL A   1      38.163  34.329  38.476  1.00  0.00    -0.200 F 
ENDBRANCH  26  40
BRANCH  27  51
ATOM     51  C   UNL A   1      42.344  26.029  27.679  1.00  0.00     0.064 A 
ATOM     52  C   UNL A   1      43.323  26.380  26.740  1.00  0.00     0.173 A 
ATOM     53  C   UNL A   1      41.731  24.773  27.532  1.00  0.00     0.173 A 
ATOM     54  F   UNL A   1      43.927  27.576  26.817  1.00  0.00    -0.203 F 
ATOM     55  C   UNL A   1      43.661  25.522  25.692  1.00  0.00     0.198 A 
ATOM     56  C   UNL A   1      42.091  23.903  26.506  1.00  0.00     0.198 A 
ATOM     57  F   UNL A   1      40.780  24.384  28.395  1.00  0.00    -0.203 F 
ATOM     58  F   UNL A   1      44.565  25.905  24.781  1.00  0.00    -0.200 F 
ATOM     59  C   UNL A   1      43.049  24.282  25.581  1.00  0.00     0.200 A 
ATOM     60  F   UNL A   1      41.506  22.701  26.412  1.00  0.00    -0.200 F 
ATOM     61  F   UNL A   1      43.375  23.458  24.575  1.00  0.00    -0.200 F 
ENDBRANCH  27  51
BRANCH  39  62
ATOM     62  C   UNL A   1      44.983  27.555  33.953  1.00  0.00     0.064 A 
ATOM     63  C   UNL A   1      44.954  26.406  34.754  1.00  0.00     0.173 A 
ATOM     64  C   UNL A   1      46.204  28.227  33.796  1.00  0.00     0.173 A 
ATOM     65  F   UNL A   1      43.803  25.742  34.942  1.00  0.00    -0.203 F 
ATOM     66  C   UNL A   1      46.104  25.960  35.396  1.00  0.00     0.198 A 
ATOM     67  C   UNL A   1      47.357  27.760  34.416  1.00  0.00     0.198 A 
ATOM     68  F   UNL A   1      46.278  29.327  33.032  1.00  0.00    -0.203 F 
ATOM     69  F   UNL A   1      46.047  24.885  36.196  1.00  0.00    -0.200 F 
ATOM     70  C   UNL A   1      47.305  26.632  35.221  1.00  0.00     0.200 A 
ATOM     71  F   UNL A   1      48.520  28.402  34.235  1.00  0.00    -0.200 F 
ATOM     72  F   UNL A   1      48.413  26.195  35.836  1.00  0.00    -0.200 F 
ENDBRANCH  39  62
ENDBRANCH  13  14
ENDBRANCH   6   8
ENDBRANCH   5   6
ENDBRANCH   4   5
ENDBRANCH   3   4
ENDBRANCH   2   3
ENDBRANCH   1   2
BRANCH   1  73
ATOM     73  C   UNL A   1      32.443  26.184  26.485  1.00  0.00     0.261 C 
BRANCH  73  74
ATOM     74  O   UNL A   1      33.105  24.932  26.242  1.00  0.00    -0.462 OA
BRANCH  74  75
ATOM     75  C   UNL A   1      32.328  23.830  26.353  1.00  0.00     0.328 C 
ATOM     76  O   UNL A   1      31.825  23.443  27.405  1.00  0.00    -0.250 OA
BRANCH  75  77
ATOM     77  C   UNL A   1      32.120  23.114  25.011  1.00  0.00     0.194 C 
BRANCH  77  78
ATOM     78  C   UNL A   1      30.965  23.530  24.065  1.00  0.00     0.072 C 
BRANCH  78  79
ATOM     79  C   UNL A   1      30.724  24.923  23.525  1.00  0.00    -0.045 A 
ATOM     80  C   UNL A   1      29.737  25.808  23.970  1.00  0.00     0.007 A 
ATOM     81  C   UNL A   1      31.622  25.387  22.543  1.00  0.00     0.007 A 
ATOM     82  C   UNL A   1      29.595  27.080  23.398  1.00  0.00     0.046 A 
ATOM     83  C   UNL A   1      31.512  26.669  22.001  1.00  0.00     0.046 A 
ATOM     84  C   UNL A   1      30.488  27.501  22.423  1.00  0.00     0.115 A 
BRANCH  84  85
ATOM     85  O   UNL A   1      30.405  28.740  21.861  1.00  0.00    -0.508 OA
ATOM     86  H   UNL A   1      30.350  28.829  20.930  1.00  0.00     0.293 HD
ENDBRANCH  84  85
ENDBRANCH  78  79
ENDBRANCH  77  78
BRANCH  77  87
ATOM     87  N   UNL A   1      33.354  23.015  24.233  1.00  0.00    -0.371 N 
ATOM     88  H   UNL A   1      33.548  23.669  23.523  1.00  0.00     0.161 HD
BRANCH  87  89
ATOM     89  C   UNL A   1      34.259  21.977  24.510  1.00  0.00     0.054 A 
ATOM     90  C   UNL A   1      33.893  20.603  24.363  1.00  0.00     0.024 A 
ATOM     91  C   UNL A   1      35.546  22.312  25.009  1.00  0.00     0.024 A 
ATOM     92  C   UNL A   1      32.623  20.130  23.929  1.00  0.00     0.012 A 
ATOM     93  C   UNL A   1      34.881  19.646  24.655  1.00  0.00     0.073 A 
ATOM     94  C   UNL A   1      36.452  21.258  25.208  1.00  0.00     0.073 A 
ATOM     95  C   UNL A   1      35.954  23.633  25.335  1.00  0.00     0.012 A 
ATOM     96  C   UNL A   1      32.312  18.773  23.882  1.00  0.00     0.001 A 
ATOM     97  C   UNL A   1      34.564  18.296  24.557  1.00  0.00     0.029 A 
ATOM     98  N   UNL A   1      36.128  19.970  25.025  1.00  0.00    -0.248 NA
ATOM     99  C   UNL A   1      37.741  21.557  25.630  1.00  0.00     0.029 A 
ATOM    100  C   UNL A   1      37.241  23.904  25.792  1.00  0.00     0.001 A 
ATOM    101  C   UNL A   1      33.290  17.849  24.198  1.00  0.00     0.002 A 
ATOM    102  C   UNL A   1      38.146  22.862  25.918  1.00  0.00     0.002 A 
ENDBRANCH  87  89
ENDBRANCH  77  87
ENDBRANCH  75  77
ENDBRANCH  74  75
ENDBRANCH  73  74
ENDBRANCH   1  73
TORSDOF 19
ENDMDL
MODEL 2
REMARK VINA RESULT:     -12.8      0.499      2.181
REMARK SMILES O=C(OCCOCCOC(=O)[C@@H](Cc1ccc(O)cc1)Nc1c2ccccc2nc2ccccc12)c1ccc(-c2c3nc(c(-c4c(F)c(F)c(F)c(F)c4F)c4ccc([nH]4)c(-c4c(F)c(F)c(F)c(F)c4F)c4nc(c(-c5c(F)c(F)c(F)c(F)c5F)c5ccc2[nH]5)C=C4)C=C3)cc1
REMARK SMILES IDX 7 1 6 2 5 3 4 4 3 5 2 6 1 7 36 8 37 9 98 10 38 11 97 12
REMARK SMILES IDX 39 13 40 14 41 15 91 16 42 17 96 18 90 19 92 20 43 21 95 22
REMARK SMILES IDX 89 23 88 24 44 26 76 27 56 28 75 29 57 30 60 31 74 32 93 33
REMARK SMILES IDX 58 34 59 35 73 37 94 38 61 39 45 40 46 41 54 42 47 43 48 44
REMARK SMILES IDX 52 45 55 46 49 47 50 48 53 49 51 50 77 51 78 52 86 53 79 54
REMARK SMILES IDX 80 55 84 56 87 57 81 58 82 59 85 60 83 61 62 62 63 63 71 64
REMARK SMILES IDX 64 65 65 66 69 67 72 68 66 69 67 70 70 71 68 72 8 73 9 74
REMARK SMILES IDX 10 75 11 76 12 77 13 78 14 79 15 80 20 81 16 82 19 83 17 84
REMARK SMILES IDX 18 85 21 87 22 89 23 90 35 91 24 92 28 93 30 94 34 95 25 96
REMARK SMILES IDX 27 97 29 98 31 99 33 100 26 101 32 102
REMARK H PARENT 92 25 60 36 18 86 21 88
REMARK Flexibility Score: inf
ROOT
ATOM      1  C   UNL A   1      32.532  27.406  25.912  1.00  0.00     0.202 C 
ENDROOT
BRANCH   1   2
ATOM      2  O   UNL A   1      31.600  28.480  25.748  1.00  0.00    -0.374 OA
BRANCH   2   3
ATOM      3  C   UNL A   1      32.154  29.792  25.641  1.00  0.00     0.202 C 
BRANCH   3   4
ATOM      4  C   UNL A   1      32.030  30.708  26.870  1.00  0.00     0.261 C 
BRANCH   4   5
ATOM      5  O   UNL A   1      32.737  31.946  26.694  1.00  0.00    -0.460 OA
BRANCH   5   6
ATOM      6  C   UNL A   1      33.480  32.614  27.609  1.00  0.00     0.338 C 
ATOM      7  O   UNL A   1      33.065  33.690  28.036  1.00  0.00    -0.246 OA
BRANCH   6   8
ATOM      8  C   UNL A   1      34.798  32.123  28.121  1.00  0.00     0.060 A 
ATOM      9  C   UNL A   1      35.049  30.820  28.540  1.00  0.00     0.016 A 
ATOM     10  C   UNL A   1      35.879  33.023  28.126  1.00  0.00     0.016 A 
ATOM     11  C   UNL A   1      36.287  30.408  28.972  1.00  0.00     0.010 A 
ATOM     12  C   UNL A   1      37.148  32.622  28.563  1.00  0.00     0.010 A 
ATOM     13  C   UNL A   1      37.338  31.309  29.000  1.00  0.00    -0.014 A 
BRANCH  13  14
ATOM     14  C   UNL A   1      38.531  30.818  29.697  1.00  0.00     0.031 A 
ATOM     15  C   UNL A   1      38.650  31.139  31.153  1.00  0.00     0.074 A 
ATOM     16  C   UNL A   1      39.265  29.858  29.108  1.00  0.00     0.049 A 
ATOM     17  N   UNL A   1      39.526  30.723  32.023  1.00  0.00    -0.248 NA
ATOM     18  C   UNL A   1      37.606  32.015  31.716  1.00  0.00     0.031 C 
ATOM     19  C   UNL A   1      39.039  29.341  27.754  1.00  0.00     0.029 A 
ATOM     20  N   UNL A   1      40.281  29.085  29.595  1.00  0.00    -0.354 N 
ATOM     21  C   UNL A   1      39.163  31.315  33.223  1.00  0.00     0.074 A 
ATOM     22  C   UNL A   1      37.974  32.097  32.984  1.00  0.00     0.031 C 
ATOM     23  C   UNL A   1      39.866  28.306  27.537  1.00  0.00     0.029 A 
ATOM     24  C   UNL A   1      40.723  28.139  28.705  1.00  0.00     0.049 A 
ATOM     25  H   UNL A   1      40.658  29.196  30.497  1.00  0.00     0.167 HD
ATOM     26  C   UNL A   1      39.795  31.219  34.414  1.00  0.00     0.037 A 
ATOM     27  C   UNL A   1      41.733  27.259  28.827  1.00  0.00     0.037 A 
ATOM     28  C   UNL A   1      40.975  30.424  34.605  1.00  0.00     0.049 A 
ATOM     29  C   UNL A   1      42.493  27.261  30.125  1.00  0.00     0.074 A 
ATOM     30  C   UNL A   1      41.790  30.327  35.716  1.00  0.00     0.029 A 
ATOM     31  N   UNL A   1      41.503  29.577  33.639  1.00  0.00    -0.354 N 
ATOM     32  N   UNL A   1      42.241  27.926  31.230  1.00  0.00    -0.248 NA
ATOM     33  C   UNL A   1      43.690  26.418  30.191  1.00  0.00     0.031 C 
ATOM     34  C   UNL A   1      42.838  29.452  35.404  1.00  0.00     0.029 A 
ATOM     35  C   UNL A   1      42.645  28.963  34.119  1.00  0.00     0.049 A 
ATOM     36  H   UNL A   1      41.120  29.434  32.743  1.00  0.00     0.167 HD
ATOM     37  C   UNL A   1      43.236  27.574  32.126  1.00  0.00     0.074 A 
ATOM     38  C   UNL A   1      44.084  26.616  31.441  1.00  0.00     0.031 C 
ATOM     39  C   UNL A   1      43.444  28.005  33.395  1.00  0.00     0.037 A 
BRANCH  26  40
ATOM     40  C   UNL A   1      39.282  32.087  35.522  1.00  0.00     0.064 A 
ATOM     41  C   UNL A   1      39.675  33.425  35.673  1.00  0.00     0.173 A 
ATOM     42  C   UNL A   1      38.433  31.539  36.496  1.00  0.00     0.173 A 
ATOM     43  F   UNL A   1      40.520  33.984  34.793  1.00  0.00    -0.203 F 
ATOM     44  C   UNL A   1      39.260  34.172  36.774  1.00  0.00     0.198 A 
ATOM     45  C   UNL A   1      38.001  32.296  37.581  1.00  0.00     0.198 A 
ATOM     46  F   UNL A   1      38.043  30.258  36.407  1.00  0.00    -0.203 F 
ATOM     47  F   UNL A   1      39.700  35.429  36.935  1.00  0.00    -0.200 F 
ATOM     48  C   UNL A   1      38.421  33.608  37.725  1.00  0.00     0.200 A 
ATOM     49  F   UNL A   1      37.196  31.745  38.500  1.00  0.00    -0.200 F 
ATOM     50  F   UNL A   1      38.038  34.323  38.792  1.00  0.00    -0.200 F 
ENDBRANCH  26  40
BRANCH  27  51
ATOM     51  C   UNL A   1      42.113  26.377  27.691  1.00  0.00     0.064 A 
ATOM     52  C   UNL A   1      41.484  25.144  27.474  1.00  0.00     0.173 A 
ATOM     53  C   UNL A   1      43.135  26.745  26.800  1.00  0.00     0.173 A 
ATOM     54  F   UNL A   1      40.516  24.730  28.305  1.00  0.00    -0.203 F 
ATOM     55  C   UNL A   1      41.871  24.309  26.425  1.00  0.00     0.198 A 
ATOM     56  C   UNL A   1      43.500  25.927  25.733  1.00  0.00     0.198 A 
ATOM     57  F   UNL A   1      43.781  27.910  26.961  1.00  0.00    -0.203 F 
ATOM     58  F   UNL A   1      41.286  23.115  26.270  1.00  0.00    -0.200 F 
ATOM     59  C   UNL A   1      42.874  24.706  25.551  1.00  0.00     0.200 A 
ATOM     60  F   UNL A   1      44.460  26.322  24.886  1.00  0.00    -0.200 F 
ATOM     61  F   UNL A   1      43.244  23.904  24.542  1.00  0.00    -0.200 F 
ENDBRANCH  27  51
BRANCH  39  62
ATOM     62  C   UNL A   1      44.612  27.411  34.120  1.00  0.00     0.064 A 
ATOM     63  C   UNL A   1      44.483  26.244  34.885  1.00  0.00     0.173 A 
ATOM     64  C   UNL A   1      45.880  27.998  34.010  1.00  0.00     0.173 A 
ATOM     65  F   UNL A   1      43.284  25.660  35.028  1.00  0.00    -0.203 F 
ATOM     66  C   UNL A   1      45.582  25.698  35.537  1.00  0.00     0.198 A 
ATOM     67  C   UNL A   1      46.983  27.432  34.639  1.00  0.00     0.198 A 
ATOM     68  F   UNL A   1      46.050  29.112  33.282  1.00  0.00    -0.203 F 
ATOM     69  F   UNL A   1      45.431  24.608  36.302  1.00  0.00    -0.200 F 
ATOM     70  C   UNL A   1      46.832  26.288  35.408  1.00  0.00     0.200 A 
ATOM     71  F   UNL A   1      48.192  27.995  34.502  1.00  0.00    -0.200 F 
ATOM     72  F   UNL A   1      47.891  25.755  36.032  1.00  0.00    -0.200 F 
ENDBRANCH  39  62
ENDBRANCH  13  14
ENDBRANCH   6   8
ENDBRANCH   5   6
ENDBRANCH   4   5
ENDBRANCH   3   4
ENDBRANCH   2   3
ENDBRANCH   1   2
BRANCH   1  73
ATOM     73  C   UNL A   1      31.868  26.218  26.612  1.00  0.00     0.261 C 
BRANCH  73  74
ATOM     74  O   UNL A   1      32.669  25.045  26.389  1.00  0.00    -0.462 OA
BRANCH  74  75
ATOM     75  C   UNL A   1      32.001  23.870  26.417  1.00  0.00     0.328 C 
ATOM     76  O   UNL A   1      31.552  23.354  27.438  1.00  0.00    -0.250 OA
BRANCH  75  77
ATOM     77  C   UNL A   1      31.841  23.247  25.023  1.00  0.00     0.194 C 
BRANCH  77  78
ATOM     78  C   UNL A   1      30.708  23.714  24.073  1.00  0.00     0.072 C 
BRANCH  78  79
ATOM     79  C   UNL A   1      30.539  25.114  23.523  1.00  0.00    -0.045 A 
ATOM     80  C   UNL A   1      29.565  26.033  23.925  1.00  0.00     0.007 A 
ATOM     81  C   UNL A   1      31.495  25.545  22.581  1.00  0.00     0.007 A 
ATOM     82  C   UNL A   1      29.493  27.309  23.346  1.00  0.00     0.046 A 
ATOM     83  C   UNL A   1      31.454  26.828  22.034  1.00  0.00     0.046 A 
ATOM     84  C   UNL A   1      30.442  27.697  22.410  1.00  0.00     0.115 A 
BRANCH  84  85
ATOM     85  O   UNL A   1      30.426  28.936  21.845  1.00  0.00    -0.508 OA
ATOM     86  H   UNL A   1      31.227  29.333  21.563  1.00  0.00     0.293 HD
ENDBRANCH  84  85
ENDBRANCH  78  79
ENDBRANCH  77  78
BRANCH  77  87
ATOM     87  N   UNL A   1      33.098  23.216  24.276  1.00  0.00    -0.371 N 
ATOM     88  H   UNL A   1      33.280  23.888  23.581  1.00  0.00     0.161 HD
BRANCH  87  89
ATOM     89  C   UNL A   1      34.042  22.216  24.564  1.00  0.00     0.054 A 
ATOM     90  C   UNL A   1      35.346  22.533  25.056  1.00  0.00     0.024 A 
ATOM     91  C   UNL A   1      33.702  20.863  24.296  1.00  0.00     0.024 A 
ATOM     92  C   UNL A   1      35.833  23.845  25.313  1.00  0.00     0.012 A 
ATOM     93  C   UNL A   1      36.206  21.453  25.324  1.00  0.00     0.073 A 
ATOM     94  C   UNL A   1      34.637  19.881  24.662  1.00  0.00     0.073 A 
ATOM     95  C   UNL A   1      32.496  20.455  23.667  1.00  0.00     0.012 A 
ATOM     96  C   UNL A   1      37.143  24.085  25.721  1.00  0.00     0.001 A 
ATOM     97  C   UNL A   1      37.496  21.712  25.774  1.00  0.00     0.029 A 
ATOM     98  N   UNL A   1      35.843  20.173  25.168  1.00  0.00    -0.248 NA
ATOM     99  C   UNL A   1      34.308  18.545  24.476  1.00  0.00     0.029 A 
ATOM    100  C   UNL A   1      32.205  19.110  23.458  1.00  0.00     0.001 A 
ATOM    101  C   UNL A   1      37.981  23.010  25.953  1.00  0.00     0.002 A 
ATOM    102  C   UNL A   1      33.106  18.149  23.886  1.00  0.00     0.002 A 
ENDBRANCH  87  89
ENDBRANCH  77  87
ENDBRANCH  75  77
ENDBRANCH  74  75
ENDBRANCH  73  74
ENDBRANCH   1  73
TORSDOF 19
ENDMDL
MODEL 3
REMARK VINA RESULT:     -12.8      0.244      2.620
REMARK SMILES O=C(OCCOCCOC(=O)[C@@H](Cc1ccc(O)cc1)Nc1c2ccccc2nc2ccccc12)c1ccc(-c2c3nc(c(-c4c(F)c(F)c(F)c(F)c4F)c4ccc([nH]4)c(-c4c(F)c(F)c(F)c(F)c4F)c4nc(c(-c5c(F)c(F)c(F)c(F)c5F)c5ccc2[nH]5)C=C4)C=C3)cc1
REMARK SMILES IDX 7 1 6 2 5 3 4 4 3 5 2 6 1 7 36 8 37 9 98 10 38 11 97 12
REMARK SMILES IDX 39 13 40 14 41 15 91 16 42 17 96 18 90 19 92 20 43 21 95 22
REMARK SMILES IDX 89 23 88 24 44 26 76 27 56 28 75 29 57 30 60 31 74 32 93 33
REMARK SMILES IDX 58 34 59 35 73 37 94 38 61 39 45 40 46 41 54 42 47 43 48 44
REMARK SMILES IDX 52 45 55 46 49 47 50 48 53 49 51 50 77 51 78 52 86 53 79 54
REMARK SMILES IDX 80 55 84 56 87 57 81 58 82 59 85 60 83 61 62 62 63 63 71 64
REMARK SMILES IDX 64 65 65 66 69 67 72 68 66 69 67 70 70 71 68 72 8 73 9 74
REMARK SMILES IDX 10 75 11 76 12 77 13 78 14 79 15 80 20 81 16 82 19 83 17 84
REMARK SMILES IDX 18 85 21 87 22 89 23 90 35 91 24 92 28 93 30 94 34 95 25 96
REMARK SMILES IDX 27 97 29 98 31 99 33 100 26 101 32 102
REMARK H PARENT 92 25 60 36 18 86 21 88
REMARK Flexibility Score: inf
ROOT
ATOM      1  C   UNL A   1      33.332  27.488  26.109  1.00  0.00     0.202 C 
ENDROOT
BRANCH   1   2
ATOM      2  O   UNL A   1      32.675  28.344  25.168  1.00  0.00    -0.374 OA
BRANCH   2   3
ATOM      3  C   UNL A   1      31.653  29.196  25.690  1.00  0.00     0.202 C 
BRANCH   3   4
ATOM      4  C   UNL A   1      32.023  30.669  25.930  1.00  0.00     0.261 C 
BRANCH   4   5
ATOM      5  O   UNL A   1      32.548  30.885  27.250  1.00  0.00    -0.460 OA
BRANCH   5   6
ATOM      6  C   UNL A   1      33.501  31.771  27.629  1.00  0.00     0.338 C 
ATOM      7  O   UNL A   1      33.246  32.973  27.574  1.00  0.00    -0.246 OA
BRANCH   6   8
ATOM      8  C   UNL A   1      34.864  31.368  28.098  1.00  0.00     0.060 A 
ATOM      9  C   UNL A   1      35.226  30.075  28.464  1.00  0.00     0.016 A 
ATOM     10  C   UNL A   1      35.870  32.350  28.117  1.00  0.00     0.016 A 
ATOM     11  C   UNL A   1      36.500  29.748  28.858  1.00  0.00     0.010 A 
ATOM     12  C   UNL A   1      37.176  32.036  28.515  1.00  0.00     0.010 A 
ATOM     13  C   UNL A   1      37.478  30.728  28.899  1.00  0.00    -0.014 A 
BRANCH  13  14
ATOM     14  C   UNL A   1      38.720  30.309  29.556  1.00  0.00     0.031 A 
ATOM     15  C   UNL A   1      38.901  30.703  30.987  1.00  0.00     0.074 A 
ATOM     16  C   UNL A   1      39.457  29.346  28.974  1.00  0.00     0.049 A 
ATOM     17  N   UNL A   1      39.834  30.357  31.829  1.00  0.00    -0.248 NA
ATOM     18  C   UNL A   1      37.858  31.572  31.563  1.00  0.00     0.031 C 
ATOM     19  C   UNL A   1      39.181  28.758  27.659  1.00  0.00     0.029 A 
ATOM     20  N   UNL A   1      40.521  28.630  29.444  1.00  0.00    -0.354 N 
ATOM     21  C   UNL A   1      39.512  30.994  33.018  1.00  0.00     0.074 A 
ATOM     22  C   UNL A   1      38.286  31.726  32.805  1.00  0.00     0.031 C 
ATOM     23  C   UNL A   1      40.030  27.740  27.448  1.00  0.00     0.029 A 
ATOM     24  C   UNL A   1      40.950  27.657  28.576  1.00  0.00     0.049 A 
ATOM     25  H   UNL A   1      40.939  28.796  30.319  1.00  0.00     0.167 HD
ATOM     26  C   UNL A   1      40.205  30.976  34.178  1.00  0.00     0.037 A 
ATOM     27  C   UNL A   1      41.994  26.816  28.686  1.00  0.00     0.037 A 
ATOM     28  C   UNL A   1      41.420  30.228  34.344  1.00  0.00     0.049 A 
ATOM     29  C   UNL A   1      42.818  26.904  29.942  1.00  0.00     0.074 A 
ATOM     30  C   UNL A   1      42.293  30.210  35.414  1.00  0.00     0.029 A 
ATOM     31  N   UNL A   1      41.928  29.353  33.391  1.00  0.00    -0.354 N 
ATOM     32  N   UNL A   1      42.599  27.613  31.026  1.00  0.00    -0.248 NA
ATOM     33  C   UNL A   1      44.045  26.103  29.985  1.00  0.00     0.031 C 
ATOM     34  C   UNL A   1      43.352  29.355  35.089  1.00  0.00     0.029 A 
ATOM     35  C   UNL A   1      43.112  28.799  33.840  1.00  0.00     0.049 A 
ATOM     36  H   UNL A   1      41.505  29.155  32.524  1.00  0.00     0.167 HD
ATOM     37  C   UNL A   1      43.649  27.336  31.885  1.00  0.00     0.074 A 
ATOM     38  C   UNL A   1      44.494  26.373  31.202  1.00  0.00     0.031 C 
ATOM     39  C   UNL A   1      43.906  27.834  33.121  1.00  0.00     0.037 A 
BRANCH  26  40
ATOM     40  C   UNL A   1      39.719  31.879  35.270  1.00  0.00     0.064 A 
ATOM     41  C   UNL A   1      38.769  31.470  36.217  1.00  0.00     0.173 A 
ATOM     42  C   UNL A   1      40.165  33.208  35.319  1.00  0.00     0.173 A 
ATOM     43  F   UNL A   1      38.280  30.220  36.187  1.00  0.00    -0.203 F 
ATOM     44  C   UNL A   1      38.262  32.368  37.155  1.00  0.00     0.198 A 
ATOM     45  C   UNL A   1      39.674  34.096  36.272  1.00  0.00     0.198 A 
ATOM     46  F   UNL A   1      41.059  33.654  34.423  1.00  0.00    -0.203 F 
ATOM     47  F   UNL A   1      37.307  31.974  38.009  1.00  0.00    -0.200 F 
ATOM     48  C   UNL A   1      38.717  33.678  37.184  1.00  0.00     0.200 A 
ATOM     49  F   UNL A   1      40.112  35.362  36.293  1.00  0.00    -0.200 F 
ATOM     50  F   UNL A   1      38.216  34.544  38.075  1.00  0.00    -0.200 F 
ENDBRANCH  26  40
BRANCH  27  51
ATOM     51  C   UNL A   1      42.346  25.893  27.574  1.00  0.00     0.064 A 
ATOM     52  C   UNL A   1      41.741  24.637  27.440  1.00  0.00     0.173 A 
ATOM     53  C   UNL A   1      43.319  26.245  26.623  1.00  0.00     0.173 A 
ATOM     54  F   UNL A   1      40.822  24.237  28.332  1.00  0.00    -0.203 F 
ATOM     55  C   UNL A   1      42.104  23.765  26.412  1.00  0.00     0.198 A 
ATOM     56  C   UNL A   1      43.657  25.389  25.577  1.00  0.00     0.198 A 
ATOM     57  F   UNL A   1      43.940  27.432  26.703  1.00  0.00    -0.203 F 
ATOM     58  F   UNL A   1      41.543  22.551  26.337  1.00  0.00    -0.200 F 
ATOM     59  C   UNL A   1      43.056  24.146  25.478  1.00  0.00     0.200 A 
ATOM     60  F   UNL A   1      44.568  25.769  24.671  1.00  0.00    -0.200 F 
ATOM     61  F   UNL A   1      43.402  23.309  24.489  1.00  0.00    -0.200 F 
ENDBRANCH  27  51
BRANCH  39  62
ATOM     62  C   UNL A   1      45.128  27.312  33.811  1.00  0.00     0.064 A 
ATOM     63  C   UNL A   1      46.366  27.958  33.698  1.00  0.00     0.173 A 
ATOM     64  C   UNL A   1      45.042  26.176  34.628  1.00  0.00     0.173 A 
ATOM     65  F   UNL A   1      46.494  29.040  32.915  1.00  0.00    -0.203 F 
ATOM     66  C   UNL A   1      47.486  27.468  34.360  1.00  0.00     0.198 A 
ATOM     67  C   UNL A   1      46.158  25.706  35.312  1.00  0.00     0.198 A 
ATOM     68  F   UNL A   1      43.875  25.531  34.770  1.00  0.00    -0.203 F 
ATOM     69  F   UNL A   1      48.672  28.071  34.203  1.00  0.00    -0.200 F 
ATOM     70  C   UNL A   1      47.379  26.347  35.172  1.00  0.00     0.200 A 
ATOM     71  F   UNL A   1      46.050  24.632  36.107  1.00  0.00    -0.200 F 
ATOM     72  F   UNL A   1      48.458  25.881  35.815  1.00  0.00    -0.200 F 
ENDBRANCH  39  62
ENDBRANCH  13  14
ENDBRANCH   6   8
ENDBRANCH   5   6
ENDBRANCH   4   5
ENDBRANCH   3   4
ENDBRANCH   2   3
ENDBRANCH   1   2
BRANCH   1  73
ATOM     73  C   UNL A   1      32.423  26.322  26.503  1.00  0.00     0.261 C 
BRANCH  73  74
ATOM     74  O   UNL A   1      33.063  25.091  26.125  1.00  0.00    -0.462 OA
BRANCH  74  75
ATOM     75  C   UNL A   1      32.318  23.974  26.285  1.00  0.00     0.328 C 
ATOM     76  O   UNL A   1      31.880  23.584  27.365  1.00  0.00    -0.250 OA
BRANCH  75  77
ATOM     77  C   UNL A   1      32.055  23.243  24.961  1.00  0.00     0.194 C 
BRANCH  77  78
ATOM     78  C   UNL A   1      30.894  23.682  24.033  1.00  0.00     0.072 C 
BRANCH  78  79
ATOM     79  C   UNL A   1      30.665  25.082  23.507  1.00  0.00    -0.045 A 
ATOM     80  C   UNL A   1      29.708  25.984  23.983  1.00  0.00     0.007 A 
ATOM     81  C   UNL A   1      31.544  25.533  22.501  1.00  0.00     0.007 A 
ATOM     82  C   UNL A   1      29.575  27.261  23.421  1.00  0.00     0.046 A 
ATOM     83  C   UNL A   1      31.444  26.820  21.968  1.00  0.00     0.046 A 
ATOM     84  C   UNL A   1      30.449  27.670  22.422  1.00  0.00     0.115 A 
BRANCH  84  85
ATOM     85  O   UNL A   1      30.374  28.913  21.868  1.00  0.00    -0.508 OA
ATOM     86  H   UNL A   1      31.026  29.555  22.070  1.00  0.00     0.293 HD
ENDBRANCH  84  85
ENDBRANCH  78  79
ENDBRANCH  77  78
BRANCH  77  87
ATOM     87  N   UNL A   1      33.267  23.090  24.156  1.00  0.00    -0.371 N 
ATOM     88  H   UNL A   1      33.447  23.701  23.405  1.00  0.00     0.161 HD
BRANCH  87  89
ATOM     89  C   UNL A   1      34.172  22.062  24.469  1.00  0.00     0.054 A 
ATOM     90  C   UNL A   1      35.491  22.341  24.945  1.00  0.00     0.024 A 
ATOM     91  C   UNL A   1      33.777  20.717  24.241  1.00  0.00     0.024 A 
ATOM     92  C   UNL A   1      36.031  23.639  25.160  1.00  0.00     0.012 A 
ATOM     93  C   UNL A   1      36.309  21.236  25.240  1.00  0.00     0.073 A 
ATOM     94  C   UNL A   1      34.674  19.709  24.632  1.00  0.00     0.073 A 
ATOM     95  C   UNL A   1      32.552  20.340  23.631  1.00  0.00     0.012 A 
ATOM     96  C   UNL A   1      37.353  23.838  25.555  1.00  0.00     0.001 A 
ATOM     97  C   UNL A   1      37.611  21.456  25.676  1.00  0.00     0.029 A 
ATOM     98  N   UNL A   1      35.894  19.967  25.123  1.00  0.00    -0.248 NA
ATOM     99  C   UNL A   1      34.291  18.382  24.487  1.00  0.00     0.029 A 
ATOM    100  C   UNL A   1      32.205  19.001  23.463  1.00  0.00     0.001 A 
ATOM    101  C   UNL A   1      38.148  22.738  25.815  1.00  0.00     0.002 A 
ATOM    102  C   UNL A   1      33.071  18.018  23.914  1.00  0.00     0.002 A 
ENDBRANCH  87  89
ENDBRANCH  77  87
ENDBRANCH  75  77
ENDBRANCH  74  75
ENDBRANCH  73  74
ENDBRANCH   1  73
TORSDOF 19
ENDMDL
