MODEL 1
REMARK VINA RESULT:     -12.0      0.000      0.000
REMARK SMILES C[C@@H]1CN(C(=O)Nc2ccc(O)c(C(=O)OCCOCCOC(=O)c3ccc(-c4c5nc(c(-c6c(F)c(F)c(F)c(F)c6F)c6ccc([nH]6)c(-c6c(F)c(F)c(F)c(F)c6F)c6nc(c(-c7c(F)c(F)c(F)c(F)c7F)c7ccc4[nH]7)C=C6)C=C5)cc3)c2)C[C@H]1C
REMARK SMILES IDX 20 1 19 2 18 3 17 4 16 5 14 6 15 7 13 8 8 9 9 10 88 11 10 12
REMARK SMILES IDX 11 13 7 14 1 15 2 16 3 17 90 18 4 19 89 20 91 21 5 22 6 23
REMARK SMILES IDX 12 25 21 27 22 28 23 29 24 30 25 31 26 32 87 33 27 34 86 35
REMARK SMILES IDX 28 36 29 37 30 38 80 39 31 40 85 41 79 42 81 43 32 44 84 45
REMARK SMILES IDX 78 46 77 47 33 49 65 50 45 51 64 52 46 53 49 54 63 55 82 56
REMARK SMILES IDX 47 57 48 58 62 60 83 61 50 62 34 63 35 64 43 65 36 66 37 67
REMARK SMILES IDX 41 68 44 69 38 70 39 71 42 72 40 73 66 74 67 75 75 76 68 77
REMARK SMILES IDX 69 78 73 79 76 80 70 81 71 82 74 83 72 84 51 85 52 86 60 87
REMARK SMILES IDX 53 88 54 89 58 90 61 91 55 92 56 93 59 94 57 95
REMARK H PARENT 7 24 12 26 81 48 49 59
REMARK Flexibility Score: inf
ROOT
ATOM      1  C   UNL A   1      30.837  31.350  25.412  1.00  0.00     0.202 C 
ENDROOT
BRANCH   1   2
ATOM      2  O   UNL A   1      31.047  30.028  24.914  1.00  0.00    -0.374 OA
BRANCH   2   3
ATOM      3  C   UNL A   1      30.354  29.658  23.718  1.00  0.00     0.202 C 
BRANCH   3   4
ATOM      4  C   UNL A   1      31.123  28.739  22.767  1.00  0.00     0.261 C 
BRANCH   4   5
ATOM      5  O   UNL A   1      32.474  29.207  22.660  1.00  0.00    -0.460 OA
BRANCH   5   6
ATOM      6  C   UNL A   1      33.420  28.255  22.520  1.00  0.00     0.342 C 
ATOM      7  O   UNL A   1      34.250  28.177  21.626  1.00  0.00    -0.246 OA
BRANCH   6   8
ATOM      8  C   UNL A   1      33.483  27.428  23.745  1.00  0.00     0.103 A 
ATOM      9  C   UNL A   1      33.292  25.207  24.669  1.00  0.00     0.044 A 
ATOM     10  C   UNL A   1      33.551  25.705  25.945  1.00  0.00     0.030 A 
ATOM     11  C   UNL A   1      33.338  26.045  23.561  1.00  0.00     0.045 A 
ATOM     12  C   UNL A   1      33.734  27.077  26.132  1.00  0.00     0.049 A 
ATOM     13  C   UNL A   1      33.661  27.942  25.037  1.00  0.00     0.130 A 
BRANCH   9  14
ATOM     14  N   UNL A   1      32.903  23.882  24.484  1.00  0.00    -0.308 N 
ATOM     15  C   UNL A   1      38.120  24.080  26.146  1.00  0.00     0.010 C 
ATOM     16  C   UNL A   1      37.280  23.297  25.149  1.00  0.00     0.010 C 
ATOM     17  C   UNL A   1      35.881  23.881  25.000  1.00  0.00     0.125 C 
ATOM     18  C   UNL A   1      36.983  21.849  25.549  1.00  0.00     0.010 C 
ATOM     19  N   UNL A   1      35.017  22.776  24.611  1.00  0.00    -0.324 N 
ATOM     20  C   UNL A   1      35.754  21.521  24.693  1.00  0.00     0.125 C 
ATOM     21  C   UNL A   1      38.153  20.912  25.314  1.00  0.00     0.010 C 
ATOM     22  C   UNL A   1      33.667  22.756  24.373  1.00  0.00     0.321 C 
ATOM     23  O   UNL A   1      33.069  21.699  24.146  1.00  0.00    -0.248 OA
ATOM     24  H   UNL A   1      31.931  23.736  24.424  1.00  0.00     0.171 HD
ENDBRANCH   9  14
BRANCH  13  25
ATOM     25  O   UNL A   1      33.721  29.290  25.248  1.00  0.00    -0.507 OA
ATOM     26  H   UNL A   1      33.003  29.731  25.658  1.00  0.00     0.293 HD
ENDBRANCH  13  25
ENDBRANCH   6   8
ENDBRANCH   5   6
ENDBRANCH   4   5
ENDBRANCH   3   4
ENDBRANCH   2   3
ENDBRANCH   1   2
BRANCH   1  27
ATOM     27  C   UNL A   1      31.364  31.634  26.822  1.00  0.00     0.261 C 
BRANCH  27  28
ATOM     28  O   UNL A   1      32.752  31.285  26.972  1.00  0.00    -0.460 OA
BRANCH  28  29
ATOM     29  C   UNL A   1      33.499  32.213  27.609  1.00  0.00     0.338 C 
ATOM     30  O   UNL A   1      33.140  33.317  27.999  1.00  0.00    -0.246 OA
BRANCH  29  31
ATOM     31  C   UNL A   1      34.829  31.668  27.934  1.00  0.00     0.060 A 
ATOM     32  C   UNL A   1      34.914  30.296  28.199  1.00  0.00     0.016 A 
ATOM     33  C   UNL A   1      35.950  32.490  28.075  1.00  0.00     0.016 A 
ATOM     34  C   UNL A   1      36.105  29.748  28.669  1.00  0.00     0.010 A 
ATOM     35  C   UNL A   1      37.145  31.939  28.554  1.00  0.00     0.010 A 
ATOM     36  C   UNL A   1      37.214  30.575  28.893  1.00  0.00    -0.014 A 
BRANCH  36  37
ATOM     37  C   UNL A   1      38.373  30.040  29.649  1.00  0.00     0.031 A 
ATOM     38  C   UNL A   1      38.615  30.535  31.049  1.00  0.00     0.074 A 
ATOM     39  C   UNL A   1      39.163  29.088  29.123  1.00  0.00     0.049 A 
ATOM     40  N   UNL A   1      39.571  30.225  31.889  1.00  0.00    -0.248 NA
ATOM     41  C   UNL A   1      37.647  31.511  31.575  1.00  0.00     0.031 C 
ATOM     42  C   UNL A   1      39.003  28.495  27.797  1.00  0.00     0.029 A 
ATOM     43  N   UNL A   1      40.262  28.454  29.646  1.00  0.00    -0.354 N 
ATOM     44  C   UNL A   1      39.313  30.959  33.040  1.00  0.00     0.074 A 
ATOM     45  C   UNL A   1      38.139  31.762  32.779  1.00  0.00     0.031 C 
ATOM     46  C   UNL A   1      39.980  27.589  27.606  1.00  0.00     0.029 A 
ATOM     47  C   UNL A   1      40.844  27.558  28.783  1.00  0.00     0.049 A 
ATOM     48  H   UNL A   1      40.602  28.626  30.554  1.00  0.00     0.167 HD
ATOM     49  C   UNL A   1      39.986  30.952  34.215  1.00  0.00     0.037 A 
ATOM     50  C   UNL A   1      41.958  26.814  28.927  1.00  0.00     0.037 A 
ATOM     51  C   UNL A   1      41.159  30.160  34.475  1.00  0.00     0.049 A 
ATOM     52  C   UNL A   1      42.730  26.880  30.220  1.00  0.00     0.074 A 
ATOM     53  C   UNL A   1      41.932  30.108  35.622  1.00  0.00     0.029 A 
ATOM     54  N   UNL A   1      41.724  29.274  33.571  1.00  0.00    -0.354 N 
ATOM     55  N   UNL A   1      42.479  27.577  31.303  1.00  0.00    -0.248 NA
ATOM     56  C   UNL A   1      43.936  26.044  30.316  1.00  0.00     0.031 C 
ATOM     57  C   UNL A   1      42.986  29.216  35.399  1.00  0.00     0.029 A 
ATOM     58  C   UNL A   1      42.840  28.675  34.132  1.00  0.00     0.049 A 
ATOM     59  H   UNL A   1      41.384  29.098  32.664  1.00  0.00     0.167 HD
ATOM     60  C   UNL A   1      43.468  27.234  32.216  1.00  0.00     0.074 A 
ATOM     61  C   UNL A   1      44.318  26.260  31.566  1.00  0.00     0.031 C 
ATOM     62  C   UNL A   1      43.657  27.685  33.481  1.00  0.00     0.037 A 
BRANCH  49  63
ATOM     63  C   UNL A   1      39.469  31.834  35.313  1.00  0.00     0.064 A 
ATOM     64  C   UNL A   1      38.593  31.344  36.294  1.00  0.00     0.173 A 
ATOM     65  C   UNL A   1      39.886  33.169  35.413  1.00  0.00     0.173 A 
ATOM     66  F   UNL A   1      38.153  30.078  36.233  1.00  0.00    -0.203 F 
ATOM     67  C   UNL A   1      38.140  32.163  37.323  1.00  0.00     0.198 A 
ATOM     68  C   UNL A   1      39.452  33.979  36.460  1.00  0.00     0.198 A 
ATOM     69  F   UNL A   1      40.725  33.686  34.502  1.00  0.00    -0.203 F 
ATOM     70  F   UNL A   1      37.274  31.685  38.227  1.00  0.00    -0.200 F 
ATOM     71  C   UNL A   1      38.576  33.477  37.410  1.00  0.00     0.200 A 
ATOM     72  F   UNL A   1      39.882  35.245  36.548  1.00  0.00    -0.200 F 
ATOM     73  F   UNL A   1      38.147  34.262  38.408  1.00  0.00    -0.200 F 
ENDBRANCH  49  63
BRANCH  50  74
ATOM     74  C   UNL A   1      42.429  25.948  27.813  1.00  0.00     0.064 A 
ATOM     75  C   UNL A   1      43.435  26.376  26.936  1.00  0.00     0.173 A 
ATOM     76  C   UNL A   1      41.843  24.697  27.573  1.00  0.00     0.173 A 
ATOM     77  F   UNL A   1      44.008  27.577  27.108  1.00  0.00    -0.203 F 
ATOM     78  C   UNL A   1      43.814  25.601  25.842  1.00  0.00     0.198 A 
ATOM     79  C   UNL A   1      42.245  23.908  26.497  1.00  0.00     0.198 A 
ATOM     80  F   UNL A   1      40.876  24.241  28.381  1.00  0.00    -0.203 F 
ATOM     81  F   UNL A   1      44.732  26.062  24.982  1.00  0.00    -0.200 F 
ATOM     82  C   UNL A   1      43.221  24.365  25.625  1.00  0.00     0.200 A 
ATOM     83  F   UNL A   1      41.676  22.712  26.298  1.00  0.00    -0.200 F 
ATOM     84  F   UNL A   1      43.579  23.624  24.568  1.00  0.00    -0.200 F 
ENDBRANCH  50  74
BRANCH  62  85
ATOM     85  C   UNL A   1      44.786  27.085  34.267  1.00  0.00     0.064 A 
ATOM     86  C   UNL A   1      44.608  25.948  35.069  1.00  0.00     0.173 A 
ATOM     87  C   UNL A   1      46.073  27.640  34.189  1.00  0.00     0.173 A 
ATOM     88  F   UNL A   1      43.394  25.389  35.186  1.00  0.00    -0.203 F 
ATOM     89  C   UNL A   1      45.671  25.407  35.787  1.00  0.00     0.198 A 
ATOM     90  C   UNL A   1      47.139  27.078  34.886  1.00  0.00     0.198 A 
ATOM     91  F   UNL A   1      46.298  28.722  33.430  1.00  0.00    -0.203 F 
ATOM     92  F   UNL A   1      45.467  24.350  36.587  1.00  0.00    -0.200 F 
ATOM     93  C   UNL A   1      46.936  25.968  35.691  1.00  0.00     0.200 A 
ATOM     94  F   UNL A   1      48.363  27.613  34.781  1.00  0.00    -0.200 F 
ATOM     95  F   UNL A   1      47.958  25.442  36.381  1.00  0.00    -0.200 F 
ENDBRANCH  62  85
ENDBRANCH  36  37
ENDBRANCH  29  31
ENDBRANCH  28  29
ENDBRANCH  27  28
ENDBRANCH   1  27
TORSDOF 16
ENDMDL
MODEL 2
REMARK VINA RESULT:     -11.9      3.116      8.722
REMARK SMILES C[C@@H]1CN(C(=O)Nc2ccc(O)c(C(=O)OCCOCCOC(=O)c3ccc(-c4c5nc(c(-c6c(F)c(F)c(F)c(F)c6F)c6ccc([nH]6)c(-c6c(F)c(F)c(F)c(F)c6F)c6nc(c(-c7c(F)c(F)c(F)c(F)c7F)c7ccc4[nH]7)C=C6)C=C5)cc3)c2)C[C@H]1C
REMARK SMILES IDX 20 1 19 2 18 3 17 4 16 5 14 6 15 7 13 8 8 9 9 10 88 11 10 12
REMARK SMILES IDX 11 13 7 14 1 15 2 16 3 17 90 18 4 19 89 20 91 21 5 22 6 23
REMARK SMILES IDX 12 25 21 27 22 28 23 29 24 30 25 31 26 32 87 33 27 34 86 35
REMARK SMILES IDX 28 36 29 37 30 38 80 39 31 40 85 41 79 42 81 43 32 44 84 45
REMARK SMILES IDX 78 46 77 47 33 49 65 50 45 51 64 52 46 53 49 54 63 55 82 56
REMARK SMILES IDX 47 57 48 58 62 60 83 61 50 62 34 63 35 64 43 65 36 66 37 67
REMARK SMILES IDX 41 68 44 69 38 70 39 71 42 72 40 73 66 74 67 75 75 76 68 77
REMARK SMILES IDX 69 78 73 79 76 80 70 81 71 82 74 83 72 84 51 85 52 86 60 87
REMARK SMILES IDX 53 88 54 89 58 90 61 91 55 92 56 93 59 94 57 95
REMARK H PARENT 7 24 12 26 81 48 49 59
REMARK Flexibility Score: inf
ROOT
ATOM      1  C   UNL A   1      42.791  20.692  25.727  1.00  0.00     0.202 C 
ENDROOT
BRANCH   1   2
ATOM      2  O   UNL A   1      41.729  21.074  26.602  1.00  0.00    -0.374 OA
BRANCH   2   3
ATOM      3  C   UNL A   1      40.414  21.158  26.044  1.00  0.00     0.202 C 
BRANCH   3   4
ATOM      4  C   UNL A   1      39.484  22.183  26.695  1.00  0.00     0.261 C 
BRANCH   4   5
ATOM      5  O   UNL A   1      38.287  22.286  25.913  1.00  0.00    -0.460 OA
BRANCH   5   6
ATOM      6  C   UNL A   1      37.622  23.457  26.002  1.00  0.00     0.342 C 
ATOM      7  O   UNL A   1      38.048  24.504  26.469  1.00  0.00    -0.246 OA
BRANCH   6   8
ATOM      8  C   UNL A   1      36.364  23.380  25.227  1.00  0.00     0.103 A 
ATOM      9  C   UNL A   1      33.964  23.615  25.285  1.00  0.00     0.044 A 
ATOM     10  C   UNL A   1      33.888  23.276  23.935  1.00  0.00     0.030 A 
ATOM     11  C   UNL A   1      35.197  23.748  25.912  1.00  0.00     0.045 A 
ATOM     12  C   UNL A   1      35.051  22.943  23.235  1.00  0.00     0.049 A 
ATOM     13  C   UNL A   1      36.283  22.959  23.893  1.00  0.00     0.130 A 
BRANCH   9  14
ATOM     14  N   UNL A   1      32.810  23.748  26.054  1.00  0.00    -0.308 N 
ATOM     15  C   UNL A   1      33.808  28.417  23.366  1.00  0.00     0.010 C 
ATOM     16  C   UNL A   1      33.336  27.985  24.746  1.00  0.00     0.010 C 
ATOM     17  C   UNL A   1      33.475  26.483  24.952  1.00  0.00     0.125 C 
ATOM     18  C   UNL A   1      31.847  28.211  25.021  1.00  0.00     0.010 C 
ATOM     19  N   UNL A   1      32.454  26.107  25.920  1.00  0.00    -0.324 N 
ATOM     20  C   UNL A   1      31.580  27.244  26.180  1.00  0.00     0.125 C 
ATOM     21  C   UNL A   1      31.511  29.655  25.347  1.00  0.00     0.010 C 
ATOM     22  C   UNL A   1      32.138  24.875  26.431  1.00  0.00     0.321 C 
ATOM     23  O   UNL A   1      31.166  24.719  27.178  1.00  0.00    -0.248 OA
ATOM     24  H   UNL A   1      32.421  22.902  26.375  1.00  0.00     0.171 HD
ENDBRANCH   9  14
BRANCH  13  25
ATOM     25  O   UNL A   1      37.395  22.516  23.233  1.00  0.00    -0.507 OA
ATOM     26  H   UNL A   1      38.125  23.091  23.109  1.00  0.00     0.293 HD
ENDBRANCH  13  25
ENDBRANCH   6   8
ENDBRANCH   5   6
ENDBRANCH   4   5
ENDBRANCH   3   4
ENDBRANCH   2   3
ENDBRANCH   1   2
BRANCH   1  27
ATOM     27  C   UNL A   1      43.782  21.796  25.343  1.00  0.00     0.261 C 
BRANCH  27  28
ATOM     28  O   UNL A   1      43.129  22.950  24.783  1.00  0.00    -0.460 OA
BRANCH  28  29
ATOM     29  C   UNL A   1      43.803  24.111  24.947  1.00  0.00     0.338 C 
ATOM     30  O   UNL A   1      44.840  24.453  24.395  1.00  0.00    -0.246 OA
BRANCH  29  31
ATOM     31  C   UNL A   1      43.035  25.034  25.801  1.00  0.00     0.060 A 
ATOM     32  C   UNL A   1      43.538  26.331  25.960  1.00  0.00     0.016 A 
ATOM     33  C   UNL A   1      41.905  24.618  26.510  1.00  0.00     0.016 A 
ATOM     34  C   UNL A   1      42.952  27.199  26.878  1.00  0.00     0.010 A 
ATOM     35  C   UNL A   1      41.322  25.489  27.438  1.00  0.00     0.010 A 
ATOM     36  C   UNL A   1      41.869  26.767  27.656  1.00  0.00    -0.014 A 
BRANCH  36  37
ATOM     37  C   UNL A   1      41.437  27.589  28.812  1.00  0.00     0.031 A 
ATOM     38  C   UNL A   1      42.221  27.504  30.094  1.00  0.00     0.074 A 
ATOM     39  C   UNL A   1      40.401  28.440  28.709  1.00  0.00     0.049 A 
ATOM     40  N   UNL A   1      42.020  28.113  31.235  1.00  0.00    -0.248 NA
ATOM     41  C   UNL A   1      43.393  26.613  30.086  1.00  0.00     0.031 C 
ATOM     42  C   UNL A   1      39.593  28.646  27.509  1.00  0.00     0.029 A 
ATOM     43  N   UNL A   1      39.852  29.291  29.636  1.00  0.00    -0.354 N 
ATOM     44  C   UNL A   1      43.041  27.686  32.075  1.00  0.00     0.074 A 
ATOM     45  C   UNL A   1      43.836  26.735  31.329  1.00  0.00     0.031 C 
ATOM     46  C   UNL A   1      38.641  29.559  27.777  1.00  0.00     0.029 A 
ATOM     47  C   UNL A   1      38.758  29.979  29.172  1.00  0.00     0.049 A 
ATOM     48  H   UNL A   1      40.208  29.396  30.548  1.00  0.00     0.167 HD
ATOM     49  C   UNL A   1      43.303  28.066  33.348  1.00  0.00     0.037 A 
ATOM     50  C   UNL A   1      37.939  30.837  29.810  1.00  0.00     0.037 A 
ATOM     51  C   UNL A   1      42.510  29.005  34.095  1.00  0.00     0.049 A 
ATOM     52  C   UNL A   1      38.211  31.187  31.251  1.00  0.00     0.074 A 
ATOM     53  C   UNL A   1      42.673  29.430  35.403  1.00  0.00     0.029 A 
ATOM     54  N   UNL A   1      41.404  29.672  33.594  1.00  0.00    -0.354 N 
ATOM     55  N   UNL A   1      39.179  30.778  32.036  1.00  0.00    -0.248 NA
ATOM     56  C   UNL A   1      37.282  32.129  31.892  1.00  0.00     0.031 C 
ATOM     57  C   UNL A   1      41.645  30.328  35.702  1.00  0.00     0.029 A 
ATOM     58  C   UNL A   1      40.870  30.501  34.567  1.00  0.00     0.049 A 
ATOM     59  H   UNL A   1      41.048  29.571  32.680  1.00  0.00     0.167 HD
ATOM     60  C   UNL A   1      38.998  31.441  33.243  1.00  0.00     0.074 A 
ATOM     61  C   UNL A   1      37.834  32.286  33.086  1.00  0.00     0.031 C 
ATOM     62  C   UNL A   1      39.729  31.358  34.382  1.00  0.00     0.037 A 
BRANCH  49  63
ATOM     63  C   UNL A   1      44.500  27.458  34.019  1.00  0.00     0.064 A 
ATOM     64  C   UNL A   1      45.757  28.080  33.975  1.00  0.00     0.173 A 
ATOM     65  C   UNL A   1      44.382  26.266  34.748  1.00  0.00     0.173 A 
ATOM     66  F   UNL A   1      45.925  29.213  33.276  1.00  0.00    -0.203 F 
ATOM     67  C   UNL A   1      46.856  27.521  34.621  1.00  0.00     0.198 A 
ATOM     68  C   UNL A   1      45.476  25.724  35.417  1.00  0.00     0.198 A 
ATOM     69  F   UNL A   1      43.201  25.633  34.824  1.00  0.00    -0.203 F 
ATOM     70  F   UNL A   1      48.055  28.112  34.534  1.00  0.00    -0.200 F 
ATOM     71  C   UNL A   1      46.713  26.349  35.349  1.00  0.00     0.200 A 
ATOM     72  F   UNL A   1      45.335  24.597  36.127  1.00  0.00    -0.200 F 
ATOM     73  F   UNL A   1      47.769  25.817  35.980  1.00  0.00    -0.200 F 
ENDBRANCH  49  63
BRANCH  50  74
ATOM     74  C   UNL A   1      36.768  31.421  29.103  1.00  0.00     0.064 A 
ATOM     75  C   UNL A   1      36.728  32.780  28.765  1.00  0.00     0.173 A 
ATOM     76  C   UNL A   1      35.643  30.639  28.800  1.00  0.00     0.173 A 
ATOM     77  F   UNL A   1      37.768  33.575  29.057  1.00  0.00    -0.203 F 
ATOM     78  C   UNL A   1      35.595  33.343  28.181  1.00  0.00     0.198 A 
ATOM     79  C   UNL A   1      34.522  31.197  28.188  1.00  0.00     0.198 A 
ATOM     80  F   UNL A   1      35.629  29.334  29.104  1.00  0.00    -0.203 F 
ATOM     81  F   UNL A   1      35.557  34.659  27.927  1.00  0.00    -0.200 F 
ATOM     82  C   UNL A   1      34.494  32.551  27.890  1.00  0.00     0.200 A 
ATOM     83  F   UNL A   1      33.466  30.425  27.901  1.00  0.00    -0.200 F 
ATOM     84  F   UNL A   1      33.401  33.094  27.337  1.00  0.00    -0.200 F 
ENDBRANCH  50  74
BRANCH  62  85
ATOM     85  C   UNL A   1      39.332  32.247  35.524  1.00  0.00     0.064 A 
ATOM     86  C   UNL A   1      38.469  31.809  36.540  1.00  0.00     0.173 A 
ATOM     87  C   UNL A   1      39.852  33.548  35.619  1.00  0.00     0.173 A 
ATOM     88  F   UNL A   1      37.937  30.579  36.489  1.00  0.00    -0.203 F 
ATOM     89  C   UNL A   1      38.119  32.651  37.592  1.00  0.00     0.198 A 
ATOM     90  C   UNL A   1      39.521  34.376  36.687  1.00  0.00     0.198 A 
ATOM     91  F   UNL A   1      40.687  34.012  34.679  1.00  0.00    -0.203 F 
ATOM     92  F   UNL A   1      37.252  32.230  38.524  1.00  0.00    -0.200 F 
ATOM     93  C   UNL A   1      38.648  33.931  37.668  1.00  0.00     0.200 A 
ATOM     94  F   UNL A   1      40.045  35.608  36.767  1.00  0.00    -0.200 F 
ATOM     95  F   UNL A   1      38.311  34.738  38.684  1.00  0.00    -0.200 F 
ENDBRANCH  62  85
ENDBRANCH  36  37
ENDBRANCH  29  31
ENDBRANCH  28  29
ENDBRANCH  27  28
ENDBRANCH   1  27
TORSDOF 16
ENDMDL
MODEL 3
REMARK VINA RESULT:     -11.9      1.723      2.766
REMARK SMILES C[C@@H]1CN(C(=O)Nc2ccc(O)c(C(=O)OCCOCCOC(=O)c3ccc(-c4c5nc(c(-c6c(F)c(F)c(F)c(F)c6F)c6ccc([nH]6)c(-c6c(F)c(F)c(F)c(F)c6F)c6nc(c(-c7c(F)c(F)c(F)c(F)c7F)c7ccc4[nH]7)C=C6)C=C5)cc3)c2)C[C@H]1C
REMARK SMILES IDX 20 1 19 2 18 3 17 4 16 5 14 6 15 7 13 8 8 9 9 10 88 11 10 12
REMARK SMILES IDX 11 13 7 14 1 15 2 16 3 17 90 18 4 19 89 20 91 21 5 22 6 23
REMARK SMILES IDX 12 25 21 27 22 28 23 29 24 30 25 31 26 32 87 33 27 34 86 35
REMARK SMILES IDX 28 36 29 37 30 38 80 39 31 40 85 41 79 42 81 43 32 44 84 45
REMARK SMILES IDX 78 46 77 47 33 49 65 50 45 51 64 52 46 53 49 54 63 55 82 56
REMARK SMILES IDX 47 57 48 58 62 60 83 61 50 62 34 63 35 64 43 65 36 66 37 67
REMARK SMILES IDX 41 68 44 69 38 70 39 71 42 72 40 73 66 74 67 75 75 76 68 77
REMARK SMILES IDX 69 78 73 79 76 80 70 81 71 82 74 83 72 84 51 85 52 86 60 87
REMARK SMILES IDX 53 88 54 89 58 90 61 91 55 92 56 93 59 94 57 95
REMARK H PARENT 7 24 12 26 81 48 49 59
REMARK Flexibility Score: inf
ROOT
ATOM      1  C   UNL A   1      31.836  31.092  26.337  1.00  0.00     0.202 C 
ENDROOT
BRANCH   1   2
ATOM      2  O   UNL A   1      31.773  29.826  26.995  1.00  0.00    -0.374 OA
BRANCH   2   3
ATOM      3  C   UNL A   1      32.999  29.107  27.159  1.00  0.00     0.202 C 
BRANCH   3   4
ATOM      4  C   UNL A   1      33.886  29.023  25.916  1.00  0.00     0.261 C 
BRANCH   4   5
ATOM      5  O   UNL A   1      33.436  27.934  25.098  1.00  0.00    -0.460 OA
BRANCH   5   6
ATOM      6  C   UNL A   1      32.668  28.268  24.041  1.00  0.00     0.342 C 
ATOM      7  O   UNL A   1      33.022  28.888  23.048  1.00  0.00    -0.246 OA
BRANCH   6   8
ATOM      8  C   UNL A   1      31.367  27.567  24.124  1.00  0.00     0.103 A 
ATOM      9  C   UNL A   1      30.001  26.037  25.393  1.00  0.00     0.044 A 
ATOM     10  C   UNL A   1      28.980  26.151  24.449  1.00  0.00     0.030 A 
ATOM     11  C   UNL A   1      31.156  26.801  25.280  1.00  0.00     0.045 A 
ATOM     12  C   UNL A   1      29.169  26.941  23.313  1.00  0.00     0.049 A 
ATOM     13  C   UNL A   1      30.378  27.618  23.134  1.00  0.00     0.130 A 
BRANCH   9  14
ATOM     14  N   UNL A   1      29.921  25.101  26.421  1.00  0.00    -0.308 N 
ATOM     15  C   UNL A   1      33.079  23.170  22.381  1.00  0.00     0.010 C 
ATOM     16  C   UNL A   1      32.010  22.648  23.328  1.00  0.00     0.010 C 
ATOM     17  C   UNL A   1      31.337  23.772  24.105  1.00  0.00     0.125 C 
ATOM     18  C   UNL A   1      32.526  21.746  24.453  1.00  0.00     0.010 C 
ATOM     19  N   UNL A   1      30.882  23.189  25.358  1.00  0.00    -0.324 N 
ATOM     20  C   UNL A   1      31.394  21.830  25.483  1.00  0.00     0.125 C 
ATOM     21  C   UNL A   1      32.826  20.331  23.994  1.00  0.00     0.010 C 
ATOM     22  C   UNL A   1      30.240  23.773  26.419  1.00  0.00     0.321 C 
ATOM     23  O   UNL A   1      30.012  23.145  27.458  1.00  0.00    -0.248 OA
ATOM     24  H   UNL A   1      29.584  25.448  27.278  1.00  0.00     0.171 HD
ENDBRANCH   9  14
BRANCH  13  25
ATOM     25  O   UNL A   1      30.597  28.290  21.964  1.00  0.00    -0.507 OA
ATOM     26  H   UNL A   1      31.442  28.263  21.561  1.00  0.00     0.293 HD
ENDBRANCH  13  25
ENDBRANCH   6   8
ENDBRANCH   5   6
ENDBRANCH   4   5
ENDBRANCH   3   4
ENDBRANCH   2   3
ENDBRANCH   1   2
BRANCH   1  27
ATOM     27  C   UNL A   1      31.733  32.329  27.235  1.00  0.00     0.261 C 
BRANCH  27  28
ATOM     28  O   UNL A   1      32.796  33.270  26.997  1.00  0.00    -0.460 OA
BRANCH  28  29
ATOM     29  C   UNL A   1      33.381  33.752  28.116  1.00  0.00     0.338 C 
ATOM     30  O   UNL A   1      32.920  34.568  28.904  1.00  0.00    -0.246 OA
BRANCH  29  31
ATOM     31  C   UNL A   1      34.643  33.040  28.383  1.00  0.00     0.060 A 
ATOM     32  C   UNL A   1      34.558  31.683  28.718  1.00  0.00     0.016 A 
ATOM     33  C   UNL A   1      35.874  33.701  28.404  1.00  0.00     0.016 A 
ATOM     34  C   UNL A   1      35.693  30.996  29.139  1.00  0.00     0.010 A 
ATOM     35  C   UNL A   1      37.013  33.011  28.833  1.00  0.00     0.010 A 
ATOM     36  C   UNL A   1      36.919  31.668  29.243  1.00  0.00    -0.014 A 
BRANCH  36  37
ATOM     37  C   UNL A   1      38.046  31.010  29.950  1.00  0.00     0.031 A 
ATOM     38  C   UNL A   1      38.283  31.341  31.398  1.00  0.00     0.074 A 
ATOM     39  C   UNL A   1      38.809  30.092  29.332  1.00  0.00     0.049 A 
ATOM     40  N   UNL A   1      39.213  30.906  32.210  1.00  0.00    -0.248 NA
ATOM     41  C   UNL A   1      37.342  32.290  32.016  1.00  0.00     0.031 C 
ATOM     42  C   UNL A   1      38.649  29.653  27.948  1.00  0.00     0.029 A 
ATOM     43  N   UNL A   1      39.876  29.364  29.796  1.00  0.00    -0.354 N 
ATOM     44  C   UNL A   1      38.964  31.519  33.432  1.00  0.00     0.074 A 
ATOM     45  C   UNL A   1      37.824  32.390  33.246  1.00  0.00     0.031 C 
ATOM     46  C   UNL A   1      39.595  28.737  27.671  1.00  0.00     0.029 A 
ATOM     47  C   UNL A   1      40.439  28.546  28.848  1.00  0.00     0.049 A 
ATOM     48  H   UNL A   1      40.207  29.423  30.722  1.00  0.00     0.167 HD
ATOM     49  C   UNL A   1      39.617  31.359  34.607  1.00  0.00     0.037 A 
ATOM     50  C   UNL A   1      41.523  27.749  28.923  1.00  0.00     0.037 A 
ATOM     51  C   UNL A   1      40.756  30.500  34.793  1.00  0.00     0.049 A 
ATOM     52  C   UNL A   1      42.275  27.644  30.225  1.00  0.00     0.074 A 
ATOM     53  C   UNL A   1      41.509  30.295  35.937  1.00  0.00     0.029 A 
ATOM     54  N   UNL A   1      41.303  29.697  33.805  1.00  0.00    -0.354 N 
ATOM     55  N   UNL A   1      42.032  28.229  31.374  1.00  0.00    -0.248 NA
ATOM     56  C   UNL A   1      43.448  26.758  30.244  1.00  0.00     0.031 C 
ATOM     57  C   UNL A   1      42.532  29.393  35.630  1.00  0.00     0.029 A 
ATOM     58  C   UNL A   1      42.387  28.998  34.311  1.00  0.00     0.049 A 
ATOM     59  H   UNL A   1      40.971  29.633  32.880  1.00  0.00     0.167 HD
ATOM     60  C   UNL A   1      42.993  27.751  32.256  1.00  0.00     0.074 A 
ATOM     61  C   UNL A   1      43.818  26.822  31.515  1.00  0.00     0.031 C 
ATOM     62  C   UNL A   1      43.178  28.055  33.565  1.00  0.00     0.037 A 
BRANCH  49  63
ATOM     63  C   UNL A   1      39.115  32.136  35.789  1.00  0.00     0.064 A 
ATOM     64  C   UNL A   1      38.260  31.553  36.737  1.00  0.00     0.173 A 
ATOM     65  C   UNL A   1      39.525  33.460  36.000  1.00  0.00     0.173 A 
ATOM     66  F   UNL A   1      37.827  30.294  36.571  1.00  0.00    -0.203 F 
ATOM     67  C   UNL A   1      37.821  32.273  37.844  1.00  0.00     0.198 A 
ATOM     68  C   UNL A   1      39.105  34.169  37.122  1.00  0.00     0.198 A 
ATOM     69  F   UNL A   1      40.343  34.062  35.124  1.00  0.00    -0.203 F 
ATOM     70  F   UNL A   1      36.975  31.709  38.717  1.00  0.00    -0.200 F 
ATOM     71  C   UNL A   1      38.250  33.578  38.040  1.00  0.00     0.200 A 
ATOM     72  F   UNL A   1      39.528  35.426  37.315  1.00  0.00    -0.200 F 
ATOM     73  F   UNL A   1      37.834  34.267  39.112  1.00  0.00    -0.200 F 
ENDBRANCH  49  63
BRANCH  50  74
ATOM     74  C   UNL A   1      41.980  26.992  27.727  1.00  0.00     0.064 A 
ATOM     75  C   UNL A   1      41.542  25.682  27.486  1.00  0.00     0.173 A 
ATOM     76  C   UNL A   1      42.906  27.546  26.832  1.00  0.00     0.173 A 
ATOM     77  F   UNL A   1      40.677  25.099  28.328  1.00  0.00    -0.203 F 
ATOM     78  C   UNL A   1      42.039  24.944  26.413  1.00  0.00     0.198 A 
ATOM     79  C   UNL A   1      43.379  26.818  25.741  1.00  0.00     0.198 A 
ATOM     80  F   UNL A   1      43.358  28.794  27.017  1.00  0.00    -0.203 F 
ATOM     81  F   UNL A   1      41.653  23.672  26.242  1.00  0.00    -0.200 F 
ATOM     82  C   UNL A   1      42.955  25.513  25.540  1.00  0.00     0.200 A 
ATOM     83  F   UNL A   1      44.255  27.376  24.896  1.00  0.00    -0.200 F 
ATOM     84  F   UNL A   1      43.439  24.800  24.514  1.00  0.00    -0.200 F 
ENDBRANCH  50  74
BRANCH  62  85
ATOM     85  C   UNL A   1      44.272  27.331  34.294  1.00  0.00     0.064 A 
ATOM     86  C   UNL A   1      45.585  27.823  34.339  1.00  0.00     0.173 A 
ATOM     87  C   UNL A   1      43.992  26.142  34.986  1.00  0.00     0.173 A 
ATOM     88  F   UNL A   1      45.906  28.949  33.684  1.00  0.00    -0.203 F 
ATOM     89  C   UNL A   1      46.582  27.136  35.026  1.00  0.00     0.198 A 
ATOM     90  C   UNL A   1      44.986  25.474  35.695  1.00  0.00     0.198 A 
ATOM     91  F   UNL A   1      42.751  25.633  34.981  1.00  0.00    -0.203 F 
ATOM     92  F   UNL A   1      47.841  27.598  35.013  1.00  0.00    -0.200 F 
ATOM     93  C   UNL A   1      46.282  25.966  35.707  1.00  0.00     0.200 A 
ATOM     94  F   UNL A   1      44.691  24.351  36.364  1.00  0.00    -0.200 F 
ATOM     95  F   UNL A   1      47.244  25.308  36.369  1.00  0.00    -0.200 F 
ENDBRANCH  62  85
ENDBRANCH  36  37
ENDBRANCH  29  31
ENDBRANCH  28  29
ENDBRANCH  27  28
ENDBRANCH   1  27
TORSDOF 16
ENDMDL
