MODEL 1
REMARK VINA RESULT:      -9.6      0.000      0.000
REMARK SMILES Cn1ccnc1NCCOCC(=O)OCCOCCOC(=O)c1ccc(-c2c3nc(c(-c4c(F)c(F)c(F)c(F)c4F)c4ccc([nH]4)c(-c4c(F)c(F)c(F)c(F)c4F)c4nc(c(-c5c(F)c(F)c(F)c(F)c5F)c5ccc2[nH]5)C=C4)C=C3)cc1
REMARK SMILES IDX 15 1 14 2 12 3 13 4 11 5 10 6 9 7 8 8 7 9 6 11 1 12 2 13
REMARK SMILES IDX 3 14 4 15 5 16 16 17 17 18 18 19 19 20 20 21 21 22 22 23
REMARK SMILES IDX 23 24 24 25 85 26 25 27 84 28 26 29 27 30 28 31 78 32 29 33
REMARK SMILES IDX 83 34 77 35 79 36 30 37 82 38 76 39 75 40 31 42 63 43 43 44
REMARK SMILES IDX 62 45 44 46 47 47 61 48 80 49 45 50 46 51 60 53 81 54 48 55
REMARK SMILES IDX 32 56 33 57 41 58 34 59 35 60 39 61 42 62 36 63 37 64 40 65
REMARK SMILES IDX 38 66 64 67 65 68 73 69 66 70 67 71 71 72 74 73 68 74 69 75
REMARK SMILES IDX 72 76 70 77 49 78 50 79 58 80 51 81 52 82 56 83 59 84 53 85
REMARK SMILES IDX 54 86 57 87 55 88
REMARK H PARENT 7 10 79 41 47 52
REMARK Flexibility Score: inf
ROOT
ATOM      1  C   UNL A   1      31.528  26.043  26.338  1.00  0.00     0.261 C 
ENDROOT
BRANCH   1   2
ATOM      2  O   UNL A   1      30.324  25.329  25.979  1.00  0.00    -0.462 OA
BRANCH   2   3
ATOM      3  C   UNL A   1      30.311  24.002  26.282  1.00  0.00     0.332 C 
ATOM      4  O   UNL A   1      29.859  23.522  27.317  1.00  0.00    -0.250 OA
BRANCH   3   5
ATOM      5  C   UNL A   1      31.042  23.147  25.231  1.00  0.00     0.282 C 
BRANCH   5   6
ATOM      6  O   UNL A   1      32.430  22.912  25.172  1.00  0.00    -0.368 OA
BRANCH   6   7
ATOM      7  C   UNL A   1      32.910  22.095  24.105  1.00  0.00     0.182 C 
BRANCH   7   8
ATOM      8  C   UNL A   1      33.481  20.716  24.485  1.00  0.00     0.144 C 
BRANCH   8   9
ATOM      9  N   UNL A   1      34.424  20.787  25.594  1.00  0.00    -0.353 N 
ATOM     10  H   UNL A   1      34.082  20.757  26.517  1.00  0.00     0.163 HD
BRANCH   9  11
ATOM     11  C   UNL A   1      35.751  20.891  25.386  1.00  0.00     0.202 A 
ATOM     12  C   UNL A   1      35.937  23.318  26.114  1.00  0.00     0.153 C 
ATOM     13  N   UNL A   1      36.433  22.071  25.586  1.00  0.00    -0.321 N 
ATOM     14  C   UNL A   1      37.745  21.864  25.245  1.00  0.00     0.109 A 
ATOM     15  C   UNL A   1      37.807  20.546  24.866  1.00  0.00     0.133 A 
ATOM     16  N   UNL A   1      36.579  19.949  24.989  1.00  0.00    -0.222 NA
ENDBRANCH   9  11
ENDBRANCH   8   9
ENDBRANCH   7   8
ENDBRANCH   6   7
ENDBRANCH   5   6
ENDBRANCH   3   5
ENDBRANCH   2   3
ENDBRANCH   1   2
BRANCH   1  17
ATOM     17  C   UNL A   1      32.171  26.710  25.121  1.00  0.00     0.202 C 
BRANCH  17  18
ATOM     18  O   UNL A   1      32.532  28.084  25.280  1.00  0.00    -0.374 OA
BRANCH  18  19
ATOM     19  C   UNL A   1      31.487  29.040  25.111  1.00  0.00     0.202 C 
BRANCH  19  20
ATOM     20  C   UNL A   1      31.752  30.425  25.719  1.00  0.00     0.261 C 
BRANCH  20  21
ATOM     21  O   UNL A   1      32.511  30.345  26.940  1.00  0.00    -0.460 OA
BRANCH  21  22
ATOM     22  C   UNL A   1      33.208  31.471  27.233  1.00  0.00     0.338 C 
ATOM     23  O   UNL A   1      32.788  32.614  27.276  1.00  0.00    -0.246 OA
BRANCH  22  24
ATOM     24  C   UNL A   1      34.570  31.134  27.691  1.00  0.00     0.060 A 
ATOM     25  C   UNL A   1      34.829  29.781  27.942  1.00  0.00     0.016 A 
ATOM     26  C   UNL A   1      35.536  32.104  27.965  1.00  0.00     0.016 A 
ATOM     27  C   UNL A   1      36.027  29.399  28.539  1.00  0.00     0.010 A 
ATOM     28  C   UNL A   1      36.741  31.717  28.571  1.00  0.00     0.010 A 
ATOM     29  C   UNL A   1      36.968  30.369  28.905  1.00  0.00    -0.014 A 
BRANCH  29  30
ATOM     30  C   UNL A   1      38.082  29.965  29.800  1.00  0.00     0.031 A 
ATOM     31  C   UNL A   1      39.139  29.033  29.270  1.00  0.00     0.074 A 
ATOM     32  C   UNL A   1      38.213  30.498  31.028  1.00  0.00     0.049 A 
ATOM     33  N   UNL A   1      40.245  28.619  29.835  1.00  0.00    -0.248 NA
ATOM     34  C   UNL A   1      38.923  28.501  27.915  1.00  0.00     0.031 C 
ATOM     35  C   UNL A   1      37.280  31.441  31.641  1.00  0.00     0.029 A 
ATOM     36  N   UNL A   1      39.195  30.332  31.973  1.00  0.00    -0.354 N 
ATOM     37  C   UNL A   1      40.856  27.787  28.905  1.00  0.00     0.074 A 
ATOM     38  C   UNL A   1      39.982  27.721  27.755  1.00  0.00     0.031 C 
ATOM     39  C   UNL A   1      37.738  31.777  32.860  1.00  0.00     0.029 A 
ATOM     40  C   UNL A   1      38.986  31.059  33.119  1.00  0.00     0.049 A 
ATOM     41  H   UNL A   1      39.976  29.746  31.841  1.00  0.00     0.167 HD
ATOM     42  C   UNL A   1      42.047  27.148  28.994  1.00  0.00     0.037 A 
ATOM     43  C   UNL A   1      39.718  31.133  34.248  1.00  0.00     0.037 A 
ATOM     44  C   UNL A   1      42.922  27.215  30.135  1.00  0.00     0.049 A 
ATOM     45  C   UNL A   1      41.009  30.361  34.345  1.00  0.00     0.074 A 
ATOM     46  C   UNL A   1      44.157  26.616  30.312  1.00  0.00     0.029 A 
ATOM     47  N   UNL A   1      42.649  27.918  31.298  1.00  0.00    -0.354 N 
ATOM     48  N   UNL A   1      41.593  29.605  33.449  1.00  0.00    -0.248 NA
ATOM     49  C   UNL A   1      41.746  30.463  35.614  1.00  0.00     0.031 C 
ATOM     50  C   UNL A   1      44.610  26.919  31.601  1.00  0.00     0.029 A 
ATOM     51  C   UNL A   1      43.679  27.746  32.209  1.00  0.00     0.049 A 
ATOM     52  H   UNL A   1      41.841  28.460  31.453  1.00  0.00     0.167 HD
ATOM     53  C   UNL A   1      42.773  29.159  34.033  1.00  0.00     0.074 A 
ATOM     54  C   UNL A   1      42.831  29.747  35.355  1.00  0.00     0.031 C 
ATOM     55  C   UNL A   1      43.721  28.337  33.522  1.00  0.00     0.037 A 
BRANCH  42  56
ATOM     56  C   UNL A   1      42.465  26.301  27.828  1.00  0.00     0.064 A 
ATOM     57  C   UNL A   1      43.329  26.789  26.836  1.00  0.00     0.173 A 
ATOM     58  C   UNL A   1      42.019  24.976  27.718  1.00  0.00     0.173 A 
ATOM     59  F   UNL A   1      43.772  28.054  26.888  1.00  0.00    -0.203 F 
ATOM     60  C   UNL A   1      43.712  25.987  25.763  1.00  0.00     0.198 A 
ATOM     61  C   UNL A   1      42.426  24.169  26.659  1.00  0.00     0.198 A 
ATOM     62  F   UNL A   1      41.195  24.460  28.643  1.00  0.00    -0.203 F 
ATOM     63  F   UNL A   1      44.503  26.487  24.804  1.00  0.00    -0.200 F 
ATOM     64  C   UNL A   1      43.265  24.677  25.679  1.00  0.00     0.200 A 
ATOM     65  F   UNL A   1      42.002  22.899  26.585  1.00  0.00    -0.200 F 
ATOM     66  F   UNL A   1      43.640  23.904  24.649  1.00  0.00    -0.200 F 
ENDBRANCH  42  56
BRANCH  43  67
ATOM     67  C   UNL A   1      39.247  31.967  35.384  1.00  0.00     0.064 A 
ATOM     68  C   UNL A   1      39.644  33.305  35.517  1.00  0.00     0.173 A 
ATOM     69  C   UNL A   1      38.407  31.433  36.372  1.00  0.00     0.173 A 
ATOM     70  F   UNL A   1      40.469  33.852  34.613  1.00  0.00    -0.203 F 
ATOM     71  C   UNL A   1      39.231  34.072  36.605  1.00  0.00     0.198 A 
ATOM     72  C   UNL A   1      37.972  32.210  37.444  1.00  0.00     0.198 A 
ATOM     73  F   UNL A   1      38.003  30.158  36.293  1.00  0.00    -0.203 F 
ATOM     74  F   UNL A   1      39.661  35.334  36.734  1.00  0.00    -0.200 F 
ATOM     75  C   UNL A   1      38.391  33.527  37.564  1.00  0.00     0.200 A 
ATOM     76  F   UNL A   1      37.153  31.681  38.363  1.00  0.00    -0.200 F 
ATOM     77  F   UNL A   1      37.992  34.266  38.609  1.00  0.00    -0.200 F 
ENDBRANCH  43  67
BRANCH  55  78
ATOM     78  C   UNL A   1      44.913  28.038  34.386  1.00  0.00     0.064 A 
ATOM     79  C   UNL A   1      46.047  28.863  34.382  1.00  0.00     0.173 A 
ATOM     80  C   UNL A   1      44.907  26.932  35.250  1.00  0.00     0.173 A 
ATOM     81  F   UNL A   1      46.108  29.924  33.564  1.00  0.00    -0.203 F 
ATOM     82  C   UNL A   1      47.144  28.575  35.192  1.00  0.00     0.198 A 
ATOM     83  C   UNL A   1      45.993  26.665  36.079  1.00  0.00     0.198 A 
ATOM     84  F   UNL A   1      43.843  26.116  35.298  1.00  0.00    -0.203 F 
ATOM     85  F   UNL A   1      48.236  29.349  35.135  1.00  0.00    -0.200 F 
ATOM     86  C   UNL A   1      47.113  27.481  36.043  1.00  0.00     0.200 A 
ATOM     87  F   UNL A   1      45.957  25.615  36.911  1.00  0.00    -0.200 F 
ATOM     88  F   UNL A   1      48.168  27.208  36.823  1.00  0.00    -0.200 F 
ENDBRANCH  55  78
ENDBRANCH  29  30
ENDBRANCH  22  24
ENDBRANCH  21  22
ENDBRANCH  20  21
ENDBRANCH  19  20
ENDBRANCH  18  19
ENDBRANCH  17  18
ENDBRANCH   1  17
TORSDOF 19
ENDMDL
MODEL 2
REMARK VINA RESULT:      -9.6      3.325      8.976
REMARK SMILES Cn1ccnc1NCCOCC(=O)OCCOCCOC(=O)c1ccc(-c2c3nc(c(-c4c(F)c(F)c(F)c(F)c4F)c4ccc([nH]4)c(-c4c(F)c(F)c(F)c(F)c4F)c4nc(c(-c5c(F)c(F)c(F)c(F)c5F)c5ccc2[nH]5)C=C4)C=C3)cc1
REMARK SMILES IDX 15 1 14 2 12 3 13 4 11 5 10 6 9 7 8 8 7 9 6 11 1 12 2 13
REMARK SMILES IDX 3 14 4 15 5 16 16 17 17 18 18 19 19 20 20 21 21 22 22 23
REMARK SMILES IDX 23 24 24 25 85 26 25 27 84 28 26 29 27 30 28 31 78 32 29 33
REMARK SMILES IDX 83 34 77 35 79 36 30 37 82 38 76 39 75 40 31 42 63 43 43 44
REMARK SMILES IDX 62 45 44 46 47 47 61 48 80 49 45 50 46 51 60 53 81 54 48 55
REMARK SMILES IDX 32 56 33 57 41 58 34 59 35 60 39 61 42 62 36 63 37 64 40 65
REMARK SMILES IDX 38 66 64 67 65 68 73 69 66 70 67 71 71 72 74 73 68 74 69 75
REMARK SMILES IDX 72 76 70 77 49 78 50 79 58 80 51 81 52 82 56 83 59 84 53 85
REMARK SMILES IDX 54 86 57 87 55 88
REMARK H PARENT 7 10 79 41 47 52
REMARK Flexibility Score: inf
ROOT
ATOM      1  C   UNL A   1      33.558  29.113  26.399  1.00  0.00     0.261 C 
ENDROOT
BRANCH   1   2
ATOM      2  O   UNL A   1      34.050  28.438  25.220  1.00  0.00    -0.462 OA
BRANCH   2   3
ATOM      3  C   UNL A   1      33.461  27.246  24.932  1.00  0.00     0.332 C 
ATOM      4  O   UNL A   1      33.603  26.215  25.583  1.00  0.00    -0.250 OA
BRANCH   3   5
ATOM      5  C   UNL A   1      32.672  27.278  23.610  1.00  0.00     0.282 C 
BRANCH   5   6
ATOM      6  O   UNL A   1      31.276  27.136  23.473  1.00  0.00    -0.368 OA
BRANCH   6   7
ATOM      7  C   UNL A   1      30.460  28.213  23.932  1.00  0.00     0.182 C 
BRANCH   7   8
ATOM      8  C   UNL A   1      29.510  28.855  22.904  1.00  0.00     0.144 C 
BRANCH   8   9
ATOM      9  N   UNL A   1      29.718  30.291  22.769  1.00  0.00    -0.353 N 
ATOM     10  H   UNL A   1      30.398  30.732  23.328  1.00  0.00     0.163 HD
BRANCH   9  11
ATOM     11  C   UNL A   1      29.002  31.028  21.897  1.00  0.00     0.202 A 
ATOM     12  C   UNL A   1      29.184  33.208  23.189  1.00  0.00     0.153 C 
ATOM     13  N   UNL A   1      28.724  32.359  22.118  1.00  0.00    -0.321 N 
ATOM     14  C   UNL A   1      27.945  32.805  21.082  1.00  0.00     0.109 A 
ATOM     15  C   UNL A   1      27.799  31.719  20.256  1.00  0.00     0.133 A 
ATOM     16  N   UNL A   1      28.482  30.638  20.753  1.00  0.00    -0.222 NA
ENDBRANCH   9  11
ENDBRANCH   8   9
ENDBRANCH   7   8
ENDBRANCH   6   7
ENDBRANCH   5   6
ENDBRANCH   3   5
ENDBRANCH   2   3
ENDBRANCH   1   2
BRANCH   1  17
ATOM     17  C   UNL A   1      34.702  29.641  27.265  1.00  0.00     0.202 C 
BRANCH  17  18
ATOM     18  O   UNL A   1      34.705  31.049  27.506  1.00  0.00    -0.374 OA
BRANCH  18  19
ATOM     19  C   UNL A   1      33.443  31.648  27.794  1.00  0.00     0.202 C 
BRANCH  19  20
ATOM     20  C   UNL A   1      33.297  33.120  27.382  1.00  0.00     0.261 C 
BRANCH  20  21
ATOM     21  O   UNL A   1      32.419  33.845  28.263  1.00  0.00    -0.460 OA
BRANCH  21  22
ATOM     22  C   UNL A   1      32.972  34.961  28.801  1.00  0.00     0.338 C 
ATOM     23  O   UNL A   1      32.523  36.094  28.787  1.00  0.00    -0.246 OA
BRANCH  22  24
ATOM     24  C   UNL A   1      34.161  34.615  29.605  1.00  0.00     0.060 A 
ATOM     25  C   UNL A   1      35.400  34.705  28.960  1.00  0.00     0.016 A 
ATOM     26  C   UNL A   1      34.073  34.123  30.909  1.00  0.00     0.016 A 
ATOM     27  C   UNL A   1      36.549  34.233  29.588  1.00  0.00     0.010 A 
ATOM     28  C   UNL A   1      35.232  33.644  31.539  1.00  0.00     0.010 A 
ATOM     29  C   UNL A   1      36.465  33.652  30.860  1.00  0.00    -0.014 A 
BRANCH  29  30
ATOM     30  C   UNL A   1      37.639  32.896  31.367  1.00  0.00     0.031 A 
ATOM     31  C   UNL A   1      38.175  33.217  32.736  1.00  0.00     0.074 A 
ATOM     32  C   UNL A   1      38.155  31.870  30.668  1.00  0.00     0.049 A 
ATOM     33  N   UNL A   1      39.126  32.631  33.418  1.00  0.00    -0.248 NA
ATOM     34  C   UNL A   1      37.548  34.350  33.435  1.00  0.00     0.031 C 
ATOM     35  C   UNL A   1      37.700  31.434  29.349  1.00  0.00     0.029 A 
ATOM     36  N   UNL A   1      39.167  30.997  30.981  1.00  0.00    -0.354 N 
ATOM     37  C   UNL A   1      39.206  33.317  34.623  1.00  0.00     0.074 A 
ATOM     38  C   UNL A   1      38.236  34.388  34.567  1.00  0.00     0.031 C 
ATOM     39  C   UNL A   1      38.427  30.369  28.968  1.00  0.00     0.029 A 
ATOM     40  C   UNL A   1      39.410  30.061  30.006  1.00  0.00     0.049 A 
ATOM     41  H   UNL A   1      39.673  31.039  31.826  1.00  0.00     0.167 HD
ATOM     42  C   UNL A   1      40.003  33.066  35.689  1.00  0.00     0.037 A 
ATOM     43  C   UNL A   1      40.323  29.071  29.958  1.00  0.00     0.037 A 
ATOM     44  C   UNL A   1      40.965  31.998  35.751  1.00  0.00     0.049 A 
ATOM     45  C   UNL A   1      41.242  28.854  31.133  1.00  0.00     0.074 A 
ATOM     46  C   UNL A   1      41.807  31.654  36.794  1.00  0.00     0.029 A 
ATOM     47  N   UNL A   1      41.219  31.105  34.721  1.00  0.00    -0.354 N 
ATOM     48  N   UNL A   1      41.287  29.487  32.280  1.00  0.00    -0.248 NA
ATOM     49  C   UNL A   1      42.234  27.775  31.007  1.00  0.00     0.031 C 
ATOM     50  C   UNL A   1      42.604  30.582  36.378  1.00  0.00     0.029 A 
ATOM     51  C   UNL A   1      42.224  30.227  35.093  1.00  0.00     0.049 A 
ATOM     52  H   UNL A   1      40.753  31.097  33.854  1.00  0.00     0.167 HD
ATOM     53  C   UNL A   1      42.291  28.873  33.018  1.00  0.00     0.074 A 
ATOM     54  C   UNL A   1      42.817  27.803  32.196  1.00  0.00     0.031 C 
ATOM     55  C   UNL A   1      42.739  29.168  34.263  1.00  0.00     0.037 A 
BRANCH  42  56
ATOM     56  C   UNL A   1      39.882  33.981  36.872  1.00  0.00     0.064 A 
ATOM     57  C   UNL A   1      40.589  35.190  36.943  1.00  0.00     0.173 A 
ATOM     58  C   UNL A   1      39.026  33.658  37.935  1.00  0.00     0.173 A 
ATOM     59  F   UNL A   1      41.432  35.539  35.959  1.00  0.00    -0.203 F 
ATOM     60  C   UNL A   1      40.462  36.031  38.046  1.00  0.00     0.198 A 
ATOM     61  C   UNL A   1      38.879  34.514  39.023  1.00  0.00     0.198 A 
ATOM     62  F   UNL A   1      38.323  32.515  37.914  1.00  0.00    -0.203 F 
ATOM     63  F   UNL A   1      41.180  37.161  38.112  1.00  0.00    -0.200 F 
ATOM     64  C   UNL A   1      39.603  35.696  39.081  1.00  0.00     0.200 A 
ATOM     65  F   UNL A   1      38.041  34.193  40.018  1.00  0.00    -0.200 F 
ATOM     66  F   UNL A   1      39.476  36.509  40.139  1.00  0.00    -0.200 F 
ENDBRANCH  42  56
BRANCH  43  67
ATOM     67  C   UNL A   1      40.419  28.209  28.753  1.00  0.00     0.064 A 
ATOM     68  C   UNL A   1      39.758  26.973  28.687  1.00  0.00     0.173 A 
ATOM     69  C   UNL A   1      41.194  28.594  27.648  1.00  0.00     0.173 A 
ATOM     70  F   UNL A   1      39.029  26.548  29.728  1.00  0.00    -0.203 F 
ATOM     71  C   UNL A   1      39.883  26.150  27.569  1.00  0.00     0.198 A 
ATOM     72  C   UNL A   1      41.294  27.783  26.521  1.00  0.00     0.198 A 
ATOM     73  F   UNL A   1      41.849  29.763  27.663  1.00  0.00    -0.203 F 
ATOM     74  F   UNL A   1      39.279  24.954  27.551  1.00  0.00    -0.200 F 
ATOM     75  C   UNL A   1      40.646  26.557  26.485  1.00  0.00     0.200 A 
ATOM     76  F   UNL A   1      42.024  28.184  25.472  1.00  0.00    -0.200 F 
ATOM     77  F   UNL A   1      40.763  25.766  25.410  1.00  0.00    -0.200 F 
ENDBRANCH  43  67
BRANCH  55  78
ATOM     78  C   UNL A   1      43.839  28.312  34.821  1.00  0.00     0.064 A 
ATOM     79  C   UNL A   1      43.565  27.120  35.509  1.00  0.00     0.173 A 
ATOM     80  C   UNL A   1      45.183  28.671  34.639  1.00  0.00     0.173 A 
ATOM     81  F   UNL A   1      42.296  26.740  35.721  1.00  0.00    -0.203 F 
ATOM     82  C   UNL A   1      44.596  26.334  36.018  1.00  0.00     0.198 A 
ATOM     83  C   UNL A   1      46.212  27.868  35.124  1.00  0.00     0.198 A 
ATOM     84  F   UNL A   1      45.500  29.797  33.981  1.00  0.00    -0.203 F 
ATOM     85  F   UNL A   1      44.308  25.226  36.715  1.00  0.00    -0.200 F 
ATOM     86  C   UNL A   1      45.917  26.705  35.820  1.00  0.00     0.200 A 
ATOM     87  F   UNL A   1      47.489  28.220  34.921  1.00  0.00    -0.200 F 
ATOM     88  F   UNL A   1      46.908  25.946  36.308  1.00  0.00    -0.200 F 
ENDBRANCH  55  78
ENDBRANCH  29  30
ENDBRANCH  22  24
ENDBRANCH  21  22
ENDBRANCH  20  21
ENDBRANCH  19  20
ENDBRANCH  18  19
ENDBRANCH  17  18
ENDBRANCH   1  17
TORSDOF 19
ENDMDL
MODEL 3
REMARK VINA RESULT:      -9.6      4.068      8.920
REMARK SMILES Cn1ccnc1NCCOCC(=O)OCCOCCOC(=O)c1ccc(-c2c3nc(c(-c4c(F)c(F)c(F)c(F)c4F)c4ccc([nH]4)c(-c4c(F)c(F)c(F)c(F)c4F)c4nc(c(-c5c(F)c(F)c(F)c(F)c5F)c5ccc2[nH]5)C=C4)C=C3)cc1
REMARK SMILES IDX 15 1 14 2 12 3 13 4 11 5 10 6 9 7 8 8 7 9 6 11 1 12 2 13
REMARK SMILES IDX 3 14 4 15 5 16 16 17 17 18 18 19 19 20 20 21 21 22 22 23
REMARK SMILES IDX 23 24 24 25 85 26 25 27 84 28 26 29 27 30 28 31 78 32 29 33
REMARK SMILES IDX 83 34 77 35 79 36 30 37 82 38 76 39 75 40 31 42 63 43 43 44
REMARK SMILES IDX 62 45 44 46 47 47 61 48 80 49 45 50 46 51 60 53 81 54 48 55
REMARK SMILES IDX 32 56 33 57 41 58 34 59 35 60 39 61 42 62 36 63 37 64 40 65
REMARK SMILES IDX 38 66 64 67 65 68 73 69 66 70 67 71 71 72 74 73 68 74 69 75
REMARK SMILES IDX 72 76 70 77 49 78 50 79 58 80 51 81 52 82 56 83 59 84 53 85
REMARK SMILES IDX 54 86 57 87 55 88
REMARK H PARENT 7 10 79 41 47 52
REMARK Flexibility Score: inf
ROOT
ATOM      1  C   UNL A   1      44.591  18.932  25.070  1.00  0.00     0.261 C 
ENDROOT
BRANCH   1   2
ATOM      2  O   UNL A   1      43.351  19.655  24.901  1.00  0.00    -0.462 OA
BRANCH   2   3
ATOM      3  C   UNL A   1      42.353  19.326  25.765  1.00  0.00     0.332 C 
ATOM      4  O   UNL A   1      41.766  18.248  25.784  1.00  0.00    -0.250 OA
BRANCH   3   5
ATOM      5  C   UNL A   1      41.934  20.503  26.663  1.00  0.00     0.282 C 
BRANCH   5   6
ATOM      6  O   UNL A   1      40.612  20.886  26.968  1.00  0.00    -0.368 OA
BRANCH   6   7
ATOM      7  C   UNL A   1      40.035  21.928  26.181  1.00  0.00     0.182 C 
BRANCH   7   8
ATOM      8  C   UNL A   1      38.642  21.659  25.583  1.00  0.00     0.144 C 
BRANCH   8   9
ATOM      9  N   UNL A   1      37.890  22.883  25.340  1.00  0.00    -0.353 N 
ATOM     10  H   UNL A   1      38.234  23.735  25.693  1.00  0.00     0.163 HD
BRANCH   9  11
ATOM     11  C   UNL A   1      36.735  22.875  24.646  1.00  0.00     0.202 A 
ATOM     12  C   UNL A   1      35.278  22.093  26.575  1.00  0.00     0.153 C 
ATOM     13  N   UNL A   1      35.545  22.470  25.209  1.00  0.00    -0.321 N 
ATOM     14  C   UNL A   1      34.577  22.532  24.240  1.00  0.00     0.109 A 
ATOM     15  C   UNL A   1      35.224  22.998  23.123  1.00  0.00     0.133 A 
ATOM     16  N   UNL A   1      36.547  23.237  23.395  1.00  0.00    -0.222 NA
ENDBRANCH   9  11
ENDBRANCH   8   9
ENDBRANCH   7   8
ENDBRANCH   6   7
ENDBRANCH   5   6
ENDBRANCH   3   5
ENDBRANCH   2   3
ENDBRANCH   1   2
BRANCH   1  17
ATOM     17  C   UNL A   1      45.798  19.785  24.677  1.00  0.00     0.202 C 
BRANCH  17  18
ATOM     18  O   UNL A   1      45.757  21.153  25.089  1.00  0.00    -0.374 OA
BRANCH  18  19
ATOM     19  C   UNL A   1      45.489  22.116  24.071  1.00  0.00     0.202 C 
BRANCH  19  20
ATOM     20  C   UNL A   1      44.195  22.923  24.247  1.00  0.00     0.261 C 
BRANCH  20  21
ATOM     21  O   UNL A   1      44.446  24.339  24.330  1.00  0.00    -0.460 OA
BRANCH  21  22
ATOM     22  C   UNL A   1      45.018  24.732  25.495  1.00  0.00     0.338 C 
ATOM     23  O   UNL A   1      46.200  24.695  25.792  1.00  0.00    -0.246 OA
BRANCH  22  24
ATOM     24  C   UNL A   1      44.031  25.411  26.356  1.00  0.00     0.060 A 
ATOM     25  C   UNL A   1      44.153  26.800  26.474  1.00  0.00     0.016 A 
ATOM     26  C   UNL A   1      43.077  24.717  27.104  1.00  0.00     0.016 A 
ATOM     27  C   UNL A   1      43.376  27.494  27.396  1.00  0.00     0.010 A 
ATOM     28  C   UNL A   1      42.297  25.417  28.037  1.00  0.00     0.010 A 
ATOM     29  C   UNL A   1      42.480  26.800  28.221  1.00  0.00    -0.014 A 
BRANCH  29  30
ATOM     30  C   UNL A   1      41.897  27.516  29.384  1.00  0.00     0.031 A 
ATOM     31  C   UNL A   1      42.601  27.441  30.712  1.00  0.00     0.074 A 
ATOM     32  C   UNL A   1      40.819  28.307  29.240  1.00  0.00     0.049 A 
ATOM     33  N   UNL A   1      42.329  28.055  31.836  1.00  0.00    -0.248 NA
ATOM     34  C   UNL A   1      43.777  26.559  30.781  1.00  0.00     0.031 C 
ATOM     35  C   UNL A   1      40.071  28.496  27.998  1.00  0.00     0.029 A 
ATOM     36  N   UNL A   1      40.176  29.113  30.147  1.00  0.00    -0.354 N 
ATOM     37  C   UNL A   1      43.301  27.640  32.738  1.00  0.00     0.074 A 
ATOM     38  C   UNL A   1      44.146  26.692  32.046  1.00  0.00     0.031 C 
ATOM     39  C   UNL A   1      39.073  29.369  28.220  1.00  0.00     0.029 A 
ATOM     40  C   UNL A   1      39.101  29.786  29.622  1.00  0.00     0.049 A 
ATOM     41  H   UNL A   1      40.460  29.200  31.086  1.00  0.00     0.167 HD
ATOM     42  C   UNL A   1      43.484  28.026  34.024  1.00  0.00     0.037 A 
ATOM     43  C   UNL A   1      38.238  30.638  30.208  1.00  0.00     0.037 A 
ATOM     44  C   UNL A   1      42.648  28.973  34.714  1.00  0.00     0.049 A 
ATOM     45  C   UNL A   1      38.426  31.003  31.658  1.00  0.00     0.074 A 
ATOM     46  C   UNL A   1      42.763  29.441  36.011  1.00  0.00     0.029 A 
ATOM     47  N   UNL A   1      41.536  29.592  34.164  1.00  0.00    -0.354 N 
ATOM     48  N   UNL A   1      39.365  30.631  32.492  1.00  0.00    -0.248 NA
ATOM     49  C   UNL A   1      37.433  31.917  32.245  1.00  0.00     0.031 C 
ATOM     50  C   UNL A   1      41.693  30.306  36.261  1.00  0.00     0.029 A 
ATOM     51  C   UNL A   1      40.939  30.416  35.104  1.00  0.00     0.049 A 
ATOM     52  H   UNL A   1      41.218  29.463  33.241  1.00  0.00     0.167 HD
ATOM     53  C   UNL A   1      39.093  31.277  33.691  1.00  0.00     0.074 A 
ATOM     54  C   UNL A   1      37.910  32.083  33.470  1.00  0.00     0.031 C 
ATOM     55  C   UNL A   1      39.760  31.210  34.869  1.00  0.00     0.037 A 
BRANCH  42  56
ATOM     56  C   UNL A   1      44.623  27.406  34.776  1.00  0.00     0.064 A 
ATOM     57  C   UNL A   1      45.843  28.077  34.950  1.00  0.00     0.173 A 
ATOM     58  C   UNL A   1      44.484  26.136  35.355  1.00  0.00     0.173 A 
ATOM     59  F   UNL A   1      46.032  29.288  34.404  1.00  0.00    -0.203 F 
ATOM     60  C   UNL A   1      46.890  27.489  35.656  1.00  0.00     0.198 A 
ATOM     61  C   UNL A   1      45.522  25.562  36.084  1.00  0.00     0.198 A 
ATOM     62  F   UNL A   1      43.336  25.454  35.221  1.00  0.00    -0.203 F 
ATOM     63  F   UNL A   1      48.061  28.129  35.773  1.00  0.00    -0.200 F 
ATOM     64  C   UNL A   1      46.726  26.236  36.227  1.00  0.00     0.200 A 
ATOM     65  F   UNL A   1      45.359  24.356  36.644  1.00  0.00    -0.200 F 
ATOM     66  F   UNL A   1      47.732  25.673  36.912  1.00  0.00    -0.200 F 
ENDBRANCH  42  56
BRANCH  43  67
ATOM     67  C   UNL A   1      37.110  31.206  29.425  1.00  0.00     0.064 A 
ATOM     68  C   UNL A   1      37.097  32.555  29.040  1.00  0.00     0.173 A 
ATOM     69  C   UNL A   1      36.010  30.414  29.064  1.00  0.00     0.173 A 
ATOM     70  F   UNL A   1      38.112  33.359  29.386  1.00  0.00    -0.203 F 
ATOM     71  C   UNL A   1      36.019  33.093  28.340  1.00  0.00     0.198 A 
ATOM     72  C   UNL A   1      34.946  30.947  28.339  1.00  0.00     0.198 A 
ATOM     73  F   UNL A   1      35.971  29.120  29.411  1.00  0.00    -0.203 F 
ATOM     74  F   UNL A   1      36.010  34.395  28.025  1.00  0.00    -0.200 F 
ATOM     75  C   UNL A   1      34.947  32.287  27.984  1.00  0.00     0.200 A 
ATOM     76  F   UNL A   1      33.917  30.163  27.989  1.00  0.00    -0.200 F 
ATOM     77  F   UNL A   1      33.912  32.805  27.308  1.00  0.00    -0.200 F 
ENDBRANCH  43  67
BRANCH  55  78
ATOM     78  C   UNL A   1      39.239  32.043  36.004  1.00  0.00     0.064 A 
ATOM     79  C   UNL A   1      38.277  31.548  36.897  1.00  0.00     0.173 A 
ATOM     80  C   UNL A   1      39.730  33.340  36.220  1.00  0.00     0.173 A 
ATOM     81  F   UNL A   1      37.766  30.320  36.726  1.00  0.00    -0.203 F 
ATOM     82  C   UNL A   1      37.805  32.331  37.948  1.00  0.00     0.198 A 
ATOM     83  C   UNL A   1      39.277  34.109  37.289  1.00  0.00     0.198 A 
ATOM     84  F   UNL A   1      40.657  33.858  35.400  1.00  0.00    -0.203 F 
ATOM     85  F   UNL A   1      36.850  31.855  38.759  1.00  0.00    -0.200 F 
ATOM     86  C   UNL A   1      38.310  33.607  38.147  1.00  0.00     0.200 A 
ATOM     87  F   UNL A   1      39.775  35.338  37.488  1.00  0.00    -0.200 F 
ATOM     88  F   UNL A   1      37.857  34.359  39.160  1.00  0.00    -0.200 F 
ENDBRANCH  55  78
ENDBRANCH  29  30
ENDBRANCH  22  24
ENDBRANCH  21  22
ENDBRANCH  20  21
ENDBRANCH  19  20
ENDBRANCH  18  19
ENDBRANCH  17  18
ENDBRANCH   1  17
TORSDOF 19
ENDMDL
