MODEL 1
REMARK VINA RESULT:     -10.6      0.000      0.000
REMARK SMILES Cc1cc(S(=O)(=O)N[C@H](CO)C(C)C)sc1C(=O)OCCOCCOC(=O)c1ccc(-c2c3nc(c(-c4c(F)c(F)c(F)c(F)c4F)c4ccc([nH]4)c(-c4c(F)c(F)c(F)c(F)c4F)c4nc(c(-c5c(F)c(F)c(F)c(F)c5F)c5ccc2[nH]5)C=C4)C=C3)cc1
REMARK SMILES IDX 20 1 19 2 17 3 18 4 16 5 1 6 2 7 3 8 4 9 15 10 5 11 6 12
REMARK SMILES IDX 7 13 8 14 9 16 12 17 13 18 14 19 10 20 11 21 21 23 22 24
REMARK SMILES IDX 23 25 24 26 25 27 26 28 27 29 28 30 29 31 90 32 30 33 89 34
REMARK SMILES IDX 31 35 32 36 33 37 83 38 34 39 88 40 82 41 84 42 35 43 87 44
REMARK SMILES IDX 81 45 80 46 36 48 68 49 48 50 67 51 49 52 52 53 66 54 85 55
REMARK SMILES IDX 50 56 51 57 65 59 86 60 53 61 37 62 38 63 46 64 39 65 40 66
REMARK SMILES IDX 44 67 47 68 41 69 42 70 45 71 43 72 69 73 70 74 78 75 71 76
REMARK SMILES IDX 72 77 76 78 79 79 73 80 74 81 77 82 75 83 54 84 55 85 63 86
REMARK SMILES IDX 56 87 57 88 61 89 64 90 58 91 59 92 62 93 60 94
REMARK H PARENT 8 15 11 22 84 47 52 58
REMARK Flexibility Score: inf
ROOT
ATOM      1  C   UNL A   1      33.012  19.971  25.699  1.00  0.00     0.261 C 
ENDROOT
BRANCH   1   2
ATOM      2  O   UNL A   1      32.865  21.395  25.539  1.00  0.00    -0.459 OA
BRANCH   2   3
ATOM      3  C   UNL A   1      33.410  22.170  26.519  1.00  0.00     0.348 C 
ATOM      4  O   UNL A   1      33.903  21.720  27.546  1.00  0.00    -0.245 OA
BRANCH   3   5
ATOM      5  C   UNL A   1      33.434  23.564  26.093  1.00  0.00     0.116 A 
ATOM      6  C   UNL A   1      35.687  23.849  24.856  1.00  0.00     0.046 C 
ATOM      7  C   UNL A   1      34.404  24.336  25.453  1.00  0.00    -0.024 A 
ATOM      8  C   UNL A   1      34.029  25.728  25.447  1.00  0.00     0.038 A 
ATOM      9  C   UNL A   1      32.821  25.966  26.068  1.00  0.00     0.135 A 
ATOM     10  S   UNL A   1      32.034  24.502  26.446  1.00  0.00    -0.115 S 
BRANCH   9  11
ATOM     11  S   UNL A   1      31.961  27.454  26.521  1.00  0.00     0.250 S 
ATOM     12  O   UNL A   1      30.761  27.022  27.194  1.00  0.00    -0.206 OA
ATOM     13  O   UNL A   1      32.951  28.273  27.192  1.00  0.00    -0.206 OA
BRANCH  11  14
ATOM     14  N   UNL A   1      31.542  28.261  25.104  1.00  0.00    -0.205 NA
ATOM     15  H   UNL A   1      32.147  29.080  25.053  1.00  0.00     0.141 HD
BRANCH  14  16
ATOM     16  C   UNL A   1      31.613  27.605  23.757  1.00  0.00     0.098 C 
BRANCH  16  17
ATOM     17  C   UNL A   1      30.253  27.475  23.038  1.00  0.00     0.003 C 
ATOM     18  C   UNL A   1      29.213  26.721  23.876  1.00  0.00     0.009 C 
ATOM     19  C   UNL A   1      29.667  28.839  22.664  1.00  0.00     0.009 C 
ENDBRANCH  16  17
BRANCH  16  20
ATOM     20  C   UNL A   1      32.707  28.300  22.922  1.00  0.00     0.176 C 
BRANCH  20  21
ATOM     21  O   UNL A   1      33.218  29.425  23.643  1.00  0.00    -0.395 OA
ATOM     22  H   UNL A   1      33.643  29.119  24.459  1.00  0.00     0.210 HD
ENDBRANCH  20  21
ENDBRANCH  16  20
ENDBRANCH  14  16
ENDBRANCH  11  14
ENDBRANCH   9  11
ENDBRANCH   3   5
ENDBRANCH   2   3
ENDBRANCH   1   2
BRANCH   1  23
ATOM     23  C   UNL A   1      33.787  19.408  24.505  1.00  0.00     0.202 C 
BRANCH  23  24
ATOM     24  O   UNL A   1      35.169  19.162  24.776  1.00  0.00    -0.374 OA
BRANCH  24  25
ATOM     25  C   UNL A   1      35.989  20.315  24.969  1.00  0.00     0.202 C 
BRANCH  25  26
ATOM     26  C   UNL A   1      37.492  20.025  25.023  1.00  0.00     0.261 C 
BRANCH  26  27
ATOM     27  O   UNL A   1      38.242  21.217  25.315  1.00  0.00    -0.460 OA
BRANCH  27  28
ATOM     28  C   UNL A   1      39.324  21.025  26.107  1.00  0.00     0.338 C 
ATOM     29  O   UNL A   1      39.949  19.993  26.275  1.00  0.00    -0.246 OA
BRANCH  28  30
ATOM     30  C   UNL A   1      39.772  22.321  26.655  1.00  0.00     0.060 A 
ATOM     31  C   UNL A   1      39.188  23.479  26.127  1.00  0.00     0.016 A 
ATOM     32  C   UNL A   1      40.776  22.409  27.622  1.00  0.00     0.016 A 
ATOM     33  C   UNL A   1      39.636  24.733  26.536  1.00  0.00     0.010 A 
ATOM     34  C   UNL A   1      41.228  23.670  28.028  1.00  0.00     0.010 A 
ATOM     35  C   UNL A   1      40.680  24.837  27.466  1.00  0.00    -0.014 A 
BRANCH  35  36
ATOM     36  C   UNL A   1      41.277  26.162  27.752  1.00  0.00     0.031 A 
ATOM     37  C   UNL A   1      42.680  26.449  27.295  1.00  0.00     0.074 A 
ATOM     38  C   UNL A   1      40.570  27.109  28.393  1.00  0.00     0.049 A 
ATOM     39  N   UNL A   1      43.405  27.528  27.461  1.00  0.00    -0.248 NA
ATOM     40  C   UNL A   1      43.359  25.377  26.551  1.00  0.00     0.031 C 
ATOM     41  C   UNL A   1      39.192  26.963  28.857  1.00  0.00     0.029 A 
ATOM     42  N   UNL A   1      40.920  28.381  28.768  1.00  0.00    -0.354 N 
ATOM     43  C   UNL A   1      44.621  27.263  26.845  1.00  0.00     0.074 A 
ATOM     44  C   UNL A   1      44.549  25.913  26.329  1.00  0.00     0.031 C 
ATOM     45  C   UNL A   1      38.816  28.100  29.467  1.00  0.00     0.029 A 
ATOM     46  C   UNL A   1      39.934  29.041  29.458  1.00  0.00     0.049 A 
ATOM     47  H   UNL A   1      41.795  28.783  28.562  1.00  0.00     0.167 HD
ATOM     48  C   UNL A   1      45.695  28.077  26.714  1.00  0.00     0.037 A 
ATOM     49  C   UNL A   1      39.943  30.260  30.033  1.00  0.00     0.037 A 
ATOM     50  C   UNL A   1      45.766  29.420  27.225  1.00  0.00     0.049 A 
ATOM     51  C   UNL A   1      41.174  31.122  29.928  1.00  0.00     0.074 A 
ATOM     52  C   UNL A   1      46.805  30.329  27.124  1.00  0.00     0.029 A 
ATOM     53  N   UNL A   1      44.757  30.044  27.943  1.00  0.00    -0.354 N 
ATOM     54  N   UNL A   1      42.308  30.875  29.320  1.00  0.00    -0.248 NA
ATOM     55  C   UNL A   1      41.122  32.434  30.588  1.00  0.00     0.031 C 
ATOM     56  C   UNL A   1      46.441  31.488  27.818  1.00  0.00     0.029 A 
ATOM     57  C   UNL A   1      45.157  31.318  28.312  1.00  0.00     0.049 A 
ATOM     58  H   UNL A   1      43.885  29.642  28.158  1.00  0.00     0.167 HD
ATOM     59  C   UNL A   1      43.094  32.006  29.499  1.00  0.00     0.074 A 
ATOM     60  C   UNL A   1      42.302  32.947  30.265  1.00  0.00     0.031 C 
ATOM     61  C   UNL A   1      44.356  32.245  29.068  1.00  0.00     0.037 A 
BRANCH  48  62
ATOM     62  C   UNL A   1      46.894  27.527  26.001  1.00  0.00     0.064 A 
ATOM     63  C   UNL A   1      47.036  27.637  24.609  1.00  0.00     0.173 A 
ATOM     64  C   UNL A   1      47.930  26.912  26.721  1.00  0.00     0.173 A 
ATOM     65  F   UNL A   1      46.068  28.204  23.875  1.00  0.00    -0.203 F 
ATOM     66  C   UNL A   1      48.162  27.132  23.963  1.00  0.00     0.198 A 
ATOM     67  C   UNL A   1      49.064  26.432  26.075  1.00  0.00     0.198 A 
ATOM     68  F   UNL A   1      47.842  26.784  28.053  1.00  0.00    -0.203 F 
ATOM     69  F   UNL A   1      48.259  27.212  22.629  1.00  0.00    -0.200 F 
ATOM     70  C   UNL A   1      49.178  26.536  24.697  1.00  0.00     0.200 A 
ATOM     71  F   UNL A   1      50.049  25.864  26.786  1.00  0.00    -0.200 F 
ATOM     72  F   UNL A   1      50.263  26.055  24.074  1.00  0.00    -0.200 F 
ENDBRANCH  48  62
BRANCH  49  73
ATOM     73  C   UNL A   1      38.746  30.737  30.772  1.00  0.00     0.064 A 
ATOM     74  C   UNL A   1      37.706  31.405  30.110  1.00  0.00     0.173 A 
ATOM     75  C   UNL A   1      38.625  30.549  32.156  1.00  0.00     0.173 A 
ATOM     76  F   UNL A   1      37.789  31.632  28.791  1.00  0.00    -0.203 F 
ATOM     77  C   UNL A   1      36.598  31.881  30.808  1.00  0.00     0.198 A 
ATOM     78  C   UNL A   1      37.505  31.002  32.848  1.00  0.00     0.198 A 
ATOM     79  F   UNL A   1      39.594  29.917  32.835  1.00  0.00    -0.203 F 
ATOM     80  F   UNL A   1      35.639  32.554  30.159  1.00  0.00    -0.200 F 
ATOM     81  C   UNL A   1      36.496  31.674  32.176  1.00  0.00     0.200 A 
ATOM     82  F   UNL A   1      37.405  30.791  34.169  1.00  0.00    -0.200 F 
ATOM     83  F   UNL A   1      35.429  32.130  32.846  1.00  0.00    -0.200 F 
ENDBRANCH  49  73
BRANCH  61  84
ATOM     84  C   UNL A   1      44.951  33.587  29.383  1.00  0.00     0.064 A 
ATOM     85  C   UNL A   1      44.817  34.674  28.508  1.00  0.00     0.173 A 
ATOM     86  C   UNL A   1      45.627  33.797  30.595  1.00  0.00     0.173 A 
ATOM     87  F   UNL A   1      44.193  34.521  27.331  1.00  0.00    -0.203 F 
ATOM     88  C   UNL A   1      45.357  35.919  28.826  1.00  0.00     0.198 A 
ATOM     89  C   UNL A   1      46.142  35.048  30.921  1.00  0.00     0.198 A 
ATOM     90  F   UNL A   1      45.776  32.791  31.469  1.00  0.00    -0.203 F 
ATOM     91  F   UNL A   1      45.254  36.933  27.956  1.00  0.00    -0.200 F 
ATOM     92  C   UNL A   1      46.013  36.106  30.034  1.00  0.00     0.200 A 
ATOM     93  F   UNL A   1      46.764  35.230  32.094  1.00  0.00    -0.200 F 
ATOM     94  F   UNL A   1      46.525  37.305  30.340  1.00  0.00    -0.200 F 
ENDBRANCH  61  84
ENDBRANCH  35  36
ENDBRANCH  28  30
ENDBRANCH  27  28
ENDBRANCH  26  27
ENDBRANCH  25  26
ENDBRANCH  24  25
ENDBRANCH  23  24
ENDBRANCH   1  23
TORSDOF 20
ENDMDL
MODEL 2
REMARK VINA RESULT:     -10.5      4.614     10.369
REMARK SMILES Cc1cc(S(=O)(=O)N[C@H](CO)C(C)C)sc1C(=O)OCCOCCOC(=O)c1ccc(-c2c3nc(c(-c4c(F)c(F)c(F)c(F)c4F)c4ccc([nH]4)c(-c4c(F)c(F)c(F)c(F)c4F)c4nc(c(-c5c(F)c(F)c(F)c(F)c5F)c5ccc2[nH]5)C=C4)C=C3)cc1
REMARK SMILES IDX 20 1 19 2 17 3 18 4 16 5 1 6 2 7 3 8 4 9 15 10 5 11 6 12
REMARK SMILES IDX 7 13 8 14 9 16 12 17 13 18 14 19 10 20 11 21 21 23 22 24
REMARK SMILES IDX 23 25 24 26 25 27 26 28 27 29 28 30 29 31 90 32 30 33 89 34
REMARK SMILES IDX 31 35 32 36 33 37 83 38 34 39 88 40 82 41 84 42 35 43 87 44
REMARK SMILES IDX 81 45 80 46 36 48 68 49 48 50 67 51 49 52 52 53 66 54 85 55
REMARK SMILES IDX 50 56 51 57 65 59 86 60 53 61 37 62 38 63 46 64 39 65 40 66
REMARK SMILES IDX 44 67 47 68 41 69 42 70 45 71 43 72 69 73 70 74 78 75 71 76
REMARK SMILES IDX 72 77 76 78 79 79 73 80 74 81 77 82 75 83 54 84 55 85 63 86
REMARK SMILES IDX 56 87 57 88 61 89 64 90 58 91 59 92 62 93 60 94
REMARK H PARENT 8 15 11 22 84 47 52 58
REMARK Flexibility Score: inf
ROOT
ATOM      1  C   UNL A   1      33.017  28.862  27.260  1.00  0.00     0.261 C 
ENDROOT
BRANCH   1   2
ATOM      2  O   UNL A   1      33.900  28.184  26.347  1.00  0.00    -0.459 OA
BRANCH   2   3
ATOM      3  C   UNL A   1      33.414  27.962  25.092  1.00  0.00     0.348 C 
ATOM      4  O   UNL A   1      33.832  28.532  24.092  1.00  0.00    -0.245 OA
BRANCH   3   5
ATOM      5  C   UNL A   1      32.446  26.872  25.121  1.00  0.00     0.116 A 
ATOM      6  C   UNL A   1      30.337  27.817  23.961  1.00  0.00     0.046 C 
ATOM      7  C   UNL A   1      31.113  26.787  24.722  1.00  0.00    -0.024 A 
ATOM      8  C   UNL A   1      30.524  25.548  25.163  1.00  0.00     0.038 A 
ATOM      9  C   UNL A   1      31.402  24.751  25.866  1.00  0.00     0.135 A 
ATOM     10  S   UNL A   1      32.984  25.382  25.795  1.00  0.00    -0.115 S 
BRANCH   9  11
ATOM     11  S   UNL A   1      31.204  23.245  26.789  1.00  0.00     0.250 S 
ATOM     12  O   UNL A   1      32.352  23.166  27.659  1.00  0.00    -0.206 OA
ATOM     13  O   UNL A   1      29.856  23.302  27.320  1.00  0.00    -0.206 OA
BRANCH  11  14
ATOM     14  N   UNL A   1      31.243  21.962  25.700  1.00  0.00    -0.205 NA
ATOM     15  H   UNL A   1      30.446  22.092  25.077  1.00  0.00     0.141 HD
BRANCH  14  16
ATOM     16  C   UNL A   1      32.425  21.698  24.815  1.00  0.00     0.098 C 
BRANCH  16  17
ATOM     17  C   UNL A   1      33.266  20.469  25.223  1.00  0.00     0.003 C 
ATOM     18  C   UNL A   1      32.923  19.220  24.400  1.00  0.00     0.009 C 
ATOM     19  C   UNL A   1      34.768  20.729  25.092  1.00  0.00     0.009 C 
ENDBRANCH  16  17
BRANCH  16  20
ATOM     20  C   UNL A   1      31.955  21.684  23.347  1.00  0.00     0.176 C 
BRANCH  20  21
ATOM     21  O   UNL A   1      31.687  23.022  22.917  1.00  0.00    -0.395 OA
ATOM     22  H   UNL A   1      30.781  23.076  22.576  1.00  0.00     0.210 HD
ENDBRANCH  20  21
ENDBRANCH  16  20
ENDBRANCH  14  16
ENDBRANCH  11  14
ENDBRANCH   9  11
ENDBRANCH   3   5
ENDBRANCH   2   3
ENDBRANCH   1   2
BRANCH   1  23
ATOM     23  C   UNL A   1      33.087  30.370  27.003  1.00  0.00     0.202 C 
BRANCH  23  24
ATOM     24  O   UNL A   1      31.885  30.921  26.460  1.00  0.00    -0.374 OA
BRANCH  24  25
ATOM     25  C   UNL A   1      31.624  32.291  26.768  1.00  0.00     0.202 C 
BRANCH  25  26
ATOM     26  C   UNL A   1      32.578  32.904  27.798  1.00  0.00     0.261 C 
BRANCH  26  27
ATOM     27  O   UNL A   1      32.820  34.294  27.519  1.00  0.00    -0.460 OA
BRANCH  27  28
ATOM     28  C   UNL A   1      33.037  35.062  28.614  1.00  0.00     0.338 C 
ATOM     29  O   UNL A   1      32.354  35.984  29.023  1.00  0.00    -0.246 OA
BRANCH  28  30
ATOM     30  C   UNL A   1      34.176  34.520  29.381  1.00  0.00     0.060 A 
ATOM     31  C   UNL A   1      35.429  34.520  28.757  1.00  0.00     0.016 A 
ATOM     32  C   UNL A   1      34.019  33.975  30.657  1.00  0.00     0.016 A 
ATOM     33  C   UNL A   1      36.524  33.937  29.392  1.00  0.00     0.010 A 
ATOM     34  C   UNL A   1      35.118  33.385  31.291  1.00  0.00     0.010 A 
ATOM     35  C   UNL A   1      36.369  33.338  30.650  1.00  0.00    -0.014 A 
BRANCH  35  36
ATOM     36  C   UNL A   1      37.485  32.557  31.233  1.00  0.00     0.031 A 
ATOM     37  C   UNL A   1      37.988  32.909  32.605  1.00  0.00     0.074 A 
ATOM     38  C   UNL A   1      38.029  31.530  30.557  1.00  0.00     0.049 A 
ATOM     39  N   UNL A   1      38.967  32.377  33.293  1.00  0.00    -0.248 NA
ATOM     40  C   UNL A   1      37.295  34.009  33.294  1.00  0.00     0.031 C 
ATOM     41  C   UNL A   1      37.608  31.072  29.236  1.00  0.00     0.029 A 
ATOM     42  N   UNL A   1      39.061  30.691  30.893  1.00  0.00    -0.354 N 
ATOM     43  C   UNL A   1      39.008  33.077  34.492  1.00  0.00     0.074 A 
ATOM     44  C   UNL A   1      37.978  34.091  34.426  1.00  0.00     0.031 C 
ATOM     45  C   UNL A   1      38.384  30.039  28.866  1.00  0.00     0.029 A 
ATOM     46  C   UNL A   1      39.371  29.782  29.913  1.00  0.00     0.049 A 
ATOM     47  H   UNL A   1      39.535  30.736  31.755  1.00  0.00     0.167 HD
ATOM     48  C   UNL A   1      39.825  32.883  35.554  1.00  0.00     0.037 A 
ATOM     49  C   UNL A   1      40.353  28.860  29.861  1.00  0.00     0.037 A 
ATOM     50  C   UNL A   1      40.849  31.873  35.620  1.00  0.00     0.049 A 
ATOM     51  C   UNL A   1      41.289  28.707  31.031  1.00  0.00     0.074 A 
ATOM     52  C   UNL A   1      41.713  31.587  36.663  1.00  0.00     0.029 A 
ATOM     53  N   UNL A   1      41.150  30.989  34.597  1.00  0.00    -0.354 N 
ATOM     54  N   UNL A   1      41.304  29.354  32.170  1.00  0.00    -0.248 NA
ATOM     55  C   UNL A   1      42.346  27.693  30.905  1.00  0.00     0.031 C 
ATOM     56  C   UNL A   1      42.567  30.557  36.252  1.00  0.00     0.029 A 
ATOM     57  C   UNL A   1      42.204  30.171  34.972  1.00  0.00     0.049 A 
ATOM     58  H   UNL A   1      40.684  30.947  33.730  1.00  0.00     0.167 HD
ATOM     59  C   UNL A   1      42.347  28.809  32.908  1.00  0.00     0.074 A 
ATOM     60  C   UNL A   1      42.938  27.770  32.089  1.00  0.00     0.031 C 
ATOM     61  C   UNL A   1      42.777  29.137  34.150  1.00  0.00     0.037 A 
BRANCH  48  62
ATOM     62  C   UNL A   1      39.657  33.798  36.730  1.00  0.00     0.064 A 
ATOM     63  C   UNL A   1      40.280  35.054  36.779  1.00  0.00     0.173 A 
ATOM     64  C   UNL A   1      38.835  33.430  37.806  1.00  0.00     0.173 A 
ATOM     65  F   UNL A   1      41.087  35.446  35.782  1.00  0.00    -0.203 F 
ATOM     66  C   UNL A   1      40.104  35.898  37.873  1.00  0.00     0.198 A 
ATOM     67  C   UNL A   1      38.641  34.286  38.885  1.00  0.00     0.198 A 
ATOM     68  F   UNL A   1      38.215  32.241  37.805  1.00  0.00    -0.203 F 
ATOM     69  F   UNL A   1      40.741  37.076  37.918  1.00  0.00    -0.200 F 
ATOM     70  C   UNL A   1      39.279  35.517  38.921  1.00  0.00     0.200 A 
ATOM     71  F   UNL A   1      37.837  33.920  39.893  1.00  0.00    -0.200 F 
ATOM     72  F   UNL A   1      39.107  36.332  39.971  1.00  0.00    -0.200 F 
ENDBRANCH  48  62
BRANCH  49  73
ATOM     73  C   UNL A   1      40.508  28.013  28.651  1.00  0.00     0.064 A 
ATOM     74  C   UNL A   1      41.282  28.440  27.564  1.00  0.00     0.173 A 
ATOM     75  C   UNL A   1      39.873  26.766  28.552  1.00  0.00     0.173 A 
ATOM     76  F   UNL A   1      41.888  29.636  27.602  1.00  0.00    -0.203 F 
ATOM     77  C   UNL A   1      41.402  27.660  26.415  1.00  0.00     0.198 A 
ATOM     78  C   UNL A   1      40.014  25.976  27.414  1.00  0.00     0.198 A 
ATOM     79  F   UNL A   1      39.119  26.314  29.565  1.00  0.00    -0.203 F 
ATOM     80  F   UNL A   1      42.112  28.111  25.373  1.00  0.00    -0.200 F 
ATOM     81  C   UNL A   1      40.772  26.426  26.344  1.00  0.00     0.200 A 
ATOM     82  F   UNL A   1      39.412  24.779  27.353  1.00  0.00    -0.200 F 
ATOM     83  F   UNL A   1      40.889  25.675  25.240  1.00  0.00    -0.200 F 
ENDBRANCH  49  73
BRANCH  61  84
ATOM     84  C   UNL A   1      43.920  28.347  34.717  1.00  0.00     0.064 A 
ATOM     85  C   UNL A   1      43.711  27.150  35.415  1.00  0.00     0.173 A 
ATOM     86  C   UNL A   1      45.243  28.773  34.523  1.00  0.00     0.173 A 
ATOM     87  F   UNL A   1      42.465  26.708  35.640  1.00  0.00    -0.203 F 
ATOM     88  C   UNL A   1      44.785  26.417  35.916  1.00  0.00     0.198 A 
ATOM     89  C   UNL A   1      46.315  28.025  35.002  1.00  0.00     0.198 A 
ATOM     90  F   UNL A   1      45.497  29.909  33.856  1.00  0.00    -0.203 F 
ATOM     91  F   UNL A   1      44.560  25.297  36.618  1.00  0.00    -0.200 F 
ATOM     92  C   UNL A   1      46.085  26.852  35.704  1.00  0.00     0.200 A 
ATOM     93  F   UNL A   1      47.571  28.440  34.784  1.00  0.00    -0.200 F 
ATOM     94  F   UNL A   1      47.116  26.142  36.181  1.00  0.00    -0.200 F 
ENDBRANCH  61  84
ENDBRANCH  35  36
ENDBRANCH  28  30
ENDBRANCH  27  28
ENDBRANCH  26  27
ENDBRANCH  25  26
ENDBRANCH  24  25
ENDBRANCH  23  24
ENDBRANCH   1  23
TORSDOF 20
ENDMDL
MODEL 3
REMARK VINA RESULT:     -10.4      0.469      7.359
REMARK SMILES Cc1cc(S(=O)(=O)N[C@H](CO)C(C)C)sc1C(=O)OCCOCCOC(=O)c1ccc(-c2c3nc(c(-c4c(F)c(F)c(F)c(F)c4F)c4ccc([nH]4)c(-c4c(F)c(F)c(F)c(F)c4F)c4nc(c(-c5c(F)c(F)c(F)c(F)c5F)c5ccc2[nH]5)C=C4)C=C3)cc1
REMARK SMILES IDX 20 1 19 2 17 3 18 4 16 5 1 6 2 7 3 8 4 9 15 10 5 11 6 12
REMARK SMILES IDX 7 13 8 14 9 16 12 17 13 18 14 19 10 20 11 21 21 23 22 24
REMARK SMILES IDX 23 25 24 26 25 27 26 28 27 29 28 30 29 31 90 32 30 33 89 34
REMARK SMILES IDX 31 35 32 36 33 37 83 38 34 39 88 40 82 41 84 42 35 43 87 44
REMARK SMILES IDX 81 45 80 46 36 48 68 49 48 50 67 51 49 52 52 53 66 54 85 55
REMARK SMILES IDX 50 56 51 57 65 59 86 60 53 61 37 62 38 63 46 64 39 65 40 66
REMARK SMILES IDX 44 67 47 68 41 69 42 70 45 71 43 72 69 73 70 74 78 75 71 76
REMARK SMILES IDX 72 77 76 78 79 79 73 80 74 81 77 82 75 83 54 84 55 85 63 86
REMARK SMILES IDX 56 87 57 88 61 89 64 90 58 91 59 92 62 93 60 94
REMARK H PARENT 8 15 11 22 84 47 52 58
REMARK Flexibility Score: inf
ROOT
ATOM      1  C   UNL A   1      33.012  20.011  25.645  1.00  0.00     0.261 C 
ENDROOT
BRANCH   1   2
ATOM      2  O   UNL A   1      32.842  21.437  25.537  1.00  0.00    -0.459 OA
BRANCH   2   3
ATOM      3  C   UNL A   1      33.337  22.183  26.565  1.00  0.00     0.348 C 
ATOM      4  O   UNL A   1      33.756  21.703  27.611  1.00  0.00    -0.245 OA
BRANCH   3   5
ATOM      5  C   UNL A   1      33.410  23.584  26.171  1.00  0.00     0.116 A 
ATOM      6  C   UNL A   1      35.753  23.861  25.112  1.00  0.00     0.046 C 
ATOM      7  C   UNL A   1      34.435  24.354  25.622  1.00  0.00    -0.024 A 
ATOM      8  C   UNL A   1      34.079  25.751  25.617  1.00  0.00     0.038 A 
ATOM      9  C   UNL A   1      32.832  25.994  26.150  1.00  0.00     0.135 A 
ATOM     10  S   UNL A   1      32.000  24.535  26.438  1.00  0.00    -0.115 S 
BRANCH   9  11
ATOM     11  S   UNL A   1      31.958  27.485  26.568  1.00  0.00     0.250 S 
ATOM     12  O   UNL A   1      30.703  27.057  27.134  1.00  0.00    -0.206 OA
ATOM     13  O   UNL A   1      32.903  28.273  27.335  1.00  0.00    -0.206 OA
BRANCH  11  14
ATOM     14  N   UNL A   1      31.665  28.330  25.142  1.00  0.00    -0.205 NA
ATOM     15  H   UNL A   1      32.248  29.167  25.182  1.00  0.00     0.141 HD
BRANCH  14  16
ATOM     16  C   UNL A   1      31.896  27.724  23.789  1.00  0.00     0.098 C 
BRANCH  16  17
ATOM     17  C   UNL A   1      30.646  27.688  22.885  1.00  0.00     0.003 C 
ATOM     18  C   UNL A   1      29.404  27.160  23.616  1.00  0.00     0.009 C 
ATOM     19  C   UNL A   1      30.310  29.066  22.309  1.00  0.00     0.009 C 
ENDBRANCH  16  17
BRANCH  16  20
ATOM     20  C   UNL A   1      33.124  28.398  23.145  1.00  0.00     0.176 C 
BRANCH  20  21
ATOM     21  O   UNL A   1      33.356  29.666  23.767  1.00  0.00    -0.395 OA
ATOM     22  H   UNL A   1      34.310  29.819  23.841  1.00  0.00     0.210 HD
ENDBRANCH  20  21
ENDBRANCH  16  20
ENDBRANCH  14  16
ENDBRANCH  11  14
ENDBRANCH   9  11
ENDBRANCH   3   5
ENDBRANCH   2   3
ENDBRANCH   1   2
BRANCH   1  23
ATOM     23  C   UNL A   1      33.815  19.506  24.443  1.00  0.00     0.202 C 
BRANCH  23  24
ATOM     24  O   UNL A   1      35.196  19.271  24.726  1.00  0.00    -0.374 OA
BRANCH  24  25
ATOM     25  C   UNL A   1      35.999  20.428  24.957  1.00  0.00     0.202 C 
BRANCH  25  26
ATOM     26  C   UNL A   1      37.505  20.155  25.027  1.00  0.00     0.261 C 
BRANCH  26  27
ATOM     27  O   UNL A   1      38.225  21.320  25.462  1.00  0.00    -0.460 OA
BRANCH  27  28
ATOM     28  C   UNL A   1      39.359  21.058  26.156  1.00  0.00     0.338 C 
ATOM     29  O   UNL A   1      39.941  19.992  26.255  1.00  0.00    -0.246 OA
BRANCH  28  30
ATOM     30  C   UNL A   1      39.921  22.318  26.680  1.00  0.00     0.060 A 
ATOM     31  C   UNL A   1      39.412  23.515  26.162  1.00  0.00     0.016 A 
ATOM     32  C   UNL A   1      40.958  22.335  27.616  1.00  0.00     0.016 A 
ATOM     33  C   UNL A   1      39.966  24.734  26.548  1.00  0.00     0.010 A 
ATOM     34  C   UNL A   1      41.517  23.560  27.999  1.00  0.00     0.010 A 
ATOM     35  C   UNL A   1      41.043  24.762  27.445  1.00  0.00    -0.014 A 
BRANCH  35  36
ATOM     36  C   UNL A   1      41.748  26.039  27.704  1.00  0.00     0.031 A 
ATOM     37  C   UNL A   1      41.049  27.119  28.481  1.00  0.00     0.074 A 
ATOM     38  C   UNL A   1      43.007  26.227  27.271  1.00  0.00     0.049 A 
ATOM     39  N   UNL A   1      41.467  28.319  28.799  1.00  0.00    -0.248 NA
ATOM     40  C   UNL A   1      39.695  26.805  28.965  1.00  0.00     0.031 C 
ATOM     41  C   UNL A   1      43.802  25.246  26.537  1.00  0.00     0.029 A 
ATOM     42  N   UNL A   1      43.835  27.315  27.386  1.00  0.00    -0.354 N 
ATOM     43  C   UNL A   1      40.430  28.901  29.516  1.00  0.00     0.074 A 
ATOM     44  C   UNL A   1      39.352  27.937  29.561  1.00  0.00     0.031 C 
ATOM     45  C   UNL A   1      45.001  25.781  26.255  1.00  0.00     0.029 A 
ATOM     46  C   UNL A   1      45.048  27.150  26.766  1.00  0.00     0.049 A 
ATOM     47  H   UNL A   1      43.583  28.137  27.866  1.00  0.00     0.167 HD
ATOM     48  C   UNL A   1      40.387  30.125  30.093  1.00  0.00     0.037 A 
ATOM     49  C   UNL A   1      46.071  28.014  26.613  1.00  0.00     0.037 A 
ATOM     50  C   UNL A   1      41.460  31.084  30.050  1.00  0.00     0.049 A 
ATOM     51  C   UNL A   1      45.972  29.393  27.210  1.00  0.00     0.074 A 
ATOM     52  C   UNL A   1      41.517  32.343  30.623  1.00  0.00     0.029 A 
ATOM     53  N   UNL A   1      42.663  30.890  29.390  1.00  0.00    -0.354 N 
ATOM     54  N   UNL A   1      45.001  29.926  27.910  1.00  0.00    -0.248 NA
ATOM     55  C   UNL A   1      47.117  30.291  26.996  1.00  0.00     0.031 C 
ATOM     56  C   UNL A   1      42.738  32.928  30.271  1.00  0.00     0.029 A 
ATOM     57  C   UNL A   1      43.461  32.016  29.519  1.00  0.00     0.049 A 
ATOM     58  H   UNL A   1      42.914  30.073  28.900  1.00  0.00     0.167 HD
ATOM     59  C   UNL A   1      45.425  31.206  28.244  1.00  0.00     0.074 A 
ATOM     60  C   UNL A   1      46.748  31.368  27.678  1.00  0.00     0.031 C 
ATOM     61  C   UNL A   1      44.778  32.160  28.955  1.00  0.00     0.037 A 
BRANCH  48  62
ATOM     62  C   UNL A   1      39.125  30.507  30.809  1.00  0.00     0.064 A 
ATOM     63  C   UNL A   1      38.982  30.324  32.192  1.00  0.00     0.173 A 
ATOM     64  C   UNL A   1      38.061  31.093  30.109  1.00  0.00     0.173 A 
ATOM     65  F   UNL A   1      39.966  29.755  32.904  1.00  0.00    -0.203 F 
ATOM     66  C   UNL A   1      37.808  30.695  32.844  1.00  0.00     0.198 A 
ATOM     67  C   UNL A   1      36.900  31.486  30.768  1.00  0.00     0.198 A 
ATOM     68  F   UNL A   1      38.150  31.291  28.785  1.00  0.00    -0.203 F 
ATOM     69  F   UNL A   1      37.676  30.474  34.160  1.00  0.00    -0.200 F 
ATOM     70  C   UNL A   1      36.771  31.282  32.133  1.00  0.00     0.200 A 
ATOM     71  F   UNL A   1      35.903  32.060  30.081  1.00  0.00    -0.200 F 
ATOM     72  F   UNL A   1      35.644  31.642  32.763  1.00  0.00    -0.200 F 
ENDBRANCH  48  62
BRANCH  49  73
ATOM     73  C   UNL A   1      47.278  27.603  25.851  1.00  0.00     0.064 A 
ATOM     74  C   UNL A   1      48.414  27.110  26.508  1.00  0.00     0.173 A 
ATOM     75  C   UNL A   1      47.325  27.711  24.454  1.00  0.00     0.173 A 
ATOM     76  F   UNL A   1      48.425  27.013  27.845  1.00  0.00    -0.203 F 
ATOM     77  C   UNL A   1      49.558  26.754  25.796  1.00  0.00     0.198 A 
ATOM     78  C   UNL A   1      48.460  27.331  23.741  1.00  0.00     0.198 A 
ATOM     79  F   UNL A   1      46.264  28.179  23.780  1.00  0.00    -0.203 F 
ATOM     80  F   UNL A   1      50.646  26.327  26.450  1.00  0.00    -0.200 F 
ATOM     81  C   UNL A   1      49.577  26.860  24.413  1.00  0.00     0.200 A 
ATOM     82  F   UNL A   1      48.471  27.425  22.404  1.00  0.00    -0.200 F 
ATOM     83  F   UNL A   1      50.677  26.516  23.729  1.00  0.00    -0.200 F 
ENDBRANCH  49  73
BRANCH  61  84
ATOM     84  C   UNL A   1      45.501  33.454  29.193  1.00  0.00     0.064 A 
ATOM     85  C   UNL A   1      45.317  34.563  28.355  1.00  0.00     0.173 A 
ATOM     86  C   UNL A   1      46.355  33.598  30.296  1.00  0.00     0.173 A 
ATOM     87  F   UNL A   1      44.521  34.472  27.279  1.00  0.00    -0.203 F 
ATOM     88  C   UNL A   1      45.978  35.764  28.603  1.00  0.00     0.198 A 
ATOM     89  C   UNL A   1      46.994  34.807  30.556  1.00  0.00     0.198 A 
ATOM     90  F   UNL A   1      46.560  32.568  31.131  1.00  0.00    -0.203 F 
ATOM     91  F   UNL A   1      45.820  36.799  27.765  1.00  0.00    -0.200 F 
ATOM     92  C   UNL A   1      46.811  35.887  29.705  1.00  0.00     0.200 A 
ATOM     93  F   UNL A   1      47.788  34.927  31.629  1.00  0.00    -0.200 F 
ATOM     94  F   UNL A   1      47.441  37.044  29.945  1.00  0.00    -0.200 F 
ENDBRANCH  61  84
ENDBRANCH  35  36
ENDBRANCH  28  30
ENDBRANCH  27  28
ENDBRANCH  26  27
ENDBRANCH  25  26
ENDBRANCH  24  25
ENDBRANCH  23  24
ENDBRANCH   1  23
TORSDOF 20
ENDMDL
