MODEL 1
REMARK VINA RESULT:     -11.2      0.000      0.000
REMARK SMILES O=C(CCNc1cc(N2CCC3(CC2)OCCO3)c2noc3c2c1C(=O)c1ccccc1-3)OCCOCCOC(=O)c1ccc(-c2c3nc(c(-c4c(F)c(F)c(F)c(F)c4F)c4ccc([nH]4)c(-c4c(F)c(F)c(F)c(F)c4F)c4nc(c(-c5c(F)c(F)c(F)c(F)c5F)c5ccc2[nH]5)C=C4)C=C3)cc1
REMARK SMILES IDX 35 1 34 2 33 3 2 4 1 5 3 6 4 7 5 8 6 10 7 11 24 12 8 13
REMARK SMILES IDX 23 14 25 15 19 16 22 17 26 18 27 19 20 20 21 21 32 22 28 23
REMARK SMILES IDX 31 24 29 25 30 26 9 27 10 28 14 29 11 30 13 31 12 32 15 33
REMARK SMILES IDX 18 34 16 35 17 36 36 37 37 38 38 39 39 40 40 41 41 42 42 43
REMARK SMILES IDX 43 44 104 45 44 46 103 47 45 48 46 49 47 50 97 51 48 52
REMARK SMILES IDX 102 53 96 54 98 55 49 56 101 57 95 58 94 59 50 61 82 62
REMARK SMILES IDX 62 63 81 64 63 65 66 66 80 67 99 68 64 69 65 70 79 72 100 73
REMARK SMILES IDX 67 74 51 75 52 76 60 77 53 78 54 79 58 80 61 81 55 82 56 83
REMARK SMILES IDX 59 84 57 85 83 86 84 87 92 88 85 89 86 90 90 91 93 92 87 93
REMARK SMILES IDX 88 94 91 95 89 96 68 97 69 98 77 99 70 100 71 101 75 102
REMARK SMILES IDX 78 103 72 104 73 105 76 106 74 107
REMARK H PARENT 5 9 98 60 66 71
REMARK Flexibility Score: inf
ROOT
ATOM      1  C   UNL A   1      46.566  24.278  25.329  1.00  0.00     0.202 C 
ENDROOT
BRANCH   1   2
ATOM      2  C   UNL A   1      46.391  23.144  24.311  1.00  0.00     0.261 C 
BRANCH   2   3
ATOM      3  O   UNL A   1      46.533  21.770  24.719  1.00  0.00    -0.463 OA
BRANCH   3   4
ATOM      4  C   UNL A   1      45.607  20.870  25.073  1.00  0.00     0.307 C 
ATOM      5  O   UNL A   1      45.960  19.729  25.367  1.00  0.00    -0.252 OA
BRANCH   4   6
ATOM      6  C   UNL A   1      44.164  21.240  25.074  1.00  0.00     0.144 C 
BRANCH   6   7
ATOM      7  C   UNL A   1      43.259  20.174  25.645  1.00  0.00     0.124 C 
BRANCH   7   8
ATOM      8  N   UNL A   1      42.752  20.485  26.990  1.00  0.00    -0.384 N 
ATOM      9  H   UNL A   1      42.850  19.822  27.710  1.00  0.00     0.160 HD
BRANCH   8  10
ATOM     10  C   UNL A   1      42.132  21.716  27.259  1.00  0.00     0.048 A 
ATOM     11  C   UNL A   1      42.901  22.675  28.040  1.00  0.00     0.054 A 
ATOM     12  C   UNL A   1      40.811  22.018  26.892  1.00  0.00     0.059 A 
ATOM     13  C   UNL A   1      42.515  24.011  28.417  1.00  0.00     0.069 A 
ATOM     14  C   UNL A   1      40.480  23.313  27.236  1.00  0.00     0.065 A 
ATOM     15  C   UNL A   1      39.765  21.170  26.264  1.00  0.00     0.196 C 
ATOM     16  C   UNL A   1      41.207  24.309  27.945  1.00  0.00     0.138 A 
ATOM     17  C   UNL A   1      39.288  23.836  26.866  1.00  0.00     0.176 A 
ATOM     18  O   UNL A   1      39.850  19.950  26.215  1.00  0.00    -0.288 OA
ATOM     19  C   UNL A   1      38.533  21.836  25.740  1.00  0.00     0.034 A 
ATOM     20  N   UNL A   1      40.420  25.412  28.008  1.00  0.00    -0.077 NA
ATOM     21  O   UNL A   1      39.228  25.113  27.315  1.00  0.00    -0.355 OA
ATOM     22  C   UNL A   1      38.264  23.182  26.083  1.00  0.00     0.032 A 
ATOM     23  C   UNL A   1      37.657  21.099  24.941  1.00  0.00     0.013 A 
ATOM     24  C   UNL A   1      37.081  23.766  25.640  1.00  0.00     0.013 A 
ATOM     25  C   UNL A   1      36.484  21.696  24.494  1.00  0.00     0.001 A 
ATOM     26  C   UNL A   1      36.194  23.017  24.853  1.00  0.00     0.001 A 
BRANCH  13  27
ATOM     27  N   UNL A   1      43.375  24.794  29.166  1.00  0.00    -0.369 N 
ATOM     28  C   UNL A   1      44.238  24.211  30.183  1.00  0.00     0.122 C 
ATOM     29  C   UNL A   1      43.168  26.237  29.261  1.00  0.00     0.122 C 
ATOM     30  C   UNL A   1      45.627  24.826  30.008  1.00  0.00     0.087 C 
ATOM     31  C   UNL A   1      44.513  26.941  29.116  1.00  0.00     0.087 C 
ATOM     32  C   UNL A   1      45.582  26.358  30.044  1.00  0.00     0.171 C 
ATOM     33  O   UNL A   1      45.344  26.809  31.392  1.00  0.00    -0.347 OA
ATOM     34  O   UNL A   1      46.874  26.848  29.613  1.00  0.00    -0.347 OA
ATOM     35  C   UNL A   1      46.614  27.277  31.853  1.00  0.00     0.192 C 
ATOM     36  C   UNL A   1      47.270  27.793  30.604  1.00  0.00     0.192 C 
ENDBRANCH  13  27
ENDBRANCH   8  10
ENDBRANCH   7   8
ENDBRANCH   6   7
ENDBRANCH   4   6
ENDBRANCH   3   4
ENDBRANCH   2   3
ENDBRANCH   1   2
BRANCH   1  37
ATOM     37  O   UNL A   1      46.537  25.615  24.852  1.00  0.00    -0.374 OA
BRANCH  37  38
ATOM     38  C   UNL A   1      45.904  26.605  25.648  1.00  0.00     0.202 C 
BRANCH  38  39
ATOM     39  C   UNL A   1      45.167  27.672  24.841  1.00  0.00     0.261 C 
BRANCH  39  40
ATOM     40  O   UNL A   1      44.261  28.371  25.706  1.00  0.00    -0.460 OA
BRANCH  40  41
ATOM     41  C   UNL A   1      42.945  28.378  25.387  1.00  0.00     0.338 C 
ATOM     42  O   UNL A   1      42.384  27.788  24.483  1.00  0.00    -0.246 OA
BRANCH  41  43
ATOM     43  C   UNL A   1      42.274  29.017  26.535  1.00  0.00     0.060 A 
ATOM     44  C   UNL A   1      43.027  29.632  27.537  1.00  0.00     0.016 A 
ATOM     45  C   UNL A   1      40.902  28.802  26.700  1.00  0.00     0.016 A 
ATOM     46  C   UNL A   1      42.409  30.000  28.727  1.00  0.00     0.010 A 
ATOM     47  C   UNL A   1      40.296  29.137  27.908  1.00  0.00     0.010 A 
ATOM     48  C   UNL A   1      41.044  29.740  28.928  1.00  0.00    -0.014 A 
BRANCH  48  49
ATOM     49  C   UNL A   1      40.413  30.267  30.151  1.00  0.00     0.031 A 
ATOM     50  C   UNL A   1      40.567  29.424  31.377  1.00  0.00     0.074 A 
ATOM     51  C   UNL A   1      40.132  31.578  30.298  1.00  0.00     0.049 A 
ATOM     52  N   UNL A   1      41.566  29.527  32.209  1.00  0.00    -0.248 NA
ATOM     53  C   UNL A   1      39.755  28.223  31.576  1.00  0.00     0.031 C 
ATOM     54  C   UNL A   1      41.024  32.666  29.882  1.00  0.00     0.029 A 
ATOM     55  N   UNL A   1      39.140  32.202  31.019  1.00  0.00    -0.354 N 
ATOM     56  C   UNL A   1      41.543  28.402  33.016  1.00  0.00     0.074 A 
ATOM     57  C   UNL A   1      40.399  27.625  32.589  1.00  0.00     0.031 C 
ATOM     58  C   UNL A   1      40.633  33.799  30.502  1.00  0.00     0.029 A 
ATOM     59  C   UNL A   1      39.393  33.552  31.238  1.00  0.00     0.049 A 
ATOM     60  H   UNL A   1      38.334  31.740  31.344  1.00  0.00     0.167 HD
ATOM     61  C   UNL A   1      42.458  28.158  33.990  1.00  0.00     0.037 A 
ATOM     62  C   UNL A   1      39.008  34.232  32.354  1.00  0.00     0.037 A 
ATOM     63  C   UNL A   1      43.469  29.154  34.170  1.00  0.00     0.049 A 
ATOM     64  C   UNL A   1      39.945  33.640  33.380  1.00  0.00     0.074 A 
ATOM     65  C   UNL A   1      44.786  29.354  33.817  1.00  0.00     0.029 A 
ATOM     66  N   UNL A   1      43.127  30.283  34.876  1.00  0.00    -0.354 N 
ATOM     67  N   UNL A   1      41.198  33.963  33.560  1.00  0.00    -0.248 NA
ATOM     68  C   UNL A   1      39.547  32.371  33.997  1.00  0.00     0.031 C 
ATOM     69  C   UNL A   1      44.994  30.768  33.915  1.00  0.00     0.029 A 
ATOM     70  C   UNL A   1      43.773  31.333  34.281  1.00  0.00     0.049 A 
ATOM     71  H   UNL A   1      42.532  30.327  35.659  1.00  0.00     0.167 HD
ATOM     72  C   UNL A   1      41.803  32.819  34.085  1.00  0.00     0.074 A 
ATOM     73  C   UNL A   1      40.729  31.885  34.347  1.00  0.00     0.031 C 
ATOM     74  C   UNL A   1      43.154  32.625  34.107  1.00  0.00     0.037 A 
BRANCH  61  75
ATOM     75  C   UNL A   1      42.349  27.076  34.986  1.00  0.00     0.064 A 
ATOM     76  C   UNL A   1      42.854  25.816  34.630  1.00  0.00     0.173 A 
ATOM     77  C   UNL A   1      41.585  27.180  36.151  1.00  0.00     0.173 A 
ATOM     78  F   UNL A   1      43.583  25.680  33.509  1.00  0.00    -0.203 F 
ATOM     79  C   UNL A   1      42.563  24.686  35.382  1.00  0.00     0.198 A 
ATOM     80  C   UNL A   1      41.305  26.044  36.913  1.00  0.00     0.198 A 
ATOM     81  F   UNL A   1      41.071  28.361  36.523  1.00  0.00    -0.203 F 
ATOM     82  F   UNL A   1      43.011  23.488  34.984  1.00  0.00    -0.200 F 
ATOM     83  C   UNL A   1      41.779  24.799  36.518  1.00  0.00     0.200 A 
ATOM     84  F   UNL A   1      40.547  26.147  38.013  1.00  0.00    -0.200 F 
ATOM     85  F   UNL A   1      41.469  23.704  37.226  1.00  0.00    -0.200 F 
ENDBRANCH  61  75
BRANCH  62  86
ATOM     86  C   UNL A   1      37.528  34.362  32.565  1.00  0.00     0.064 A 
ATOM     87  C   UNL A   1      36.681  34.326  31.436  1.00  0.00     0.173 A 
ATOM     88  C   UNL A   1      36.888  34.530  33.803  1.00  0.00     0.173 A 
ATOM     89  F   UNL A   1      37.204  34.291  30.201  1.00  0.00    -0.203 F 
ATOM     90  C   UNL A   1      35.290  34.319  31.551  1.00  0.00     0.198 A 
ATOM     91  C   UNL A   1      35.496  34.493  33.922  1.00  0.00     0.198 A 
ATOM     92  F   UNL A   1      37.593  34.716  34.926  1.00  0.00    -0.203 F 
ATOM     93  F   UNL A   1      34.527  34.242  30.451  1.00  0.00    -0.200 F 
ATOM     94  C   UNL A   1      34.698  34.368  32.799  1.00  0.00     0.200 A 
ATOM     95  F   UNL A   1      34.932  34.556  35.136  1.00  0.00    -0.200 F 
ATOM     96  F   UNL A   1      33.366  34.300  32.920  1.00  0.00    -0.200 F 
ENDBRANCH  62  86
BRANCH  74  97
ATOM     97  C   UNL A   1      43.980  33.792  33.695  1.00  0.00     0.064 A 
ATOM     98  C   UNL A   1      44.428  34.709  34.652  1.00  0.00     0.173 A 
ATOM     99  C   UNL A   1      44.373  33.981  32.360  1.00  0.00     0.173 A 
ATOM    100  F   UNL A   1      44.089  34.560  35.943  1.00  0.00    -0.203 F 
ATOM    101  C   UNL A   1      45.259  35.765  34.294  1.00  0.00     0.198 A 
ATOM    102  C   UNL A   1      45.226  35.022  32.011  1.00  0.00     0.198 A 
ATOM    103  F   UNL A   1      43.960  33.142  31.397  1.00  0.00    -0.203 F 
ATOM    104  F   UNL A   1      45.685  36.626  35.227  1.00  0.00    -0.200 F 
ATOM    105  C   UNL A   1      45.669  35.913  32.976  1.00  0.00     0.200 A 
ATOM    106  F   UNL A   1      45.640  35.148  30.741  1.00  0.00    -0.200 F 
ATOM    107  F   UNL A   1      46.505  36.905  32.642  1.00  0.00    -0.200 F 
ENDBRANCH  74  97
ENDBRANCH  48  49
ENDBRANCH  41  43
ENDBRANCH  40  41
ENDBRANCH  39  40
ENDBRANCH  38  39
ENDBRANCH  37  38
ENDBRANCH   1  37
TORSDOF 18
ENDMDL
MODEL 2
REMARK VINA RESULT:     -11.2      2.159      7.994
REMARK SMILES O=C(CCNc1cc(N2CCC3(CC2)OCCO3)c2noc3c2c1C(=O)c1ccccc1-3)OCCOCCOC(=O)c1ccc(-c2c3nc(c(-c4c(F)c(F)c(F)c(F)c4F)c4ccc([nH]4)c(-c4c(F)c(F)c(F)c(F)c4F)c4nc(c(-c5c(F)c(F)c(F)c(F)c5F)c5ccc2[nH]5)C=C4)C=C3)cc1
REMARK SMILES IDX 35 1 34 2 33 3 2 4 1 5 3 6 4 7 5 8 6 10 7 11 24 12 8 13
REMARK SMILES IDX 23 14 25 15 19 16 22 17 26 18 27 19 20 20 21 21 32 22 28 23
REMARK SMILES IDX 31 24 29 25 30 26 9 27 10 28 14 29 11 30 13 31 12 32 15 33
REMARK SMILES IDX 18 34 16 35 17 36 36 37 37 38 38 39 39 40 40 41 41 42 42 43
REMARK SMILES IDX 43 44 104 45 44 46 103 47 45 48 46 49 47 50 97 51 48 52
REMARK SMILES IDX 102 53 96 54 98 55 49 56 101 57 95 58 94 59 50 61 82 62
REMARK SMILES IDX 62 63 81 64 63 65 66 66 80 67 99 68 64 69 65 70 79 72 100 73
REMARK SMILES IDX 67 74 51 75 52 76 60 77 53 78 54 79 58 80 61 81 55 82 56 83
REMARK SMILES IDX 59 84 57 85 83 86 84 87 92 88 85 89 86 90 90 91 93 92 87 93
REMARK SMILES IDX 88 94 91 95 89 96 68 97 69 98 77 99 70 100 71 101 75 102
REMARK SMILES IDX 78 103 72 104 73 105 76 106 74 107
REMARK H PARENT 5 9 98 60 66 71
REMARK Flexibility Score: inf
ROOT
ATOM      1  C   UNL A   1      44.241  22.849  24.371  1.00  0.00     0.202 C 
ENDROOT
BRANCH   1   2
ATOM      2  C   UNL A   1      44.621  21.444  24.856  1.00  0.00     0.261 C 
BRANCH   2   3
ATOM      3  O   UNL A   1      43.614  20.425  25.001  1.00  0.00    -0.463 OA
BRANCH   3   4
ATOM      4  C   UNL A   1      43.727  19.137  25.348  1.00  0.00     0.307 C 
ATOM      5  O   UNL A   1      44.723  18.506  24.995  1.00  0.00    -0.252 OA
BRANCH   4   6
ATOM      6  C   UNL A   1      42.643  18.470  26.121  1.00  0.00     0.144 C 
BRANCH   6   7
ATOM      7  C   UNL A   1      41.333  19.223  26.112  1.00  0.00     0.124 C 
BRANCH   7   8
ATOM      8  N   UNL A   1      41.120  20.055  27.305  1.00  0.00    -0.384 N 
ATOM      9  H   UNL A   1      41.346  19.696  28.194  1.00  0.00     0.160 HD
BRANCH   8  10
ATOM     10  C   UNL A   1      40.600  21.355  27.194  1.00  0.00     0.048 A 
ATOM     11  C   UNL A   1      39.341  21.493  26.475  1.00  0.00     0.054 A 
ATOM     12  C   UNL A   1      41.265  22.502  27.656  1.00  0.00     0.059 A 
ATOM     13  C   UNL A   1      38.582  22.697  26.255  1.00  0.00     0.069 A 
ATOM     14  C   UNL A   1      40.501  23.635  27.462  1.00  0.00     0.065 A 
ATOM     15  C   UNL A   1      42.618  22.660  28.249  1.00  0.00     0.196 C 
ATOM     16  C   UNL A   1      39.245  23.820  26.822  1.00  0.00     0.138 A 
ATOM     17  C   UNL A   1      40.916  24.830  27.944  1.00  0.00     0.176 A 
ATOM     18  O   UNL A   1      43.477  21.791  28.170  1.00  0.00    -0.288 OA
ATOM     19  C   UNL A   1      42.959  23.962  28.900  1.00  0.00     0.034 A 
ATOM     20  N   UNL A   1      38.940  25.138  26.911  1.00  0.00    -0.077 NA
ATOM     21  O   UNL A   1      39.982  25.759  27.630  1.00  0.00    -0.355 OA
ATOM     22  C   UNL A   1      42.116  25.083  28.709  1.00  0.00     0.032 A 
ATOM     23  C   UNL A   1      44.123  24.049  29.665  1.00  0.00     0.013 A 
ATOM     24  C   UNL A   1      42.481  26.303  29.269  1.00  0.00     0.013 A 
ATOM     25  C   UNL A   1      44.473  25.270  30.229  1.00  0.00     0.001 A 
ATOM     26  C   UNL A   1      43.662  26.392  30.021  1.00  0.00     0.001 A 
BRANCH  13  27
ATOM     27  N   UNL A   1      37.395  22.647  25.546  1.00  0.00    -0.369 N 
ATOM     28  C   UNL A   1      36.135  23.055  26.150  1.00  0.00     0.122 C 
ATOM     29  C   UNL A   1      37.285  21.822  24.345  1.00  0.00     0.122 C 
ATOM     30  C   UNL A   1      35.405  23.930  25.130  1.00  0.00     0.087 C 
ATOM     31  C   UNL A   1      36.547  22.610  23.269  1.00  0.00     0.087 C 
ATOM     32  C   UNL A   1      35.239  23.219  23.782  1.00  0.00     0.171 C 
ATOM     33  O   UNL A   1      34.241  22.185  23.893  1.00  0.00    -0.347 OA
ATOM     34  O   UNL A   1      34.786  24.199  22.819  1.00  0.00    -0.347 OA
ATOM     35  C   UNL A   1      33.082  22.722  23.250  1.00  0.00     0.192 C 
ATOM     36  C   UNL A   1      33.655  23.610  22.181  1.00  0.00     0.192 C 
ENDBRANCH  13  27
ENDBRANCH   8  10
ENDBRANCH   7   8
ENDBRANCH   6   7
ENDBRANCH   4   6
ENDBRANCH   3   4
ENDBRANCH   2   3
ENDBRANCH   1   2
BRANCH   1  37
ATOM     37  O   UNL A   1      43.114  23.479  24.961  1.00  0.00    -0.374 OA
BRANCH  37  38
ATOM     38  C   UNL A   1      43.072  24.896  24.997  1.00  0.00     0.202 C 
BRANCH  38  39
ATOM     39  C   UNL A   1      44.258  25.533  25.719  1.00  0.00     0.261 C 
BRANCH  39  40
ATOM     40  O   UNL A   1      44.521  26.822  25.145  1.00  0.00    -0.460 OA
BRANCH  40  41
ATOM     41  C   UNL A   1      43.513  27.724  25.103  1.00  0.00     0.338 C 
ATOM     42  O   UNL A   1      42.655  27.859  24.251  1.00  0.00    -0.246 OA
BRANCH  41  43
ATOM     43  C   UNL A   1      43.484  28.330  26.448  1.00  0.00     0.060 A 
ATOM     44  C   UNL A   1      42.271  28.731  27.012  1.00  0.00     0.016 A 
ATOM     45  C   UNL A   1      44.701  28.686  27.037  1.00  0.00     0.016 A 
ATOM     46  C   UNL A   1      42.279  29.525  28.153  1.00  0.00     0.010 A 
ATOM     47  C   UNL A   1      44.705  29.513  28.157  1.00  0.00     0.010 A 
ATOM     48  C   UNL A   1      43.495  29.936  28.724  1.00  0.00    -0.014 A 
BRANCH  48  49
ATOM     49  C   UNL A   1      43.446  30.666  30.004  1.00  0.00     0.031 A 
ATOM     50  C   UNL A   1      42.106  31.205  30.394  1.00  0.00     0.074 A 
ATOM     51  C   UNL A   1      44.373  30.478  30.965  1.00  0.00     0.049 A 
ATOM     52  N   UNL A   1      41.227  30.536  31.086  1.00  0.00    -0.248 NA
ATOM     53  C   UNL A   1      41.571  32.419  29.776  1.00  0.00     0.031 C 
ATOM     54  C   UNL A   1      44.918  29.170  31.344  1.00  0.00     0.029 A 
ATOM     55  N   UNL A   1      44.846  31.341  31.927  1.00  0.00    -0.354 N 
ATOM     56  C   UNL A   1      40.022  31.209  30.975  1.00  0.00     0.074 A 
ATOM     57  C   UNL A   1      40.286  32.373  30.158  1.00  0.00     0.031 C 
ATOM     58  C   UNL A   1      45.508  29.286  32.552  1.00  0.00     0.029 A 
ATOM     59  C   UNL A   1      45.506  30.690  32.965  1.00  0.00     0.049 A 
ATOM     60  H   UNL A   1      44.731  32.317  31.884  1.00  0.00     0.167 HD
ATOM     61  C   UNL A   1      38.868  30.783  31.553  1.00  0.00     0.037 A 
ATOM     62  C   UNL A   1      45.504  31.115  34.259  1.00  0.00     0.037 A 
ATOM     63  C   UNL A   1      38.955  29.582  32.325  1.00  0.00     0.049 A 
ATOM     64  C   UNL A   1      44.077  30.813  34.652  1.00  0.00     0.074 A 
ATOM     65  C   UNL A   1      38.670  28.243  32.174  1.00  0.00     0.029 A 
ATOM     66  N   UNL A   1      39.468  29.682  33.596  1.00  0.00    -0.354 N 
ATOM     67  N   UNL A   1      43.600  29.644  34.987  1.00  0.00    -0.248 NA
ATOM     68  C   UNL A   1      43.062  31.812  34.306  1.00  0.00     0.031 C 
ATOM     69  C   UNL A   1      39.462  27.572  33.160  1.00  0.00     0.029 A 
ATOM     70  C   UNL A   1      40.208  28.551  33.816  1.00  0.00     0.049 A 
ATOM     71  H   UNL A   1      39.331  30.425  34.227  1.00  0.00     0.167 HD
ATOM     72  C   UNL A   1      42.246  29.686  34.643  1.00  0.00     0.074 A 
ATOM     73  C   UNL A   1      41.978  31.052  34.249  1.00  0.00     0.031 C 
ATOM     74  C   UNL A   1      41.466  28.573  34.523  1.00  0.00     0.037 A 
BRANCH  61  75
ATOM     75  C   UNL A   1      37.624  31.573  31.614  1.00  0.00     0.064 A 
ATOM     76  C   UNL A   1      36.617  31.267  30.687  1.00  0.00     0.173 A 
ATOM     77  C   UNL A   1      37.489  32.731  32.383  1.00  0.00     0.173 A 
ATOM     78  F   UNL A   1      36.723  30.165  29.924  1.00  0.00    -0.203 F 
ATOM     79  C   UNL A   1      35.536  32.115  30.493  1.00  0.00     0.198 A 
ATOM     80  C   UNL A   1      36.394  33.576  32.196  1.00  0.00     0.198 A 
ATOM     81  F   UNL A   1      38.433  33.071  33.273  1.00  0.00    -0.203 F 
ATOM     82  F   UNL A   1      34.621  31.825  29.559  1.00  0.00    -0.200 F 
ATOM     83  C   UNL A   1      35.429  33.276  31.241  1.00  0.00     0.200 A 
ATOM     84  F   UNL A   1      36.285  34.701  32.917  1.00  0.00    -0.200 F 
ATOM     85  F   UNL A   1      34.404  34.113  31.031  1.00  0.00    -0.200 F 
ENDBRANCH  61  75
BRANCH  62  86
ATOM     86  C   UNL A   1      46.170  32.435  34.517  1.00  0.00     0.064 A 
ATOM     87  C   UNL A   1      47.215  32.488  35.464  1.00  0.00     0.173 A 
ATOM     88  C   UNL A   1      45.841  33.653  33.902  1.00  0.00     0.173 A 
ATOM     89  F   UNL A   1      47.522  31.404  36.193  1.00  0.00    -0.203 F 
ATOM     90  C   UNL A   1      47.967  33.645  35.677  1.00  0.00     0.198 A 
ATOM     91  C   UNL A   1      46.611  34.804  34.092  1.00  0.00     0.198 A 
ATOM     92  F   UNL A   1      44.780  33.754  33.091  1.00  0.00    -0.203 F 
ATOM     93  F   UNL A   1      48.977  33.635  36.558  1.00  0.00    -0.200 F 
ATOM     94  C   UNL A   1      47.685  34.795  34.964  1.00  0.00     0.200 A 
ATOM     95  F   UNL A   1      46.320  35.917  33.405  1.00  0.00    -0.200 F 
ATOM     96  F   UNL A   1      48.441  35.890  35.117  1.00  0.00    -0.200 F 
ENDBRANCH  62  86
BRANCH  74  97
ATOM     97  C   UNL A   1      42.093  27.295  34.955  1.00  0.00     0.064 A 
ATOM     98  C   UNL A   1      41.848  26.790  36.237  1.00  0.00     0.173 A 
ATOM     99  C   UNL A   1      42.898  26.539  34.088  1.00  0.00     0.173 A 
ATOM    100  F   UNL A   1      41.073  27.471  37.097  1.00  0.00    -0.203 F 
ATOM    101  C   UNL A   1      42.371  25.564  36.632  1.00  0.00     0.198 A 
ATOM    102  C   UNL A   1      43.395  25.300  34.477  1.00  0.00     0.198 A 
ATOM    103  F   UNL A   1      43.180  26.982  32.852  1.00  0.00    -0.203 F 
ATOM    104  F   UNL A   1      42.117  25.093  37.860  1.00  0.00    -0.200 F 
ATOM    105  C   UNL A   1      43.131  24.813  35.747  1.00  0.00     0.200 A 
ATOM    106  F   UNL A   1      44.110  24.566  33.611  1.00  0.00    -0.200 F 
ATOM    107  F   UNL A   1      43.596  23.611  36.115  1.00  0.00    -0.200 F 
ENDBRANCH  74  97
ENDBRANCH  48  49
ENDBRANCH  41  43
ENDBRANCH  40  41
ENDBRANCH  39  40
ENDBRANCH  38  39
ENDBRANCH  37  38
ENDBRANCH   1  37
TORSDOF 18
ENDMDL
MODEL 3
REMARK VINA RESULT:     -10.9      5.408     11.719
REMARK SMILES O=C(CCNc1cc(N2CCC3(CC2)OCCO3)c2noc3c2c1C(=O)c1ccccc1-3)OCCOCCOC(=O)c1ccc(-c2c3nc(c(-c4c(F)c(F)c(F)c(F)c4F)c4ccc([nH]4)c(-c4c(F)c(F)c(F)c(F)c4F)c4nc(c(-c5c(F)c(F)c(F)c(F)c5F)c5ccc2[nH]5)C=C4)C=C3)cc1
REMARK SMILES IDX 35 1 34 2 33 3 2 4 1 5 3 6 4 7 5 8 6 10 7 11 24 12 8 13
REMARK SMILES IDX 23 14 25 15 19 16 22 17 26 18 27 19 20 20 21 21 32 22 28 23
REMARK SMILES IDX 31 24 29 25 30 26 9 27 10 28 14 29 11 30 13 31 12 32 15 33
REMARK SMILES IDX 18 34 16 35 17 36 36 37 37 38 38 39 39 40 40 41 41 42 42 43
REMARK SMILES IDX 43 44 104 45 44 46 103 47 45 48 46 49 47 50 97 51 48 52
REMARK SMILES IDX 102 53 96 54 98 55 49 56 101 57 95 58 94 59 50 61 82 62
REMARK SMILES IDX 62 63 81 64 63 65 66 66 80 67 99 68 64 69 65 70 79 72 100 73
REMARK SMILES IDX 67 74 51 75 52 76 60 77 53 78 54 79 58 80 61 81 55 82 56 83
REMARK SMILES IDX 59 84 57 85 83 86 84 87 92 88 85 89 86 90 90 91 93 92 87 93
REMARK SMILES IDX 88 94 91 95 89 96 68 97 69 98 77 99 70 100 71 101 75 102
REMARK SMILES IDX 78 103 72 104 73 105 76 106 74 107
REMARK H PARENT 5 9 98 60 66 71
REMARK Flexibility Score: inf
ROOT
ATOM      1  C   UNL A   1      35.595  32.635  30.083  1.00  0.00     0.202 C 
ENDROOT
BRANCH   1   2
ATOM      2  C   UNL A   1      34.601  32.755  28.920  1.00  0.00     0.261 C 
BRANCH   2   3
ATOM      3  O   UNL A   1      34.779  31.969  27.726  1.00  0.00    -0.463 OA
BRANCH   3   4
ATOM      4  C   UNL A   1      34.805  30.642  27.558  1.00  0.00     0.307 C 
ATOM      5  O   UNL A   1      35.890  30.061  27.537  1.00  0.00    -0.252 OA
BRANCH   4   6
ATOM      6  C   UNL A   1      33.537  29.885  27.362  1.00  0.00     0.144 C 
BRANCH   6   7
ATOM      7  C   UNL A   1      33.728  28.391  27.246  1.00  0.00     0.124 C 
BRANCH   7   8
ATOM      8  N   UNL A   1      33.942  27.926  25.868  1.00  0.00    -0.384 N 
ATOM      9  H   UNL A   1      34.772  28.168  25.397  1.00  0.00     0.160 HD
BRANCH   8  10
ATOM     10  C   UNL A   1      32.978  27.141  25.214  1.00  0.00     0.048 A 
ATOM     11  C   UNL A   1      33.250  25.712  25.131  1.00  0.00     0.054 A 
ATOM     12  C   UNL A   1      31.841  27.670  24.582  1.00  0.00     0.059 A 
ATOM     13  C   UNL A   1      32.414  24.691  24.554  1.00  0.00     0.069 A 
ATOM     14  C   UNL A   1      31.044  26.668  24.068  1.00  0.00     0.065 A 
ATOM     15  C   UNL A   1      31.427  29.080  24.362  1.00  0.00     0.196 C 
ATOM     16  C   UNL A   1      31.229  25.259  24.009  1.00  0.00     0.138 A 
ATOM     17  C   UNL A   1      29.843  26.964  23.519  1.00  0.00     0.176 A 
ATOM     18  O   UNL A   1      32.200  30.020  24.491  1.00  0.00    -0.288 OA
ATOM     19  C   UNL A   1      30.032  29.343  23.896  1.00  0.00     0.034 A 
ATOM     20  N   UNL A   1      30.138  24.736  23.398  1.00  0.00    -0.077 NA
ATOM     21  O   UNL A   1      29.267  25.808  23.111  1.00  0.00    -0.355 OA
ATOM     22  C   UNL A   1      29.237  28.273  23.422  1.00  0.00     0.032 A 
ATOM     23  C   UNL A   1      29.552  30.654  23.914  1.00  0.00     0.013 A 
ATOM     24  C   UNL A   1      27.963  28.546  22.932  1.00  0.00     0.013 A 
ATOM     25  C   UNL A   1      28.274  30.914  23.432  1.00  0.00     0.001 A 
ATOM     26  C   UNL A   1      27.491  29.867  22.933  1.00  0.00     0.001 A 
BRANCH  13  27
ATOM     27  N   UNL A   1      32.829  23.372  24.562  1.00  0.00    -0.369 N 
ATOM     28  C   UNL A   1      33.458  22.782  25.735  1.00  0.00     0.122 C 
ATOM     29  C   UNL A   1      33.030  22.652  23.306  1.00  0.00     0.122 C 
ATOM     30  C   UNL A   1      32.817  21.411  25.953  1.00  0.00     0.087 C 
ATOM     31  C   UNL A   1      32.435  21.254  23.435  1.00  0.00     0.087 C 
ATOM     32  C   UNL A   1      32.908  20.532  24.701  1.00  0.00     0.171 C 
ATOM     33  O   UNL A   1      34.264  20.080  24.517  1.00  0.00    -0.347 OA
ATOM     34  O   UNL A   1      32.059  19.378  24.909  1.00  0.00    -0.347 OA
ATOM     35  C   UNL A   1      34.256  18.713  24.935  1.00  0.00     0.192 C 
ATOM     36  C   UNL A   1      32.868  18.250  24.589  1.00  0.00     0.192 C 
ENDBRANCH  13  27
ENDBRANCH   8  10
ENDBRANCH   7   8
ENDBRANCH   6   7
ENDBRANCH   4   6
ENDBRANCH   3   4
ENDBRANCH   2   3
ENDBRANCH   1   2
BRANCH   1  37
ATOM     37  O   UNL A   1      36.979  32.563  29.776  1.00  0.00    -0.374 OA
BRANCH  37  38
ATOM     38  C   UNL A   1      37.737  31.492  30.315  1.00  0.00     0.202 C 
BRANCH  38  39
ATOM     39  C   UNL A   1      37.119  30.859  31.560  1.00  0.00     0.261 C 
BRANCH  39  40
ATOM     40  O   UNL A   1      38.167  30.340  32.392  1.00  0.00    -0.460 OA
BRANCH  40  41
ATOM     41  C   UNL A   1      38.205  29.007  32.620  1.00  0.00     0.338 C 
ATOM     42  O   UNL A   1      37.366  28.309  33.160  1.00  0.00    -0.246 OA
BRANCH  41  43
ATOM     43  C   UNL A   1      39.343  28.512  31.823  1.00  0.00     0.060 A 
ATOM     44  C   UNL A   1      40.636  28.968  32.085  1.00  0.00     0.016 A 
ATOM     45  C   UNL A   1      39.068  27.758  30.678  1.00  0.00     0.016 A 
ATOM     46  C   UNL A   1      41.652  28.698  31.176  1.00  0.00     0.010 A 
ATOM     47  C   UNL A   1      40.080  27.523  29.752  1.00  0.00     0.010 A 
ATOM     48  C   UNL A   1      41.379  27.989  29.995  1.00  0.00    -0.014 A 
BRANCH  48  49
ATOM     49  C   UNL A   1      42.515  27.618  29.132  1.00  0.00     0.031 A 
ATOM     50  C   UNL A   1      43.294  28.759  28.558  1.00  0.00     0.074 A 
ATOM     51  C   UNL A   1      43.104  26.408  29.213  1.00  0.00     0.049 A 
ATOM     52  N   UNL A   1      44.314  29.314  29.151  1.00  0.00    -0.248 NA
ATOM     53  C   UNL A   1      42.786  29.524  27.418  1.00  0.00     0.031 C 
ATOM     54  C   UNL A   1      43.395  25.713  30.471  1.00  0.00     0.029 A 
ATOM     55  N   UNL A   1      43.748  25.664  28.251  1.00  0.00    -0.354 N 
ATOM     56  C   UNL A   1      44.566  30.508  28.497  1.00  0.00     0.074 A 
ATOM     57  C   UNL A   1      43.596  30.592  27.426  1.00  0.00     0.031 C 
ATOM     58  C   UNL A   1      44.302  24.744  30.224  1.00  0.00     0.029 A 
ATOM     59  C   UNL A   1      44.548  24.658  28.784  1.00  0.00     0.049 A 
ATOM     60  H   UNL A   1      43.651  25.826  27.285  1.00  0.00     0.167 HD
ATOM     61  C   UNL A   1      45.551  31.370  28.861  1.00  0.00     0.037 A 
ATOM     62  C   UNL A   1      45.711  24.226  28.223  1.00  0.00     0.037 A 
ATOM     63  C   UNL A   1      46.359  30.972  29.972  1.00  0.00     0.049 A 
ATOM     64  C   UNL A   1      46.607  25.414  28.485  1.00  0.00     0.074 A 
ATOM     65  C   UNL A   1      46.452  31.238  31.321  1.00  0.00     0.029 A 
ATOM     66  N   UNL A   1      47.353  30.052  29.735  1.00  0.00    -0.354 N 
ATOM     67  N   UNL A   1      47.203  25.697  29.613  1.00  0.00    -0.248 NA
ATOM     68  C   UNL A   1      46.542  26.525  27.532  1.00  0.00     0.031 C 
ATOM     69  C   UNL A   1      47.159  30.125  31.880  1.00  0.00     0.029 A 
ATOM     70  C   UNL A   1      47.411  29.238  30.835  1.00  0.00     0.049 A 
ATOM     71  H   UNL A   1      47.915  29.991  28.929  1.00  0.00     0.167 HD
ATOM     72  C   UNL A   1      47.353  27.087  29.612  1.00  0.00     0.074 A 
ATOM     73  C   UNL A   1      46.944  27.530  28.296  1.00  0.00     0.031 C 
ATOM     74  C   UNL A   1      47.626  27.814  30.733  1.00  0.00     0.037 A 
BRANCH  61  75
ATOM     75  C   UNL A   1      45.966  32.545  28.073  1.00  0.00     0.064 A 
ATOM     76  C   UNL A   1      47.057  32.390  27.205  1.00  0.00     0.173 A 
ATOM     77  C   UNL A   1      45.483  33.835  28.308  1.00  0.00     0.173 A 
ATOM     78  F   UNL A   1      47.552  31.163  26.966  1.00  0.00    -0.203 F 
ATOM     79  C   UNL A   1      47.680  33.489  26.629  1.00  0.00     0.198 A 
ATOM     80  C   UNL A   1      46.104  34.938  27.718  1.00  0.00     0.198 A 
ATOM     81  F   UNL A   1      44.451  34.033  29.141  1.00  0.00    -0.203 F 
ATOM     82  F   UNL A   1      48.756  33.311  25.851  1.00  0.00    -0.200 F 
ATOM     83  C   UNL A   1      47.210  34.764  26.894  1.00  0.00     0.200 A 
ATOM     84  F   UNL A   1      45.653  36.174  27.971  1.00  0.00    -0.200 F 
ATOM     85  F   UNL A   1      47.832  35.828  26.367  1.00  0.00    -0.200 F 
ENDBRANCH  61  75
BRANCH  62  86
ATOM     86  C   UNL A   1      45.587  23.566  26.881  1.00  0.00     0.064 A 
ATOM     87  C   UNL A   1      44.465  22.744  26.637  1.00  0.00     0.173 A 
ATOM     88  C   UNL A   1      46.502  23.681  25.824  1.00  0.00     0.173 A 
ATOM     89  F   UNL A   1      43.597  22.475  27.624  1.00  0.00    -0.203 F 
ATOM     90  C   UNL A   1      44.210  22.191  25.381  1.00  0.00     0.198 A 
ATOM     91  C   UNL A   1      46.233  23.152  24.558  1.00  0.00     0.198 A 
ATOM     92  F   UNL A   1      47.668  24.319  25.984  1.00  0.00    -0.203 F 
ATOM     93  F   UNL A   1      43.109  21.451  25.187  1.00  0.00    -0.200 F 
ATOM     94  C   UNL A   1      45.078  22.424  24.331  1.00  0.00     0.200 A 
ATOM     95  F   UNL A   1      47.089  23.373  23.551  1.00  0.00    -0.200 F 
ATOM     96  F   UNL A   1      44.807  21.948  23.109  1.00  0.00    -0.200 F 
ENDBRANCH  62  86
BRANCH  74  97
ATOM     97  C   UNL A   1      47.935  27.025  31.956  1.00  0.00     0.064 A 
ATOM     98  C   UNL A   1      49.261  26.696  32.263  1.00  0.00     0.173 A 
ATOM     99  C   UNL A   1      46.930  26.633  32.854  1.00  0.00     0.173 A 
ATOM    100  F   UNL A   1      50.258  27.063  31.441  1.00  0.00    -0.203 F 
ATOM    101  C   UNL A   1      49.573  26.019  33.437  1.00  0.00     0.198 A 
ATOM    102  C   UNL A   1      47.249  25.981  34.040  1.00  0.00     0.198 A 
ATOM    103  F   UNL A   1      45.640  26.907  32.603  1.00  0.00    -0.203 F 
ATOM    104  F   UNL A   1      50.849  25.723  33.718  1.00  0.00    -0.200 F 
ATOM    105  C   UNL A   1      48.570  25.675  34.331  1.00  0.00     0.200 A 
ATOM    106  F   UNL A   1      46.280  25.671  34.913  1.00  0.00    -0.200 F 
ATOM    107  F   UNL A   1      48.879  25.063  35.483  1.00  0.00    -0.200 F 
ENDBRANCH  74  97
ENDBRANCH  48  49
ENDBRANCH  41  43
ENDBRANCH  40  41
ENDBRANCH  39  40
ENDBRANCH  38  39
ENDBRANCH  37  38
ENDBRANCH   1  37
TORSDOF 18
ENDMDL
