MODEL 1
REMARK VINA RESULT:     -11.9      0.000      0.000
REMARK SMILES CC1(C)[C@H](C(=O)Nc2cccc3[nH]ccc23)[C@H]1C(=O)OCCOCCOC(=O)c1ccc(-c2c3nc(c(-c4c(F)c(F)c(F)c(F)c4F)c4ccc([nH]4)c(-c4c(F)c(F)c(F)c(F)c4F)c4nc(c(-c5c(F)c(F)c(F)c(F)c5F)c5ccc2[nH]5)C=C4)C=C3)cc1
REMARK SMILES IDX 23 1 22 2 21 3 20 4 18 5 19 6 17 7 1 8 2 9 3 10 4 11 5 12
REMARK SMILES IDX 6 13 7 14 8 16 9 17 16 18 10 19 12 20 15 21 11 22 13 23
REMARK SMILES IDX 14 24 24 26 25 27 26 28 27 29 28 30 29 31 30 32 91 33 31 34
REMARK SMILES IDX 90 35 32 36 33 37 34 38 84 39 35 40 89 41 83 42 85 43 36 44
REMARK SMILES IDX 88 45 82 46 81 47 37 49 69 50 49 51 68 52 50 53 53 54 67 55
REMARK SMILES IDX 86 56 51 57 52 58 66 60 87 61 54 62 38 63 39 64 47 65 40 66
REMARK SMILES IDX 41 67 45 68 48 69 42 70 43 71 46 72 44 73 70 74 71 75 79 76
REMARK SMILES IDX 72 77 73 78 77 79 80 80 74 81 75 82 78 83 76 84 55 85 56 86
REMARK SMILES IDX 64 87 57 88 58 89 62 90 65 91 59 92 60 93 63 94 61 95
REMARK H PARENT 7 15 13 25 85 48 53 59
REMARK Flexibility Score: inf
ROOT
ATOM      1  O   UNL A   1      37.933  21.304  24.815  1.00  0.00    -0.374 OA
ENDROOT
BRANCH   1   2
ATOM      2  C   UNL A   1      36.776  21.966  25.333  1.00  0.00     0.202 C 
BRANCH   2   3
ATOM      3  C   UNL A   1      36.797  23.495  25.269  1.00  0.00     0.261 C 
BRANCH   3   4
ATOM      4  O   UNL A   1      35.450  23.981  25.244  1.00  0.00    -0.463 OA
BRANCH   4   5
ATOM      5  C   UNL A   1      34.856  23.982  24.028  1.00  0.00     0.310 C 
ATOM      6  O   UNL A   1      35.390  23.731  22.958  1.00  0.00    -0.252 OA
BRANCH   5   7
ATOM      7  C   UNL A   1      33.392  24.172  24.133  1.00  0.00     0.118 C 
ATOM      8  C   UNL A   1      32.765  21.610  24.022  1.00  0.00     0.013 C 
ATOM      9  C   UNL A   1      32.348  23.058  24.131  1.00  0.00    -0.009 C 
ATOM     10  C   UNL A   1      31.054  23.330  23.406  1.00  0.00     0.013 C 
ATOM     11  C   UNL A   1      32.721  23.787  25.424  1.00  0.00     0.100 C 
BRANCH  11  12
ATOM     12  C   UNL A   1      31.867  24.726  26.214  1.00  0.00     0.228 C 
ATOM     13  O   UNL A   1      31.322  24.309  27.228  1.00  0.00    -0.274 OA
ATOM     14  N   UNL A   1      31.998  26.069  25.946  1.00  0.00    -0.325 N 
ATOM     15  H   UNL A   1      32.603  26.586  26.525  1.00  0.00     0.169 HD
BRANCH  14  16
ATOM     16  C   UNL A   1      31.339  26.767  24.918  1.00  0.00     0.050 A 
ATOM     17  C   UNL A   1      29.972  26.586  24.674  1.00  0.00     0.027 A 
ATOM     18  C   UNL A   1      32.047  27.687  24.110  1.00  0.00     0.023 A 
ATOM     19  C   UNL A   1      29.342  27.174  23.581  1.00  0.00     0.004 A 
ATOM     20  C   UNL A   1      31.390  28.263  23.019  1.00  0.00     0.047 A 
ATOM     21  C   UNL A   1      33.380  28.198  24.098  1.00  0.00     0.030 A 
ATOM     22  C   UNL A   1      30.051  28.001  22.711  1.00  0.00     0.027 A 
ATOM     23  N   UNL A   1      32.296  29.074  22.373  1.00  0.00    -0.361 N 
ATOM     24  C   UNL A   1      33.494  29.062  23.033  1.00  0.00     0.083 A 
ATOM     25  H   UNL A   1      32.109  29.588  21.555  1.00  0.00     0.166 HD
ENDBRANCH  14  16
ENDBRANCH  11  12
ENDBRANCH   5   7
ENDBRANCH   4   5
ENDBRANCH   3   4
ENDBRANCH   2   3
ENDBRANCH   1   2
BRANCH   1  26
ATOM     26  C   UNL A   1      38.032  19.890  24.989  1.00  0.00     0.202 C 
BRANCH  26  27
ATOM     27  C   UNL A   1      39.296  19.368  25.682  1.00  0.00     0.261 C 
BRANCH  27  28
ATOM     28  O   UNL A   1      40.291  20.386  25.883  1.00  0.00    -0.460 OA
BRANCH  28  29
ATOM     29  C   UNL A   1      40.760  20.478  27.152  1.00  0.00     0.338 C 
ATOM     30  O   UNL A   1      41.066  19.566  27.900  1.00  0.00    -0.246 OA
BRANCH  29  31
ATOM     31  C   UNL A   1      41.012  21.889  27.495  1.00  0.00     0.060 A 
ATOM     32  C   UNL A   1      40.424  22.869  26.686  1.00  0.00     0.016 A 
ATOM     33  C   UNL A   1      41.875  22.247  28.532  1.00  0.00     0.016 A 
ATOM     34  C   UNL A   1      40.716  24.216  26.897  1.00  0.00     0.010 A 
ATOM     35  C   UNL A   1      42.179  23.598  28.733  1.00  0.00     0.010 A 
ATOM     36  C   UNL A   1      41.619  24.586  27.902  1.00  0.00    -0.014 A 
BRANCH  36  37
ATOM     37  C   UNL A   1      42.057  25.998  28.016  1.00  0.00     0.031 A 
ATOM     38  C   UNL A   1      43.389  26.405  27.453  1.00  0.00     0.074 A 
ATOM     39  C   UNL A   1      41.265  26.912  28.604  1.00  0.00     0.049 A 
ATOM     40  N   UNL A   1      43.984  27.570  27.487  1.00  0.00    -0.248 NA
ATOM     41  C   UNL A   1      44.153  25.357  26.759  1.00  0.00     0.031 C 
ATOM     42  C   UNL A   1      39.936  26.648  29.149  1.00  0.00     0.029 A 
ATOM     43  N   UNL A   1      41.473  28.247  28.847  1.00  0.00    -0.354 N 
ATOM     44  C   UNL A   1      45.189  27.397  26.822  1.00  0.00     0.074 A 
ATOM     45  C   UNL A   1      45.255  26.008  26.418  1.00  0.00     0.031 C 
ATOM     46  C   UNL A   1      39.450  27.785  29.678  1.00  0.00     0.029 A 
ATOM     47  C   UNL A   1      40.449  28.844  29.537  1.00  0.00     0.049 A 
ATOM     48  H   UNL A   1      42.279  28.730  28.553  1.00  0.00     0.167 HD
ATOM     49  C   UNL A   1      46.152  28.316  26.565  1.00  0.00     0.037 A 
ATOM     50  C   UNL A   1      40.341  30.096  30.022  1.00  0.00     0.037 A 
ATOM     51  C   UNL A   1      46.088  29.696  26.970  1.00  0.00     0.049 A 
ATOM     52  C   UNL A   1      41.465  31.074  29.803  1.00  0.00     0.074 A 
ATOM     53  C   UNL A   1      46.998  30.710  26.729  1.00  0.00     0.029 A 
ATOM     54  N   UNL A   1      45.058  30.251  27.714  1.00  0.00    -0.354 N 
ATOM     55  N   UNL A   1      42.589  30.911  29.148  1.00  0.00    -0.248 NA
ATOM     56  C   UNL A   1      41.307  32.410  30.397  1.00  0.00     0.031 C 
ATOM     57  C   UNL A   1      46.542  31.868  27.371  1.00  0.00     0.029 A 
ATOM     58  C   UNL A   1      45.327  31.587  27.972  1.00  0.00     0.049 A 
ATOM     59  H   UNL A   1      44.254  29.769  28.016  1.00  0.00     0.167 HD
ATOM     60  C   UNL A   1      43.262  32.123  29.236  1.00  0.00     0.074 A 
ATOM     61  C   UNL A   1      42.413  33.019  29.993  1.00  0.00     0.031 C 
ATOM     62  C   UNL A   1      44.475  32.463  28.735  1.00  0.00     0.037 A 
BRANCH  49  63
ATOM     63  C   UNL A   1      47.373  27.850  25.830  1.00  0.00     0.064 A 
ATOM     64  C   UNL A   1      48.528  27.437  26.509  1.00  0.00     0.173 A 
ATOM     65  C   UNL A   1      47.375  27.783  24.428  1.00  0.00     0.173 A 
ATOM     66  F   UNL A   1      48.581  27.495  27.848  1.00  0.00    -0.203 F 
ATOM     67  C   UNL A   1      49.650  26.997  25.810  1.00  0.00     0.198 A 
ATOM     68  C   UNL A   1      48.488  27.319  23.735  1.00  0.00     0.198 A 
ATOM     69  F   UNL A   1      46.292  28.164  23.732  1.00  0.00    -0.203 F 
ATOM     70  F   UNL A   1      50.758  26.646  26.477  1.00  0.00    -0.200 F 
ATOM     71  C   UNL A   1      49.626  26.932  24.424  1.00  0.00     0.200 A 
ATOM     72  F   UNL A   1      48.460  27.249  22.397  1.00  0.00    -0.200 F 
ATOM     73  F   UNL A   1      50.705  26.504  23.754  1.00  0.00    -0.200 F 
ENDBRANCH  49  63
BRANCH  50  74
ATOM     74  C   UNL A   1      39.133  30.491  30.789  1.00  0.00     0.064 A 
ATOM     75  C   UNL A   1      38.036  31.088  30.153  1.00  0.00     0.173 A 
ATOM     76  C   UNL A   1      39.057  30.292  32.176  1.00  0.00     0.173 A 
ATOM     77  F   UNL A   1      38.075  31.323  28.834  1.00  0.00    -0.203 F 
ATOM     78  C   UNL A   1      36.913  31.481  30.877  1.00  0.00     0.198 A 
ATOM     79  C   UNL A   1      37.922  30.664  32.895  1.00  0.00     0.198 A 
ATOM     80  F   UNL A   1      40.082  29.730  32.831  1.00  0.00    -0.203 F 
ATOM     81  F   UNL A   1      35.894  32.087  30.251  1.00  0.00    -0.200 F 
ATOM     82  C   UNL A   1      36.854  31.264  32.246  1.00  0.00     0.200 A 
ATOM     83  F   UNL A   1      37.867  30.444  34.215  1.00  0.00    -0.200 F 
ATOM     84  F   UNL A   1      35.772  31.641  32.940  1.00  0.00    -0.200 F 
ENDBRANCH  50  74
BRANCH  62  85
ATOM     85  C   UNL A   1      44.953  33.865  28.979  1.00  0.00     0.064 A 
ATOM     86  C   UNL A   1      44.614  34.915  28.112  1.00  0.00     0.173 A 
ATOM     87  C   UNL A   1      45.719  34.170  30.114  1.00  0.00     0.173 A 
ATOM     88  F   UNL A   1      43.897  34.671  27.006  1.00  0.00    -0.203 F 
ATOM     89  C   UNL A   1      45.043  36.216  28.363  1.00  0.00     0.198 A 
ATOM     90  C   UNL A   1      46.124  35.476  30.375  1.00  0.00     0.198 A 
ATOM     91  F   UNL A   1      46.065  33.203  30.977  1.00  0.00    -0.203 F 
ATOM     92  F   UNL A   1      44.743  37.196  27.500  1.00  0.00    -0.200 F 
ATOM     93  C   UNL A   1      45.791  36.496  29.497  1.00  0.00     0.200 A 
ATOM     94  F   UNL A   1      46.836  35.748  31.477  1.00  0.00    -0.200 F 
ATOM     95  F   UNL A   1      46.197  37.750  29.739  1.00  0.00    -0.200 F 
ENDBRANCH  62  85
ENDBRANCH  36  37
ENDBRANCH  29  31
ENDBRANCH  28  29
ENDBRANCH  27  28
ENDBRANCH  26  27
ENDBRANCH   1  26
TORSDOF 16
ENDMDL
MODEL 2
REMARK VINA RESULT:     -11.7      4.486      7.710
REMARK SMILES CC1(C)[C@H](C(=O)Nc2cccc3[nH]ccc23)[C@H]1C(=O)OCCOCCOC(=O)c1ccc(-c2c3nc(c(-c4c(F)c(F)c(F)c(F)c4F)c4ccc([nH]4)c(-c4c(F)c(F)c(F)c(F)c4F)c4nc(c(-c5c(F)c(F)c(F)c(F)c5F)c5ccc2[nH]5)C=C4)C=C3)cc1
REMARK SMILES IDX 23 1 22 2 21 3 20 4 18 5 19 6 17 7 1 8 2 9 3 10 4 11 5 12
REMARK SMILES IDX 6 13 7 14 8 16 9 17 16 18 10 19 12 20 15 21 11 22 13 23
REMARK SMILES IDX 14 24 24 26 25 27 26 28 27 29 28 30 29 31 30 32 91 33 31 34
REMARK SMILES IDX 90 35 32 36 33 37 34 38 84 39 35 40 89 41 83 42 85 43 36 44
REMARK SMILES IDX 88 45 82 46 81 47 37 49 69 50 49 51 68 52 50 53 53 54 67 55
REMARK SMILES IDX 86 56 51 57 52 58 66 60 87 61 54 62 38 63 39 64 47 65 40 66
REMARK SMILES IDX 41 67 45 68 48 69 42 70 43 71 46 72 44 73 70 74 71 75 79 76
REMARK SMILES IDX 72 77 73 78 77 79 80 80 74 81 75 82 78 83 76 84 55 85 56 86
REMARK SMILES IDX 64 87 57 88 58 89 62 90 65 91 59 92 60 93 63 94 61 95
REMARK H PARENT 7 15 13 25 85 48 53 59
REMARK Flexibility Score: inf
ROOT
ATOM      1  O   UNL A   1      30.398  29.393  23.688  1.00  0.00    -0.374 OA
ENDROOT
BRANCH   1   2
ATOM      2  C   UNL A   1      30.738  28.723  22.472  1.00  0.00     0.202 C 
BRANCH   2   3
ATOM      3  C   UNL A   1      30.641  27.196  22.502  1.00  0.00     0.261 C 
BRANCH   3   4
ATOM      4  O   UNL A   1      31.465  26.653  21.463  1.00  0.00    -0.463 OA
BRANCH   4   5
ATOM      5  C   UNL A   1      32.548  25.958  21.884  1.00  0.00     0.310 C 
ATOM      6  O   UNL A   1      33.571  25.752  21.249  1.00  0.00    -0.252 OA
BRANCH   5   7
ATOM      7  C   UNL A   1      32.438  25.584  23.311  1.00  0.00     0.118 C 
ATOM      8  C   UNL A   1      31.817  23.052  22.893  1.00  0.00     0.013 C 
ATOM      9  C   UNL A   1      32.086  24.196  23.842  1.00  0.00    -0.009 C 
ATOM     10  C   UNL A   1      31.210  24.131  25.068  1.00  0.00     0.013 C 
ATOM     11  C   UNL A   1      33.522  24.721  23.900  1.00  0.00     0.100 C 
BRANCH  11  12
ATOM     12  C   UNL A   1      34.299  25.103  25.119  1.00  0.00     0.228 C 
ATOM     13  O   UNL A   1      34.362  26.288  25.426  1.00  0.00    -0.274 OA
ATOM     14  N   UNL A   1      34.623  24.097  25.999  1.00  0.00    -0.325 N 
ATOM     15  H   UNL A   1      34.027  23.964  26.770  1.00  0.00     0.169 HD
BRANCH  14  16
ATOM     16  C   UNL A   1      35.735  23.242  25.891  1.00  0.00     0.050 A 
ATOM     17  C   UNL A   1      37.036  23.705  26.126  1.00  0.00     0.027 A 
ATOM     18  C   UNL A   1      35.560  21.879  25.556  1.00  0.00     0.023 A 
ATOM     19  C   UNL A   1      38.148  22.901  25.898  1.00  0.00     0.004 A 
ATOM     20  C   UNL A   1      36.695  21.094  25.333  1.00  0.00     0.047 A 
ATOM     21  C   UNL A   1      34.431  21.034  25.335  1.00  0.00     0.030 A 
ATOM     22  C   UNL A   1      37.998  21.585  25.464  1.00  0.00     0.027 A 
ATOM     23  N   UNL A   1      36.263  19.835  24.980  1.00  0.00    -0.361 N 
ATOM     24  C   UNL A   1      34.896  19.782  25.003  1.00  0.00     0.083 A 
ATOM     25  H   UNL A   1      36.852  19.083  24.743  1.00  0.00     0.166 HD
ENDBRANCH  14  16
ENDBRANCH  11  12
ENDBRANCH   5   7
ENDBRANCH   4   5
ENDBRANCH   3   4
ENDBRANCH   2   3
ENDBRANCH   1   2
BRANCH   1  26
ATOM     26  C   UNL A   1      31.133  29.059  24.866  1.00  0.00     0.202 C 
BRANCH  26  27
ATOM     27  C   UNL A   1      32.291  29.991  25.243  1.00  0.00     0.261 C 
BRANCH  27  28
ATOM     28  O   UNL A   1      32.540  30.039  26.658  1.00  0.00    -0.460 OA
BRANCH  28  29
ATOM     29  C   UNL A   1      33.104  31.191  27.096  1.00  0.00     0.338 C 
ATOM     30  O   UNL A   1      32.592  32.296  27.152  1.00  0.00    -0.246 OA
BRANCH  29  31
ATOM     31  C   UNL A   1      34.434  30.915  27.669  1.00  0.00     0.060 A 
ATOM     32  C   UNL A   1      34.758  29.581  27.944  1.00  0.00     0.016 A 
ATOM     33  C   UNL A   1      35.311  31.945  28.010  1.00  0.00     0.016 A 
ATOM     34  C   UNL A   1      35.956  29.272  28.586  1.00  0.00     0.010 A 
ATOM     35  C   UNL A   1      36.507  31.635  28.667  1.00  0.00     0.010 A 
ATOM     36  C   UNL A   1      36.824  30.299  28.978  1.00  0.00    -0.014 A 
BRANCH  36  37
ATOM     37  C   UNL A   1      38.013  29.984  29.807  1.00  0.00     0.031 A 
ATOM     38  C   UNL A   1      39.051  29.037  29.277  1.00  0.00     0.074 A 
ATOM     39  C   UNL A   1      38.170  30.550  31.016  1.00  0.00     0.049 A 
ATOM     40  N   UNL A   1      40.138  28.588  29.853  1.00  0.00    -0.248 NA
ATOM     41  C   UNL A   1      38.836  28.527  27.914  1.00  0.00     0.031 C 
ATOM     42  C   UNL A   1      37.254  31.514  31.620  1.00  0.00     0.029 A 
ATOM     43  N   UNL A   1      39.157  30.385  31.956  1.00  0.00    -0.354 N 
ATOM     44  C   UNL A   1      40.735  27.745  28.926  1.00  0.00     0.074 A 
ATOM     45  C   UNL A   1      39.877  27.722  27.760  1.00  0.00     0.031 C 
ATOM     46  C   UNL A   1      37.714  31.846  32.839  1.00  0.00     0.029 A 
ATOM     47  C   UNL A   1      38.937  31.092  33.111  1.00  0.00     0.049 A 
ATOM     48  H   UNL A   1      39.947  29.814  31.814  1.00  0.00     0.167 HD
ATOM     49  C   UNL A   1      41.897  27.058  29.036  1.00  0.00     0.037 A 
ATOM     50  C   UNL A   1      39.631  31.108  34.265  1.00  0.00     0.037 A 
ATOM     51  C   UNL A   1      42.748  27.079  30.197  1.00  0.00     0.049 A 
ATOM     52  C   UNL A   1      40.871  30.263  34.396  1.00  0.00     0.074 A 
ATOM     53  C   UNL A   1      43.961  26.441  30.391  1.00  0.00     0.029 A 
ATOM     54  N   UNL A   1      42.465  27.765  31.368  1.00  0.00    -0.354 N 
ATOM     55  N   UNL A   1      41.445  29.492  33.505  1.00  0.00    -0.248 NA
ATOM     56  C   UNL A   1      41.557  30.290  35.696  1.00  0.00     0.031 C 
ATOM     57  C   UNL A   1      44.387  26.702  31.699  1.00  0.00     0.029 A 
ATOM     58  C   UNL A   1      43.464  27.538  32.303  1.00  0.00     0.049 A 
ATOM     59  H   UNL A   1      41.672  28.331  31.516  1.00  0.00     0.167 HD
ATOM     60  C   UNL A   1      42.564  28.955  34.129  1.00  0.00     0.074 A 
ATOM     61  C   UNL A   1      42.599  29.502  35.469  1.00  0.00     0.031 C 
ATOM     62  C   UNL A   1      43.480  28.085  33.635  1.00  0.00     0.037 A 
BRANCH  49  63
ATOM     63  C   UNL A   1      42.306  26.202  27.874  1.00  0.00     0.064 A 
ATOM     64  C   UNL A   1      41.836  24.889  27.727  1.00  0.00     0.173 A 
ATOM     65  C   UNL A   1      43.151  26.714  26.878  1.00  0.00     0.173 A 
ATOM     66  F   UNL A   1      41.037  24.349  28.658  1.00  0.00    -0.203 F 
ATOM     67  C   UNL A   1      42.217  24.111  26.635  1.00  0.00     0.198 A 
ATOM     68  C   UNL A   1      43.510  25.943  25.777  1.00  0.00     0.198 A 
ATOM     69  F   UNL A   1      43.625  27.967  26.972  1.00  0.00    -0.203 F 
ATOM     70  F   UNL A   1      41.790  22.845  26.535  1.00  0.00    -0.200 F 
ATOM     71  C   UNL A   1      43.048  24.642  25.659  1.00  0.00     0.200 A 
ATOM     72  F   UNL A   1      44.305  26.460  24.830  1.00  0.00    -0.200 F 
ATOM     73  F   UNL A   1      43.410  23.893  24.607  1.00  0.00    -0.200 F 
ENDBRANCH  49  63
BRANCH  50  74
ATOM     74  C   UNL A   1      39.154  31.933  35.404  1.00  0.00     0.064 A 
ATOM     75  C   UNL A   1      38.351  31.380  36.410  1.00  0.00     0.173 A 
ATOM     76  C   UNL A   1      39.481  33.295  35.500  1.00  0.00     0.173 A 
ATOM     77  F   UNL A   1      37.990  30.090  36.345  1.00  0.00    -0.203 F 
ATOM     78  C   UNL A   1      37.882  32.160  37.465  1.00  0.00     0.198 A 
ATOM     79  C   UNL A   1      39.031  34.067  36.569  1.00  0.00     0.198 A 
ATOM     80  F   UNL A   1      40.242  33.871  34.560  1.00  0.00    -0.203 F 
ATOM     81  F   UNL A   1      37.082  31.617  38.392  1.00  0.00    -0.200 F 
ATOM     82  C   UNL A   1      38.227  33.502  37.546  1.00  0.00     0.200 A 
ATOM     83  F   UNL A   1      39.375  35.360  36.649  1.00  0.00    -0.200 F 
ATOM     84  F   UNL A   1      37.778  34.250  38.563  1.00  0.00    -0.200 F 
ENDBRANCH  50  74
BRANCH  62  85
ATOM     85  C   UNL A   1      44.604  27.680  34.545  1.00  0.00     0.064 A 
ATOM     86  C   UNL A   1      45.795  28.418  34.609  1.00  0.00     0.173 A 
ATOM     87  C   UNL A   1      44.472  26.568  35.391  1.00  0.00     0.173 A 
ATOM     88  F   UNL A   1      45.975  29.479  33.809  1.00  0.00    -0.203 F 
ATOM     89  C   UNL A   1      46.821  28.046  35.474  1.00  0.00     0.198 A 
ATOM     90  C   UNL A   1      45.489  26.215  36.273  1.00  0.00     0.198 A 
ATOM     91  F   UNL A   1      43.351  25.832  35.371  1.00  0.00    -0.203 F 
ATOM     92  F   UNL A   1      47.966  28.741  35.490  1.00  0.00    -0.200 F 
ATOM     93  C   UNL A   1      46.664  26.950  36.310  1.00  0.00     0.200 A 
ATOM     94  F   UNL A   1      45.333  25.163  37.088  1.00  0.00    -0.200 F 
ATOM     95  F   UNL A   1      47.651  26.598  37.146  1.00  0.00    -0.200 F 
ENDBRANCH  62  85
ENDBRANCH  36  37
ENDBRANCH  29  31
ENDBRANCH  28  29
ENDBRANCH  27  28
ENDBRANCH  26  27
ENDBRANCH   1  26
TORSDOF 16
ENDMDL
MODEL 3
REMARK VINA RESULT:     -11.6      1.487      7.363
REMARK SMILES CC1(C)[C@H](C(=O)Nc2cccc3[nH]ccc23)[C@H]1C(=O)OCCOCCOC(=O)c1ccc(-c2c3nc(c(-c4c(F)c(F)c(F)c(F)c4F)c4ccc([nH]4)c(-c4c(F)c(F)c(F)c(F)c4F)c4nc(c(-c5c(F)c(F)c(F)c(F)c5F)c5ccc2[nH]5)C=C4)C=C3)cc1
REMARK SMILES IDX 23 1 22 2 21 3 20 4 18 5 19 6 17 7 1 8 2 9 3 10 4 11 5 12
REMARK SMILES IDX 6 13 7 14 8 16 9 17 16 18 10 19 12 20 15 21 11 22 13 23
REMARK SMILES IDX 14 24 24 26 25 27 26 28 27 29 28 30 29 31 30 32 91 33 31 34
REMARK SMILES IDX 90 35 32 36 33 37 34 38 84 39 35 40 89 41 83 42 85 43 36 44
REMARK SMILES IDX 88 45 82 46 81 47 37 49 69 50 49 51 68 52 50 53 53 54 67 55
REMARK SMILES IDX 86 56 51 57 52 58 66 60 87 61 54 62 38 63 39 64 47 65 40 66
REMARK SMILES IDX 41 67 45 68 48 69 42 70 43 71 46 72 44 73 70 74 71 75 79 76
REMARK SMILES IDX 72 77 73 78 77 79 80 80 74 81 75 82 78 83 76 84 55 85 56 86
REMARK SMILES IDX 64 87 57 88 58 89 62 90 65 91 59 92 60 93 63 94 61 95
REMARK H PARENT 7 15 13 25 85 48 53 59
REMARK Flexibility Score: inf
ROOT
ATOM      1  O   UNL A   1      36.766  20.586  25.277  1.00  0.00    -0.374 OA
ENDROOT
BRANCH   1   2
ATOM      2  C   UNL A   1      35.815  21.537  25.762  1.00  0.00     0.202 C 
BRANCH   2   3
ATOM      3  C   UNL A   1      36.270  22.998  25.753  1.00  0.00     0.261 C 
BRANCH   3   4
ATOM      4  O   UNL A   1      35.118  23.847  25.684  1.00  0.00    -0.463 OA
BRANCH   4   5
ATOM      5  C   UNL A   1      34.632  24.066  24.439  1.00  0.00     0.310 C 
ATOM      6  O   UNL A   1      35.275  24.071  23.400  1.00  0.00    -0.252 OA
BRANCH   5   7
ATOM      7  C   UNL A   1      33.155  24.149  24.434  1.00  0.00     0.118 C 
ATOM      8  C   UNL A   1      32.732  21.625  23.788  1.00  0.00     0.013 C 
ATOM      9  C   UNL A   1      32.201  22.998  24.123  1.00  0.00    -0.009 C 
ATOM     10  C   UNL A   1      30.957  23.330  23.338  1.00  0.00     0.013 C 
ATOM     11  C   UNL A   1      32.407  23.486  25.559  1.00  0.00     0.100 C 
BRANCH  11  12
ATOM     12  C   UNL A   1      31.421  24.206  26.422  1.00  0.00     0.228 C 
ATOM     13  O   UNL A   1      30.791  23.564  27.253  1.00  0.00    -0.274 OA
ATOM     14  N   UNL A   1      31.507  25.579  26.462  1.00  0.00    -0.325 N 
ATOM     15  H   UNL A   1      32.016  25.976  27.205  1.00  0.00     0.169 HD
BRANCH  14  16
ATOM     16  C   UNL A   1      30.929  26.463  25.534  1.00  0.00     0.050 A 
ATOM     17  C   UNL A   1      29.722  26.158  24.892  1.00  0.00     0.027 A 
ATOM     18  C   UNL A   1      31.552  27.697  25.238  1.00  0.00     0.023 A 
ATOM     19  C   UNL A   1      29.210  26.966  23.880  1.00  0.00     0.004 A 
ATOM     20  C   UNL A   1      31.017  28.489  24.218  1.00  0.00     0.047 A 
ATOM     21  C   UNL A   1      32.701  28.388  25.728  1.00  0.00     0.030 A 
ATOM     22  C   UNL A   1      29.869  28.134  23.501  1.00  0.00     0.027 A 
ATOM     23  N   UNL A   1      31.820  29.600  24.093  1.00  0.00    -0.361 N 
ATOM     24  C   UNL A   1      32.826  29.561  25.019  1.00  0.00     0.083 A 
ATOM     25  H   UNL A   1      31.690  30.319  23.433  1.00  0.00     0.166 HD
ENDBRANCH  14  16
ENDBRANCH  11  12
ENDBRANCH   5   7
ENDBRANCH   4   5
ENDBRANCH   3   4
ENDBRANCH   2   3
ENDBRANCH   1   2
BRANCH   1  26
ATOM     26  C   UNL A   1      38.152  20.914  25.370  1.00  0.00     0.202 C 
BRANCH  26  27
ATOM     27  C   UNL A   1      39.140  19.741  25.371  1.00  0.00     0.261 C 
BRANCH  27  28
ATOM     28  O   UNL A   1      40.005  19.732  26.518  1.00  0.00    -0.460 OA
BRANCH  28  29
ATOM     29  C   UNL A   1      41.322  19.575  26.234  1.00  0.00     0.338 C 
ATOM     30  O   UNL A   1      41.868  18.599  25.750  1.00  0.00    -0.246 OA
BRANCH  29  31
ATOM     31  C   UNL A   1      42.039  20.845  26.450  1.00  0.00     0.060 A 
ATOM     32  C   UNL A   1      42.279  21.238  27.772  1.00  0.00     0.016 A 
ATOM     33  C   UNL A   1      42.392  21.676  25.386  1.00  0.00     0.016 A 
ATOM     34  C   UNL A   1      42.854  22.479  28.038  1.00  0.00     0.010 A 
ATOM     35  C   UNL A   1      42.956  22.928  25.655  1.00  0.00     0.010 A 
ATOM     36  C   UNL A   1      43.168  23.345  26.982  1.00  0.00    -0.014 A 
BRANCH  36  37
ATOM     37  C   UNL A   1      43.622  24.726  27.271  1.00  0.00     0.031 A 
ATOM     38  C   UNL A   1      42.638  25.731  27.797  1.00  0.00     0.074 A 
ATOM     39  C   UNL A   1      44.905  25.076  27.079  1.00  0.00     0.049 A 
ATOM     40  N   UNL A   1      42.810  27.000  28.069  1.00  0.00    -0.248 NA
ATOM     41  C   UNL A   1      41.274  25.240  28.051  1.00  0.00     0.031 C 
ATOM     42  C   UNL A   1      45.962  24.181  26.613  1.00  0.00     0.029 A 
ATOM     43  N   UNL A   1      45.534  26.286  27.245  1.00  0.00    -0.354 N 
ATOM     44  C   UNL A   1      41.582  27.458  28.525  1.00  0.00     0.074 A 
ATOM     45  C   UNL A   1      40.664  26.340  28.467  1.00  0.00     0.031 C 
ATOM     46  C   UNL A   1      47.108  24.876  26.515  1.00  0.00     0.029 A 
ATOM     47  C   UNL A   1      46.857  26.269  26.880  1.00  0.00     0.049 A 
ATOM     48  H   UNL A   1      45.080  27.086  27.593  1.00  0.00     0.167 HD
ATOM     49  C   UNL A   1      41.252  28.699  28.958  1.00  0.00     0.037 A 
ATOM     50  C   UNL A   1      47.754  27.272  26.823  1.00  0.00     0.037 A 
ATOM     51  C   UNL A   1      42.164  29.811  29.012  1.00  0.00     0.049 A 
ATOM     52  C   UNL A   1      47.338  28.663  27.222  1.00  0.00     0.074 A 
ATOM     53  C   UNL A   1      41.932  31.098  29.465  1.00  0.00     0.029 A 
ATOM     54  N   UNL A   1      43.482  29.770  28.584  1.00  0.00    -0.354 N 
ATOM     55  N   UNL A   1      46.183  29.082  27.679  1.00  0.00    -0.248 NA
ATOM     56  C   UNL A   1      48.351  29.721  27.094  1.00  0.00     0.031 C 
ATOM     57  C   UNL A   1      43.095  31.849  29.265  1.00  0.00     0.029 A 
ATOM     58  C   UNL A   1      44.066  31.019  28.729  1.00  0.00     0.049 A 
ATOM     59  H   UNL A   1      43.937  28.973  28.228  1.00  0.00     0.167 HD
ATOM     60  C   UNL A   1      46.334  30.444  27.907  1.00  0.00     0.074 A 
ATOM     61  C   UNL A   1      47.698  30.779  27.555  1.00  0.00     0.031 C 
ATOM     62  C   UNL A   1      45.423  31.338  28.366  1.00  0.00     0.037 A 
BRANCH  49  63
ATOM     63  C   UNL A   1      39.833  28.926  29.387  1.00  0.00     0.064 A 
ATOM     64  C   UNL A   1      38.843  29.323  28.475  1.00  0.00     0.173 A 
ATOM     65  C   UNL A   1      39.451  28.709  30.719  1.00  0.00     0.173 A 
ATOM     66  F   UNL A   1      39.161  29.557  27.194  1.00  0.00    -0.203 F 
ATOM     67  C   UNL A   1      37.527  29.519  28.889  1.00  0.00     0.198 A 
ATOM     68  C   UNL A   1      38.131  28.881  31.123  1.00  0.00     0.198 A 
ATOM     69  F   UNL A   1      40.360  28.324  31.629  1.00  0.00    -0.203 F 
ATOM     70  F   UNL A   1      36.607  29.940  28.011  1.00  0.00    -0.200 F 
ATOM     71  C   UNL A   1      37.171  29.291  30.210  1.00  0.00     0.200 A 
ATOM     72  F   UNL A   1      37.786  28.651  32.398  1.00  0.00    -0.200 F 
ATOM     73  F   UNL A   1      35.904  29.475  30.605  1.00  0.00    -0.200 F 
ENDBRANCH  49  63
BRANCH  50  74
ATOM     74  C   UNL A   1      49.133  27.004  26.340  1.00  0.00     0.064 A 
ATOM     75  C   UNL A   1      49.439  27.029  24.973  1.00  0.00     0.173 A 
ATOM     76  C   UNL A   1      50.170  26.704  27.237  1.00  0.00     0.173 A 
ATOM     77  F   UNL A   1      48.474  27.283  24.077  1.00  0.00    -0.203 F 
ATOM     78  C   UNL A   1      50.726  26.752  24.519  1.00  0.00     0.198 A 
ATOM     79  C   UNL A   1      51.463  26.453  26.783  1.00  0.00     0.198 A 
ATOM     80  F   UNL A   1      49.927  26.663  28.555  1.00  0.00    -0.203 F 
ATOM     81  F   UNL A   1      50.982  26.742  23.204  1.00  0.00    -0.200 F 
ATOM     82  C   UNL A   1      51.738  26.470  25.425  1.00  0.00     0.200 A 
ATOM     83  F   UNL A   1      52.439  26.189  27.662  1.00  0.00    -0.200 F 
ATOM     84  F   UNL A   1      52.978  26.207  24.987  1.00  0.00    -0.200 F 
ENDBRANCH  50  74
BRANCH  62  85
ATOM     85  C   UNL A   1      45.875  32.761  28.525  1.00  0.00     0.064 A 
ATOM     86  C   UNL A   1      45.698  33.702  27.500  1.00  0.00     0.173 A 
ATOM     87  C   UNL A   1      46.450  33.197  29.727  1.00  0.00     0.173 A 
ATOM     88  F   UNL A   1      45.168  33.330  26.326  1.00  0.00    -0.203 F 
ATOM     89  C   UNL A   1      46.100  35.025  27.667  1.00  0.00     0.198 A 
ATOM     90  C   UNL A   1      46.826  34.526  29.901  1.00  0.00     0.198 A 
ATOM     91  F   UNL A   1      46.636  32.338  30.740  1.00  0.00    -0.203 F 
ATOM     92  F   UNL A   1      45.959  35.898  26.660  1.00  0.00    -0.200 F 
ATOM     93  C   UNL A   1      46.656  35.438  28.868  1.00  0.00     0.200 A 
ATOM     94  F   UNL A   1      47.353  34.927  31.066  1.00  0.00    -0.200 F 
ATOM     95  F   UNL A   1      47.036  36.713  29.030  1.00  0.00    -0.200 F 
ENDBRANCH  62  85
ENDBRANCH  36  37
ENDBRANCH  29  31
ENDBRANCH  28  29
ENDBRANCH  27  28
ENDBRANCH  26  27
ENDBRANCH   1  26
TORSDOF 16
ENDMDL
