MODEL 1
REMARK VINA RESULT:     -10.0      0.000      0.000
REMARK SMILES CCc1cc(C)c2c(c1)C=C(C(=O)OCCOCCOC(=O)c1ccc(-c3c4nc(c(-c5c(F)c(F)c(F)c(F)c5F)c5ccc([nH]5)c(-c5c(F)c(F)c(F)c(F)c5F)c5nc(c(-c6c(F)c(F)c(F)c(F)c6F)c6ccc3[nH]6)C=C5)C=C4)cc1)[C@@H](C(F)(F)F)O2
REMARK SMILES IDX 18 1 17 2 16 3 15 4 14 5 12 6 13 7 11 8 3 9 4 10 9 11 5 12
REMARK SMILES IDX 8 13 6 14 7 15 10 16 91 17 86 18 2 19 1 20 87 21 88 22 89 23
REMARK SMILES IDX 90 24 19 25 20 26 21 27 22 28 23 29 24 30 85 31 25 32 84 33
REMARK SMILES IDX 26 34 27 35 28 36 78 37 29 38 83 39 77 40 79 41 30 42 82 43
REMARK SMILES IDX 76 44 75 45 31 47 63 48 43 49 62 50 44 51 47 52 61 53 80 54
REMARK SMILES IDX 45 55 46 56 60 58 81 59 48 60 32 61 33 62 41 63 34 64 35 65
REMARK SMILES IDX 39 66 42 67 36 68 37 69 40 70 38 71 64 72 65 73 73 74 66 75
REMARK SMILES IDX 67 76 71 77 74 78 68 79 69 80 72 81 70 82 49 83 50 84 58 85
REMARK SMILES IDX 51 86 52 87 56 88 59 89 53 90 54 91 57 92 55 93
REMARK H PARENT 79 46 47 57
REMARK Flexibility Score: inf
ROOT
ATOM      1  C   UNL A   1      42.089  18.870  26.786  1.00  0.00     0.202 C 
ENDROOT
BRANCH   1   2
ATOM      2  O   UNL A   1      42.841  18.060  25.878  1.00  0.00    -0.374 OA
BRANCH   2   3
ATOM      3  C   UNL A   1      43.697  18.727  24.955  1.00  0.00     0.202 C 
BRANCH   3   4
ATOM      4  C   UNL A   1      44.687  19.727  25.559  1.00  0.00     0.261 C 
BRANCH   4   5
ATOM      5  O   UNL A   1      44.774  20.921  24.765  1.00  0.00    -0.460 OA
BRANCH   5   6
ATOM      6  C   UNL A   1      44.109  21.984  25.275  1.00  0.00     0.338 C 
ATOM      7  O   UNL A   1      42.949  22.294  25.056  1.00  0.00    -0.246 OA
BRANCH   6   8
ATOM      8  C   UNL A   1      44.958  22.686  26.253  1.00  0.00     0.087 C 
ATOM      9  C   UNL A   1      45.144  25.126  30.408  1.00  0.00    -0.047 A 
ATOM     10  C   UNL A   1      46.446  25.533  30.091  1.00  0.00     0.011 A 
ATOM     11  C   UNL A   1      44.483  24.268  29.518  1.00  0.00     0.015 A 
ATOM     12  C   UNL A   1      47.095  25.070  28.930  1.00  0.00    -0.008 A 
ATOM     13  C   UNL A   1      45.107  23.815  28.351  1.00  0.00     0.018 A 
ATOM     14  C   UNL A   1      48.485  25.544  28.611  1.00  0.00     0.048 C 
ATOM     15  C   UNL A   1      46.420  24.193  28.069  1.00  0.00     0.130 A 
ATOM     16  C   UNL A   1      44.359  23.014  27.402  1.00  0.00     0.027 C 
ATOM     17  O   UNL A   1      47.102  23.746  26.970  1.00  0.00    -0.475 OA
ATOM     18  C   UNL A   1      46.388  23.021  25.931  1.00  0.00     0.316 C 
BRANCH   9  19
ATOM     19  C   UNL A   1      44.379  25.629  31.611  1.00  0.00     0.032 C 
ATOM     20  C   UNL A   1      43.372  26.742  31.359  1.00  0.00     0.009 C 
ENDBRANCH   9  19
BRANCH  18  21
ATOM     21  C   UNL A   1      46.533  23.802  24.617  1.00  0.00     0.430 C 
ATOM     22  F   UNL A   1      47.607  24.630  24.654  1.00  0.00    -0.167 F 
ATOM     23  F   UNL A   1      46.725  22.976  23.560  1.00  0.00    -0.167 F 
ATOM     24  F   UNL A   1      45.446  24.557  24.347  1.00  0.00    -0.167 F 
ENDBRANCH  18  21
ENDBRANCH   6   8
ENDBRANCH   5   6
ENDBRANCH   4   5
ENDBRANCH   3   4
ENDBRANCH   2   3
ENDBRANCH   1   2
BRANCH   1  25
ATOM     25  C   UNL A   1      40.973  19.725  26.172  1.00  0.00     0.261 C 
BRANCH  25  26
ATOM     26  O   UNL A   1      40.624  20.836  27.023  1.00  0.00    -0.460 OA
BRANCH  26  27
ATOM     27  C   UNL A   1      39.775  21.735  26.476  1.00  0.00     0.338 C 
ATOM     28  O   UNL A   1      38.809  21.514  25.761  1.00  0.00    -0.246 OA
BRANCH  27  29
ATOM     29  C   UNL A   1      40.069  23.077  27.004  1.00  0.00     0.060 A 
ATOM     30  C   UNL A   1      39.603  24.185  26.286  1.00  0.00     0.016 A 
ATOM     31  C   UNL A   1      40.878  23.244  28.130  1.00  0.00     0.016 A 
ATOM     32  C   UNL A   1      39.972  25.471  26.675  1.00  0.00     0.010 A 
ATOM     33  C   UNL A   1      41.261  24.534  28.509  1.00  0.00     0.010 A 
ATOM     34  C   UNL A   1      40.834  25.649  27.765  1.00  0.00    -0.014 A 
BRANCH  34  35
ATOM     35  C   UNL A   1      41.394  26.992  28.038  1.00  0.00     0.031 A 
ATOM     36  C   UNL A   1      42.779  27.318  27.554  1.00  0.00     0.074 A 
ATOM     37  C   UNL A   1      40.663  27.920  28.680  1.00  0.00     0.049 A 
ATOM     38  N   UNL A   1      43.462  28.426  27.681  1.00  0.00    -0.248 NA
ATOM     39  C   UNL A   1      43.486  26.253  26.824  1.00  0.00     0.031 C 
ATOM     40  C   UNL A   1      39.293  27.733  29.153  1.00  0.00     0.029 A 
ATOM     41  N   UNL A   1      40.974  29.207  29.041  1.00  0.00    -0.354 N 
ATOM     42  C   UNL A   1      44.670  28.199  27.032  1.00  0.00     0.074 A 
ATOM     43  C   UNL A   1      44.643  26.837  26.546  1.00  0.00     0.031 C 
ATOM     44  C   UNL A   1      38.881  28.865  29.747  1.00  0.00     0.029 A 
ATOM     45  C   UNL A   1      39.965  29.846  29.717  1.00  0.00     0.049 A 
ATOM     46  H   UNL A   1      41.838  29.631  28.834  1.00  0.00     0.167 HD
ATOM     47  C   UNL A   1      45.699  29.057  26.848  1.00  0.00     0.037 A 
ATOM     48  C   UNL A   1      39.930  31.079  30.259  1.00  0.00     0.037 A 
ATOM     49  C   UNL A   1      45.729  30.407  27.346  1.00  0.00     0.049 A 
ATOM     50  C   UNL A   1      41.130  31.980  30.127  1.00  0.00     0.074 A 
ATOM     51  C   UNL A   1      46.731  31.351  27.216  1.00  0.00     0.029 A 
ATOM     52  N   UNL A   1      44.711  30.999  28.077  1.00  0.00    -0.354 N 
ATOM     53  N   UNL A   1      42.260  31.765  29.499  1.00  0.00    -0.248 NA
ATOM     54  C   UNL A   1      41.050  33.295  30.779  1.00  0.00     0.031 C 
ATOM     55  C   UNL A   1      46.339  32.502  27.906  1.00  0.00     0.029 A 
ATOM     56  C   UNL A   1      45.071  32.291  28.424  1.00  0.00     0.049 A 
ATOM     57  H   UNL A   1      43.858  30.568  28.313  1.00  0.00     0.167 HD
ATOM     58  C   UNL A   1      43.011  32.923  29.652  1.00  0.00     0.074 A 
ATOM     59  C   UNL A   1      42.207  33.842  30.430  1.00  0.00     0.031 C 
ATOM     60  C   UNL A   1      44.253  33.199  29.186  1.00  0.00     0.037 A 
BRANCH  47  61
ATOM     61  C   UNL A   1      46.887  28.567  26.076  1.00  0.00     0.064 A 
ATOM     62  C   UNL A   1      48.123  28.353  26.704  1.00  0.00     0.173 A 
ATOM     63  C   UNL A   1      46.772  28.240  24.718  1.00  0.00     0.173 A 
ATOM     64  F   UNL A   1      48.287  28.662  27.998  1.00  0.00    -0.203 F 
ATOM     65  C   UNL A   1      49.205  27.837  25.994  1.00  0.00     0.198 A 
ATOM     66  C   UNL A   1      47.849  27.702  24.018  1.00  0.00     0.198 A 
ATOM     67  F   UNL A   1      45.609  28.423  24.074  1.00  0.00    -0.203 F 
ATOM     68  F   UNL A   1      50.385  27.665  26.606  1.00  0.00    -0.200 F 
ATOM     69  C   UNL A   1      49.064  27.504  24.656  1.00  0.00     0.200 A 
ATOM     70  F   UNL A   1      47.708  27.369  22.727  1.00  0.00    -0.200 F 
ATOM     71  F   UNL A   1      50.101  26.992  23.978  1.00  0.00    -0.200 F 
ENDBRANCH  47  61
BRANCH  48  72
ATOM     72  C   UNL A   1      38.707  31.540  30.965  1.00  0.00     0.064 A 
ATOM     73  C   UNL A   1      38.518  31.271  32.327  1.00  0.00     0.173 A 
ATOM     74  C   UNL A   1      37.706  32.259  30.295  1.00  0.00     0.173 A 
ATOM     75  F   UNL A   1      39.436  30.565  33.003  1.00  0.00    -0.203 F 
ATOM     76  C   UNL A   1      37.369  31.697  32.990  1.00  0.00     0.198 A 
ATOM     77  C   UNL A   1      36.569  32.704  30.965  1.00  0.00     0.198 A 
ATOM     78  F   UNL A   1      37.839  32.538  28.990  1.00  0.00    -0.203 F 
ATOM     79  F   UNL A   1      37.196  31.396  34.285  1.00  0.00    -0.200 F 
ATOM     80  C   UNL A   1      36.399  32.420  32.312  1.00  0.00     0.200 A 
ATOM     81  F   UNL A   1      35.639  33.409  30.307  1.00  0.00    -0.200 F 
ATOM     82  F   UNL A   1      35.298  32.834  32.953  1.00  0.00    -0.200 F 
ENDBRANCH  48  72
BRANCH  60  83
ATOM     83  C   UNL A   1      44.821  34.559  29.471  1.00  0.00     0.064 A 
ATOM     84  C   UNL A   1      45.622  34.798  30.595  1.00  0.00     0.173 A 
ATOM     85  C   UNL A   1      44.635  35.609  28.558  1.00  0.00     0.173 A 
ATOM     86  F   UNL A   1      45.820  33.828  31.502  1.00  0.00    -0.203 F 
ATOM     87  C   UNL A   1      46.212  36.042  30.800  1.00  0.00     0.198 A 
ATOM     88  C   UNL A   1      45.247  36.843  28.752  1.00  0.00     0.198 A 
ATOM     89  F   UNL A   1      43.884  35.427  27.462  1.00  0.00    -0.203 F 
ATOM     90  F   UNL A   1      46.955  36.257  31.895  1.00  0.00    -0.200 F 
ATOM     91  C   UNL A   1      46.034  37.060  29.874  1.00  0.00     0.200 A 
ATOM     92  F   UNL A   1      45.087  37.819  27.849  1.00  0.00    -0.200 F 
ATOM     93  F   UNL A   1      46.619  38.249  30.063  1.00  0.00    -0.200 F 
ENDBRANCH  60  83
ENDBRANCH  34  35
ENDBRANCH  27  29
ENDBRANCH  26  27
ENDBRANCH  25  26
ENDBRANCH   1  25
TORSDOF 16
ENDMDL
MODEL 2
REMARK VINA RESULT:      -9.9      5.532      9.652
REMARK SMILES CCc1cc(C)c2c(c1)C=C(C(=O)OCCOCCOC(=O)c1ccc(-c3c4nc(c(-c5c(F)c(F)c(F)c(F)c5F)c5ccc([nH]5)c(-c5c(F)c(F)c(F)c(F)c5F)c5nc(c(-c6c(F)c(F)c(F)c(F)c6F)c6ccc3[nH]6)C=C5)C=C4)cc1)[C@@H](C(F)(F)F)O2
REMARK SMILES IDX 18 1 17 2 16 3 15 4 14 5 12 6 13 7 11 8 3 9 4 10 9 11 5 12
REMARK SMILES IDX 8 13 6 14 7 15 10 16 91 17 86 18 2 19 1 20 87 21 88 22 89 23
REMARK SMILES IDX 90 24 19 25 20 26 21 27 22 28 23 29 24 30 85 31 25 32 84 33
REMARK SMILES IDX 26 34 27 35 28 36 78 37 29 38 83 39 77 40 79 41 30 42 82 43
REMARK SMILES IDX 76 44 75 45 31 47 63 48 43 49 62 50 44 51 47 52 61 53 80 54
REMARK SMILES IDX 45 55 46 56 60 58 81 59 48 60 32 61 33 62 41 63 34 64 35 65
REMARK SMILES IDX 39 66 42 67 36 68 37 69 40 70 38 71 64 72 65 73 73 74 66 75
REMARK SMILES IDX 67 76 71 77 74 78 68 79 69 80 72 81 70 82 49 83 50 84 58 85
REMARK SMILES IDX 51 86 52 87 56 88 59 89 53 90 54 91 57 92 55 93
REMARK H PARENT 79 46 47 57
REMARK Flexibility Score: inf
ROOT
ATOM      1  C   UNL A   1      31.664  28.637  26.351  1.00  0.00     0.202 C 
ENDROOT
BRANCH   1   2
ATOM      2  O   UNL A   1      31.196  28.383  25.023  1.00  0.00    -0.374 OA
BRANCH   2   3
ATOM      3  C   UNL A   1      30.531  27.145  24.786  1.00  0.00     0.202 C 
BRANCH   3   4
ATOM      4  C   UNL A   1      30.407  26.719  23.321  1.00  0.00     0.261 C 
BRANCH   4   5
ATOM      5  O   UNL A   1      30.825  25.357  23.134  1.00  0.00    -0.460 OA
BRANCH   5   6
ATOM      6  C   UNL A   1      31.941  25.210  22.383  1.00  0.00     0.338 C 
ATOM      7  O   UNL A   1      32.283  25.904  21.439  1.00  0.00    -0.246 OA
BRANCH   6   8
ATOM      8  C   UNL A   1      32.781  24.134  22.937  1.00  0.00     0.087 C 
ATOM      9  C   UNL A   1      33.086  19.471  24.129  1.00  0.00    -0.047 A 
ATOM     10  C   UNL A   1      34.256  19.749  24.846  1.00  0.00     0.011 A 
ATOM     11  C   UNL A   1      32.466  20.523  23.440  1.00  0.00     0.015 A 
ATOM     12  C   UNL A   1      34.822  21.038  24.852  1.00  0.00    -0.008 A 
ATOM     13  C   UNL A   1      33.005  21.813  23.452  1.00  0.00     0.018 A 
ATOM     14  C   UNL A   1      36.068  21.304  25.649  1.00  0.00     0.048 C 
ATOM     15  C   UNL A   1      34.196  22.067  24.134  1.00  0.00     0.130 A 
ATOM     16  C   UNL A   1      32.283  22.898  22.817  1.00  0.00     0.027 C 
ATOM     17  O   UNL A   1      34.799  23.295  24.144  1.00  0.00    -0.475 OA
ATOM     18  C   UNL A   1      34.087  24.447  23.611  1.00  0.00     0.316 C 
BRANCH   9  19
ATOM     19  C   UNL A   1      32.405  18.121  24.128  1.00  0.00     0.032 C 
ATOM     20  C   UNL A   1      33.206  16.956  23.564  1.00  0.00     0.009 C 
ENDBRANCH   9  19
BRANCH  18  21
ATOM     21  C   UNL A   1      33.942  25.481  24.736  1.00  0.00     0.430 C 
ATOM     22  F   UNL A   1      35.023  25.471  25.555  1.00  0.00    -0.167 F 
ATOM     23  F   UNL A   1      33.845  26.742  24.250  1.00  0.00    -0.167 F 
ATOM     24  F   UNL A   1      32.850  25.257  25.500  1.00  0.00    -0.167 F 
ENDBRANCH  18  21
ENDBRANCH   6   8
ENDBRANCH   5   6
ENDBRANCH   4   5
ENDBRANCH   3   4
ENDBRANCH   2   3
ENDBRANCH   1   2
BRANCH   1  25
ATOM     25  C   UNL A   1      31.825  30.110  26.746  1.00  0.00     0.261 C 
BRANCH  25  26
ATOM     26  O   UNL A   1      33.134  30.611  26.409  1.00  0.00    -0.460 OA
BRANCH  26  27
ATOM     27  C   UNL A   1      33.609  31.579  27.227  1.00  0.00     0.338 C 
ATOM     28  O   UNL A   1      33.031  32.586  27.609  1.00  0.00    -0.246 OA
BRANCH  27  29
ATOM     29  C   UNL A   1      34.916  31.173  27.766  1.00  0.00     0.060 A 
ATOM     30  C   UNL A   1      35.080  29.842  28.167  1.00  0.00     0.016 A 
ATOM     31  C   UNL A   1      35.932  32.111  27.970  1.00  0.00     0.016 A 
ATOM     32  C   UNL A   1      36.254  29.447  28.805  1.00  0.00     0.010 A 
ATOM     33  C   UNL A   1      37.101  31.717  28.627  1.00  0.00     0.010 A 
ATOM     34  C   UNL A   1      37.254  30.391  29.072  1.00  0.00    -0.014 A 
BRANCH  34  35
ATOM     35  C   UNL A   1      38.395  30.018  29.939  1.00  0.00     0.031 A 
ATOM     36  C   UNL A   1      39.432  29.068  29.411  1.00  0.00     0.074 A 
ATOM     37  C   UNL A   1      38.522  30.549  31.167  1.00  0.00     0.049 A 
ATOM     38  N   UNL A   1      40.510  28.609  29.994  1.00  0.00    -0.248 NA
ATOM     39  C   UNL A   1      39.232  28.573  28.039  1.00  0.00     0.031 C 
ATOM     40  C   UNL A   1      37.604  31.516  31.765  1.00  0.00     0.029 A 
ATOM     41  N   UNL A   1      39.478  30.348  32.131  1.00  0.00    -0.354 N 
ATOM     42  C   UNL A   1      41.124  27.788  29.057  1.00  0.00     0.074 A 
ATOM     43  C   UNL A   1      40.282  27.779  27.881  1.00  0.00     0.031 C 
ATOM     44  C   UNL A   1      38.040  31.823  32.999  1.00  0.00     0.029 A 
ATOM     45  C   UNL A   1      39.252  31.057  33.284  1.00  0.00     0.049 A 
ATOM     46  H   UNL A   1      40.253  29.753  32.006  1.00  0.00     0.167 HD
ATOM     47  C   UNL A   1      42.293  27.116  29.166  1.00  0.00     0.037 A 
ATOM     48  C   UNL A   1      39.942  31.072  34.442  1.00  0.00     0.037 A 
ATOM     49  C   UNL A   1      43.120  27.114  30.343  1.00  0.00     0.049 A 
ATOM     50  C   UNL A   1      41.187  30.234  34.572  1.00  0.00     0.074 A 
ATOM     51  C   UNL A   1      44.319  26.457  30.552  1.00  0.00     0.029 A 
ATOM     52  N   UNL A   1      42.828  27.798  31.513  1.00  0.00    -0.354 N 
ATOM     53  N   UNL A   1      41.770  29.474  33.677  1.00  0.00    -0.248 NA
ATOM     54  C   UNL A   1      41.870  30.255  35.874  1.00  0.00     0.031 C 
ATOM     55  C   UNL A   1      44.732  26.707  31.864  1.00  0.00     0.029 A 
ATOM     56  C   UNL A   1      43.814  27.561  32.456  1.00  0.00     0.049 A 
ATOM     57  H   UNL A   1      42.038  28.369  31.653  1.00  0.00     0.167 HD
ATOM     58  C   UNL A   1      42.900  28.953  34.294  1.00  0.00     0.074 A 
ATOM     59  C   UNL A   1      42.925  29.487  35.639  1.00  0.00     0.031 C 
ATOM     60  C   UNL A   1      43.834  28.112  33.786  1.00  0.00     0.037 A 
BRANCH  47  61
ATOM     61  C   UNL A   1      42.752  26.318  27.983  1.00  0.00     0.064 A 
ATOM     62  C   UNL A   1      42.313  25.001  27.780  1.00  0.00     0.173 A 
ATOM     63  C   UNL A   1      43.577  26.895  27.007  1.00  0.00     0.173 A 
ATOM     64  F   UNL A   1      41.534  24.400  28.691  1.00  0.00    -0.203 F 
ATOM     65  C   UNL A   1      42.694  24.288  26.646  1.00  0.00     0.198 A 
ATOM     66  C   UNL A   1      43.936  26.188  25.864  1.00  0.00     0.198 A 
ATOM     67  F   UNL A   1      44.019  28.154  27.154  1.00  0.00    -0.203 F 
ATOM     68  F   UNL A   1      42.286  23.022  26.484  1.00  0.00    -0.200 F 
ATOM     69  C   UNL A   1      43.496  24.884  25.685  1.00  0.00     0.200 A 
ATOM     70  F   UNL A   1      44.701  26.770  24.930  1.00  0.00    -0.200 F 
ATOM     71  F   UNL A   1      43.848  24.203  24.586  1.00  0.00    -0.200 F 
ENDBRANCH  47  61
BRANCH  48  72
ATOM     72  C   UNL A   1      39.478  31.924  35.566  1.00  0.00     0.064 A 
ATOM     73  C   UNL A   1      39.957  33.231  35.724  1.00  0.00     0.173 A 
ATOM     74  C   UNL A   1      38.546  31.451  36.502  1.00  0.00     0.173 A 
ATOM     75  F   UNL A   1      40.868  33.717  34.868  1.00  0.00    -0.203 F 
ATOM     76  C   UNL A   1      39.527  34.031  36.781  1.00  0.00     0.198 A 
ATOM     77  C   UNL A   1      38.099  32.261  37.544  1.00  0.00     0.198 A 
ATOM     78  F   UNL A   1      38.061  30.206  36.396  1.00  0.00    -0.203 F 
ATOM     79  F   UNL A   1      40.028  35.265  36.930  1.00  0.00    -0.200 F 
ATOM     80  C   UNL A   1      38.593  33.548  37.686  1.00  0.00     0.200 A 
ATOM     81  F   UNL A   1      37.191  31.793  38.410  1.00  0.00    -0.200 F 
ATOM     82  F   UNL A   1      38.176  34.321  38.698  1.00  0.00    -0.200 F 
ENDBRANCH  48  72
BRANCH  60  83
ATOM     83  C   UNL A   1      44.985  27.730  34.670  1.00  0.00     0.064 A 
ATOM     84  C   UNL A   1      46.137  28.523  34.756  1.00  0.00     0.173 A 
ATOM     85  C   UNL A   1      44.892  26.608  35.508  1.00  0.00     0.173 A 
ATOM     86  F   UNL A   1      46.277  29.599  33.967  1.00  0.00    -0.203 F 
ATOM     87  C   UNL A   1      47.160  28.202  35.645  1.00  0.00     0.198 A 
ATOM     88  C   UNL A   1      45.904  26.305  36.414  1.00  0.00     0.198 A 
ATOM     89  F   UNL A   1      43.805  25.823  35.470  1.00  0.00    -0.203 F 
ATOM     90  F   UNL A   1      48.264  28.960  35.693  1.00  0.00    -0.200 F 
ATOM     91  C   UNL A   1      47.039  27.101  36.480  1.00  0.00     0.200 A 
ATOM     92  F   UNL A   1      45.778  25.250  37.230  1.00  0.00    -0.200 F 
ATOM     93  F   UNL A   1      48.014  26.806  37.348  1.00  0.00    -0.200 F 
ENDBRANCH  60  83
ENDBRANCH  34  35
ENDBRANCH  27  29
ENDBRANCH  26  27
ENDBRANCH  25  26
ENDBRANCH   1  25
TORSDOF 16
ENDMDL
MODEL 3
REMARK VINA RESULT:      -9.8      4.193      7.030
REMARK SMILES CCc1cc(C)c2c(c1)C=C(C(=O)OCCOCCOC(=O)c1ccc(-c3c4nc(c(-c5c(F)c(F)c(F)c(F)c5F)c5ccc([nH]5)c(-c5c(F)c(F)c(F)c(F)c5F)c5nc(c(-c6c(F)c(F)c(F)c(F)c6F)c6ccc3[nH]6)C=C5)C=C4)cc1)[C@@H](C(F)(F)F)O2
REMARK SMILES IDX 18 1 17 2 16 3 15 4 14 5 12 6 13 7 11 8 3 9 4 10 9 11 5 12
REMARK SMILES IDX 8 13 6 14 7 15 10 16 91 17 86 18 2 19 1 20 87 21 88 22 89 23
REMARK SMILES IDX 90 24 19 25 20 26 21 27 22 28 23 29 24 30 85 31 25 32 84 33
REMARK SMILES IDX 26 34 27 35 28 36 78 37 29 38 83 39 77 40 79 41 30 42 82 43
REMARK SMILES IDX 76 44 75 45 31 47 63 48 43 49 62 50 44 51 47 52 61 53 80 54
REMARK SMILES IDX 45 55 46 56 60 58 81 59 48 60 32 61 33 62 41 63 34 64 35 65
REMARK SMILES IDX 39 66 42 67 36 68 37 69 40 70 38 71 64 72 65 73 73 74 66 75
REMARK SMILES IDX 67 76 71 77 74 78 68 79 69 80 72 81 70 82 49 83 50 84 58 85
REMARK SMILES IDX 51 86 52 87 56 88 59 89 53 90 54 91 57 92 55 93
REMARK H PARENT 79 46 47 57
REMARK Flexibility Score: inf
ROOT
ATOM      1  C   UNL A   1      38.010  19.978  24.815  1.00  0.00     0.202 C 
ENDROOT
BRANCH   1   2
ATOM      2  O   UNL A   1      37.671  21.363  24.922  1.00  0.00    -0.374 OA
BRANCH   2   3
ATOM      3  C   UNL A   1      36.520  21.702  25.691  1.00  0.00     0.202 C 
BRANCH   3   4
ATOM      4  C   UNL A   1      35.186  21.698  24.941  1.00  0.00     0.261 C 
BRANCH   4   5
ATOM      5  O   UNL A   1      34.625  23.018  24.864  1.00  0.00    -0.460 OA
BRANCH   5   6
ATOM      6  C   UNL A   1      34.615  23.552  23.620  1.00  0.00     0.338 C 
ATOM      7  O   UNL A   1      35.202  23.127  22.637  1.00  0.00    -0.246 OA
BRANCH   6   8
ATOM      8  C   UNL A   1      33.683  24.692  23.570  1.00  0.00     0.087 C 
ATOM      9  C   UNL A   1      32.568  29.061  25.279  1.00  0.00    -0.047 A 
ATOM     10  C   UNL A   1      31.302  28.949  24.692  1.00  0.00     0.011 A 
ATOM     11  C   UNL A   1      33.482  28.015  25.089  1.00  0.00     0.015 A 
ATOM     12  C   UNL A   1      30.959  27.836  23.900  1.00  0.00    -0.008 A 
ATOM     13  C   UNL A   1      33.149  26.895  24.320  1.00  0.00     0.018 A 
ATOM     14  C   UNL A   1      29.584  27.740  23.301  1.00  0.00     0.048 C 
ATOM     15  C   UNL A   1      31.900  26.816  23.704  1.00  0.00     0.130 A 
ATOM     16  C   UNL A   1      34.079  25.786  24.230  1.00  0.00     0.027 C 
ATOM     17  O   UNL A   1      31.533  25.770  22.902  1.00  0.00    -0.475 OA
ATOM     18  C   UNL A   1      32.372  24.583  22.843  1.00  0.00     0.316 C 
BRANCH   9  19
ATOM     19  C   UNL A   1      32.974  30.205  26.181  1.00  0.00     0.032 C 
ATOM     20  C   UNL A   1      33.789  29.841  27.415  1.00  0.00     0.009 C 
ENDBRANCH   9  19
BRANCH  18  21
ATOM     21  C   UNL A   1      31.535  23.382  23.304  1.00  0.00     0.430 C 
ATOM     22  F   UNL A   1      31.968  22.233  22.728  1.00  0.00    -0.167 F 
ATOM     23  F   UNL A   1      31.622  23.193  24.642  1.00  0.00    -0.167 F 
ATOM     24  F   UNL A   1      30.226  23.523  22.999  1.00  0.00    -0.167 F 
ENDBRANCH  18  21
ENDBRANCH   6   8
ENDBRANCH   5   6
ENDBRANCH   4   5
ENDBRANCH   3   4
ENDBRANCH   2   3
ENDBRANCH   1   2
BRANCH   1  25
ATOM     25  C   UNL A   1      39.120  19.473  25.746  1.00  0.00     0.261 C 
BRANCH  25  26
ATOM     26  O   UNL A   1      40.216  20.407  25.822  1.00  0.00    -0.460 OA
BRANCH  26  27
ATOM     27  C   UNL A   1      40.855  20.449  27.014  1.00  0.00     0.338 C 
ATOM     28  O   UNL A   1      41.347  19.518  27.632  1.00  0.00    -0.246 OA
BRANCH  27  29
ATOM     29  C   UNL A   1      41.042  21.849  27.425  1.00  0.00     0.060 A 
ATOM     30  C   UNL A   1      40.474  22.852  26.630  1.00  0.00     0.016 A 
ATOM     31  C   UNL A   1      41.851  22.176  28.515  1.00  0.00     0.016 A 
ATOM     32  C   UNL A   1      40.739  24.192  26.904  1.00  0.00     0.010 A 
ATOM     33  C   UNL A   1      42.130  23.521  28.779  1.00  0.00     0.010 A 
ATOM     34  C   UNL A   1      41.598  24.531  27.957  1.00  0.00    -0.014 A 
BRANCH  34  35
ATOM     35  C   UNL A   1      42.048  25.934  28.108  1.00  0.00     0.031 A 
ATOM     36  C   UNL A   1      43.385  26.335  27.553  1.00  0.00     0.074 A 
ATOM     37  C   UNL A   1      41.257  26.844  28.701  1.00  0.00     0.049 A 
ATOM     38  N   UNL A   1      43.973  27.504  27.571  1.00  0.00    -0.248 NA
ATOM     39  C   UNL A   1      44.162  25.280  26.882  1.00  0.00     0.031 C 
ATOM     40  C   UNL A   1      39.922  26.580  29.234  1.00  0.00     0.029 A 
ATOM     41  N   UNL A   1      41.465  28.177  28.952  1.00  0.00    -0.354 N 
ATOM     42  C   UNL A   1      45.177  27.329  26.901  1.00  0.00     0.074 A 
ATOM     43  C   UNL A   1      45.256  25.935  26.522  1.00  0.00     0.031 C 
ATOM     44  C   UNL A   1      39.429  27.717  29.753  1.00  0.00     0.029 A 
ATOM     45  C   UNL A   1      40.423  28.780  29.612  1.00  0.00     0.049 A 
ATOM     46  H   UNL A   1      42.283  28.655  28.684  1.00  0.00     0.167 HD
ATOM     47  C   UNL A   1      46.123  28.254  26.617  1.00  0.00     0.037 A 
ATOM     48  C   UNL A   1      40.296  30.045  30.058  1.00  0.00     0.037 A 
ATOM     49  C   UNL A   1      46.050  29.636  27.009  1.00  0.00     0.049 A 
ATOM     50  C   UNL A   1      41.410  31.030  29.817  1.00  0.00     0.074 A 
ATOM     51  C   UNL A   1      46.962  30.649  26.774  1.00  0.00     0.029 A 
ATOM     52  N   UNL A   1      45.004  30.197  27.727  1.00  0.00    -0.354 N 
ATOM     53  N   UNL A   1      42.536  30.863  29.169  1.00  0.00    -0.248 NA
ATOM     54  C   UNL A   1      41.234  32.382  30.370  1.00  0.00     0.031 C 
ATOM     55  C   UNL A   1      46.491  31.813  27.387  1.00  0.00     0.029 A 
ATOM     56  C   UNL A   1      45.260  31.538  27.962  1.00  0.00     0.049 A 
ATOM     57  H   UNL A   1      44.199  29.715  28.025  1.00  0.00     0.167 HD
ATOM     58  C   UNL A   1      43.187  32.089  29.208  1.00  0.00     0.074 A 
ATOM     59  C   UNL A   1      42.328  32.995  29.940  1.00  0.00     0.031 C 
ATOM     60  C   UNL A   1      44.388  32.431  28.680  1.00  0.00     0.037 A 
BRANCH  47  61
ATOM     61  C   UNL A   1      47.327  27.806  25.845  1.00  0.00     0.064 A 
ATOM     62  C   UNL A   1      48.489  27.368  26.499  1.00  0.00     0.173 A 
ATOM     63  C   UNL A   1      47.298  27.744  24.445  1.00  0.00     0.173 A 
ATOM     64  F   UNL A   1      48.571  27.420  27.837  1.00  0.00    -0.203 F 
ATOM     65  C   UNL A   1      49.581  26.894  25.776  1.00  0.00     0.198 A 
ATOM     66  C   UNL A   1      48.382  27.247  23.727  1.00  0.00     0.198 A 
ATOM     67  F   UNL A   1      46.208  28.147  23.773  1.00  0.00    -0.203 F 
ATOM     68  F   UNL A   1      50.691  26.506  26.419  1.00  0.00    -0.200 F 
ATOM     69  C   UNL A   1      49.523  26.826  24.393  1.00  0.00     0.200 A 
ATOM     70  F   UNL A   1      48.320  27.170  22.390  1.00  0.00    -0.200 F 
ATOM     71  F   UNL A   1      50.568  26.353  23.699  1.00  0.00    -0.200 F 
ENDBRANCH  47  61
BRANCH  48  72
ATOM     72  C   UNL A   1      39.058  30.455  30.768  1.00  0.00     0.064 A 
ATOM     73  C   UNL A   1      37.937  30.908  30.058  1.00  0.00     0.173 A 
ATOM     74  C   UNL A   1      38.967  30.401  32.167  1.00  0.00     0.173 A 
ATOM     75  F   UNL A   1      37.987  31.001  28.721  1.00  0.00    -0.203 F 
ATOM     76  C   UNL A   1      36.776  31.299  30.721  1.00  0.00     0.198 A 
ATOM     77  C   UNL A   1      37.797  30.770  32.827  1.00  0.00     0.198 A 
ATOM     78  F   UNL A   1      40.014  29.979  32.891  1.00  0.00    -0.203 F 
ATOM     79  F   UNL A   1      35.732  31.762  30.021  1.00  0.00    -0.200 F 
ATOM     80  C   UNL A   1      36.704  31.223  32.104  1.00  0.00     0.200 A 
ATOM     81  F   UNL A   1      37.729  30.687  34.162  1.00  0.00    -0.200 F 
ATOM     82  F   UNL A   1      35.584  31.593  32.740  1.00  0.00    -0.200 F 
ENDBRANCH  48  72
BRANCH  60  83
ATOM     83  C   UNL A   1      44.843  33.851  28.841  1.00  0.00     0.064 A 
ATOM     84  C   UNL A   1      44.473  34.849  27.930  1.00  0.00     0.173 A 
ATOM     85  C   UNL A   1      45.582  34.233  29.972  1.00  0.00     0.173 A 
ATOM     86  F   UNL A   1      43.776  34.531  26.828  1.00  0.00    -0.203 F 
ATOM     87  C   UNL A   1      44.831  36.178  28.140  1.00  0.00     0.198 A 
ATOM     88  C   UNL A   1      45.916  35.566  30.193  1.00  0.00     0.198 A 
ATOM     89  F   UNL A   1      45.953  33.317  30.879  1.00  0.00    -0.203 F 
ATOM     90  F   UNL A   1      44.487  37.112  27.242  1.00  0.00    -0.200 F 
ATOM     91  C   UNL A   1      45.542  36.537  29.275  1.00  0.00     0.200 A 
ATOM     92  F   UNL A   1      46.589  35.913  31.298  1.00  0.00    -0.200 F 
ATOM     93  F   UNL A   1      45.868  37.819  29.486  1.00  0.00    -0.200 F 
ENDBRANCH  60  83
ENDBRANCH  34  35
ENDBRANCH  27  29
ENDBRANCH  26  27
ENDBRANCH  25  26
ENDBRANCH   1  25
TORSDOF 16
ENDMDL
