MODEL 1
REMARK VINA RESULT:     -11.0      0.000      0.000
REMARK SMILES O=C(CN1C(=O)/C(=C2/Sc3ccccc3N2CCCS(=O)(=O)[O-])SC1=S)OCCOCCOC(=O)c1ccc(-c2c3nc(c(-c4c(F)c(F)c(F)c(F)c4F)c4ccc([nH]4)c(-c4c(F)c(F)c(F)c(F)c4F)c4nc(c(-c5c(F)c(F)c(F)c(F)c5F)c5ccc2[nH]5)C=C4)C=C3)cc1
REMARK SMILES IDX 28 1 27 2 2 3 1 4 3 5 4 6 5 7 25 8 6 9 7 10 24 11 26 12 8 13
REMARK SMILES IDX 9 14 16 15 10 16 15 17 11 18 14 19 12 20 13 21 17 22 18 23
REMARK SMILES IDX 19 24 20 25 21 26 22 27 23 28 29 29 30 30 31 31 32 32 33 33
REMARK SMILES IDX 34 34 35 35 36 36 37 37 98 38 38 39 97 40 39 41 40 42 41 43
REMARK SMILES IDX 91 44 42 45 96 46 90 47 92 48 43 49 95 50 89 51 88 52 44 54
REMARK SMILES IDX 76 55 56 56 75 57 57 58 60 59 74 60 93 61 58 62 59 63 73 65
REMARK SMILES IDX 94 66 61 67 45 68 46 69 54 70 47 71 48 72 52 73 55 74 49 75
REMARK SMILES IDX 50 76 53 77 51 78 77 79 78 80 86 81 79 82 80 83 84 84 87 85
REMARK SMILES IDX 81 86 82 87 85 88 83 89 62 90 63 91 71 92 64 93 65 94 69 95
REMARK SMILES IDX 72 96 66 97 67 98 70 99 68 100
REMARK H PARENT 92 53 60 64
REMARK Flexibility Score: inf
ROOT
ATOM      1  C   UNL A   1      37.944  23.992  26.588  1.00  0.00     0.261 C 
ENDROOT
BRANCH   1   2
ATOM      2  O   UNL A   1      36.912  24.254  25.627  1.00  0.00    -0.462 OA
BRANCH   2   3
ATOM      3  C   UNL A   1      35.714  23.649  25.492  1.00  0.00     0.326 C 
ATOM      4  O   UNL A   1      35.129  23.279  26.512  1.00  0.00    -0.250 OA
BRANCH   3   5
ATOM      5  C   UNL A   1      35.092  23.340  24.132  1.00  0.00     0.250 C 
BRANCH   5   6
ATOM      6  N   UNL A   1      33.671  23.568  23.881  1.00  0.00    -0.281 N 
ATOM      7  C   UNL A   1      33.288  24.648  23.110  1.00  0.00     0.269 C 
ATOM      8  C   UNL A   1      32.695  22.615  24.032  1.00  0.00     0.148 C 
ATOM      9  O   UNL A   1      34.026  25.207  22.310  1.00  0.00    -0.268 OA
ATOM     10  C   UNL A   1      31.827  24.891  23.243  1.00  0.00     0.111 C 
ATOM     11  S   UNL A   1      31.141  23.330  23.651  1.00  0.00    -0.052 SA
ATOM     12  S   UNL A   1      32.858  21.043  24.555  1.00  0.00    -0.052 S 
ATOM     13  C   UNL A   1      31.153  26.067  23.160  1.00  0.00     0.100 C 
ATOM     14  S   UNL A   1      29.363  25.988  23.525  1.00  0.00    -0.068 SA
ATOM     15  N   UNL A   1      31.559  27.399  22.865  1.00  0.00    -0.334 N 
ATOM     16  C   UNL A   1      29.217  27.715  23.171  1.00  0.00     0.037 A 
ATOM     17  C   UNL A   1      30.456  28.307  22.871  1.00  0.00     0.056 A 
ATOM     18  C   UNL A   1      28.017  28.418  23.127  1.00  0.00     0.017 A 
ATOM     19  C   UNL A   1      30.470  29.670  22.572  1.00  0.00     0.027 A 
ATOM     20  C   UNL A   1      28.045  29.763  22.778  1.00  0.00     0.001 A 
ATOM     21  C   UNL A   1      29.267  30.389  22.512  1.00  0.00     0.002 A 
BRANCH  15  22
ATOM     22  C   UNL A   1      32.776  27.869  22.186  1.00  0.00     0.124 C 
BRANCH  22  23
ATOM     23  C   UNL A   1      33.785  28.554  23.125  1.00  0.00     0.037 C 
BRANCH  23  24
ATOM     24  C   UNL A   1      33.922  27.978  24.530  1.00  0.00     0.124 C 
BRANCH  24  25
ATOM     25  S   UNL A   1      32.915  28.741  25.803  1.00  0.00     0.095 S 
ATOM     26  O   UNL A   1      32.565  30.080  25.390  1.00  0.00    -0.243 OA
ATOM     27  O   UNL A   1      31.923  27.784  26.246  1.00  0.00    -0.243 OA
ATOM     28  O   UNL A   1      33.992  28.856  26.996  1.00  0.00    -0.748 OA
ENDBRANCH  24  25
ENDBRANCH  23  24
ENDBRANCH  22  23
ENDBRANCH  15  22
ENDBRANCH   5   6
ENDBRANCH   3   5
ENDBRANCH   2   3
ENDBRANCH   1   2
BRANCH   1  29
ATOM     29  C   UNL A   1      39.059  23.045  26.141  1.00  0.00     0.202 C 
BRANCH  29  30
ATOM     30  O   UNL A   1      38.896  21.674  26.460  1.00  0.00    -0.374 OA
BRANCH  30  31
ATOM     31  C   UNL A   1      38.612  20.773  25.377  1.00  0.00     0.202 C 
BRANCH  31  32
ATOM     32  C   UNL A   1      39.356  19.430  25.378  1.00  0.00     0.261 C 
BRANCH  32  33
ATOM     33  O   UNL A   1      40.264  19.382  26.497  1.00  0.00    -0.460 OA
BRANCH  33  34
ATOM     34  C   UNL A   1      41.582  19.297  26.200  1.00  0.00     0.338 C 
ATOM     35  O   UNL A   1      42.159  18.389  25.629  1.00  0.00    -0.246 OA
BRANCH  34  36
ATOM     36  C   UNL A   1      42.188  20.618  26.451  1.00  0.00     0.060 A 
ATOM     37  C   UNL A   1      42.658  21.410  25.402  1.00  0.00     0.016 A 
ATOM     38  C   UNL A   1      42.280  21.060  27.778  1.00  0.00     0.016 A 
ATOM     39  C   UNL A   1      43.204  22.664  25.684  1.00  0.00     0.010 A 
ATOM     40  C   UNL A   1      42.837  22.307  28.058  1.00  0.00     0.010 A 
ATOM     41  C   UNL A   1      43.284  23.124  27.011  1.00  0.00    -0.014 A 
BRANCH  41  42
ATOM     42  C   UNL A   1      43.685  24.524  27.283  1.00  0.00     0.031 A 
ATOM     43  C   UNL A   1      45.092  24.992  27.081  1.00  0.00     0.074 A 
ATOM     44  C   UNL A   1      42.738  25.372  27.726  1.00  0.00     0.049 A 
ATOM     45  N   UNL A   1      45.579  26.200  27.206  1.00  0.00    -0.248 NA
ATOM     46  C   UNL A   1      46.082  23.978  26.693  1.00  0.00     0.031 C 
ATOM     47  C   UNL A   1      41.342  25.007  27.981  1.00  0.00     0.029 A 
ATOM     48  N   UNL A   1      42.795  26.707  28.030  1.00  0.00    -0.354 N 
ATOM     49  C   UNL A   1      46.925  26.102  26.884  1.00  0.00     0.074 A 
ATOM     50  C   UNL A   1      47.190  24.705  26.606  1.00  0.00     0.031 C 
ATOM     51  C   UNL A   1      40.670  26.097  28.378  1.00  0.00     0.029 A 
ATOM     52  C   UNL A   1      41.589  27.230  28.425  1.00  0.00     0.049 A 
ATOM     53  H   UNL A   1      43.622  27.238  27.971  1.00  0.00     0.167 HD
ATOM     54  C   UNL A   1      47.842  27.096  26.810  1.00  0.00     0.037 A 
ATOM     55  C   UNL A   1      41.259  28.487  28.775  1.00  0.00     0.037 A 
ATOM     56  C   UNL A   1      47.568  28.480  27.107  1.00  0.00     0.049 A 
ATOM     57  C   UNL A   1      42.311  29.559  28.723  1.00  0.00     0.074 A 
ATOM     58  C   UNL A   1      48.429  29.563  27.044  1.00  0.00     0.029 A 
ATOM     59  N   UNL A   1      46.341  28.972  27.532  1.00  0.00    -0.354 N 
ATOM     60  N   UNL A   1      43.565  29.467  28.355  1.00  0.00    -0.248 NA
ATOM     61  C   UNL A   1      41.899  30.910  29.125  1.00  0.00     0.031 C 
ATOM     62  C   UNL A   1      47.737  30.700  27.472  1.00  0.00     0.029 A 
ATOM     63  C   UNL A   1      46.430  30.337  27.755  1.00  0.00     0.049 A 
ATOM     64  H   UNL A   1      45.529  28.431  27.657  1.00  0.00     0.167 HD
ATOM     65  C   UNL A   1      44.086  30.749  28.454  1.00  0.00     0.074 A 
ATOM     66  C   UNL A   1      43.007  31.605  28.902  1.00  0.00     0.031 C 
ATOM     67  C   UNL A   1      45.345  31.177  28.195  1.00  0.00     0.037 A 
BRANCH  54  68
ATOM     68  C   UNL A   1      49.232  26.744  26.368  1.00  0.00     0.064 A 
ATOM     69  C   UNL A   1      49.610  26.840  25.021  1.00  0.00     0.173 A 
ATOM     70  C   UNL A   1      50.224  26.419  27.306  1.00  0.00     0.173 A 
ATOM     71  F   UNL A   1      48.699  27.144  24.084  1.00  0.00    -0.203 F 
ATOM     72  C   UNL A   1      50.929  26.624  24.629  1.00  0.00     0.198 A 
ATOM     73  C   UNL A   1      51.546  26.226  26.914  1.00  0.00     0.198 A 
ATOM     74  F   UNL A   1      49.916  26.325  28.609  1.00  0.00    -0.203 F 
ATOM     75  F   UNL A   1      51.265  26.710  23.334  1.00  0.00    -0.200 F 
ATOM     76  C   UNL A   1      51.898  26.329  25.576  1.00  0.00     0.200 A 
ATOM     77  F   UNL A   1      52.484  25.958  27.833  1.00  0.00    -0.200 F 
ATOM     78  F   UNL A   1      53.172  26.147  25.202  1.00  0.00    -0.200 F 
ENDBRANCH  54  68
BRANCH  55  79
ATOM     79  C   UNL A   1      39.859  28.800  29.155  1.00  0.00     0.064 A 
ATOM     80  C   UNL A   1      38.934  29.232  28.195  1.00  0.00     0.173 A 
ATOM     81  C   UNL A   1      39.412  28.657  30.476  1.00  0.00     0.173 A 
ATOM     82  F   UNL A   1      39.320  29.399  26.922  1.00  0.00    -0.203 F 
ATOM     83  C   UNL A   1      37.617  29.521  28.545  1.00  0.00     0.198 A 
ATOM     84  C   UNL A   1      38.087  28.921  30.820  1.00  0.00     0.198 A 
ATOM     85  F   UNL A   1      40.257  28.240  31.431  1.00  0.00    -0.203 F 
ATOM     86  F   UNL A   1      36.763  29.968  27.614  1.00  0.00    -0.200 F 
ATOM     87  C   UNL A   1      37.193  29.359  29.856  1.00  0.00     0.200 A 
ATOM     88  F   UNL A   1      37.678  28.746  32.084  1.00  0.00    -0.200 F 
ATOM     89  F   UNL A   1      35.924  29.630  30.188  1.00  0.00    -0.200 F 
ENDBRANCH  55  79
BRANCH  67  90
ATOM     90  C   UNL A   1      45.624  32.642  28.367  1.00  0.00     0.064 A 
ATOM     91  C   UNL A   1      46.200  33.145  29.543  1.00  0.00     0.173 A 
ATOM     92  C   UNL A   1      45.363  33.543  27.324  1.00  0.00     0.173 A 
ATOM     93  F   UNL A   1      46.456  32.326  30.574  1.00  0.00    -0.203 F 
ATOM     94  C   UNL A   1      46.486  34.501  29.674  1.00  0.00     0.198 A 
ATOM     95  C   UNL A   1      45.676  34.893  27.448  1.00  0.00     0.198 A 
ATOM     96  F   UNL A   1      44.817  33.110  26.177  1.00  0.00    -0.203 F 
ATOM     97  F   UNL A   1      47.000  34.967  30.820  1.00  0.00    -0.200 F 
ATOM     98  C   UNL A   1      46.232  35.373  28.624  1.00  0.00     0.200 A 
ATOM     99  F   UNL A   1      45.443  35.731  26.428  1.00  0.00    -0.200 F 
ATOM    100  F   UNL A   1      46.519  36.675  28.749  1.00  0.00    -0.200 F 
ENDBRANCH  67  90
ENDBRANCH  41  42
ENDBRANCH  34  36
ENDBRANCH  33  34
ENDBRANCH  32  33
ENDBRANCH  31  32
ENDBRANCH  30  31
ENDBRANCH  29  30
ENDBRANCH   1  29
TORSDOF 19
ENDMDL
MODEL 2
REMARK VINA RESULT:     -10.3      1.849      2.717
REMARK SMILES O=C(CN1C(=O)/C(=C2/Sc3ccccc3N2CCCS(=O)(=O)[O-])SC1=S)OCCOCCOC(=O)c1ccc(-c2c3nc(c(-c4c(F)c(F)c(F)c(F)c4F)c4ccc([nH]4)c(-c4c(F)c(F)c(F)c(F)c4F)c4nc(c(-c5c(F)c(F)c(F)c(F)c5F)c5ccc2[nH]5)C=C4)C=C3)cc1
REMARK SMILES IDX 28 1 27 2 2 3 1 4 3 5 4 6 5 7 25 8 6 9 7 10 24 11 26 12 8 13
REMARK SMILES IDX 9 14 16 15 10 16 15 17 11 18 14 19 12 20 13 21 17 22 18 23
REMARK SMILES IDX 19 24 20 25 21 26 22 27 23 28 29 29 30 30 31 31 32 32 33 33
REMARK SMILES IDX 34 34 35 35 36 36 37 37 98 38 38 39 97 40 39 41 40 42 41 43
REMARK SMILES IDX 91 44 42 45 96 46 90 47 92 48 43 49 95 50 89 51 88 52 44 54
REMARK SMILES IDX 76 55 56 56 75 57 57 58 60 59 74 60 93 61 58 62 59 63 73 65
REMARK SMILES IDX 94 66 61 67 45 68 46 69 54 70 47 71 48 72 52 73 55 74 49 75
REMARK SMILES IDX 50 76 53 77 51 78 77 79 78 80 86 81 79 82 80 83 84 84 87 85
REMARK SMILES IDX 81 86 82 87 85 88 83 89 62 90 63 91 71 92 64 93 65 94 69 95
REMARK SMILES IDX 72 96 66 97 67 98 70 99 68 100
REMARK H PARENT 92 53 60 64
REMARK Flexibility Score: inf
ROOT
ATOM      1  C   UNL A   1      36.537  23.263  25.959  1.00  0.00     0.261 C 
ENDROOT
BRANCH   1   2
ATOM      2  O   UNL A   1      35.301  23.696  26.543  1.00  0.00    -0.462 OA
BRANCH   2   3
ATOM      3  C   UNL A   1      34.220  22.957  26.872  1.00  0.00     0.326 C 
ATOM      4  O   UNL A   1      34.400  21.901  27.483  1.00  0.00    -0.250 OA
BRANCH   3   5
ATOM      5  C   UNL A   1      32.801  23.336  26.455  1.00  0.00     0.250 C 
BRANCH   5   6
ATOM      6  N   UNL A   1      32.549  24.096  25.234  1.00  0.00    -0.281 N 
ATOM      7  C   UNL A   1      32.624  25.475  25.271  1.00  0.00     0.269 C 
ATOM      8  C   UNL A   1      32.597  23.567  23.968  1.00  0.00     0.148 C 
ATOM      9  O   UNL A   1      33.247  26.097  26.121  1.00  0.00    -0.268 OA
ATOM     10  C   UNL A   1      32.026  26.062  24.043  1.00  0.00     0.111 C 
ATOM     11  S   UNL A   1      32.203  24.825  22.813  1.00  0.00    -0.052 SA
ATOM     12  S   UNL A   1      32.899  21.994  23.517  1.00  0.00    -0.052 S 
ATOM     13  C   UNL A   1      31.395  27.256  23.896  1.00  0.00     0.100 C 
ATOM     14  S   UNL A   1      30.658  27.571  22.252  1.00  0.00    -0.068 SA
ATOM     15  N   UNL A   1      31.152  28.341  24.785  1.00  0.00    -0.334 N 
ATOM     16  C   UNL A   1      30.146  29.176  22.792  1.00  0.00     0.037 A 
ATOM     17  C   UNL A   1      30.455  29.410  24.144  1.00  0.00     0.056 A 
ATOM     18  C   UNL A   1      29.560  30.139  21.977  1.00  0.00     0.017 A 
ATOM     19  C   UNL A   1      30.102  30.646  24.687  1.00  0.00     0.027 A 
ATOM     20  C   UNL A   1      29.261  31.382  22.523  1.00  0.00     0.001 A 
ATOM     21  C   UNL A   1      29.521  31.631  23.874  1.00  0.00     0.002 A 
BRANCH  15  22
ATOM     22  C   UNL A   1      31.834  28.679  26.043  1.00  0.00     0.124 C 
BRANCH  22  23
ATOM     23  C   UNL A   1      33.163  29.431  25.845  1.00  0.00     0.037 C 
BRANCH  23  24
ATOM     24  C   UNL A   1      34.402  28.825  26.494  1.00  0.00     0.124 C 
BRANCH  24  25
ATOM     25  S   UNL A   1      35.341  29.905  27.576  1.00  0.00     0.095 S 
ATOM     26  O   UNL A   1      35.201  29.446  28.938  1.00  0.00    -0.243 OA
ATOM     27  O   UNL A   1      36.633  30.156  26.973  1.00  0.00    -0.243 OA
ATOM     28  O   UNL A   1      34.502  31.272  27.423  1.00  0.00    -0.748 OA
ENDBRANCH  24  25
ENDBRANCH  23  24
ENDBRANCH  22  23
ENDBRANCH  15  22
ENDBRANCH   5   6
ENDBRANCH   3   5
ENDBRANCH   2   3
ENDBRANCH   1   2
BRANCH   1  29
ATOM     29  C   UNL A   1      36.517  22.999  24.453  1.00  0.00     0.202 C 
BRANCH  29  30
ATOM     30  O   UNL A   1      37.030  21.751  24.018  1.00  0.00    -0.374 OA
BRANCH  30  31
ATOM     31  C   UNL A   1      37.027  20.670  24.965  1.00  0.00     0.202 C 
BRANCH  31  32
ATOM     32  C   UNL A   1      38.391  20.078  25.347  1.00  0.00     0.261 C 
BRANCH  32  33
ATOM     33  O   UNL A   1      39.316  21.146  25.638  1.00  0.00    -0.460 OA
BRANCH  33  34
ATOM     34  C   UNL A   1      40.074  21.000  26.750  1.00  0.00     0.338 C 
ATOM     35  O   UNL A   1      40.491  19.964  27.235  1.00  0.00    -0.246 OA
BRANCH  34  36
ATOM     36  C   UNL A   1      40.545  22.338  27.154  1.00  0.00     0.060 A 
ATOM     37  C   UNL A   1      41.513  22.496  28.148  1.00  0.00     0.016 A 
ATOM     38  C   UNL A   1      39.991  23.453  26.512  1.00  0.00     0.016 A 
ATOM     39  C   UNL A   1      41.946  23.781  28.482  1.00  0.00     0.010 A 
ATOM     40  C   UNL A   1      40.415  24.736  26.856  1.00  0.00     0.010 A 
ATOM     41  C   UNL A   1      41.409  24.906  27.830  1.00  0.00    -0.014 A 
BRANCH  41  42
ATOM     42  C   UNL A   1      42.007  26.242  28.054  1.00  0.00     0.031 A 
ATOM     43  C   UNL A   1      43.371  26.589  27.544  1.00  0.00     0.074 A 
ATOM     44  C   UNL A   1      41.282  27.145  28.740  1.00  0.00     0.049 A 
ATOM     45  N   UNL A   1      43.998  27.736  27.599  1.00  0.00    -0.248 NA
ATOM     46  C   UNL A   1      44.133  25.513  26.895  1.00  0.00     0.031 C 
ATOM     47  C   UNL A   1      39.952  26.896  29.302  1.00  0.00     0.029 A 
ATOM     48  N   UNL A   1      41.548  28.447  29.074  1.00  0.00    -0.354 N 
ATOM     49  C   UNL A   1      45.215  27.534  26.965  1.00  0.00     0.074 A 
ATOM     50  C   UNL A   1      45.261  26.138  26.578  1.00  0.00     0.031 C 
ATOM     51  C   UNL A   1      39.508  28.017  29.889  1.00  0.00     0.029 A 
ATOM     52  C   UNL A   1      40.527  29.055  29.762  1.00  0.00     0.049 A 
ATOM     53  H   UNL A   1      42.390  28.902  28.842  1.00  0.00     0.167 HD
ATOM     54  C   UNL A   1      46.190  28.441  26.716  1.00  0.00     0.037 A 
ATOM     55  C   UNL A   1      40.420  30.313  30.229  1.00  0.00     0.037 A 
ATOM     56  C   UNL A   1      46.138  29.823  27.123  1.00  0.00     0.049 A 
ATOM     57  C   UNL A   1      41.539  31.283  29.973  1.00  0.00     0.074 A 
ATOM     58  C   UNL A   1      47.071  30.823  26.902  1.00  0.00     0.029 A 
ATOM     59  N   UNL A   1      45.101  30.399  27.844  1.00  0.00    -0.354 N 
ATOM     60  N   UNL A   1      42.658  31.098  29.316  1.00  0.00    -0.248 NA
ATOM     61  C   UNL A   1      41.375  32.639  30.513  1.00  0.00     0.031 C 
ATOM     62  C   UNL A   1      46.620  31.991  27.525  1.00  0.00     0.029 A 
ATOM     63  C   UNL A   1      45.382  31.734  28.093  1.00  0.00     0.049 A 
ATOM     64  H   UNL A   1      44.288  29.929  28.136  1.00  0.00     0.167 HD
ATOM     65  C   UNL A   1      43.319  32.317  29.339  1.00  0.00     0.074 A 
ATOM     66  C   UNL A   1      42.468  33.241  30.063  1.00  0.00     0.031 C 
ATOM     67  C   UNL A   1      44.523  32.642  28.809  1.00  0.00     0.037 A 
BRANCH  54  68
ATOM     68  C   UNL A   1      47.396  27.989  25.946  1.00  0.00     0.064 A 
ATOM     69  C   UNL A   1      48.546  27.533  26.606  1.00  0.00     0.173 A 
ATOM     70  C   UNL A   1      47.364  27.900  24.546  1.00  0.00     0.173 A 
ATOM     71  F   UNL A   1      48.629  27.599  27.943  1.00  0.00    -0.203 F 
ATOM     72  C   UNL A   1      49.621  27.007  25.892  1.00  0.00     0.198 A 
ATOM     73  C   UNL A   1      48.430  27.352  23.837  1.00  0.00     0.198 A 
ATOM     74  F   UNL A   1      46.282  28.313  23.868  1.00  0.00    -0.203 F 
ATOM     75  F   UNL A   1      50.716  26.588  26.544  1.00  0.00    -0.200 F 
ATOM     76  C   UNL A   1      49.557  26.906  24.511  1.00  0.00     0.200 A 
ATOM     77  F   UNL A   1      48.360  27.239  22.504  1.00  0.00    -0.200 F 
ATOM     78  F   UNL A   1      50.581  26.374  23.828  1.00  0.00    -0.200 F 
ENDBRANCH  54  68
BRANCH  55  79
ATOM     79  C   UNL A   1      39.186  30.730  30.940  1.00  0.00     0.064 A 
ATOM     80  C   UNL A   1      38.148  31.378  30.257  1.00  0.00     0.173 A 
ATOM     81  C   UNL A   1      39.010  30.475  32.307  1.00  0.00     0.173 A 
ATOM     82  F   UNL A   1      38.278  31.657  28.951  1.00  0.00    -0.203 F 
ATOM     83  C   UNL A   1      36.986  31.766  30.917  1.00  0.00     0.198 A 
ATOM     84  C   UNL A   1      37.835  30.840  32.961  1.00  0.00     0.198 A 
ATOM     85  F   UNL A   1      39.972  29.852  33.005  1.00  0.00    -0.203 F 
ATOM     86  F   UNL A   1      36.024  32.417  30.248  1.00  0.00    -0.200 F 
ATOM     87  C   UNL A   1      36.827  31.491  32.267  1.00  0.00     0.200 A 
ATOM     88  F   UNL A   1      37.679  30.558  34.262  1.00  0.00    -0.200 F 
ATOM     89  F   UNL A   1      35.704  31.858  32.899  1.00  0.00    -0.200 F 
ENDBRANCH  55  79
BRANCH  67  90
ATOM     90  C   UNL A   1      44.986  34.061  28.967  1.00  0.00     0.064 A 
ATOM     91  C   UNL A   1      45.788  34.453  30.049  1.00  0.00     0.173 A 
ATOM     92  C   UNL A   1      44.669  35.024  27.998  1.00  0.00     0.173 A 
ATOM     93  F   UNL A   1      46.106  33.572  31.008  1.00  0.00    -0.203 F 
ATOM     94  C   UNL A   1      46.240  35.765  30.163  1.00  0.00     0.198 A 
ATOM     95  C   UNL A   1      45.146  36.327  28.101  1.00  0.00     0.198 A 
ATOM     96  F   UNL A   1      43.909  34.698  26.941  1.00  0.00    -0.203 F 
ATOM     97  F   UNL A   1      46.972  36.128  31.225  1.00  0.00    -0.200 F 
ATOM     98  C   UNL A   1      45.926  36.699  29.186  1.00  0.00     0.200 A 
ATOM     99  F   UNL A   1      44.854  37.225  27.149  1.00  0.00    -0.200 F 
ATOM    100  F   UNL A   1      46.372  37.957  29.293  1.00  0.00    -0.200 F 
ENDBRANCH  67  90
ENDBRANCH  41  42
ENDBRANCH  34  36
ENDBRANCH  33  34
ENDBRANCH  32  33
ENDBRANCH  31  32
ENDBRANCH  30  31
ENDBRANCH  29  30
ENDBRANCH   1  29
TORSDOF 19
ENDMDL
MODEL 3
REMARK VINA RESULT:     -10.2      1.880      7.471
REMARK SMILES O=C(CN1C(=O)/C(=C2/Sc3ccccc3N2CCCS(=O)(=O)[O-])SC1=S)OCCOCCOC(=O)c1ccc(-c2c3nc(c(-c4c(F)c(F)c(F)c(F)c4F)c4ccc([nH]4)c(-c4c(F)c(F)c(F)c(F)c4F)c4nc(c(-c5c(F)c(F)c(F)c(F)c5F)c5ccc2[nH]5)C=C4)C=C3)cc1
REMARK SMILES IDX 28 1 27 2 2 3 1 4 3 5 4 6 5 7 25 8 6 9 7 10 24 11 26 12 8 13
REMARK SMILES IDX 9 14 16 15 10 16 15 17 11 18 14 19 12 20 13 21 17 22 18 23
REMARK SMILES IDX 19 24 20 25 21 26 22 27 23 28 29 29 30 30 31 31 32 32 33 33
REMARK SMILES IDX 34 34 35 35 36 36 37 37 98 38 38 39 97 40 39 41 40 42 41 43
REMARK SMILES IDX 91 44 42 45 96 46 90 47 92 48 43 49 95 50 89 51 88 52 44 54
REMARK SMILES IDX 76 55 56 56 75 57 57 58 60 59 74 60 93 61 58 62 59 63 73 65
REMARK SMILES IDX 94 66 61 67 45 68 46 69 54 70 47 71 48 72 52 73 55 74 49 75
REMARK SMILES IDX 50 76 53 77 51 78 77 79 78 80 86 81 79 82 80 83 84 84 87 85
REMARK SMILES IDX 81 86 82 87 85 88 83 89 62 90 63 91 71 92 64 93 65 94 69 95
REMARK SMILES IDX 72 96 66 97 67 98 70 99 68 100
REMARK H PARENT 92 53 60 64
REMARK Flexibility Score: inf
ROOT
ATOM      1  C   UNL A   1      35.993  23.154  26.400  1.00  0.00     0.261 C 
ENDROOT
BRANCH   1   2
ATOM      2  O   UNL A   1      34.834  23.141  27.246  1.00  0.00    -0.462 OA
BRANCH   2   3
ATOM      3  C   UNL A   1      33.726  22.379  27.144  1.00  0.00     0.326 C 
ATOM      4  O   UNL A   1      33.836  21.163  27.323  1.00  0.00    -0.250 OA
BRANCH   3   5
ATOM      5  C   UNL A   1      32.365  22.945  26.747  1.00  0.00     0.250 C 
BRANCH   5   6
ATOM      6  N   UNL A   1      32.190  23.692  25.504  1.00  0.00    -0.281 N 
ATOM      7  C   UNL A   1      32.378  25.060  25.508  1.00  0.00     0.269 C 
ATOM      8  C   UNL A   1      32.210  23.128  24.252  1.00  0.00     0.148 C 
ATOM      9  O   UNL A   1      33.040  25.651  26.350  1.00  0.00    -0.268 OA
ATOM     10  C   UNL A   1      31.845  25.663  24.257  1.00  0.00     0.111 C 
ATOM     11  S   UNL A   1      31.934  24.384  23.061  1.00  0.00    -0.052 SA
ATOM     12  S   UNL A   1      32.387  21.524  23.844  1.00  0.00    -0.052 S 
ATOM     13  C   UNL A   1      31.316  26.900  24.072  1.00  0.00     0.100 C 
ATOM     14  S   UNL A   1      30.627  27.232  22.411  1.00  0.00    -0.068 SA
ATOM     15  N   UNL A   1      31.153  28.024  24.931  1.00  0.00    -0.334 N 
ATOM     16  C   UNL A   1      30.243  28.887  22.904  1.00  0.00     0.037 A 
ATOM     17  C   UNL A   1      30.554  29.129  24.254  1.00  0.00     0.056 A 
ATOM     18  C   UNL A   1      29.748  29.873  22.057  1.00  0.00     0.017 A 
ATOM     19  C   UNL A   1      30.297  30.404  24.761  1.00  0.00     0.027 A 
ATOM     20  C   UNL A   1      29.545  31.151  22.568  1.00  0.00     0.001 A 
ATOM     21  C   UNL A   1      29.808  31.412  23.916  1.00  0.00     0.002 A 
BRANCH  15  22
ATOM     22  C   UNL A   1      31.846  28.337  26.189  1.00  0.00     0.124 C 
BRANCH  22  23
ATOM     23  C   UNL A   1      33.142  29.146  25.998  1.00  0.00     0.037 C 
BRANCH  23  24
ATOM     24  C   UNL A   1      34.360  28.695  26.796  1.00  0.00     0.124 C 
BRANCH  24  25
ATOM     25  S   UNL A   1      35.360  29.995  27.522  1.00  0.00     0.095 S 
ATOM     26  O   UNL A   1      36.714  29.878  27.034  1.00  0.00    -0.243 OA
ATOM     27  O   UNL A   1      34.621  31.238  27.461  1.00  0.00    -0.243 OA
ATOM     28  O   UNL A   1      35.349  29.542  29.068  1.00  0.00    -0.748 OA
ENDBRANCH  24  25
ENDBRANCH  23  24
ENDBRANCH  22  23
ENDBRANCH  15  22
ENDBRANCH   5   6
ENDBRANCH   3   5
ENDBRANCH   2   3
ENDBRANCH   1   2
BRANCH   1  29
ATOM     29  C   UNL A   1      35.734  23.036  24.897  1.00  0.00     0.202 C 
BRANCH  29  30
ATOM     30  O   UNL A   1      36.339  21.941  24.231  1.00  0.00    -0.374 OA
BRANCH  30  31
ATOM     31  C   UNL A   1      36.435  20.701  24.952  1.00  0.00     0.202 C 
BRANCH  31  32
ATOM     32  C   UNL A   1      37.844  20.130  25.165  1.00  0.00     0.261 C 
BRANCH  32  33
ATOM     33  O   UNL A   1      38.771  21.209  25.404  1.00  0.00    -0.460 OA
BRANCH  33  34
ATOM     34  C   UNL A   1      39.641  21.041  26.428  1.00  0.00     0.338 C 
ATOM     35  O   UNL A   1      40.128  19.998  26.825  1.00  0.00    -0.246 OA
BRANCH  34  36
ATOM     36  C   UNL A   1      40.120  22.374  26.837  1.00  0.00     0.060 A 
ATOM     37  C   UNL A   1      41.099  22.522  27.821  1.00  0.00     0.016 A 
ATOM     38  C   UNL A   1      39.563  23.496  26.208  1.00  0.00     0.016 A 
ATOM     39  C   UNL A   1      41.539  23.802  28.161  1.00  0.00     0.010 A 
ATOM     40  C   UNL A   1      39.996  24.775  26.558  1.00  0.00     0.010 A 
ATOM     41  C   UNL A   1      41.000  24.934  27.522  1.00  0.00    -0.014 A 
BRANCH  41  42
ATOM     42  C   UNL A   1      41.604  26.267  27.749  1.00  0.00     0.031 A 
ATOM     43  C   UNL A   1      40.870  27.349  28.477  1.00  0.00     0.074 A 
ATOM     44  C   UNL A   1      42.845  26.480  27.275  1.00  0.00     0.049 A 
ATOM     45  N   UNL A   1      41.293  28.540  28.816  1.00  0.00    -0.248 NA
ATOM     46  C   UNL A   1      39.483  27.065  28.871  1.00  0.00     0.031 C 
ATOM     47  C   UNL A   1      43.636  25.499  26.529  1.00  0.00     0.029 A 
ATOM     48  N   UNL A   1      43.663  27.578  27.353  1.00  0.00    -0.354 N 
ATOM     49  C   UNL A   1      40.239  29.140  29.491  1.00  0.00     0.074 A 
ATOM     50  C   UNL A   1      39.137  28.199  29.469  1.00  0.00     0.031 C 
ATOM     51  C   UNL A   1      44.833  26.028  26.240  1.00  0.00     0.029 A 
ATOM     52  C   UNL A   1      44.888  27.390  26.763  1.00  0.00     0.049 A 
ATOM     53  H   UNL A   1      43.397  28.418  27.792  1.00  0.00     0.167 HD
ATOM     54  C   UNL A   1      40.211  30.355  30.088  1.00  0.00     0.037 A 
ATOM     55  C   UNL A   1      45.942  28.222  26.662  1.00  0.00     0.037 A 
ATOM     56  C   UNL A   1      41.309  31.288  30.086  1.00  0.00     0.049 A 
ATOM     57  C   UNL A   1      45.862  29.580  27.299  1.00  0.00     0.074 A 
ATOM     58  C   UNL A   1      41.381  32.538  30.678  1.00  0.00     0.029 A 
ATOM     59  N   UNL A   1      42.527  31.078  29.452  1.00  0.00    -0.354 N 
ATOM     60  N   UNL A   1      44.884  30.112  27.990  1.00  0.00    -0.248 NA
ATOM     61  C   UNL A   1      47.036  30.450  27.151  1.00  0.00     0.031 C 
ATOM     62  C   UNL A   1      42.622  33.102  30.367  1.00  0.00     0.029 A 
ATOM     63  C   UNL A   1      43.346  32.184  29.623  1.00  0.00     0.049 A 
ATOM     64  H   UNL A   1      42.772  30.265  28.956  1.00  0.00     0.167 HD
ATOM     65  C   UNL A   1      45.331  31.364  28.383  1.00  0.00     0.074 A 
ATOM     66  C   UNL A   1      46.677  31.509  27.865  1.00  0.00     0.031 C 
ATOM     67  C   UNL A   1      44.685  32.310  29.107  1.00  0.00     0.037 A 
BRANCH  54  68
ATOM     68  C   UNL A   1      38.963  30.754  30.820  1.00  0.00     0.064 A 
ATOM     69  C   UNL A   1      38.780  30.423  32.171  1.00  0.00     0.173 A 
ATOM     70  C   UNL A   1      37.998  31.567  30.207  1.00  0.00     0.173 A 
ATOM     71  F   UNL A   1      39.672  29.645  32.803  1.00  0.00    -0.203 F 
ATOM     72  C   UNL A   1      37.676  30.891  32.880  1.00  0.00     0.198 A 
ATOM     73  C   UNL A   1      36.908  32.053  30.926  1.00  0.00     0.198 A 
ATOM     74  F   UNL A   1      38.132  31.921  28.920  1.00  0.00    -0.203 F 
ATOM     75  F   UNL A   1      37.516  30.552  34.168  1.00  0.00    -0.200 F 
ATOM     76  C   UNL A   1      36.748  31.714  32.261  1.00  0.00     0.200 A 
ATOM     77  F   UNL A   1      36.021  32.862  30.330  1.00  0.00    -0.200 F 
ATOM     78  F   UNL A   1      35.701  32.186  32.952  1.00  0.00    -0.200 F 
ENDBRANCH  54  68
BRANCH  55  79
ATOM     79  C   UNL A   1      47.174  27.765  25.973  1.00  0.00     0.064 A 
ATOM     80  C   UNL A   1      48.267  27.278  26.703  1.00  0.00     0.173 A 
ATOM     81  C   UNL A   1      47.280  27.788  24.575  1.00  0.00     0.173 A 
ATOM     82  F   UNL A   1      48.218  27.252  28.043  1.00  0.00    -0.203 F 
ATOM     83  C   UNL A   1      49.423  26.843  26.062  1.00  0.00     0.198 A 
ATOM     84  C   UNL A   1      48.427  27.327  23.933  1.00  0.00     0.198 A 
ATOM     85  F   UNL A   1      46.259  28.239  23.830  1.00  0.00    -0.203 F 
ATOM     86  F   UNL A   1      50.467  26.416  26.785  1.00  0.00    -0.200 F 
ATOM     87  C   UNL A   1      49.500  26.861  24.677  1.00  0.00     0.200 A 
ATOM     88  F   UNL A   1      48.491  27.331  22.594  1.00  0.00    -0.200 F 
ATOM     89  F   UNL A   1      50.611  26.434  24.061  1.00  0.00    -0.200 F 
ENDBRANCH  55  79
BRANCH  67  90
ATOM     90  C   UNL A   1      45.431  33.578  29.407  1.00  0.00     0.064 A 
ATOM     91  C   UNL A   1      45.340  34.697  28.566  1.00  0.00     0.173 A 
ATOM     92  C   UNL A   1      46.199  33.692  30.575  1.00  0.00     0.173 A 
ATOM     93  F   UNL A   1      44.629  34.633  27.431  1.00  0.00    -0.203 F 
ATOM     94  C   UNL A   1      46.008  35.879  28.876  1.00  0.00     0.198 A 
ATOM     95  C   UNL A   1      46.842  34.883  30.895  1.00  0.00     0.198 A 
ATOM     96  F   UNL A   1      46.313  32.651  31.415  1.00  0.00    -0.203 F 
ATOM     97  F   UNL A   1      45.940  36.923  28.039  1.00  0.00    -0.200 F 
ATOM     98  C   UNL A   1      46.752  35.974  30.043  1.00  0.00     0.200 A 
ATOM     99  F   UNL A   1      47.549  34.978  32.031  1.00  0.00    -0.200 F 
ATOM    100  F   UNL A   1      47.384  37.116  30.345  1.00  0.00    -0.200 F 
ENDBRANCH  67  90
ENDBRANCH  41  42
ENDBRANCH  34  36
ENDBRANCH  33  34
ENDBRANCH  32  33
ENDBRANCH  31  32
ENDBRANCH  30  31
ENDBRANCH  29  30
ENDBRANCH   1  29
TORSDOF 19
ENDMDL
