MODEL 1
REMARK VINA RESULT:     -10.5      0.000      0.000
REMARK SMILES CC(C)Cc1ccc([C@H](C)C(=O)OCCOCCOC(=O)c2ccc(-c3c4nc(c(-c5c(F)c(F)c(F)c(F)c5F)c5ccc([nH]5)c(-c5c(F)c(F)c(F)c(F)c5F)c5nc(c(-c6c(F)c(F)c(F)c(F)c6F)c6ccc3[nH]6)C=C5)C=C4)cc2)cc1
REMARK SMILES IDX 15 1 14 2 13 3 11 4 12 5 9 6 10 7 8 8 5 9 6 10 86 11 7 12
REMARK SMILES IDX 85 13 4 14 2 15 1 16 3 17 16 18 17 19 18 20 19 21 20 22
REMARK SMILES IDX 21 23 22 24 23 25 84 26 24 27 83 28 25 29 26 30 27 31 77 32
REMARK SMILES IDX 28 33 82 34 76 35 78 36 29 37 81 38 75 39 74 40 30 42 62 43
REMARK SMILES IDX 42 44 61 45 43 46 46 47 60 48 79 49 44 50 45 51 59 53 80 54
REMARK SMILES IDX 47 55 31 56 32 57 40 58 33 59 34 60 38 61 41 62 35 63 36 64
REMARK SMILES IDX 39 65 37 66 63 67 64 68 72 69 65 70 66 71 70 72 73 73 67 74
REMARK SMILES IDX 68 75 71 76 69 77 48 78 49 79 57 80 50 81 51 82 55 83 58 84
REMARK SMILES IDX 52 85 53 86 56 87 54 88
REMARK H PARENT 78 41 46 52
REMARK Flexibility Score: inf
ROOT
ATOM      1  C   UNL A   1      34.329  23.574  24.674  1.00  0.00     0.202 C 
ENDROOT
BRANCH   1   2
ATOM      2  C   UNL A   1      34.569  24.372  23.390  1.00  0.00     0.261 C 
BRANCH   2   3
ATOM      3  O   UNL A   1      33.390  24.393  22.565  1.00  0.00    -0.463 OA
BRANCH   3   4
ATOM      4  C   UNL A   1      32.967  25.622  22.154  1.00  0.00     0.313 C 
ATOM      5  O   UNL A   1      33.547  26.317  21.327  1.00  0.00    -0.252 OA
BRANCH   4   6
ATOM      6  C   UNL A   1      31.695  26.065  22.872  1.00  0.00     0.126 C 
ATOM      7  C   UNL A   1      30.711  24.942  23.186  1.00  0.00     0.025 C 
BRANCH   6   8
ATOM      8  C   UNL A   1      31.992  26.910  24.093  1.00  0.00    -0.034 A 
ATOM      9  C   UNL A   1      32.864  28.325  26.355  1.00  0.00    -0.048 A 
ATOM     10  C   UNL A   1      31.969  27.260  26.493  1.00  0.00     0.004 A 
ATOM     11  C   UNL A   1      33.228  28.751  25.073  1.00  0.00     0.004 A 
ATOM     12  C   UNL A   1      31.523  26.567  25.369  1.00  0.00     0.005 A 
ATOM     13  C   UNL A   1      32.804  28.043  23.953  1.00  0.00     0.005 A 
BRANCH   9  14
ATOM     14  C   UNL A   1      33.538  28.914  27.569  1.00  0.00     0.038 C 
BRANCH  14  15
ATOM     15  C   UNL A   1      34.620  29.946  27.176  1.00  0.00    -0.013 C 
ATOM     16  C   UNL A   1      34.338  31.342  27.744  1.00  0.00     0.008 C 
ATOM     17  C   UNL A   1      35.994  29.471  27.647  1.00  0.00     0.008 C 
ENDBRANCH  14  15
ENDBRANCH   9  14
ENDBRANCH   6   8
ENDBRANCH   4   6
ENDBRANCH   3   4
ENDBRANCH   2   3
ENDBRANCH   1   2
BRANCH   1  18
ATOM     18  O   UNL A   1      35.166  22.437  24.877  1.00  0.00    -0.374 OA
BRANCH  18  19
ATOM     19  C   UNL A   1      36.345  22.327  24.085  1.00  0.00     0.202 C 
BRANCH  19  20
ATOM     20  C   UNL A   1      37.397  21.315  24.558  1.00  0.00     0.261 C 
BRANCH  20  21
ATOM     21  O   UNL A   1      37.809  21.524  25.922  1.00  0.00    -0.460 OA
BRANCH  21  22
ATOM     22  C   UNL A   1      39.150  21.533  26.105  1.00  0.00     0.338 C 
ATOM     23  O   UNL A   1      39.966  20.749  25.638  1.00  0.00    -0.246 OA
BRANCH  22  24
ATOM     24  C   UNL A   1      39.579  22.725  26.857  1.00  0.00     0.060 A 
ATOM     25  C   UNL A   1      38.955  23.938  26.541  1.00  0.00     0.016 A 
ATOM     26  C   UNL A   1      40.660  22.694  27.742  1.00  0.00     0.016 A 
ATOM     27  C   UNL A   1      39.452  25.133  27.056  1.00  0.00     0.010 A 
ATOM     28  C   UNL A   1      41.161  23.898  28.254  1.00  0.00     0.010 A 
ATOM     29  C   UNL A   1      40.588  25.125  27.877  1.00  0.00    -0.014 A 
BRANCH  29  30
ATOM     30  C   UNL A   1      41.246  26.417  28.196  1.00  0.00     0.031 A 
ATOM     31  C   UNL A   1      42.660  26.654  27.734  1.00  0.00     0.074 A 
ATOM     32  C   UNL A   1      40.569  27.398  28.818  1.00  0.00     0.049 A 
ATOM     33  N   UNL A   1      43.406  27.724  27.853  1.00  0.00    -0.248 NA
ATOM     34  C   UNL A   1      43.320  25.537  27.039  1.00  0.00     0.031 C 
ATOM     35  C   UNL A   1      39.187  27.306  29.282  1.00  0.00     0.029 A 
ATOM     36  N   UNL A   1      40.955  28.673  29.155  1.00  0.00    -0.354 N 
ATOM     37  C   UNL A   1      44.614  27.413  27.243  1.00  0.00     0.074 A 
ATOM     38  C   UNL A   1      44.519  26.044  26.786  1.00  0.00     0.031 C 
ATOM     39  C   UNL A   1      38.838  28.476  29.846  1.00  0.00     0.029 A 
ATOM     40  C   UNL A   1      39.977  29.391  29.796  1.00  0.00     0.049 A 
ATOM     41  H   UNL A   1      41.849  29.035  28.957  1.00  0.00     0.167 HD
ATOM     42  C   UNL A   1      45.700  28.202  27.063  1.00  0.00     0.037 A 
ATOM     43  C   UNL A   1      40.002  30.645  30.290  1.00  0.00     0.037 A 
ATOM     44  C   UNL A   1      45.803  29.564  27.518  1.00  0.00     0.049 A 
ATOM     45  C   UNL A   1      41.243  31.482  30.122  1.00  0.00     0.074 A 
ATOM     46  C   UNL A   1      46.868  30.439  27.394  1.00  0.00     0.029 A 
ATOM     47  N   UNL A   1      44.798  30.249  28.185  1.00  0.00    -0.354 N 
ATOM     48  N   UNL A   1      42.372  31.184  29.526  1.00  0.00    -0.248 NA
ATOM     49  C   UNL A   1      41.206  32.839  30.689  1.00  0.00     0.031 C 
ATOM     50  C   UNL A   1      46.521  31.644  28.015  1.00  0.00     0.029 A 
ATOM     51  C   UNL A   1      45.223  31.533  28.487  1.00  0.00     0.049 A 
ATOM     52  H   UNL A   1      43.914  29.878  28.409  1.00  0.00     0.167 HD
ATOM     53  C   UNL A   1      43.164  32.322  29.616  1.00  0.00     0.074 A 
ATOM     54  C   UNL A   1      42.382  33.322  30.312  1.00  0.00     0.031 C 
ATOM     55  C   UNL A   1      44.427  32.522  29.165  1.00  0.00     0.037 A 
BRANCH  42  56
ATOM     56  C   UNL A   1      46.878  27.609  26.347  1.00  0.00     0.064 A 
ATOM     57  C   UNL A   1      47.013  27.711  24.954  1.00  0.00     0.173 A 
ATOM     58  C   UNL A   1      47.906  26.981  27.064  1.00  0.00     0.173 A 
ATOM     59  F   UNL A   1      46.049  28.291  24.224  1.00  0.00    -0.203 F 
ATOM     60  C   UNL A   1      48.128  27.190  24.304  1.00  0.00     0.198 A 
ATOM     61  C   UNL A   1      49.032  26.482  26.412  1.00  0.00     0.198 A 
ATOM     62  F   UNL A   1      47.826  26.862  28.397  1.00  0.00    -0.203 F 
ATOM     63  F   UNL A   1      48.221  27.268  22.969  1.00  0.00    -0.200 F 
ATOM     64  C   UNL A   1      49.139  26.583  25.033  1.00  0.00     0.200 A 
ATOM     65  F   UNL A   1      50.013  25.906  27.119  1.00  0.00    -0.200 F 
ATOM     66  F   UNL A   1      50.218  26.093  24.407  1.00  0.00    -0.200 F 
ENDBRANCH  42  56
BRANCH  43  67
ATOM     67  C   UNL A   1      38.812  31.195  30.990  1.00  0.00     0.064 A 
ATOM     68  C   UNL A   1      38.633  31.013  32.368  1.00  0.00     0.173 A 
ATOM     69  C   UNL A   1      37.809  31.875  30.285  1.00  0.00     0.173 A 
ATOM     70  F   UNL A   1      39.553  30.345  33.080  1.00  0.00    -0.203 F 
ATOM     71  C   UNL A   1      37.484  31.468  33.010  1.00  0.00     0.198 A 
ATOM     72  C   UNL A   1      36.674  32.355  30.933  1.00  0.00     0.198 A 
ATOM     73  F   UNL A   1      37.932  32.073  28.964  1.00  0.00    -0.203 F 
ATOM     74  F   UNL A   1      37.311  31.232  34.318  1.00  0.00    -0.200 F 
ATOM     75  C   UNL A   1      36.506  32.142  32.294  1.00  0.00     0.200 A 
ATOM     76  F   UNL A   1      35.736  33.013  30.239  1.00  0.00    -0.200 F 
ATOM     77  F   UNL A   1      35.398  32.573  32.910  1.00  0.00    -0.200 F 
ENDBRANCH  43  67
BRANCH  55  78
ATOM     78  C   UNL A   1      45.021  33.885  29.367  1.00  0.00     0.064 A 
ATOM     79  C   UNL A   1      45.773  34.198  30.509  1.00  0.00     0.173 A 
ATOM     80  C   UNL A   1      44.850  34.884  28.398  1.00  0.00     0.173 A 
ATOM     81  F   UNL A   1      45.953  33.281  31.472  1.00  0.00    -0.203 F 
ATOM     82  C   UNL A   1      46.305  35.473  30.687  1.00  0.00     0.198 A 
ATOM     83  C   UNL A   1      45.406  36.149  28.566  1.00  0.00     0.198 A 
ATOM     84  F   UNL A   1      44.145  34.632  27.284  1.00  0.00    -0.203 F 
ATOM     85  F   UNL A   1      46.976  35.766  31.809  1.00  0.00    -0.200 F 
ATOM     86  C   UNL A   1      46.125  36.445  29.714  1.00  0.00     0.200 A 
ATOM     87  F   UNL A   1      45.241  37.084  27.620  1.00  0.00    -0.200 F 
ATOM     88  F   UNL A   1      46.637  37.672  29.888  1.00  0.00    -0.200 F 
ENDBRANCH  55  78
ENDBRANCH  29  30
ENDBRANCH  22  24
ENDBRANCH  21  22
ENDBRANCH  20  21
ENDBRANCH  19  20
ENDBRANCH  18  19
ENDBRANCH   1  18
TORSDOF 17
ENDMDL
MODEL 2
REMARK VINA RESULT:     -10.3      0.793      2.236
REMARK SMILES CC(C)Cc1ccc([C@H](C)C(=O)OCCOCCOC(=O)c2ccc(-c3c4nc(c(-c5c(F)c(F)c(F)c(F)c5F)c5ccc([nH]5)c(-c5c(F)c(F)c(F)c(F)c5F)c5nc(c(-c6c(F)c(F)c(F)c(F)c6F)c6ccc3[nH]6)C=C5)C=C4)cc2)cc1
REMARK SMILES IDX 15 1 14 2 13 3 11 4 12 5 9 6 10 7 8 8 5 9 6 10 86 11 7 12
REMARK SMILES IDX 85 13 4 14 2 15 1 16 3 17 16 18 17 19 18 20 19 21 20 22
REMARK SMILES IDX 21 23 22 24 23 25 84 26 24 27 83 28 25 29 26 30 27 31 77 32
REMARK SMILES IDX 28 33 82 34 76 35 78 36 29 37 81 38 75 39 74 40 30 42 62 43
REMARK SMILES IDX 42 44 61 45 43 46 46 47 60 48 79 49 44 50 45 51 59 53 80 54
REMARK SMILES IDX 47 55 31 56 32 57 40 58 33 59 34 60 38 61 41 62 35 63 36 64
REMARK SMILES IDX 39 65 37 66 63 67 64 68 72 69 65 70 66 71 70 72 73 73 67 74
REMARK SMILES IDX 68 75 71 76 69 77 48 78 49 79 57 80 50 81 51 82 55 83 58 84
REMARK SMILES IDX 52 85 53 86 56 87 54 88
REMARK H PARENT 78 41 46 52
REMARK Flexibility Score: inf
ROOT
ATOM      1  C   UNL A   1      33.623  22.035  24.350  1.00  0.00     0.202 C 
ENDROOT
BRANCH   1   2
ATOM      2  C   UNL A   1      33.308  22.676  22.996  1.00  0.00     0.261 C 
BRANCH   2   3
ATOM      3  O   UNL A   1      31.929  23.081  22.922  1.00  0.00    -0.463 OA
BRANCH   3   4
ATOM      4  C   UNL A   1      31.696  24.424  22.960  1.00  0.00     0.313 C 
ATOM      5  O   UNL A   1      30.610  24.936  23.206  1.00  0.00    -0.252 OA
BRANCH   4   6
ATOM      6  C   UNL A   1      32.943  25.236  22.619  1.00  0.00     0.126 C 
ATOM      7  C   UNL A   1      32.892  25.959  21.277  1.00  0.00     0.025 C 
BRANCH   6   8
ATOM      8  C   UNL A   1      33.344  26.167  23.744  1.00  0.00    -0.034 A 
ATOM      9  C   UNL A   1      33.752  27.865  25.942  1.00  0.00    -0.048 A 
ATOM     10  C   UNL A   1      33.654  28.395  24.651  1.00  0.00     0.004 A 
ATOM     11  C   UNL A   1      33.762  26.477  26.112  1.00  0.00     0.004 A 
ATOM     12  C   UNL A   1      33.468  27.551  23.558  1.00  0.00     0.005 A 
ATOM     13  C   UNL A   1      33.550  25.636  25.024  1.00  0.00     0.005 A 
BRANCH   9  14
ATOM     14  C   UNL A   1      33.704  28.776  27.143  1.00  0.00     0.038 C 
BRANCH  14  15
ATOM     15  C   UNL A   1      33.519  30.255  26.729  1.00  0.00    -0.013 C 
ATOM     16  C   UNL A   1      32.067  30.729  26.864  1.00  0.00     0.008 C 
ATOM     17  C   UNL A   1      34.429  31.151  27.568  1.00  0.00     0.008 C 
ENDBRANCH  14  15
ENDBRANCH   9  14
ENDBRANCH   6   8
ENDBRANCH   4   6
ENDBRANCH   3   4
ENDBRANCH   2   3
ENDBRANCH   1   2
BRANCH   1  18
ATOM     18  O   UNL A   1      34.885  21.379  24.462  1.00  0.00    -0.374 OA
BRANCH  18  19
ATOM     19  C   UNL A   1      36.060  22.149  24.222  1.00  0.00     0.202 C 
BRANCH  19  20
ATOM     20  C   UNL A   1      37.402  21.453  24.485  1.00  0.00     0.261 C 
BRANCH  20  21
ATOM     21  O   UNL A   1      37.784  21.471  25.873  1.00  0.00    -0.460 OA
BRANCH  21  22
ATOM     22  C   UNL A   1      39.121  21.482  26.083  1.00  0.00     0.338 C 
ATOM     23  O   UNL A   1      39.948  20.697  25.636  1.00  0.00    -0.246 OA
BRANCH  22  24
ATOM     24  C   UNL A   1      39.534  22.679  26.837  1.00  0.00     0.060 A 
ATOM     25  C   UNL A   1      38.886  23.882  26.529  1.00  0.00     0.016 A 
ATOM     26  C   UNL A   1      40.621  22.664  27.714  1.00  0.00     0.016 A 
ATOM     27  C   UNL A   1      39.364  25.084  27.045  1.00  0.00     0.010 A 
ATOM     28  C   UNL A   1      41.104  23.875  28.227  1.00  0.00     0.010 A 
ATOM     29  C   UNL A   1      40.506  25.093  27.859  1.00  0.00    -0.014 A 
BRANCH  29  30
ATOM     30  C   UNL A   1      41.143  26.396  28.179  1.00  0.00     0.031 A 
ATOM     31  C   UNL A   1      42.564  26.643  27.746  1.00  0.00     0.074 A 
ATOM     32  C   UNL A   1      40.442  27.376  28.775  1.00  0.00     0.049 A 
ATOM     33  N   UNL A   1      43.296  27.722  27.870  1.00  0.00    -0.248 NA
ATOM     34  C   UNL A   1      43.252  25.526  27.078  1.00  0.00     0.031 C 
ATOM     35  C   UNL A   1      39.050  27.273  29.209  1.00  0.00     0.029 A 
ATOM     36  N   UNL A   1      40.806  28.658  29.107  1.00  0.00    -0.354 N 
ATOM     37  C   UNL A   1      44.521  27.418  27.290  1.00  0.00     0.074 A 
ATOM     38  C   UNL A   1      44.450  26.044  26.846  1.00  0.00     0.031 C 
ATOM     39  C   UNL A   1      38.676  28.445  29.753  1.00  0.00     0.029 A 
ATOM     40  C   UNL A   1      39.806  29.372  29.718  1.00  0.00     0.049 A 
ATOM     41  H   UNL A   1      41.700  29.028  28.925  1.00  0.00     0.167 HD
ATOM     42  C   UNL A   1      45.602  28.218  27.127  1.00  0.00     0.037 A 
ATOM     43  C   UNL A   1      39.806  30.631  30.199  1.00  0.00     0.037 A 
ATOM     44  C   UNL A   1      45.679  29.586  27.569  1.00  0.00     0.049 A 
ATOM     45  C   UNL A   1      41.042  31.480  30.050  1.00  0.00     0.074 A 
ATOM     46  C   UNL A   1      46.738  30.471  27.460  1.00  0.00     0.029 A 
ATOM     47  N   UNL A   1      44.653  30.266  28.206  1.00  0.00    -0.354 N 
ATOM     48  N   UNL A   1      42.187  31.189  29.483  1.00  0.00    -0.248 NA
ATOM     49  C   UNL A   1      40.978  32.842  30.601  1.00  0.00     0.031 C 
ATOM     50  C   UNL A   1      46.364  31.679  28.060  1.00  0.00     0.029 A 
ATOM     51  C   UNL A   1      45.057  31.558  28.504  1.00  0.00     0.049 A 
ATOM     52  H   UNL A   1      43.768  29.888  28.414  1.00  0.00     0.167 HD
ATOM     53  C   UNL A   1      42.964  32.336  29.578  1.00  0.00     0.074 A 
ATOM     54  C   UNL A   1      42.156  33.335  30.246  1.00  0.00     0.031 C 
ATOM     55  C   UNL A   1      44.234  32.545  29.153  1.00  0.00     0.037 A 
BRANCH  42  56
ATOM     56  C   UNL A   1      46.801  27.631  26.444  1.00  0.00     0.064 A 
ATOM     57  C   UNL A   1      47.776  26.921  27.162  1.00  0.00     0.173 A 
ATOM     58  C   UNL A   1      46.952  27.732  25.053  1.00  0.00     0.173 A 
ATOM     59  F   UNL A   1      47.683  26.810  28.495  1.00  0.00    -0.203 F 
ATOM     60  C   UNL A   1      48.866  26.347  26.513  1.00  0.00     0.198 A 
ATOM     61  C   UNL A   1      48.031  27.136  24.405  1.00  0.00     0.198 A 
ATOM     62  F   UNL A   1      46.045  28.396  24.321  1.00  0.00    -0.203 F 
ATOM     63  F   UNL A   1      49.803  25.702  27.222  1.00  0.00    -0.200 F 
ATOM     64  C   UNL A   1      48.989  26.448  25.135  1.00  0.00     0.200 A 
ATOM     65  F   UNL A   1      48.143  27.225  23.072  1.00  0.00    -0.200 F 
ATOM     66  F   UNL A   1      50.033  25.886  24.511  1.00  0.00    -0.200 F 
ENDBRANCH  42  56
BRANCH  43  67
ATOM     67  C   UNL A   1      38.596  31.175  30.867  1.00  0.00     0.064 A 
ATOM     68  C   UNL A   1      37.613  31.862  30.140  1.00  0.00     0.173 A 
ATOM     69  C   UNL A   1      38.420  31.059  32.253  1.00  0.00     0.173 A 
ATOM     70  F   UNL A   1      37.752  32.022  28.815  1.00  0.00    -0.203 F 
ATOM     71  C   UNL A   1      36.514  32.433  30.778  1.00  0.00     0.198 A 
ATOM     72  C   UNL A   1      37.307  31.606  32.886  1.00  0.00     0.198 A 
ATOM     73  F   UNL A   1      39.334  30.414  32.994  1.00  0.00    -0.203 F 
ATOM     74  F   UNL A   1      35.619  33.132  30.067  1.00  0.00    -0.200 F 
ATOM     75  C   UNL A   1      36.359  32.302  32.149  1.00  0.00     0.200 A 
ATOM     76  F   UNL A   1      37.157  31.469  34.210  1.00  0.00    -0.200 F 
ATOM     77  F   UNL A   1      35.306  32.857  32.763  1.00  0.00    -0.200 F 
ENDBRANCH  43  67
BRANCH  55  78
ATOM     78  C   UNL A   1      44.809  33.916  29.354  1.00  0.00     0.064 A 
ATOM     79  C   UNL A   1      44.657  34.928  28.395  1.00  0.00     0.173 A 
ATOM     80  C   UNL A   1      45.508  34.227  30.532  1.00  0.00     0.173 A 
ATOM     81  F   UNL A   1      44.009  34.677  27.247  1.00  0.00    -0.203 F 
ATOM     82  C   UNL A   1      45.209  36.190  28.593  1.00  0.00     0.198 A 
ATOM     83  C   UNL A   1      46.035  35.498  30.738  1.00  0.00     0.198 A 
ATOM     84  F   UNL A   1      45.675  33.296  31.483  1.00  0.00    -0.203 F 
ATOM     85  F   UNL A   1      45.096  37.126  27.641  1.00  0.00    -0.200 F 
ATOM     86  C   UNL A   1      45.894  36.476  29.765  1.00  0.00     0.200 A 
ATOM     87  F   UNL A   1      46.686  35.775  31.876  1.00  0.00    -0.200 F 
ATOM     88  F   UNL A   1      46.426  37.692  29.953  1.00  0.00    -0.200 F 
ENDBRANCH  55  78
ENDBRANCH  29  30
ENDBRANCH  22  24
ENDBRANCH  21  22
ENDBRANCH  20  21
ENDBRANCH  19  20
ENDBRANCH  18  19
ENDBRANCH   1  18
TORSDOF 17
ENDMDL
MODEL 3
REMARK VINA RESULT:     -10.0      5.126     10.391
REMARK SMILES CC(C)Cc1ccc([C@H](C)C(=O)OCCOCCOC(=O)c2ccc(-c3c4nc(c(-c5c(F)c(F)c(F)c(F)c5F)c5ccc([nH]5)c(-c5c(F)c(F)c(F)c(F)c5F)c5nc(c(-c6c(F)c(F)c(F)c(F)c6F)c6ccc3[nH]6)C=C5)C=C4)cc2)cc1
REMARK SMILES IDX 15 1 14 2 13 3 11 4 12 5 9 6 10 7 8 8 5 9 6 10 86 11 7 12
REMARK SMILES IDX 85 13 4 14 2 15 1 16 3 17 16 18 17 19 18 20 19 21 20 22
REMARK SMILES IDX 21 23 22 24 23 25 84 26 24 27 83 28 25 29 26 30 27 31 77 32
REMARK SMILES IDX 28 33 82 34 76 35 78 36 29 37 81 38 75 39 74 40 30 42 62 43
REMARK SMILES IDX 42 44 61 45 43 46 46 47 60 48 79 49 44 50 45 51 59 53 80 54
REMARK SMILES IDX 47 55 31 56 32 57 40 58 33 59 34 60 38 61 41 62 35 63 36 64
REMARK SMILES IDX 39 65 37 66 63 67 64 68 72 69 65 70 66 71 70 72 73 73 67 74
REMARK SMILES IDX 68 75 71 76 69 77 48 78 49 79 57 80 50 81 51 82 55 83 58 84
REMARK SMILES IDX 52 85 53 86 56 87 54 88
REMARK H PARENT 78 41 46 52
REMARK Flexibility Score: inf
ROOT
ATOM      1  C   UNL A   1      45.748  20.499  25.192  1.00  0.00     0.202 C 
ENDROOT
BRANCH   1   2
ATOM      2  C   UNL A   1      44.394  19.811  25.002  1.00  0.00     0.261 C 
BRANCH   2   3
ATOM      3  O   UNL A   1      43.309  20.731  25.221  1.00  0.00    -0.463 OA
BRANCH   3   4
ATOM      4  C   UNL A   1      42.659  20.618  26.414  1.00  0.00     0.313 C 
ATOM      5  O   UNL A   1      42.468  19.561  27.007  1.00  0.00    -0.252 OA
BRANCH   4   6
ATOM      6  C   UNL A   1      42.150  21.964  26.925  1.00  0.00     0.126 C 
ATOM      7  C   UNL A   1      40.735  21.942  27.494  1.00  0.00     0.025 C 
BRANCH   6   8
ATOM      8  C   UNL A   1      43.129  22.621  27.877  1.00  0.00    -0.034 A 
ATOM      9  C   UNL A   1      44.801  24.148  29.535  1.00  0.00    -0.048 A 
ATOM     10  C   UNL A   1      45.308  23.565  28.368  1.00  0.00     0.004 A 
ATOM     11  C   UNL A   1      43.488  23.867  29.925  1.00  0.00     0.004 A 
ATOM     12  C   UNL A   1      44.482  22.793  27.554  1.00  0.00     0.005 A 
ATOM     13  C   UNL A   1      42.656  23.118  29.098  1.00  0.00     0.005 A 
BRANCH   9  14
ATOM     14  C   UNL A   1      45.611  25.178  30.283  1.00  0.00     0.038 C 
BRANCH  14  15
ATOM     15  C   UNL A   1      46.936  25.499  29.554  1.00  0.00    -0.013 C 
ATOM     16  C   UNL A   1      46.792  26.644  28.544  1.00  0.00     0.008 C 
ATOM     17  C   UNL A   1      48.022  25.849  30.572  1.00  0.00     0.008 C 
ENDBRANCH  14  15
ENDBRANCH   9  14
ENDBRANCH   6   8
ENDBRANCH   4   6
ENDBRANCH   3   4
ENDBRANCH   2   3
ENDBRANCH   1   2
BRANCH   1  18
ATOM     18  O   UNL A   1      46.122  21.446  24.193  1.00  0.00    -0.374 OA
BRANCH  18  19
ATOM     19  C   UNL A   1      45.292  22.591  24.016  1.00  0.00     0.202 C 
BRANCH  19  20
ATOM     20  C   UNL A   1      45.789  23.902  24.640  1.00  0.00     0.261 C 
BRANCH  20  21
ATOM     21  O   UNL A   1      44.765  24.910  24.723  1.00  0.00    -0.460 OA
BRANCH  21  22
ATOM     22  C   UNL A   1      45.218  26.138  25.072  1.00  0.00     0.338 C 
ATOM     23  O   UNL A   1      46.204  26.715  24.634  1.00  0.00    -0.246 OA
BRANCH  22  24
ATOM     24  C   UNL A   1      44.280  26.813  25.987  1.00  0.00     0.060 A 
ATOM     25  C   UNL A   1      44.434  28.195  26.153  1.00  0.00     0.016 A 
ATOM     26  C   UNL A   1      43.372  26.101  26.774  1.00  0.00     0.016 A 
ATOM     27  C   UNL A   1      43.728  28.860  27.153  1.00  0.00     0.010 A 
ATOM     28  C   UNL A   1      42.668  26.772  27.783  1.00  0.00     0.010 A 
ATOM     29  C   UNL A   1      42.877  28.144  28.006  1.00  0.00    -0.014 A 
BRANCH  29  30
ATOM     30  C   UNL A   1      42.345  28.822  29.215  1.00  0.00     0.031 A 
ATOM     31  C   UNL A   1      40.972  29.440  29.166  1.00  0.00     0.074 A 
ATOM     32  C   UNL A   1      43.039  28.818  30.366  1.00  0.00     0.049 A 
ATOM     33  N   UNL A   1      40.292  30.031  30.116  1.00  0.00    -0.248 NA
ATOM     34  C   UNL A   1      40.270  29.380  27.874  1.00  0.00     0.031 C 
ATOM     35  C   UNL A   1      44.361  28.223  30.552  1.00  0.00     0.029 A 
ATOM     36  N   UNL A   1      42.720  29.324  31.602  1.00  0.00    -0.354 N 
ATOM     37  C   UNL A   1      39.083  30.402  29.542  1.00  0.00     0.074 A 
ATOM     38  C   UNL A   1      39.134  30.005  28.152  1.00  0.00     0.031 C 
ATOM     39  C   UNL A   1      44.741  28.398  31.830  1.00  0.00     0.029 A 
ATOM     40  C   UNL A   1      43.698  29.130  32.545  1.00  0.00     0.049 A 
ATOM     41  H   UNL A   1      41.870  29.783  31.793  1.00  0.00     0.167 HD
ATOM     42  C   UNL A   1      38.018  31.004  30.124  1.00  0.00     0.037 A 
ATOM     43  C   UNL A   1      43.746  29.508  33.838  1.00  0.00     0.037 A 
ATOM     44  C   UNL A   1      37.962  31.404  31.505  1.00  0.00     0.049 A 
ATOM     45  C   UNL A   1      42.568  30.224  34.445  1.00  0.00     0.074 A 
ATOM     46  C   UNL A   1      36.931  32.034  32.182  1.00  0.00     0.029 A 
ATOM     47  N   UNL A   1      38.983  31.212  32.422  1.00  0.00    -0.354 N 
ATOM     48  N   UNL A   1      41.423  30.551  33.897  1.00  0.00    -0.248 NA
ATOM     49  C   UNL A   1      42.686  30.612  35.858  1.00  0.00     0.031 C 
ATOM     50  C   UNL A   1      37.341  32.252  33.502  1.00  0.00     0.029 A 
ATOM     51  C   UNL A   1      38.610  31.719  33.657  1.00  0.00     0.049 A 
ATOM     52  H   UNL A   1      39.845  30.779  32.226  1.00  0.00     0.167 HD
ATOM     53  C   UNL A   1      40.675  31.151  34.903  1.00  0.00     0.074 A 
ATOM     54  C   UNL A   1      41.490  31.130  36.099  1.00  0.00     0.031 C 
ATOM     55  C   UNL A   1      39.426  31.675  34.842  1.00  0.00     0.037 A 
BRANCH  42  56
ATOM     56  C   UNL A   1      36.820  31.278  29.263  1.00  0.00     0.064 A 
ATOM     57  C   UNL A   1      35.910  30.262  28.933  1.00  0.00     0.173 A 
ATOM     58  C   UNL A   1      36.551  32.576  28.806  1.00  0.00     0.173 A 
ATOM     59  F   UNL A   1      36.132  29.001  29.335  1.00  0.00    -0.203 F 
ATOM     60  C   UNL A   1      34.781  30.534  28.165  1.00  0.00     0.198 A 
ATOM     61  C   UNL A   1      35.408  32.849  28.058  1.00  0.00     0.198 A 
ATOM     62  F   UNL A   1      37.388  33.582  29.097  1.00  0.00    -0.203 F 
ATOM     63  F   UNL A   1      33.942  29.542  27.835  1.00  0.00    -0.200 F 
ATOM     64  C   UNL A   1      34.527  31.828  27.735  1.00  0.00     0.200 A 
ATOM     65  F   UNL A   1      35.158  34.101  27.651  1.00  0.00    -0.200 F 
ATOM     66  F   UNL A   1      33.434  32.090  27.005  1.00  0.00    -0.200 F 
ENDBRANCH  42  56
BRANCH  43  67
ATOM     67  C   UNL A   1      44.951  29.215  34.657  1.00  0.00     0.064 A 
ATOM     68  C   UNL A   1      45.944  30.184  34.859  1.00  0.00     0.173 A 
ATOM     69  C   UNL A   1      45.154  27.945  35.216  1.00  0.00     0.173 A 
ATOM     70  F   UNL A   1      45.806  31.404  34.321  1.00  0.00    -0.203 F 
ATOM     71  C   UNL A   1      47.106  29.885  35.568  1.00  0.00     0.198 A 
ATOM     72  C   UNL A   1      46.303  27.657  35.948  1.00  0.00     0.198 A 
ATOM     73  F   UNL A   1      44.235  26.982  35.048  1.00  0.00    -0.203 F 
ATOM     74  F   UNL A   1      48.065  30.813  35.698  1.00  0.00    -0.200 F 
ATOM     75  C   UNL A   1      47.283  28.624  36.114  1.00  0.00     0.200 A 
ATOM     76  F   UNL A   1      46.466  26.439  36.482  1.00  0.00    -0.200 F 
ATOM     77  F   UNL A   1      48.403  28.335  36.790  1.00  0.00    -0.200 F 
ENDBRANCH  43  67
BRANCH  55  78
ATOM     78  C   UNL A   1      38.849  32.224  36.114  1.00  0.00     0.064 A 
ATOM     79  C   UNL A   1      39.002  33.571  36.472  1.00  0.00     0.173 A 
ATOM     80  C   UNL A   1      38.118  31.393  36.977  1.00  0.00     0.173 A 
ATOM     81  F   UNL A   1      39.705  34.402  35.687  1.00  0.00    -0.203 F 
ATOM     82  C   UNL A   1      38.472  34.059  37.663  1.00  0.00     0.198 A 
ATOM     83  C   UNL A   1      37.565  31.891  38.153  1.00  0.00     0.198 A 
ATOM     84  F   UNL A   1      37.936  30.099  36.676  1.00  0.00    -0.203 F 
ATOM     85  F   UNL A   1      38.675  35.337  38.011  1.00  0.00    -0.200 F 
ATOM     86  C   UNL A   1      37.751  33.221  38.500  1.00  0.00     0.200 A 
ATOM     87  F   UNL A   1      36.859  31.082  38.955  1.00  0.00    -0.200 F 
ATOM     88  F   UNL A   1      37.242  33.693  39.647  1.00  0.00    -0.200 F 
ENDBRANCH  55  78
ENDBRANCH  29  30
ENDBRANCH  22  24
ENDBRANCH  21  22
ENDBRANCH  20  21
ENDBRANCH  19  20
ENDBRANCH  18  19
ENDBRANCH   1  18
TORSDOF 17
ENDMDL
