MODEL 1
REMARK VINA RESULT:     -11.4      0.000      0.000
REMARK SMILES C/C(C(=O)OCCOCCOC(=O)c1ccc(-c2c3nc(c(-c4c(F)c(F)c(F)c(F)c4F)c4ccc([nH]4)c(-c4c(F)c(F)c(F)c(F)c4F)c4nc(c(-c5c(F)c(F)c(F)c(F)c5F)c5ccc2[nH]5)C=C4)C=C3)cc1)=C(\C)c1ccc(C)c(F)c1
REMARK SMILES IDX 9 1 8 2 7 3 6 4 5 5 3 6 4 7 2 8 1 9 77 10 78 11 79 12 80 13
REMARK SMILES IDX 86 14 81 15 84 16 82 17 85 18 83 19 10 20 11 21 12 22 13 23
REMARK SMILES IDX 14 24 15 25 76 26 16 27 75 28 17 29 18 30 19 31 69 32 20 33
REMARK SMILES IDX 74 34 68 35 70 36 21 37 73 38 67 39 66 40 22 42 54 43 34 44
REMARK SMILES IDX 53 45 35 46 38 47 52 48 71 49 36 50 37 51 51 53 72 54 39 55
REMARK SMILES IDX 23 56 24 57 32 58 25 59 26 60 30 61 33 62 27 63 28 64 31 65
REMARK SMILES IDX 29 66 55 67 56 68 64 69 57 70 58 71 62 72 65 73 59 74 60 75
REMARK SMILES IDX 63 76 61 77 40 78 41 79 49 80 42 81 43 82 47 83 50 84 44 85
REMARK SMILES IDX 45 86 48 87 46 88
REMARK H PARENT 70 41 38 52
REMARK Flexibility Score: inf
ROOT
ATOM      1  C   UNL A   1      31.534  31.601  26.501  1.00  0.00     0.202 C 
ENDROOT
BRANCH   1   2
ATOM      2  O   UNL A   1      32.133  30.523  27.210  1.00  0.00    -0.374 OA
BRANCH   2   3
ATOM      3  C   UNL A   1      33.120  29.748  26.524  1.00  0.00     0.202 C 
BRANCH   3   4
ATOM      4  C   UNL A   1      33.185  28.257  26.859  1.00  0.00     0.261 C 
BRANCH   4   5
ATOM      5  O   UNL A   1      32.675  27.488  25.752  1.00  0.00    -0.460 OA
BRANCH   5   6
ATOM      6  C   UNL A   1      31.648  26.652  26.045  1.00  0.00     0.334 C 
ATOM      7  O   UNL A   1      30.812  26.821  26.919  1.00  0.00    -0.247 OA
BRANCH   6   8
ATOM      8  C   UNL A   1      31.683  25.469  25.133  1.00  0.00     0.038 C 
ATOM      9  C   UNL A   1      32.684  24.407  25.493  1.00  0.00     0.052 C 
ATOM     10  C   UNL A   1      30.839  25.381  24.076  1.00  0.00    -0.034 C 
ATOM     11  C   UNL A   1      30.670  24.154  23.219  1.00  0.00     0.045 C 
BRANCH  10  12
ATOM     12  C   UNL A   1      30.020  26.524  23.615  1.00  0.00    -0.019 A 
ATOM     13  C   UNL A   1      28.665  26.645  23.933  1.00  0.00     0.009 A 
ATOM     14  C   UNL A   1      30.626  27.523  22.847  1.00  0.00     0.048 A 
ATOM     15  C   UNL A   1      27.947  27.787  23.550  1.00  0.00     0.007 A 
ATOM     16  C   UNL A   1      29.914  28.666  22.495  1.00  0.00     0.126 A 
ATOM     17  C   UNL A   1      28.580  28.830  22.864  1.00  0.00    -0.015 A 
ATOM     18  F   UNL A   1      30.548  29.629  21.810  1.00  0.00    -0.207 F 
ATOM     19  C   UNL A   1      27.839  30.080  22.500  1.00  0.00     0.047 C 
ENDBRANCH  10  12
ENDBRANCH   6   8
ENDBRANCH   5   6
ENDBRANCH   4   5
ENDBRANCH   3   4
ENDBRANCH   2   3
ENDBRANCH   1   2
BRANCH   1  20
ATOM     20  C   UNL A   1      31.792  33.028  27.007  1.00  0.00     0.261 C 
BRANCH  20  21
ATOM     21  O   UNL A   1      33.174  33.389  27.033  1.00  0.00    -0.460 OA
BRANCH  21  22
ATOM     22  C   UNL A   1      33.616  33.703  28.272  1.00  0.00     0.338 C 
ATOM     23  O   UNL A   1      33.042  34.362  29.129  1.00  0.00    -0.246 OA
BRANCH  22  24
ATOM     24  C   UNL A   1      34.874  32.991  28.533  1.00  0.00     0.060 A 
ATOM     25  C   UNL A   1      34.777  31.687  29.030  1.00  0.00     0.016 A 
ATOM     26  C   UNL A   1      36.115  33.604  28.351  1.00  0.00     0.016 A 
ATOM     27  C   UNL A   1      35.927  31.010  29.414  1.00  0.00     0.010 A 
ATOM     28  C   UNL A   1      37.271  32.925  28.742  1.00  0.00     0.010 A 
ATOM     29  C   UNL A   1      37.174  31.646  29.320  1.00  0.00    -0.014 A 
BRANCH  29  30
ATOM     30  C   UNL A   1      38.329  31.029  30.008  1.00  0.00     0.031 A 
ATOM     31  C   UNL A   1      38.563  31.357  31.457  1.00  0.00     0.074 A 
ATOM     32  C   UNL A   1      39.098  30.126  29.377  1.00  0.00     0.049 A 
ATOM     33  N   UNL A   1      39.457  30.880  32.285  1.00  0.00    -0.248 NA
ATOM     34  C   UNL A   1      37.663  32.357  32.056  1.00  0.00     0.031 C 
ATOM     35  C   UNL A   1      38.941  29.713  27.984  1.00  0.00     0.029 A 
ATOM     36  N   UNL A   1      40.156  29.385  29.833  1.00  0.00    -0.354 N 
ATOM     37  C   UNL A   1      39.226  31.517  33.497  1.00  0.00     0.074 A 
ATOM     38  C   UNL A   1      38.138  32.448  33.288  1.00  0.00     0.031 C 
ATOM     39  C   UNL A   1      39.866  28.781  27.700  1.00  0.00     0.029 A 
ATOM     40  C   UNL A   1      40.692  28.551  28.884  1.00  0.00     0.049 A 
ATOM     41  H   UNL A   1      40.499  29.445  30.754  1.00  0.00     0.167 HD
ATOM     42  C   UNL A   1      39.852  31.330  34.682  1.00  0.00     0.037 A 
ATOM     43  C   UNL A   1      41.732  27.700  28.968  1.00  0.00     0.037 A 
ATOM     44  C   UNL A   1      40.935  30.402  34.881  1.00  0.00     0.049 A 
ATOM     45  C   UNL A   1      42.445  27.546  30.288  1.00  0.00     0.074 A 
ATOM     46  C   UNL A   1      41.640  30.131  36.040  1.00  0.00     0.029 A 
ATOM     47  N   UNL A   1      41.473  29.596  33.887  1.00  0.00    -0.354 N 
ATOM     48  N   UNL A   1      42.202  28.130  31.437  1.00  0.00    -0.248 NA
ATOM     49  C   UNL A   1      43.565  26.597  30.324  1.00  0.00     0.031 C 
ATOM     50  C   UNL A   1      42.639  29.200  35.735  1.00  0.00     0.029 A 
ATOM     51  C   UNL A   1      42.515  28.841  34.402  1.00  0.00     0.049 A 
ATOM     52  H   UNL A   1      41.161  29.566  32.954  1.00  0.00     0.167 HD
ATOM     53  C   UNL A   1      43.113  27.596  32.339  1.00  0.00     0.074 A 
ATOM     54  C   UNL A   1      43.901  26.626  31.605  1.00  0.00     0.031 C 
ATOM     55  C   UNL A   1      43.282  27.876  33.656  1.00  0.00     0.037 A 
BRANCH  42  56
ATOM     56  C   UNL A   1      39.398  32.164  35.845  1.00  0.00     0.064 A 
ATOM     57  C   UNL A   1      38.423  31.711  36.747  1.00  0.00     0.173 A 
ATOM     58  C   UNL A   1      39.959  33.430  36.071  1.00  0.00     0.173 A 
ATOM     59  F   UNL A   1      37.840  30.516  36.567  1.00  0.00    -0.203 F 
ATOM     60  C   UNL A   1      38.007  32.505  37.812  1.00  0.00     0.198 A 
ATOM     61  C   UNL A   1      39.565  34.208  37.156  1.00  0.00     0.198 A 
ATOM     62  F   UNL A   1      40.896  33.913  35.241  1.00  0.00    -0.203 F 
ATOM     63  F   UNL A   1      37.035  32.073  38.629  1.00  0.00    -0.200 F 
ATOM     64  C   UNL A   1      38.583  33.749  38.021  1.00  0.00     0.200 A 
ATOM     65  F   UNL A   1      40.131  35.405  37.363  1.00  0.00    -0.200 F 
ATOM     66  F   UNL A   1      38.186  34.509  39.050  1.00  0.00    -0.200 F 
ENDBRANCH  42  56
BRANCH  43  67
ATOM     67  C   UNL A   1      42.156  26.922  27.776  1.00  0.00     0.064 A 
ATOM     68  C   UNL A   1      41.620  25.656  27.505  1.00  0.00     0.173 A 
ATOM     69  C   UNL A   1      43.125  27.422  26.892  1.00  0.00     0.173 A 
ATOM     70  F   UNL A   1      40.707  25.124  28.331  1.00  0.00    -0.203 F 
ATOM     71  C   UNL A   1      42.055  24.908  26.412  1.00  0.00     0.198 A 
ATOM     72  C   UNL A   1      43.535  26.687  25.782  1.00  0.00     0.198 A 
ATOM     73  F   UNL A   1      43.669  28.629  27.104  1.00  0.00    -0.203 F 
ATOM     74  F   UNL A   1      41.565  23.677  26.207  1.00  0.00    -0.200 F 
ATOM     75  C   UNL A   1      43.008  25.427  25.549  1.00  0.00     0.200 A 
ATOM     76  F   UNL A   1      44.446  27.198  24.943  1.00  0.00    -0.200 F 
ATOM     77  F   UNL A   1      43.425  24.708  24.497  1.00  0.00    -0.200 F 
ENDBRANCH  43  67
BRANCH  55  78
ATOM     78  C   UNL A   1      44.327  27.087  34.395  1.00  0.00     0.064 A 
ATOM     79  C   UNL A   1      45.647  27.541  34.527  1.00  0.00     0.173 A 
ATOM     80  C   UNL A   1      43.994  25.858  34.988  1.00  0.00     0.173 A 
ATOM     81  F   UNL A   1      46.020  28.704  33.971  1.00  0.00    -0.203 F 
ATOM     82  C   UNL A   1      46.606  26.774  35.183  1.00  0.00     0.198 A 
ATOM     83  C   UNL A   1      44.946  25.111  35.676  1.00  0.00     0.198 A 
ATOM     84  F   UNL A   1      42.742  25.381  34.902  1.00  0.00    -0.203 F 
ATOM     85  F   UNL A   1      47.877  27.196  35.235  1.00  0.00    -0.200 F 
ATOM     86  C   UNL A   1      46.254  25.563  35.760  1.00  0.00     0.200 A 
ATOM     87  F   UNL A   1      44.600  23.951  36.248  1.00  0.00    -0.200 F 
ATOM     88  F   UNL A   1      47.179  24.825  36.390  1.00  0.00    -0.200 F 
ENDBRANCH  55  78
ENDBRANCH  29  30
ENDBRANCH  22  24
ENDBRANCH  21  22
ENDBRANCH  20  21
ENDBRANCH   1  20
TORSDOF 15
ENDMDL
MODEL 2
REMARK VINA RESULT:     -11.4      0.729      1.460
REMARK SMILES C/C(C(=O)OCCOCCOC(=O)c1ccc(-c2c3nc(c(-c4c(F)c(F)c(F)c(F)c4F)c4ccc([nH]4)c(-c4c(F)c(F)c(F)c(F)c4F)c4nc(c(-c5c(F)c(F)c(F)c(F)c5F)c5ccc2[nH]5)C=C4)C=C3)cc1)=C(\C)c1ccc(C)c(F)c1
REMARK SMILES IDX 9 1 8 2 7 3 6 4 5 5 3 6 4 7 2 8 1 9 77 10 78 11 79 12 80 13
REMARK SMILES IDX 86 14 81 15 84 16 82 17 85 18 83 19 10 20 11 21 12 22 13 23
REMARK SMILES IDX 14 24 15 25 76 26 16 27 75 28 17 29 18 30 19 31 69 32 20 33
REMARK SMILES IDX 74 34 68 35 70 36 21 37 73 38 67 39 66 40 22 42 54 43 34 44
REMARK SMILES IDX 53 45 35 46 38 47 52 48 71 49 36 50 37 51 51 53 72 54 39 55
REMARK SMILES IDX 23 56 24 57 32 58 25 59 26 60 30 61 33 62 27 63 28 64 31 65
REMARK SMILES IDX 29 66 55 67 56 68 64 69 57 70 58 71 62 72 65 73 59 74 60 75
REMARK SMILES IDX 63 76 61 77 40 78 41 79 49 80 42 81 43 82 47 83 50 84 44 85
REMARK SMILES IDX 45 86 48 87 46 88
REMARK H PARENT 70 41 38 52
REMARK Flexibility Score: inf
ROOT
ATOM      1  C   UNL A   1      31.907  30.534  26.503  1.00  0.00     0.202 C 
ENDROOT
BRANCH   1   2
ATOM      2  O   UNL A   1      32.587  30.051  25.350  1.00  0.00    -0.374 OA
BRANCH   2   3
ATOM      3  C   UNL A   1      33.562  29.022  25.541  1.00  0.00     0.202 C 
BRANCH   3   4
ATOM      4  C   UNL A   1      33.438  28.179  26.811  1.00  0.00     0.261 C 
BRANCH   4   5
ATOM      5  O   UNL A   1      33.195  26.803  26.459  1.00  0.00    -0.460 OA
BRANCH   5   6
ATOM      6  C   UNL A   1      31.891  26.436  26.398  1.00  0.00     0.334 C 
ATOM      7  O   UNL A   1      30.963  26.987  26.969  1.00  0.00    -0.247 OA
BRANCH   6   8
ATOM      8  C   UNL A   1      31.744  25.237  25.520  1.00  0.00     0.038 C 
ATOM      9  C   UNL A   1      32.428  23.992  26.008  1.00  0.00     0.052 C 
ATOM     10  C   UNL A   1      31.014  25.297  24.378  1.00  0.00    -0.034 C 
ATOM     11  C   UNL A   1      30.654  24.104  23.533  1.00  0.00     0.045 C 
BRANCH  10  12
ATOM     12  C   UNL A   1      30.534  26.575  23.807  1.00  0.00    -0.019 A 
ATOM     13  C   UNL A   1      31.391  27.472  23.165  1.00  0.00     0.009 A 
ATOM     14  C   UNL A   1      29.175  26.889  23.900  1.00  0.00     0.048 A 
ATOM     15  C   UNL A   1      30.882  28.630  22.562  1.00  0.00     0.007 A 
ATOM     16  C   UNL A   1      28.672  28.025  23.275  1.00  0.00     0.126 A 
ATOM     17  C   UNL A   1      29.507  28.894  22.573  1.00  0.00    -0.015 A 
ATOM     18  F   UNL A   1      27.353  28.259  23.335  1.00  0.00    -0.207 F 
ATOM     19  C   UNL A   1      28.944  30.097  21.882  1.00  0.00     0.047 C 
ENDBRANCH  10  12
ENDBRANCH   6   8
ENDBRANCH   5   6
ENDBRANCH   4   5
ENDBRANCH   3   4
ENDBRANCH   2   3
ENDBRANCH   1   2
BRANCH   1  20
ATOM     20  C   UNL A   1      32.081  32.015  26.874  1.00  0.00     0.261 C 
BRANCH  20  21
ATOM     21  O   UNL A   1      32.841  32.225  28.065  1.00  0.00    -0.460 OA
BRANCH  21  22
ATOM     22  C   UNL A   1      33.817  33.148  27.914  1.00  0.00     0.338 C 
ATOM     23  O   UNL A   1      33.692  34.346  27.694  1.00  0.00    -0.246 OA
BRANCH  22  24
ATOM     24  C   UNL A   1      35.117  32.532  28.212  1.00  0.00     0.060 A 
ATOM     25  C   UNL A   1      35.124  31.160  28.485  1.00  0.00     0.016 A 
ATOM     26  C   UNL A   1      36.289  33.288  28.280  1.00  0.00     0.016 A 
ATOM     27  C   UNL A   1      36.301  30.547  28.897  1.00  0.00     0.010 A 
ATOM     28  C   UNL A   1      37.471  32.672  28.699  1.00  0.00     0.010 A 
ATOM     29  C   UNL A   1      37.466  31.311  29.054  1.00  0.00    -0.014 A 
BRANCH  29  30
ATOM     30  C   UNL A   1      38.609  30.706  29.774  1.00  0.00     0.031 A 
ATOM     31  C   UNL A   1      38.814  31.055  31.222  1.00  0.00     0.074 A 
ATOM     32  C   UNL A   1      39.392  29.796  29.170  1.00  0.00     0.049 A 
ATOM     33  N   UNL A   1      39.693  30.592  32.074  1.00  0.00    -0.248 NA
ATOM     34  C   UNL A   1      37.901  32.062  31.789  1.00  0.00     0.031 C 
ATOM     35  C   UNL A   1      39.262  29.362  27.781  1.00  0.00     0.029 A 
ATOM     36  N   UNL A   1      40.442  29.063  29.658  1.00  0.00    -0.354 N 
ATOM     37  C   UNL A   1      39.436  31.246  33.272  1.00  0.00     0.074 A 
ATOM     38  C   UNL A   1      38.352  32.171  33.029  1.00  0.00     0.031 C 
ATOM     39  C   UNL A   1      40.194  28.428  27.528  1.00  0.00     0.029 A 
ATOM     40  C   UNL A   1      40.997  28.217  28.732  1.00  0.00     0.049 A 
ATOM     41  H   UNL A   1      40.767  29.137  30.585  1.00  0.00     0.167 HD
ATOM     42  C   UNL A   1      40.040  31.076  34.472  1.00  0.00     0.037 A 
ATOM     43  C   UNL A   1      42.037  27.370  28.848  1.00  0.00     0.037 A 
ATOM     44  C   UNL A   1      41.120  30.154  34.705  1.00  0.00     0.049 A 
ATOM     45  C   UNL A   1      42.724  27.235  30.184  1.00  0.00     0.074 A 
ATOM     46  C   UNL A   1      41.803  29.901  35.881  1.00  0.00     0.029 A 
ATOM     47  N   UNL A   1      41.679  29.334  33.733  1.00  0.00    -0.354 N 
ATOM     48  N   UNL A   1      42.458  27.835  31.319  1.00  0.00    -0.248 NA
ATOM     49  C   UNL A   1      43.845  26.289  30.255  1.00  0.00     0.031 C 
ATOM     50  C   UNL A   1      42.809  28.967  35.609  1.00  0.00     0.029 A 
ATOM     51  C   UNL A   1      42.711  28.589  34.279  1.00  0.00     0.049 A 
ATOM     52  H   UNL A   1      41.385  29.290  32.795  1.00  0.00     0.167 HD
ATOM     53  C   UNL A   1      43.352  27.316  32.246  1.00  0.00     0.074 A 
ATOM     54  C   UNL A   1      44.155  26.337  31.541  1.00  0.00     0.031 C 
ATOM     55  C   UNL A   1      43.495  27.615  33.562  1.00  0.00     0.037 A 
BRANCH  42  56
ATOM     56  C   UNL A   1      39.562  31.926  35.613  1.00  0.00     0.064 A 
ATOM     57  C   UNL A   1      40.090  33.204  35.857  1.00  0.00     0.173 A 
ATOM     58  C   UNL A   1      38.549  31.465  36.466  1.00  0.00     0.173 A 
ATOM     59  F   UNL A   1      41.074  33.687  35.083  1.00  0.00    -0.203 F 
ATOM     60  C   UNL A   1      39.643  33.973  36.928  1.00  0.00     0.198 A 
ATOM     61  C   UNL A   1      38.080  32.250  37.517  1.00  0.00     0.198 A 
ATOM     62  F   UNL A   1      38.008  30.252  36.280  1.00  0.00    -0.203 F 
ATOM     63  F   UNL A   1      40.200  35.168  37.173  1.00  0.00    -0.200 F 
ATOM     64  C   UNL A   1      38.633  33.500  37.752  1.00  0.00     0.200 A 
ATOM     65  F   UNL A   1      37.097  31.795  38.305  1.00  0.00    -0.200 F 
ATOM     66  F   UNL A   1      38.199  34.244  38.778  1.00  0.00    -0.200 F 
ENDBRANCH  42  56
BRANCH  43  67
ATOM     67  C   UNL A   1      42.485  26.575  27.675  1.00  0.00     0.064 A 
ATOM     68  C   UNL A   1      41.948  25.309  27.405  1.00  0.00     0.173 A 
ATOM     69  C   UNL A   1      43.479  27.059  26.810  1.00  0.00     0.173 A 
ATOM     70  F   UNL A   1      41.012  24.792  28.215  1.00  0.00    -0.203 F 
ATOM     71  C   UNL A   1      42.406  24.547  26.332  1.00  0.00     0.198 A 
ATOM     72  C   UNL A   1      43.912  26.309  25.719  1.00  0.00     0.198 A 
ATOM     73  F   UNL A   1      44.025  28.265  27.022  1.00  0.00    -0.203 F 
ATOM     74  F   UNL A   1      41.913  23.316  26.129  1.00  0.00    -0.200 F 
ATOM     75  C   UNL A   1      43.383  25.050  25.487  1.00  0.00     0.200 A 
ATOM     76  F   UNL A   1      44.846  26.806  24.897  1.00  0.00    -0.200 F 
ATOM     77  F   UNL A   1      43.821  24.317  24.454  1.00  0.00    -0.200 F 
ENDBRANCH  43  67
BRANCH  55  78
ATOM     78  C   UNL A   1      44.526  26.838  34.333  1.00  0.00     0.064 A 
ATOM     79  C   UNL A   1      45.846  27.291  34.473  1.00  0.00     0.173 A 
ATOM     80  C   UNL A   1      44.180  25.624  34.947  1.00  0.00     0.173 A 
ATOM     81  F   UNL A   1      46.232  28.439  33.897  1.00  0.00    -0.203 F 
ATOM     82  C   UNL A   1      46.793  26.535  35.159  1.00  0.00     0.198 A 
ATOM     83  C   UNL A   1      45.120  24.889  35.664  1.00  0.00     0.198 A 
ATOM     84  F   UNL A   1      42.928  25.150  34.855  1.00  0.00    -0.203 F 
ATOM     85  F   UNL A   1      48.065  26.953  35.220  1.00  0.00    -0.200 F 
ATOM     86  C   UNL A   1      46.428  25.338  35.757  1.00  0.00     0.200 A 
ATOM     87  F   UNL A   1      44.762  23.742  36.257  1.00  0.00    -0.200 F 
ATOM     88  F   UNL A   1      47.342  24.610  36.415  1.00  0.00    -0.200 F 
ENDBRANCH  55  78
ENDBRANCH  29  30
ENDBRANCH  22  24
ENDBRANCH  21  22
ENDBRANCH  20  21
ENDBRANCH   1  20
TORSDOF 15
ENDMDL
MODEL 3
REMARK VINA RESULT:     -11.3      4.481      9.999
REMARK SMILES C/C(C(=O)OCCOCCOC(=O)c1ccc(-c2c3nc(c(-c4c(F)c(F)c(F)c(F)c4F)c4ccc([nH]4)c(-c4c(F)c(F)c(F)c(F)c4F)c4nc(c(-c5c(F)c(F)c(F)c(F)c5F)c5ccc2[nH]5)C=C4)C=C3)cc1)=C(\C)c1ccc(C)c(F)c1
REMARK SMILES IDX 9 1 8 2 7 3 6 4 5 5 3 6 4 7 2 8 1 9 77 10 78 11 79 12 80 13
REMARK SMILES IDX 86 14 81 15 84 16 82 17 85 18 83 19 10 20 11 21 12 22 13 23
REMARK SMILES IDX 14 24 15 25 76 26 16 27 75 28 17 29 18 30 19 31 69 32 20 33
REMARK SMILES IDX 74 34 68 35 70 36 21 37 73 38 67 39 66 40 22 42 54 43 34 44
REMARK SMILES IDX 53 45 35 46 38 47 52 48 71 49 36 50 37 51 51 53 72 54 39 55
REMARK SMILES IDX 23 56 24 57 32 58 25 59 26 60 30 61 33 62 27 63 28 64 31 65
REMARK SMILES IDX 29 66 55 67 56 68 64 69 57 70 58 71 62 72 65 73 59 74 60 75
REMARK SMILES IDX 63 76 61 77 40 78 41 79 49 80 42 81 43 82 47 83 50 84 44 85
REMARK SMILES IDX 45 86 48 87 46 88
REMARK H PARENT 70 41 38 52
REMARK Flexibility Score: inf
ROOT
ATOM      1  C   UNL A   1      35.892  20.820  25.099  1.00  0.00     0.202 C 
ENDROOT
BRANCH   1   2
ATOM      2  O   UNL A   1      35.460  21.308  26.364  1.00  0.00    -0.374 OA
BRANCH   2   3
ATOM      3  C   UNL A   1      34.055  21.287  26.635  1.00  0.00     0.202 C 
BRANCH   3   4
ATOM      4  C   UNL A   1      33.503  22.411  27.513  1.00  0.00     0.261 C 
BRANCH   4   5
ATOM      5  O   UNL A   1      33.235  23.572  26.704  1.00  0.00    -0.460 OA
BRANCH   5   6
ATOM      6  C   UNL A   1      31.924  23.880  26.538  1.00  0.00     0.334 C 
ATOM      7  O   UNL A   1      31.076  23.905  27.416  1.00  0.00    -0.247 OA
BRANCH   6   8
ATOM      8  C   UNL A   1      31.656  24.188  25.101  1.00  0.00     0.038 C 
ATOM      9  C   UNL A   1      31.257  23.013  24.254  1.00  0.00     0.052 C 
ATOM     10  C   UNL A   1      31.752  25.457  24.633  1.00  0.00    -0.034 C 
ATOM     11  C   UNL A   1      31.320  25.893  23.257  1.00  0.00     0.045 C 
BRANCH  10  12
ATOM     12  C   UNL A   1      32.352  26.554  25.424  1.00  0.00    -0.019 A 
ATOM     13  C   UNL A   1      33.727  26.802  25.428  1.00  0.00     0.009 A 
ATOM     14  C   UNL A   1      31.514  27.379  26.180  1.00  0.00     0.048 A 
ATOM     15  C   UNL A   1      34.246  27.904  26.122  1.00  0.00     0.007 A 
ATOM     16  C   UNL A   1      32.032  28.488  26.842  1.00  0.00     0.126 A 
ATOM     17  C   UNL A   1      33.394  28.785  26.800  1.00  0.00    -0.015 A 
ATOM     18  F   UNL A   1      31.187  29.289  27.507  1.00  0.00    -0.207 F 
ATOM     19  C   UNL A   1      33.929  29.998  27.496  1.00  0.00     0.047 C 
ENDBRANCH  10  12
ENDBRANCH   6   8
ENDBRANCH   5   6
ENDBRANCH   4   5
ENDBRANCH   3   4
ENDBRANCH   2   3
ENDBRANCH   1   2
BRANCH   1  20
ATOM     20  C   UNL A   1      37.386  20.512  24.918  1.00  0.00     0.261 C 
BRANCH  20  21
ATOM     21  O   UNL A   1      38.240  21.628  25.178  1.00  0.00    -0.460 OA
BRANCH  21  22
ATOM     22  C   UNL A   1      39.281  21.322  25.984  1.00  0.00     0.338 C 
ATOM     23  O   UNL A   1      39.903  20.269  26.041  1.00  0.00    -0.246 OA
BRANCH  22  24
ATOM     24  C   UNL A   1      39.694  22.524  26.719  1.00  0.00     0.060 A 
ATOM     25  C   UNL A   1      39.038  23.720  26.407  1.00  0.00     0.016 A 
ATOM     26  C   UNL A   1      40.737  22.494  27.649  1.00  0.00     0.016 A 
ATOM     27  C   UNL A   1      39.471  24.910  26.977  1.00  0.00     0.010 A 
ATOM     28  C   UNL A   1      41.174  23.692  28.217  1.00  0.00     0.010 A 
ATOM     29  C   UNL A   1      40.573  24.908  27.844  1.00  0.00    -0.014 A 
BRANCH  29  30
ATOM     30  C   UNL A   1      41.194  26.205  28.193  1.00  0.00     0.031 A 
ATOM     31  C   UNL A   1      42.597  26.480  27.725  1.00  0.00     0.074 A 
ATOM     32  C   UNL A   1      40.487  27.151  28.833  1.00  0.00     0.049 A 
ATOM     33  N   UNL A   1      43.315  27.567  27.840  1.00  0.00    -0.248 NA
ATOM     34  C   UNL A   1      43.283  25.378  27.030  1.00  0.00     0.031 C 
ATOM     35  C   UNL A   1      39.112  27.001  29.303  1.00  0.00     0.029 A 
ATOM     36  N   UNL A   1      40.829  28.430  29.185  1.00  0.00    -0.354 N 
ATOM     37  C   UNL A   1      44.530  27.283  27.232  1.00  0.00     0.074 A 
ATOM     38  C   UNL A   1      44.473  25.907  26.789  1.00  0.00     0.031 C 
ATOM     39  C   UNL A   1      38.720  28.151  29.876  1.00  0.00     0.029 A 
ATOM     40  C   UNL A   1      39.825  29.107  29.831  1.00  0.00     0.049 A 
ATOM     41  H   UNL A   1      41.710  28.826  28.993  1.00  0.00     0.167 HD
ATOM     42  C   UNL A   1      45.592  28.101  27.043  1.00  0.00     0.037 A 
ATOM     43  C   UNL A   1      39.807  30.359  30.329  1.00  0.00     0.037 A 
ATOM     44  C   UNL A   1      45.642  29.469  27.489  1.00  0.00     0.049 A 
ATOM     45  C   UNL A   1      41.022  31.234  30.148  1.00  0.00     0.074 A 
ATOM     46  C   UNL A   1      46.666  30.387  27.349  1.00  0.00     0.029 A 
ATOM     47  N   UNL A   1      44.616  30.112  28.170  1.00  0.00    -0.354 N 
ATOM     48  N   UNL A   1      42.156  30.967  29.547  1.00  0.00    -0.248 NA
ATOM     49  C   UNL A   1      40.942  32.592  30.702  1.00  0.00     0.031 C 
ATOM     50  C   UNL A   1      46.282  31.570  27.991  1.00  0.00     0.029 A 
ATOM     51  C   UNL A   1      44.993  31.411  28.473  1.00  0.00     0.049 A 
ATOM     52  H   UNL A   1      43.751  29.705  28.402  1.00  0.00     0.167 HD
ATOM     53  C   UNL A   1      42.910  32.131  29.618  1.00  0.00     0.074 A 
ATOM     54  C   UNL A   1      42.094  33.112  30.305  1.00  0.00     0.031 C 
ATOM     55  C   UNL A   1      44.163  32.373  29.153  1.00  0.00     0.037 A 
BRANCH  42  56
ATOM     56  C   UNL A   1      46.794  27.527  26.351  1.00  0.00     0.064 A 
ATOM     57  C   UNL A   1      47.817  26.876  27.059  1.00  0.00     0.173 A 
ATOM     58  C   UNL A   1      46.917  27.612  24.956  1.00  0.00     0.173 A 
ATOM     59  F   UNL A   1      47.758  26.782  28.396  1.00  0.00    -0.203 F 
ATOM     60  C   UNL A   1      48.930  26.360  26.400  1.00  0.00     0.198 A 
ATOM     61  C   UNL A   1      48.016  27.067  24.296  1.00  0.00     0.198 A 
ATOM     62  F   UNL A   1      45.970  28.223  24.229  1.00  0.00    -0.203 F 
ATOM     63  F   UNL A   1      49.920  25.791  27.102  1.00  0.00    -0.200 F 
ATOM     64  C   UNL A   1      49.025  26.448  25.019  1.00  0.00     0.200 A 
ATOM     65  F   UNL A   1      48.100  27.143  22.961  1.00  0.00    -0.200 F 
ATOM     66  F   UNL A   1      50.093  25.947  24.386  1.00  0.00    -0.200 F 
ENDBRANCH  42  56
BRANCH  43  67
ATOM     67  C   UNL A   1      38.600  30.864  31.032  1.00  0.00     0.064 A 
ATOM     68  C   UNL A   1      37.527  31.425  30.326  1.00  0.00     0.173 A 
ATOM     69  C   UNL A   1      38.503  30.813  32.431  1.00  0.00     0.173 A 
ATOM     70  F   UNL A   1      37.580  31.516  28.989  1.00  0.00    -0.203 F 
ATOM     71  C   UNL A   1      36.417  31.941  30.992  1.00  0.00     0.198 A 
ATOM     72  C   UNL A   1      37.379  31.300  33.094  1.00  0.00     0.198 A 
ATOM     73  F   UNL A   1      39.501  30.285  33.155  1.00  0.00    -0.203 F 
ATOM     74  F   UNL A   1      35.430  32.522  30.295  1.00  0.00    -0.200 F 
ATOM     75  C   UNL A   1      36.342  31.873  32.375  1.00  0.00     0.200 A 
ATOM     76  F   UNL A   1      37.304  31.219  34.429  1.00  0.00    -0.200 F 
ATOM     77  F   UNL A   1      35.273  32.368  33.015  1.00  0.00    -0.200 F 
ENDBRANCH  43  67
BRANCH  55  78
ATOM     78  C   UNL A   1      44.702  33.765  29.331  1.00  0.00     0.064 A 
ATOM     79  C   UNL A   1      45.454  34.133  30.456  1.00  0.00     0.173 A 
ATOM     80  C   UNL A   1      44.469  34.742  28.351  1.00  0.00     0.173 A 
ATOM     81  F   UNL A   1      45.697  33.240  31.428  1.00  0.00    -0.203 F 
ATOM     82  C   UNL A   1      45.910  35.439  30.617  1.00  0.00     0.198 A 
ATOM     83  C   UNL A   1      44.958  36.037  28.496  1.00  0.00     0.198 A 
ATOM     84  F   UNL A   1      43.765  34.442  27.248  1.00  0.00    -0.203 F 
ATOM     85  F   UNL A   1      46.565  35.784  31.735  1.00  0.00    -0.200 F 
ATOM     86  C   UNL A   1      45.666  36.387  29.636  1.00  0.00     0.200 A 
ATOM     87  F   UNL A   1      44.737  36.947  27.539  1.00  0.00    -0.200 F 
ATOM     88  F   UNL A   1      46.104  37.644  29.793  1.00  0.00    -0.200 F 
ENDBRANCH  55  78
ENDBRANCH  29  30
ENDBRANCH  22  24
ENDBRANCH  21  22
ENDBRANCH  20  21
ENDBRANCH   1  20
TORSDOF 15
ENDMDL
