MODEL 1
REMARK VINA RESULT:     -12.0      0.000      0.000
REMARK SMILES C[C@H](c1cnccn1)[N@@H+]1[C@@H](C(=O)OCCOCCOC(=O)c2ccc(-c3c4nc(c(-c5c(F)c(F)c(F)c(F)c5F)c5ccc([nH]5)c(-c5c(F)c(F)c(F)c(F)c5F)c5nc(c(-c6c(F)c(F)c(F)c(F)c6F)c6ccc3[nH]6)C=C5)C=C4)cc2)CC[C@H]2CCCC[C@H]21
REMARK SMILES IDX 16 1 15 2 14 3 13 4 11 5 12 6 10 7 9 8 92 9 85 11 87 12
REMARK SMILES IDX 91 13 86 14 88 15 90 16 89 17 2 18 1 19 3 20 4 21 8 22 5 23
REMARK SMILES IDX 7 24 6 25 17 26 18 27 19 28 20 29 21 30 22 31 23 32 84 33
REMARK SMILES IDX 24 34 83 35 25 36 26 37 27 38 77 39 28 40 82 41 76 42 78 43
REMARK SMILES IDX 29 44 81 45 75 46 74 47 30 49 62 50 42 51 61 52 43 53 46 54
REMARK SMILES IDX 60 55 79 56 44 57 45 58 59 60 80 61 47 62 31 63 32 64 40 65
REMARK SMILES IDX 33 66 34 67 38 68 41 69 35 70 36 71 39 72 37 73 63 74 64 75
REMARK SMILES IDX 72 76 65 77 66 78 70 79 73 80 67 81 68 82 71 83 69 84 48 85
REMARK SMILES IDX 49 86 57 87 50 88 51 89 55 90 58 91 52 92 53 93 56 94 54 95
REMARK H PARENT 9 10 78 48 46 59
REMARK Flexibility Score: inf
ROOT
ATOM      1  O   UNL A   1      37.740  20.993  24.848  1.00  0.00    -0.374 OA
ENDROOT
BRANCH   1   2
ATOM      2  C   UNL A   1      36.574  21.486  25.503  1.00  0.00     0.202 C 
BRANCH   2   3
ATOM      3  C   UNL A   1      36.518  22.988  25.794  1.00  0.00     0.261 C 
BRANCH   3   4
ATOM      4  O   UNL A   1      35.214  23.456  26.185  1.00  0.00    -0.459 OA
BRANCH   4   5
ATOM      5  C   UNL A   1      34.602  24.254  25.269  1.00  0.00     0.365 C 
ATOM      6  O   UNL A   1      34.853  24.249  24.067  1.00  0.00    -0.245 OA
BRANCH   5   7
ATOM      7  C   UNL A   1      33.522  25.156  25.864  1.00  0.00     0.295 C 
ATOM      8  N   UNL A   1      32.107  24.864  25.416  1.00  0.00    -0.313 N 
ATOM      9  C   UNL A   1      31.214  25.878  26.113  1.00  0.00     0.188 C 
ATOM     10  H   UNL A   1      32.046  24.929  24.401  1.00  0.00     0.349 HD
ATOM     11  C   UNL A   1      33.971  26.598  25.574  1.00  0.00     0.078 C 
ATOM     12  C   UNL A   1      31.617  27.362  25.902  1.00  0.00     0.048 C 
ATOM     13  C   UNL A   1      29.707  25.833  25.808  1.00  0.00     0.065 C 
ATOM     14  C   UNL A   1      33.078  27.604  26.271  1.00  0.00     0.016 C 
ATOM     15  C   UNL A   1      31.313  27.920  24.504  1.00  0.00     0.010 C 
ATOM     16  C   UNL A   1      29.365  26.184  24.370  1.00  0.00     0.006 C 
ATOM     17  C   UNL A   1      30.043  27.430  23.817  1.00  0.00     0.001 C 
BRANCH   8  18
ATOM     18  C   UNL A   1      31.669  23.454  25.797  1.00  0.00     0.233 C 
ATOM     19  C   UNL A   1      32.118  22.848  27.147  1.00  0.00     0.083 C 
BRANCH  18  20
ATOM     20  C   UNL A   1      32.088  22.353  24.822  1.00  0.00     0.116 A 
ATOM     21  C   UNL A   1      32.345  21.052  25.250  1.00  0.00     0.141 A 
ATOM     22  N   UNL A   1      31.966  22.641  23.494  1.00  0.00    -0.252 NA
ATOM     23  N   UNL A   1      32.494  20.011  24.396  1.00  0.00    -0.261 NA
ATOM     24  C   UNL A   1      32.095  21.599  22.645  1.00  0.00     0.131 A 
ATOM     25  C   UNL A   1      32.351  20.314  23.086  1.00  0.00     0.131 A 
ENDBRANCH  18  20
ENDBRANCH   8  18
ENDBRANCH   5   7
ENDBRANCH   4   5
ENDBRANCH   3   4
ENDBRANCH   2   3
ENDBRANCH   1   2
BRANCH   1  26
ATOM     26  C   UNL A   1      38.016  19.599  24.981  1.00  0.00     0.202 C 
BRANCH  26  27
ATOM     27  C   UNL A   1      39.309  19.237  25.713  1.00  0.00     0.261 C 
BRANCH  27  28
ATOM     28  O   UNL A   1      40.150  20.396  25.867  1.00  0.00    -0.460 OA
BRANCH  28  29
ATOM     29  C   UNL A   1      40.844  20.443  27.023  1.00  0.00     0.338 C 
ATOM     30  O   UNL A   1      41.445  19.523  27.569  1.00  0.00    -0.246 OA
BRANCH  29  31
ATOM     31  C   UNL A   1      40.951  21.837  27.485  1.00  0.00     0.060 A 
ATOM     32  C   UNL A   1      40.097  22.784  26.900  1.00  0.00     0.016 A 
ATOM     33  C   UNL A   1      41.910  22.226  28.422  1.00  0.00     0.016 A 
ATOM     34  C   UNL A   1      40.249  24.136  27.190  1.00  0.00     0.010 A 
ATOM     35  C   UNL A   1      42.072  23.584  28.701  1.00  0.00     0.010 A 
ATOM     36  C   UNL A   1      41.277  24.544  28.047  1.00  0.00    -0.014 A 
BRANCH  36  37
ATOM     37  C   UNL A   1      41.684  25.966  28.092  1.00  0.00     0.031 A 
ATOM     38  C   UNL A   1      43.025  26.331  27.519  1.00  0.00     0.074 A 
ATOM     39  C   UNL A   1      40.893  26.904  28.636  1.00  0.00     0.049 A 
ATOM     40  N   UNL A   1      43.683  27.459  27.587  1.00  0.00    -0.248 NA
ATOM     41  C   UNL A   1      43.724  25.270  26.774  1.00  0.00     0.031 C 
ATOM     42  C   UNL A   1      39.545  26.679  29.152  1.00  0.00     0.029 A 
ATOM     43  N   UNL A   1      41.127  28.237  28.862  1.00  0.00    -0.354 N 
ATOM     44  C   UNL A   1      44.877  27.236  26.914  1.00  0.00     0.074 A 
ATOM     45  C   UNL A   1      44.865  25.863  26.462  1.00  0.00     0.031 C 
ATOM     46  C   UNL A   1      39.079  27.832  29.663  1.00  0.00     0.029 A 
ATOM     47  C   UNL A   1      40.115  28.858  29.552  1.00  0.00     0.049 A 
ATOM     48  H   UNL A   1      41.939  28.702  28.559  1.00  0.00     0.167 HD
ATOM     49  C   UNL A   1      45.890  28.105  26.694  1.00  0.00     0.037 A 
ATOM     50  C   UNL A   1      40.060  30.101  30.070  1.00  0.00     0.037 A 
ATOM     51  C   UNL A   1      45.889  29.469  27.149  1.00  0.00     0.049 A 
ATOM     52  C   UNL A   1      41.241  31.022  29.895  1.00  0.00     0.074 A 
ATOM     53  C   UNL A   1      46.865  30.435  26.987  1.00  0.00     0.029 A 
ATOM     54  N   UNL A   1      44.853  30.058  27.860  1.00  0.00    -0.354 N 
ATOM     55  N   UNL A   1      42.375  30.809  29.270  1.00  0.00    -0.248 NA
ATOM     56  C   UNL A   1      41.139  32.356  30.505  1.00  0.00     0.031 C 
ATOM     57  C   UNL A   1      46.441  31.594  27.644  1.00  0.00     0.029 A 
ATOM     58  C   UNL A   1      45.175  31.369  28.161  1.00  0.00     0.049 A 
ATOM     59  H   UNL A   1      44.014  29.609  28.113  1.00  0.00     0.167 HD
ATOM     60  C   UNL A   1      43.098  31.991  29.371  1.00  0.00     0.074 A 
ATOM     61  C   UNL A   1      42.279  32.917  30.123  1.00  0.00     0.031 C 
ATOM     62  C   UNL A   1      44.327  32.285  28.882  1.00  0.00     0.037 A 
BRANCH  49  63
ATOM     63  C   UNL A   1      47.096  27.596  25.961  1.00  0.00     0.064 A 
ATOM     64  C   UNL A   1      48.175  27.004  26.633  1.00  0.00     0.173 A 
ATOM     65  C   UNL A   1      47.159  27.675  24.561  1.00  0.00     0.173 A 
ATOM     66  F   UNL A   1      48.172  26.920  27.972  1.00  0.00    -0.203 F 
ATOM     67  C   UNL A   1      49.284  26.532  25.934  1.00  0.00     0.198 A 
ATOM     68  C   UNL A   1      48.255  27.174  23.863  1.00  0.00     0.198 A 
ATOM     69  F   UNL A   1      46.154  28.231  23.868  1.00  0.00    -0.203 F 
ATOM     70  F   UNL A   1      50.323  26.013  26.601  1.00  0.00    -0.200 F 
ATOM     71  C   UNL A   1      49.318  26.609  24.549  1.00  0.00     0.200 A 
ATOM     72  F   UNL A   1      48.281  27.239  22.524  1.00  0.00    -0.200 F 
ATOM     73  F   UNL A   1      50.381  26.146  23.877  1.00  0.00    -0.200 F 
ENDBRANCH  49  63
BRANCH  50  74
ATOM     74  C   UNL A   1      38.857  30.541  30.823  1.00  0.00     0.064 A 
ATOM     75  C   UNL A   1      37.768  31.129  30.164  1.00  0.00     0.173 A 
ATOM     76  C   UNL A   1      38.777  30.403  32.217  1.00  0.00     0.173 A 
ATOM     77  F   UNL A   1      37.807  31.307  28.835  1.00  0.00    -0.203 F 
ATOM     78  C   UNL A   1      36.656  31.581  30.872  1.00  0.00     0.198 A 
ATOM     79  C   UNL A   1      37.652  30.829  32.921  1.00  0.00     0.198 A 
ATOM     80  F   UNL A   1      39.793  29.851  32.897  1.00  0.00    -0.203 F 
ATOM     81  F   UNL A   1      35.652  32.187  30.222  1.00  0.00    -0.200 F 
ATOM     82  C   UNL A   1      36.596  31.426  32.248  1.00  0.00     0.200 A 
ATOM     83  F   UNL A   1      37.595  30.669  34.249  1.00  0.00    -0.200 F 
ATOM     84  F   UNL A   1      35.527  31.861  32.928  1.00  0.00    -0.200 F 
ENDBRANCH  50  74
BRANCH  62  85
ATOM     85  C   UNL A   1      44.839  33.683  29.070  1.00  0.00     0.064 A 
ATOM     86  C   UNL A   1      45.679  34.027  30.137  1.00  0.00     0.173 A 
ATOM     87  C   UNL A   1      44.551  34.669  28.113  1.00  0.00     0.173 A 
ATOM     88  F   UNL A   1      45.973  33.123  31.085  1.00  0.00    -0.203 F 
ATOM     89  C   UNL A   1      46.204  35.312  30.246  1.00  0.00     0.198 A 
ATOM     90  C   UNL A   1      45.102  35.942  28.208  1.00  0.00     0.198 A 
ATOM     91  F   UNL A   1      43.761  34.385  27.067  1.00  0.00    -0.203 F 
ATOM     92  F   UNL A   1      46.981  35.629  31.291  1.00  0.00    -0.200 F 
ATOM     93  C   UNL A   1      45.925  36.264  29.276  1.00  0.00     0.200 A 
ATOM     94  F   UNL A   1      44.845  36.855  27.261  1.00  0.00    -0.200 F 
ATOM     95  F   UNL A   1      46.450  37.493  29.372  1.00  0.00    -0.200 F 
ENDBRANCH  62  85
ENDBRANCH  36  37
ENDBRANCH  29  31
ENDBRANCH  28  29
ENDBRANCH  27  28
ENDBRANCH  26  27
ENDBRANCH   1  26
TORSDOF 16
ENDMDL
MODEL 2
REMARK VINA RESULT:     -11.9      4.498     10.119
REMARK SMILES C[C@H](c1cnccn1)[N@@H+]1[C@@H](C(=O)OCCOCCOC(=O)c2ccc(-c3c4nc(c(-c5c(F)c(F)c(F)c(F)c5F)c5ccc([nH]5)c(-c5c(F)c(F)c(F)c(F)c5F)c5nc(c(-c6c(F)c(F)c(F)c(F)c6F)c6ccc3[nH]6)C=C5)C=C4)cc2)CC[C@H]2CCCC[C@H]21
REMARK SMILES IDX 16 1 15 2 14 3 13 4 11 5 12 6 10 7 9 8 92 9 85 11 87 12
REMARK SMILES IDX 91 13 86 14 88 15 90 16 89 17 2 18 1 19 3 20 4 21 8 22 5 23
REMARK SMILES IDX 7 24 6 25 17 26 18 27 19 28 20 29 21 30 22 31 23 32 84 33
REMARK SMILES IDX 24 34 83 35 25 36 26 37 27 38 77 39 28 40 82 41 76 42 78 43
REMARK SMILES IDX 29 44 81 45 75 46 74 47 30 49 62 50 42 51 61 52 43 53 46 54
REMARK SMILES IDX 60 55 79 56 44 57 45 58 59 60 80 61 47 62 31 63 32 64 40 65
REMARK SMILES IDX 33 66 34 67 38 68 41 69 35 70 36 71 39 72 37 73 63 74 64 75
REMARK SMILES IDX 72 76 65 77 66 78 70 79 73 80 67 81 68 82 71 83 69 84 48 85
REMARK SMILES IDX 49 86 57 87 50 88 51 89 55 90 58 91 52 92 53 93 56 94 54 95
REMARK H PARENT 9 10 78 48 46 59
REMARK Flexibility Score: inf
ROOT
ATOM      1  O   UNL A   1      32.050  30.825  26.901  1.00  0.00    -0.374 OA
ENDROOT
BRANCH   1   2
ATOM      2  C   UNL A   1      33.030  30.293  26.014  1.00  0.00     0.202 C 
BRANCH   2   3
ATOM      3  C   UNL A   1      32.657  29.023  25.242  1.00  0.00     0.261 C 
BRANCH   3   4
ATOM      4  O   UNL A   1      33.685  28.015  25.253  1.00  0.00    -0.459 OA
BRANCH   4   5
ATOM      5  C   UNL A   1      33.237  26.755  25.505  1.00  0.00     0.365 C 
ATOM      6  O   UNL A   1      32.339  26.483  26.297  1.00  0.00    -0.245 OA
BRANCH   5   7
ATOM      7  C   UNL A   1      33.935  25.679  24.675  1.00  0.00     0.295 C 
ATOM      8  N   UNL A   1      33.047  24.915  23.717  1.00  0.00    -0.313 N 
ATOM      9  C   UNL A   1      33.936  23.900  23.018  1.00  0.00     0.188 C 
ATOM     10  H   UNL A   1      32.286  24.472  24.230  1.00  0.00     0.349 HD
ATOM     11  C   UNL A   1      34.665  24.776  25.684  1.00  0.00     0.078 C 
ATOM     12  C   UNL A   1      34.741  22.969  23.964  1.00  0.00     0.048 C 
ATOM     13  C   UNL A   1      33.278  22.952  22.000  1.00  0.00     0.065 C 
ATOM     14  C   UNL A   1      35.550  23.768  24.981  1.00  0.00     0.016 C 
ATOM     15  C   UNL A   1      33.906  21.888  24.666  1.00  0.00     0.010 C 
ATOM     16  C   UNL A   1      32.284  21.987  22.621  1.00  0.00     0.006 C 
ATOM     17  C   UNL A   1      32.757  21.268  23.877  1.00  0.00     0.001 C 
BRANCH   8  18
ATOM     18  C   UNL A   1      32.407  25.831  22.680  1.00  0.00     0.233 C 
ATOM     19  C   UNL A   1      33.201  27.038  22.128  1.00  0.00     0.083 C 
BRANCH  18  20
ATOM     20  C   UNL A   1      31.105  26.505  23.116  1.00  0.00     0.116 A 
ATOM     21  C   UNL A   1      30.701  27.730  22.590  1.00  0.00     0.141 A 
ATOM     22  N   UNL A   1      30.249  25.744  23.857  1.00  0.00    -0.252 NA
ATOM     23  N   UNL A   1      29.460  28.240  22.780  1.00  0.00    -0.261 NA
ATOM     24  C   UNL A   1      29.006  26.244  24.029  1.00  0.00     0.131 A 
ATOM     25  C   UNL A   1      28.621  27.463  23.501  1.00  0.00     0.131 A 
ENDBRANCH  18  20
ENDBRANCH   8  18
ENDBRANCH   5   7
ENDBRANCH   4   5
ENDBRANCH   3   4
ENDBRANCH   2   3
ENDBRANCH   1   2
BRANCH   1  26
ATOM     26  C   UNL A   1      31.403  32.033  26.501  1.00  0.00     0.202 C 
BRANCH  26  27
ATOM     27  C   UNL A   1      32.077  33.333  26.940  1.00  0.00     0.261 C 
BRANCH  27  28
ATOM     28  O   UNL A   1      32.977  33.096  28.038  1.00  0.00    -0.460 OA
BRANCH  28  29
ATOM     29  C   UNL A   1      34.118  33.816  28.000  1.00  0.00     0.338 C 
ATOM     30  O   UNL A   1      34.228  35.033  27.893  1.00  0.00    -0.246 OA
BRANCH  29  31
ATOM     31  C   UNL A   1      35.268  32.945  28.298  1.00  0.00     0.060 A 
ATOM     32  C   UNL A   1      35.012  31.587  28.534  1.00  0.00     0.016 A 
ATOM     33  C   UNL A   1      36.563  33.455  28.408  1.00  0.00     0.016 A 
ATOM     34  C   UNL A   1      36.035  30.746  28.960  1.00  0.00     0.010 A 
ATOM     35  C   UNL A   1      37.586  32.615  28.850  1.00  0.00     0.010 A 
ATOM     36  C   UNL A   1      37.313  31.273  29.175  1.00  0.00    -0.014 A 
BRANCH  36  37
ATOM     37  C   UNL A   1      38.310  30.504  29.952  1.00  0.00     0.031 A 
ATOM     38  C   UNL A   1      38.477  30.841  31.408  1.00  0.00     0.074 A 
ATOM     39  C   UNL A   1      39.054  29.543  29.382  1.00  0.00     0.049 A 
ATOM     40  N   UNL A   1      39.387  30.443  32.257  1.00  0.00    -0.248 NA
ATOM     41  C   UNL A   1      37.482  31.765  31.979  1.00  0.00     0.031 C 
ATOM     42  C   UNL A   1      38.926  29.081  28.002  1.00  0.00     0.029 A 
ATOM     43  N   UNL A   1      40.085  28.799  29.896  1.00  0.00    -0.354 N 
ATOM     44  C   UNL A   1      39.087  31.081  33.454  1.00  0.00     0.074 A 
ATOM     45  C   UNL A   1      37.925  31.909  33.218  1.00  0.00     0.031 C 
ATOM     46  C   UNL A   1      39.866  28.149  27.768  1.00  0.00     0.029 A 
ATOM     47  C   UNL A   1      40.688  27.987  28.967  1.00  0.00     0.049 A 
ATOM     48  H   UNL A   1      40.365  28.842  30.839  1.00  0.00     0.167 HD
ATOM     49  C   UNL A   1      39.727  30.982  34.641  1.00  0.00     0.037 A 
ATOM     50  C   UNL A   1      41.802  27.237  29.070  1.00  0.00     0.037 A 
ATOM     51  C   UNL A   1      40.882  30.154  34.862  1.00  0.00     0.049 A 
ATOM     52  C   UNL A   1      42.555  27.215  30.377  1.00  0.00     0.074 A 
ATOM     53  C   UNL A   1      41.613  29.982  36.023  1.00  0.00     0.029 A 
ATOM     54  N   UNL A   1      41.474  29.359  33.892  1.00  0.00    -0.354 N 
ATOM     55  N   UNL A   1      42.279  27.828  31.504  1.00  0.00    -0.248 NA
ATOM     56  C   UNL A   1      43.780  26.404  30.425  1.00  0.00     0.031 C 
ATOM     57  C   UNL A   1      42.678  29.121  35.742  1.00  0.00     0.029 A 
ATOM     58  C   UNL A   1      42.573  28.708  34.423  1.00  0.00     0.049 A 
ATOM     59  H   UNL A   1      41.158  29.270  32.963  1.00  0.00     0.167 HD
ATOM     60  C   UNL A   1      43.265  27.441  32.403  1.00  0.00     0.074 A 
ATOM     61  C   UNL A   1      44.151  26.545  31.690  1.00  0.00     0.031 C 
ATOM     62  C   UNL A   1      43.421  27.792  33.703  1.00  0.00     0.037 A 
BRANCH  49  63
ATOM     63  C   UNL A   1      39.214  31.814  35.780  1.00  0.00     0.064 A 
ATOM     64  C   UNL A   1      38.278  31.315  36.697  1.00  0.00     0.173 A 
ATOM     65  C   UNL A   1      39.691  33.119  35.973  1.00  0.00     0.173 A 
ATOM     66  F   UNL A   1      37.778  30.079  36.547  1.00  0.00    -0.203 F 
ATOM     67  C   UNL A   1      37.818  32.101  37.751  1.00  0.00     0.198 A 
ATOM     68  C   UNL A   1      39.253  33.891  37.047  1.00  0.00     0.198 A 
ATOM     69  F   UNL A   1      40.589  33.645  35.127  1.00  0.00    -0.203 F 
ATOM     70  F   UNL A   1      36.888  31.620  38.587  1.00  0.00    -0.200 F 
ATOM     71  C   UNL A   1      38.313  33.385  37.930  1.00  0.00     0.200 A 
ATOM     72  F   UNL A   1      39.741  35.127  37.224  1.00  0.00    -0.200 F 
ATOM     73  F   UNL A   1      37.876  34.136  38.950  1.00  0.00    -0.200 F 
ENDBRANCH  49  63
BRANCH  50  74
ATOM     74  C   UNL A   1      42.290  26.463  27.899  1.00  0.00     0.064 A 
ATOM     75  C   UNL A   1      43.211  27.019  26.999  1.00  0.00     0.173 A 
ATOM     76  C   UNL A   1      41.833  25.162  27.641  1.00  0.00     0.173 A 
ATOM     77  F   UNL A   1      43.658  28.270  27.188  1.00  0.00    -0.203 F 
ATOM     78  C   UNL A   1      43.638  26.312  25.877  1.00  0.00     0.198 A 
ATOM     79  C   UNL A   1      42.283  24.445  26.535  1.00  0.00     0.198 A 
ATOM     80  F   UNL A   1      40.948  24.584  28.467  1.00  0.00    -0.203 F 
ATOM     81  F   UNL A   1      44.479  26.888  25.007  1.00  0.00    -0.200 F 
ATOM     82  C   UNL A   1      43.180  25.024  25.649  1.00  0.00     0.200 A 
ATOM     83  F   UNL A   1      41.844  23.198  26.323  1.00  0.00    -0.200 F 
ATOM     84  F   UNL A   1      43.591  24.345  24.570  1.00  0.00    -0.200 F 
ENDBRANCH  50  74
BRANCH  62  85
ATOM     85  C   UNL A   1      44.541  27.153  34.470  1.00  0.00     0.064 A 
ATOM     86  C   UNL A   1      45.793  27.768  34.603  1.00  0.00     0.173 A 
ATOM     87  C   UNL A   1      44.322  25.947  35.155  1.00  0.00     0.173 A 
ATOM     88  F   UNL A   1      46.055  28.915  33.959  1.00  0.00    -0.203 F 
ATOM     89  C   UNL A   1      46.791  27.193  35.386  1.00  0.00     0.198 A 
ATOM     90  C   UNL A   1      45.311  25.391  35.960  1.00  0.00     0.198 A 
ATOM     91  F   UNL A   1      43.137  25.325  35.067  1.00  0.00    -0.203 F 
ATOM     92  F   UNL A   1      47.991  27.781  35.476  1.00  0.00    -0.200 F 
ATOM     93  C   UNL A   1      46.545  26.012  36.073  1.00  0.00     0.200 A 
ATOM     94  F   UNL A   1      45.065  24.260  36.636  1.00  0.00    -0.200 F 
ATOM     95  F   UNL A   1      47.500  25.472  36.843  1.00  0.00    -0.200 F 
ENDBRANCH  62  85
ENDBRANCH  36  37
ENDBRANCH  29  31
ENDBRANCH  28  29
ENDBRANCH  27  28
ENDBRANCH  26  27
ENDBRANCH   1  26
TORSDOF 16
ENDMDL
MODEL 3
REMARK VINA RESULT:     -11.9      4.480      7.543
REMARK SMILES C[C@H](c1cnccn1)[N@@H+]1[C@@H](C(=O)OCCOCCOC(=O)c2ccc(-c3c4nc(c(-c5c(F)c(F)c(F)c(F)c5F)c5ccc([nH]5)c(-c5c(F)c(F)c(F)c(F)c5F)c5nc(c(-c6c(F)c(F)c(F)c(F)c6F)c6ccc3[nH]6)C=C5)C=C4)cc2)CC[C@H]2CCCC[C@H]21
REMARK SMILES IDX 16 1 15 2 14 3 13 4 11 5 12 6 10 7 9 8 92 9 85 11 87 12
REMARK SMILES IDX 91 13 86 14 88 15 90 16 89 17 2 18 1 19 3 20 4 21 8 22 5 23
REMARK SMILES IDX 7 24 6 25 17 26 18 27 19 28 20 29 21 30 22 31 23 32 84 33
REMARK SMILES IDX 24 34 83 35 25 36 26 37 27 38 77 39 28 40 82 41 76 42 78 43
REMARK SMILES IDX 29 44 81 45 75 46 74 47 30 49 62 50 42 51 61 52 43 53 46 54
REMARK SMILES IDX 60 55 79 56 44 57 45 58 59 60 80 61 47 62 31 63 32 64 40 65
REMARK SMILES IDX 33 66 34 67 38 68 41 69 35 70 36 71 39 72 37 73 63 74 64 75
REMARK SMILES IDX 72 76 65 77 66 78 70 79 73 80 67 81 68 82 71 83 69 84 48 85
REMARK SMILES IDX 49 86 57 87 50 88 51 89 55 90 58 91 52 92 53 93 56 94 54 95
REMARK H PARENT 9 10 78 48 46 59
REMARK Flexibility Score: inf
ROOT
ATOM      1  O   UNL A   1      30.952  28.828  25.198  1.00  0.00    -0.374 OA
ENDROOT
BRANCH   1   2
ATOM      2  C   UNL A   1      30.605  28.074  24.039  1.00  0.00     0.202 C 
BRANCH   2   3
ATOM      3  C   UNL A   1      29.937  26.715  24.263  1.00  0.00     0.261 C 
BRANCH   3   4
ATOM      4  O   UNL A   1      30.842  25.690  24.714  1.00  0.00    -0.459 OA
BRANCH   4   5
ATOM      5  C   UNL A   1      30.991  25.622  26.065  1.00  0.00     0.365 C 
ATOM      6  O   UNL A   1      30.267  26.197  26.872  1.00  0.00    -0.245 OA
BRANCH   5   7
ATOM      7  C   UNL A   1      32.140  24.720  26.510  1.00  0.00     0.295 C 
ATOM      8  N   UNL A   1      33.380  24.766  25.643  1.00  0.00    -0.313 N 
ATOM      9  C   UNL A   1      34.374  23.793  26.257  1.00  0.00     0.188 C 
ATOM     10  H   UNL A   1      33.140  24.518  24.684  1.00  0.00     0.349 HD
ATOM     11  C   UNL A   1      31.541  23.310  26.647  1.00  0.00     0.078 C 
ATOM     12  C   UNL A   1      33.839  22.350  26.465  1.00  0.00     0.048 C 
ATOM     13  C   UNL A   1      35.727  23.612  25.549  1.00  0.00     0.065 C 
ATOM     14  C   UNL A   1      32.536  22.345  27.259  1.00  0.00     0.016 C 
ATOM     15  C   UNL A   1      33.690  21.527  25.177  1.00  0.00     0.010 C 
ATOM     16  C   UNL A   1      35.616  22.978  24.173  1.00  0.00     0.006 C 
ATOM     17  C   UNL A   1      34.733  21.741  24.085  1.00  0.00     0.001 C 
BRANCH   8  18
ATOM     18  C   UNL A   1      33.993  26.161  25.601  1.00  0.00     0.233 C 
ATOM     19  C   UNL A   1      33.376  27.297  26.448  1.00  0.00     0.083 C 
BRANCH  18  20
ATOM     20  C   UNL A   1      34.042  26.812  24.218  1.00  0.00     0.116 A 
ATOM     21  C   UNL A   1      33.702  26.109  23.064  1.00  0.00     0.141 A 
ATOM     22  N   UNL A   1      34.200  28.167  24.191  1.00  0.00    -0.252 NA
ATOM     23  N   UNL A   1      33.516  26.710  21.863  1.00  0.00    -0.261 NA
ATOM     24  C   UNL A   1      33.995  28.766  22.999  1.00  0.00     0.131 A 
ATOM     25  C   UNL A   1      33.659  28.054  21.862  1.00  0.00     0.131 A 
ENDBRANCH  18  20
ENDBRANCH   8  18
ENDBRANCH   5   7
ENDBRANCH   4   5
ENDBRANCH   3   4
ENDBRANCH   2   3
ENDBRANCH   1   2
BRANCH   1  26
ATOM     26  C   UNL A   1      31.307  30.196  24.997  1.00  0.00     0.202 C 
BRANCH  26  27
ATOM     27  C   UNL A   1      31.475  31.039  26.262  1.00  0.00     0.261 C 
BRANCH  27  28
ATOM     28  O   UNL A   1      32.741  30.768  26.892  1.00  0.00    -0.460 OA
BRANCH  28  29
ATOM     29  C   UNL A   1      33.378  31.855  27.373  1.00  0.00     0.338 C 
ATOM     30  O   UNL A   1      32.895  32.957  27.612  1.00  0.00    -0.246 OA
BRANCH  29  31
ATOM     31  C   UNL A   1      34.752  31.496  27.767  1.00  0.00     0.060 A 
ATOM     32  C   UNL A   1      35.023  30.143  28.018  1.00  0.00     0.016 A 
ATOM     33  C   UNL A   1      35.738  32.466  27.950  1.00  0.00     0.016 A 
ATOM     34  C   UNL A   1      36.260  29.761  28.530  1.00  0.00     0.010 A 
ATOM     35  C   UNL A   1      36.973  32.085  28.478  1.00  0.00     0.010 A 
ATOM     36  C   UNL A   1      37.216  30.740  28.816  1.00  0.00    -0.014 A 
BRANCH  36  37
ATOM     37  C   UNL A   1      38.376  30.414  29.676  1.00  0.00     0.031 A 
ATOM     38  C   UNL A   1      39.396  29.448  29.141  1.00  0.00     0.074 A 
ATOM     39  C   UNL A   1      38.515  30.951  30.898  1.00  0.00     0.049 A 
ATOM     40  N   UNL A   1      40.399  28.871  29.750  1.00  0.00    -0.248 NA
ATOM     41  C   UNL A   1      39.257  29.074  27.723  1.00  0.00     0.031 C 
ATOM     42  C   UNL A   1      37.631  31.952  31.488  1.00  0.00     0.029 A 
ATOM     43  N   UNL A   1      39.448  30.703  31.873  1.00  0.00    -0.354 N 
ATOM     44  C   UNL A   1      40.995  28.054  28.798  1.00  0.00     0.074 A 
ATOM     45  C   UNL A   1      40.233  28.191  27.577  1.00  0.00     0.031 C 
ATOM     46  C   UNL A   1      38.048  32.216  32.738  1.00  0.00     0.029 A 
ATOM     47  C   UNL A   1      39.196  31.365  33.049  1.00  0.00     0.049 A 
ATOM     48  H   UNL A   1      40.223  30.110  31.741  1.00  0.00     0.167 HD
ATOM     49  C   UNL A   1      42.083  27.262  28.936  1.00  0.00     0.037 A 
ATOM     50  C   UNL A   1      39.802  31.256  34.247  1.00  0.00     0.037 A 
ATOM     51  C   UNL A   1      42.833  27.135  30.156  1.00  0.00     0.049 A 
ATOM     52  C   UNL A   1      40.954  30.295  34.403  1.00  0.00     0.074 A 
ATOM     53  C   UNL A   1      43.948  26.358  30.408  1.00  0.00     0.029 A 
ATOM     54  N   UNL A   1      42.537  27.810  31.332  1.00  0.00    -0.354 N 
ATOM     55  N   UNL A   1      41.510  29.513  33.508  1.00  0.00    -0.248 NA
ATOM     56  C   UNL A   1      41.559  30.194  35.739  1.00  0.00     0.031 C 
ATOM     57  C   UNL A   1      44.297  26.522  31.752  1.00  0.00     0.029 A 
ATOM     58  C   UNL A   1      43.437  27.450  32.319  1.00  0.00     0.049 A 
ATOM     59  H   UNL A   1      41.796  28.448  31.447  1.00  0.00     0.167 HD
ATOM     60  C   UNL A   1      42.553  28.866  34.158  1.00  0.00     0.074 A 
ATOM     61  C   UNL A   1      42.551  29.340  35.525  1.00  0.00     0.031 C 
ATOM     62  C   UNL A   1      43.437  27.964  33.666  1.00  0.00     0.037 A 
BRANCH  49  63
ATOM     63  C   UNL A   1      42.504  26.446  27.749  1.00  0.00     0.064 A 
ATOM     64  C   UNL A   1      41.929  25.197  27.469  1.00  0.00     0.173 A 
ATOM     65  C   UNL A   1      43.475  26.935  26.862  1.00  0.00     0.173 A 
ATOM     66  F   UNL A   1      41.009  24.677  28.295  1.00  0.00    -0.203 F 
ATOM     67  C   UNL A   1      42.330  24.457  26.358  1.00  0.00     0.198 A 
ATOM     68  C   UNL A   1      43.849  26.207  25.735  1.00  0.00     0.198 A 
ATOM     69  F   UNL A   1      44.055  28.124  27.082  1.00  0.00    -0.203 F 
ATOM     70  F   UNL A   1      41.801  23.246  26.137  1.00  0.00    -0.200 F 
ATOM     71  C   UNL A   1      43.282  24.967  25.488  1.00  0.00     0.200 A 
ATOM     72  F   UNL A   1      44.762  26.706  24.890  1.00  0.00    -0.200 F 
ATOM     73  F   UNL A   1      43.659  24.258  24.415  1.00  0.00    -0.200 F 
ENDBRANCH  49  63
BRANCH  50  74
ATOM     74  C   UNL A   1      39.319  32.058  35.402  1.00  0.00     0.064 A 
ATOM     75  C   UNL A   1      38.476  31.494  36.370  1.00  0.00     0.173 A 
ATOM     76  C   UNL A   1      39.673  33.408  35.552  1.00  0.00     0.173 A 
ATOM     77  F   UNL A   1      38.088  30.215  36.255  1.00  0.00    -0.203 F 
ATOM     78  C   UNL A   1      37.988  32.255  37.430  1.00  0.00     0.198 A 
ATOM     79  C   UNL A   1      39.208  34.159  36.630  1.00  0.00     0.198 A 
ATOM     80  F   UNL A   1      40.474  33.997  34.653  1.00  0.00    -0.203 F 
ATOM     81  F   UNL A   1      37.141  31.704  38.312  1.00  0.00    -0.200 F 
ATOM     82  C   UNL A   1      38.358  33.584  37.563  1.00  0.00     0.200 A 
ATOM     83  F   UNL A   1      39.576  35.440  36.759  1.00  0.00    -0.200 F 
ATOM     84  F   UNL A   1      37.888  34.314  38.583  1.00  0.00    -0.200 F 
ENDBRANCH  50  74
BRANCH  62  85
ATOM     85  C   UNL A   1      44.526  27.482  34.579  1.00  0.00     0.064 A 
ATOM     86  C   UNL A   1      44.410  26.291  35.307  1.00  0.00     0.173 A 
ATOM     87  C   UNL A   1      45.739  28.185  34.653  1.00  0.00     0.173 A 
ATOM     88  F   UNL A   1      43.266  25.590  35.278  1.00  0.00    -0.203 F 
ATOM     89  C   UNL A   1      45.466  25.824  36.086  1.00  0.00     0.198 A 
ATOM     90  C   UNL A   1      46.802  27.701  35.408  1.00  0.00     0.198 A 
ATOM     91  F   UNL A   1      45.903  29.325  33.966  1.00  0.00    -0.203 F 
ATOM     92  F   UNL A   1      45.324  24.699  36.798  1.00  0.00    -0.200 F 
ATOM     93  C   UNL A   1      46.665  26.523  36.126  1.00  0.00     0.200 A 
ATOM     94  F   UNL A   1      47.965  28.368  35.432  1.00  0.00    -0.200 F 
ATOM     95  F   UNL A   1      47.686  26.061  36.859  1.00  0.00    -0.200 F 
ENDBRANCH  62  85
ENDBRANCH  36  37
ENDBRANCH  29  31
ENDBRANCH  28  29
ENDBRANCH  27  28
ENDBRANCH  26  27
ENDBRANCH   1  26
TORSDOF 16
ENDMDL
