MODEL 1
REMARK VINA RESULT:     -13.0      0.000      0.000
REMARK SMILES Cc1ccc(C(=O)OCCOCCOC(=O)c2ccc(-c3c4nc(c(-c5c(F)c(F)c(F)c(F)c5F)c5ccc([nH]5)c(-c5c(F)c(F)c(F)c(F)c5F)c5nc(c(-c6c(F)c(F)c(F)c(F)c6F)c6ccc3[nH]6)C=C5)C=C4)cc2)cc1NC(=O)c1nn(C)c(=O)c2ccccc12
REMARK SMILES IDX 11 1 10 2 9 3 8 4 6 5 7 6 5 7 1 8 2 9 3 10 81 11 4 12 80 13
REMARK SMILES IDX 82 14 83 15 84 17 85 18 86 19 96 20 87 21 91 22 95 23 88 24
REMARK SMILES IDX 89 25 92 26 94 27 90 28 93 29 12 30 13 31 14 32 15 33 16 34
REMARK SMILES IDX 17 35 18 36 79 37 19 38 78 39 20 40 21 41 22 42 72 43 23 44
REMARK SMILES IDX 77 45 71 46 73 47 24 48 76 49 70 50 69 51 25 53 57 54 37 55
REMARK SMILES IDX 56 56 38 57 41 58 55 59 74 60 39 61 40 62 54 64 75 65 42 66
REMARK SMILES IDX 26 67 27 68 35 69 28 70 29 71 33 72 36 73 30 74 31 75 34 76
REMARK SMILES IDX 32 77 58 78 59 79 67 80 60 81 61 82 65 83 68 84 62 85 63 86
REMARK SMILES IDX 66 87 64 88 43 89 44 90 52 91 45 92 46 93 50 94 53 95 47 96
REMARK SMILES IDX 48 97 51 98 49 99
REMARK H PARENT 82 16 73 52 41 63
REMARK Flexibility Score: inf
ROOT
ATOM      1  O   UNL A   1      33.325  28.833  27.377  1.00  0.00    -0.374 OA
ENDROOT
BRANCH   1   2
ATOM      2  C   UNL A   1      32.939  27.637  26.729  1.00  0.00     0.202 C 
BRANCH   2   3
ATOM      3  C   UNL A   1      31.454  27.660  26.727  1.00  0.00     0.261 C 
BRANCH   3   4
ATOM      4  O   UNL A   1      30.942  27.164  25.496  1.00  0.00    -0.460 OA
BRANCH   4   5
ATOM      5  C   UNL A   1      30.876  27.937  24.366  1.00  0.00     0.338 C 
ATOM      6  O   UNL A   1      30.858  29.123  24.244  1.00  0.00    -0.246 OA
BRANCH   5   7
ATOM      7  C   UNL A   1      31.025  26.911  23.304  1.00  0.00     0.062 A 
ATOM      8  C   UNL A   1      33.305  23.666  21.817  1.00  0.00     0.046 C 
ATOM      9  C   UNL A   1      32.396  24.725  22.371  1.00  0.00    -0.027 A 
ATOM     10  C   UNL A   1      32.680  26.035  21.877  1.00  0.00     0.006 A 
ATOM     11  C   UNL A   1      31.324  24.512  23.279  1.00  0.00     0.045 A 
ATOM     12  C   UNL A   1      32.026  27.143  22.380  1.00  0.00     0.016 A 
ATOM     13  C   UNL A   1      30.550  25.617  23.593  1.00  0.00     0.042 A 
BRANCH  11  14
ATOM     14  N   UNL A   1      31.178  23.351  24.125  1.00  0.00    -0.320 N 
ATOM     15  C   UNL A   1      31.917  23.102  25.320  1.00  0.00     0.276 C 
ATOM     16  H   UNL A   1      30.514  22.677  23.856  1.00  0.00     0.170 HD
ATOM     17  O   UNL A   1      32.136  23.913  26.209  1.00  0.00    -0.267 OA
BRANCH  15  18
ATOM     18  C   UNL A   1      32.645  21.720  25.340  1.00  0.00     0.157 A 
ATOM     19  N   UNL A   1      31.832  20.763  24.996  1.00  0.00    -0.164 NA
ATOM     20  C   UNL A   1      34.145  21.489  25.434  1.00  0.00     0.020 A 
ATOM     21  N   UNL A   1      32.372  19.601  24.521  1.00  0.00    -0.232 N 
ATOM     22  C   UNL A   1      34.583  20.175  25.191  1.00  0.00     0.051 A 
ATOM     23  C   UNL A   1      35.148  22.461  25.577  1.00  0.00     0.011 A 
ATOM     24  C   UNL A   1      32.165  19.457  23.093  1.00  0.00     0.178 C 
ATOM     25  C   UNL A   1      33.596  19.116  24.951  1.00  0.00     0.274 A 
ATOM     26  C   UNL A   1      35.933  19.848  24.954  1.00  0.00     0.014 A 
ATOM     27  C   UNL A   1      36.513  22.133  25.351  1.00  0.00     0.001 A 
ATOM     28  O   UNL A   1      33.927  17.936  24.923  1.00  0.00    -0.267 OA
ATOM     29  C   UNL A   1      36.900  20.838  25.003  1.00  0.00     0.001 A 
ENDBRANCH  15  18
ENDBRANCH  11  14
ENDBRANCH   5   7
ENDBRANCH   4   5
ENDBRANCH   3   4
ENDBRANCH   2   3
ENDBRANCH   1   2
BRANCH   1  30
ATOM     30  C   UNL A   1      33.478  29.942  26.516  1.00  0.00     0.202 C 
BRANCH  30  31
ATOM     31  C   UNL A   1      33.306  31.281  27.247  1.00  0.00     0.261 C 
BRANCH  31  32
ATOM     32  O   UNL A   1      34.205  31.319  28.380  1.00  0.00    -0.460 OA
BRANCH  32  33
ATOM     33  C   UNL A   1      35.512  31.608  28.120  1.00  0.00     0.338 C 
ATOM     34  O   UNL A   1      35.923  32.647  27.628  1.00  0.00    -0.246 OA
BRANCH  33  35
ATOM     35  C   UNL A   1      36.340  30.365  28.230  1.00  0.00     0.060 A 
ATOM     36  C   UNL A   1      36.309  29.597  29.410  1.00  0.00     0.016 A 
ATOM     37  C   UNL A   1      37.376  30.173  27.316  1.00  0.00     0.016 A 
ATOM     38  C   UNL A   1      37.399  28.774  29.748  1.00  0.00     0.010 A 
ATOM     39  C   UNL A   1      38.486  29.442  27.701  1.00  0.00     0.010 A 
ATOM     40  C   UNL A   1      38.534  28.782  28.941  1.00  0.00    -0.014 A 
BRANCH  40  41
ATOM     41  C   UNL A   1      39.868  28.293  29.323  1.00  0.00     0.031 A 
ATOM     42  C   UNL A   1      40.245  26.910  29.012  1.00  0.00     0.074 A 
ATOM     43  C   UNL A   1      40.856  29.147  29.681  1.00  0.00     0.049 A 
ATOM     44  N   UNL A   1      41.316  26.340  29.449  1.00  0.00    -0.248 NA
ATOM     45  C   UNL A   1      39.402  26.013  28.228  1.00  0.00     0.031 C 
ATOM     46  C   UNL A   1      42.313  29.015  29.565  1.00  0.00     0.029 A 
ATOM     47  N   UNL A   1      40.727  30.366  30.329  1.00  0.00    -0.354 N 
ATOM     48  C   UNL A   1      41.512  25.244  28.650  1.00  0.00     0.074 A 
ATOM     49  C   UNL A   1      40.210  24.956  28.114  1.00  0.00     0.031 C 
ATOM     50  C   UNL A   1      42.914  29.904  30.378  1.00  0.00     0.029 A 
ATOM     51  C   UNL A   1      41.850  30.525  31.146  1.00  0.00     0.049 A 
ATOM     52  H   UNL A   1      39.983  31.002  30.231  1.00  0.00     0.167 HD
ATOM     53  C   UNL A   1      42.797  24.879  28.369  1.00  0.00     0.037 A 
ATOM     54  C   UNL A   1      41.708  30.643  32.491  1.00  0.00     0.037 A 
ATOM     55  C   UNL A   1      43.754  25.621  29.213  1.00  0.00     0.049 A 
ATOM     56  C   UNL A   1      42.613  29.634  33.104  1.00  0.00     0.074 A 
ATOM     57  C   UNL A   1      44.734  26.563  28.947  1.00  0.00     0.029 A 
ATOM     58  N   UNL A   1      43.588  25.618  30.599  1.00  0.00    -0.354 N 
ATOM     59  N   UNL A   1      42.764  28.454  32.570  1.00  0.00    -0.248 NA
ATOM     60  C   UNL A   1      43.527  29.903  34.208  1.00  0.00     0.031 C 
ATOM     61  C   UNL A   1      45.122  27.155  30.183  1.00  0.00     0.029 A 
ATOM     62  C   UNL A   1      44.389  26.565  31.203  1.00  0.00     0.049 A 
ATOM     63  H   UNL A   1      42.978  25.018  31.085  1.00  0.00     0.167 HD
ATOM     64  C   UNL A   1      43.861  27.882  33.130  1.00  0.00     0.074 A 
ATOM     65  C   UNL A   1      44.261  28.776  34.204  1.00  0.00     0.031 C 
ATOM     66  C   UNL A   1      44.396  26.732  32.648  1.00  0.00     0.037 A 
BRANCH  53  67
ATOM     67  C   UNL A   1      43.232  24.037  27.175  1.00  0.00     0.064 A 
ATOM     68  C   UNL A   1      42.902  22.663  27.126  1.00  0.00     0.173 A 
ATOM     69  C   UNL A   1      44.033  24.469  26.093  1.00  0.00     0.173 A 
ATOM     70  F   UNL A   1      42.132  22.094  28.064  1.00  0.00    -0.203 F 
ATOM     71  C   UNL A   1      43.353  21.807  26.113  1.00  0.00     0.198 A 
ATOM     72  C   UNL A   1      44.447  23.623  25.059  1.00  0.00     0.198 A 
ATOM     73  F   UNL A   1      44.493  25.714  25.979  1.00  0.00    -0.203 F 
ATOM     74  F   UNL A   1      43.042  20.504  26.158  1.00  0.00    -0.200 F 
ATOM     75  C   UNL A   1      44.118  22.289  25.074  1.00  0.00     0.200 A 
ATOM     76  F   UNL A   1      45.185  24.121  24.056  1.00  0.00    -0.200 F 
ATOM     77  F   UNL A   1      44.539  21.476  24.096  1.00  0.00    -0.200 F 
ENDBRANCH  53  67
BRANCH  54  78
ATOM     78  C   UNL A   1      40.298  30.990  32.858  1.00  0.00     0.064 A 
ATOM     79  C   UNL A   1      39.904  32.348  32.733  1.00  0.00     0.173 A 
ATOM     80  C   UNL A   1      39.266  30.057  32.949  1.00  0.00     0.173 A 
ATOM     81  F   UNL A   1      40.832  33.288  32.487  1.00  0.00    -0.203 F 
ATOM     82  C   UNL A   1      38.576  32.751  32.669  1.00  0.00     0.198 A 
ATOM     83  C   UNL A   1      37.923  30.463  32.878  1.00  0.00     0.198 A 
ATOM     84  F   UNL A   1      39.537  28.746  32.997  1.00  0.00    -0.203 F 
ATOM     85  F   UNL A   1      38.282  34.040  32.443  1.00  0.00    -0.200 F 
ATOM     86  C   UNL A   1      37.582  31.803  32.732  1.00  0.00     0.200 A 
ATOM     87  F   UNL A   1      36.951  29.541  32.849  1.00  0.00    -0.200 F 
ATOM     88  F   UNL A   1      36.304  32.169  32.565  1.00  0.00    -0.200 F 
ENDBRANCH  54  78
BRANCH  66  89
ATOM     89  C   UNL A   1      44.951  25.682  33.559  1.00  0.00     0.064 A 
ATOM     90  C   UNL A   1      44.131  24.851  34.347  1.00  0.00     0.173 A 
ATOM     91  C   UNL A   1      46.313  25.325  33.493  1.00  0.00     0.173 A 
ATOM     92  F   UNL A   1      42.800  25.006  34.389  1.00  0.00    -0.203 F 
ATOM     93  C   UNL A   1      44.646  23.781  35.069  1.00  0.00     0.198 A 
ATOM     94  C   UNL A   1      46.813  24.216  34.170  1.00  0.00     0.198 A 
ATOM     95  F   UNL A   1      47.183  26.003  32.732  1.00  0.00    -0.203 F 
ATOM     96  F   UNL A   1      43.826  23.042  35.828  1.00  0.00    -0.200 F 
ATOM     97  C   UNL A   1      45.984  23.456  34.972  1.00  0.00     0.200 A 
ATOM     98  F   UNL A   1      48.098  23.868  34.014  1.00  0.00    -0.200 F 
ATOM     99  F   UNL A   1      46.467  22.397  35.631  1.00  0.00    -0.200 F 
ENDBRANCH  66  89
ENDBRANCH  40  41
ENDBRANCH  33  35
ENDBRANCH  32  33
ENDBRANCH  31  32
ENDBRANCH  30  31
ENDBRANCH   1  30
TORSDOF 16
ENDMDL
MODEL 2
REMARK VINA RESULT:     -12.6      2.661      3.955
REMARK SMILES Cc1ccc(C(=O)OCCOCCOC(=O)c2ccc(-c3c4nc(c(-c5c(F)c(F)c(F)c(F)c5F)c5ccc([nH]5)c(-c5c(F)c(F)c(F)c(F)c5F)c5nc(c(-c6c(F)c(F)c(F)c(F)c6F)c6ccc3[nH]6)C=C5)C=C4)cc2)cc1NC(=O)c1nn(C)c(=O)c2ccccc12
REMARK SMILES IDX 11 1 10 2 9 3 8 4 6 5 7 6 5 7 1 8 2 9 3 10 81 11 4 12 80 13
REMARK SMILES IDX 82 14 83 15 84 17 85 18 86 19 96 20 87 21 91 22 95 23 88 24
REMARK SMILES IDX 89 25 92 26 94 27 90 28 93 29 12 30 13 31 14 32 15 33 16 34
REMARK SMILES IDX 17 35 18 36 79 37 19 38 78 39 20 40 21 41 22 42 72 43 23 44
REMARK SMILES IDX 77 45 71 46 73 47 24 48 76 49 70 50 69 51 25 53 57 54 37 55
REMARK SMILES IDX 56 56 38 57 41 58 55 59 74 60 39 61 40 62 54 64 75 65 42 66
REMARK SMILES IDX 26 67 27 68 35 69 28 70 29 71 33 72 36 73 30 74 31 75 34 76
REMARK SMILES IDX 32 77 58 78 59 79 67 80 60 81 61 82 65 83 68 84 62 85 63 86
REMARK SMILES IDX 66 87 64 88 43 89 44 90 52 91 45 92 46 93 50 94 53 95 47 96
REMARK SMILES IDX 48 97 51 98 49 99
REMARK H PARENT 82 16 73 52 41 63
REMARK Flexibility Score: inf
ROOT
ATOM      1  O   UNL A   1      34.117  32.066  28.117  1.00  0.00    -0.374 OA
ENDROOT
BRANCH   1   2
ATOM      2  C   UNL A   1      33.231  31.492  27.176  1.00  0.00     0.202 C 
BRANCH   2   3
ATOM      3  C   UNL A   1      33.174  30.050  27.528  1.00  0.00     0.261 C 
BRANCH   3   4
ATOM      4  O   UNL A   1      32.295  29.350  26.657  1.00  0.00    -0.460 OA
BRANCH   4   5
ATOM      5  C   UNL A   1      31.675  28.183  27.025  1.00  0.00     0.338 C 
ATOM      6  O   UNL A   1      31.427  27.753  28.109  1.00  0.00    -0.246 OA
BRANCH   5   7
ATOM      7  C   UNL A   1      31.216  27.672  25.710  1.00  0.00     0.062 A 
ATOM      8  C   UNL A   1      32.084  25.216  22.370  1.00  0.00     0.046 C 
ATOM      9  C   UNL A   1      31.676  25.997  23.586  1.00  0.00    -0.027 A 
ATOM     10  C   UNL A   1      32.025  27.380  23.518  1.00  0.00     0.006 A 
ATOM     11  C   UNL A   1      30.985  25.481  24.716  1.00  0.00     0.045 A 
ATOM     12  C   UNL A   1      31.839  28.216  24.603  1.00  0.00     0.016 A 
ATOM     13  C   UNL A   1      30.622  26.396  25.690  1.00  0.00     0.042 A 
BRANCH  11  14
ATOM     14  N   UNL A   1      30.920  24.084  25.075  1.00  0.00    -0.320 N 
ATOM     15  C   UNL A   1      31.519  23.499  26.231  1.00  0.00     0.276 C 
ATOM     16  H   UNL A   1      30.421  23.486  24.473  1.00  0.00     0.170 HD
ATOM     17  O   UNL A   1      31.476  23.952  27.366  1.00  0.00    -0.267 OA
BRANCH  15  18
ATOM     18  C   UNL A   1      32.457  22.290  25.917  1.00  0.00     0.157 A 
ATOM     19  N   UNL A   1      31.790  21.318  25.364  1.00  0.00    -0.164 NA
ATOM     20  C   UNL A   1      33.978  22.295  25.940  1.00  0.00     0.020 A 
ATOM     21  N   UNL A   1      32.484  20.403  24.623  1.00  0.00    -0.232 N 
ATOM     22  C   UNL A   1      34.606  21.164  25.390  1.00  0.00     0.051 A 
ATOM     23  C   UNL A   1      34.819  23.359  26.299  1.00  0.00     0.011 A 
ATOM     24  C   UNL A   1      32.235  20.562  23.203  1.00  0.00     0.178 C 
ATOM     25  C   UNL A   1      33.789  20.041  24.915  1.00  0.00     0.274 A 
ATOM     26  C   UNL A   1      35.978  21.129  25.070  1.00  0.00     0.014 A 
ATOM     27  C   UNL A   1      36.206  23.323  25.991  1.00  0.00     0.001 A 
ATOM     28  O   UNL A   1      34.301  18.971  24.606  1.00  0.00    -0.267 OA
ATOM     29  C   UNL A   1      36.777  22.226  25.343  1.00  0.00     0.001 A 
ENDBRANCH  15  18
ENDBRANCH  11  14
ENDBRANCH   5   7
ENDBRANCH   4   5
ENDBRANCH   3   4
ENDBRANCH   2   3
ENDBRANCH   1   2
BRANCH   1  30
ATOM     30  C   UNL A   1      34.221  33.472  28.039  1.00  0.00     0.202 C 
BRANCH  30  31
ATOM     31  C   UNL A   1      33.666  34.171  29.288  1.00  0.00     0.261 C 
BRANCH  31  32
ATOM     32  O   UNL A   1      33.942  33.353  30.449  1.00  0.00    -0.460 OA
BRANCH  32  33
ATOM     33  C   UNL A   1      34.074  34.000  31.642  1.00  0.00     0.338 C 
ATOM     34  O   UNL A   1      33.280  34.803  32.104  1.00  0.00    -0.246 OA
BRANCH  33  35
ATOM     35  C   UNL A   1      35.468  33.828  32.162  1.00  0.00     0.060 A 
ATOM     36  C   UNL A   1      36.564  34.311  31.420  1.00  0.00     0.016 A 
ATOM     37  C   UNL A   1      35.688  32.906  33.184  1.00  0.00     0.016 A 
ATOM     38  C   UNL A   1      37.839  33.741  31.588  1.00  0.00     0.010 A 
ATOM     39  C   UNL A   1      36.919  32.281  33.274  1.00  0.00     0.010 A 
ATOM     40  C   UNL A   1      37.990  32.651  32.442  1.00  0.00    -0.014 A 
BRANCH  40  41
ATOM     41  C   UNL A   1      39.128  31.718  32.457  1.00  0.00     0.031 A 
ATOM     42  C   UNL A   1      39.041  30.463  31.702  1.00  0.00     0.074 A 
ATOM     43  C   UNL A   1      40.351  32.104  32.893  1.00  0.00     0.049 A 
ATOM     44  N   UNL A   1      39.907  29.512  31.785  1.00  0.00    -0.248 NA
ATOM     45  C   UNL A   1      37.918  30.136  30.829  1.00  0.00     0.031 C 
ATOM     46  C   UNL A   1      41.686  31.622  32.522  1.00  0.00     0.029 A 
ATOM     47  N   UNL A   1      40.643  33.033  33.879  1.00  0.00    -0.354 N 
ATOM     48  C   UNL A   1      39.708  28.723  30.681  1.00  0.00     0.074 A 
ATOM     49  C   UNL A   1      38.351  28.994  30.291  1.00  0.00     0.031 C 
ATOM     50  C   UNL A   1      42.579  31.999  33.457  1.00  0.00     0.029 A 
ATOM     51  C   UNL A   1      41.805  32.605  34.525  1.00  0.00     0.049 A 
ATOM     52  H   UNL A   1      40.127  33.846  34.085  1.00  0.00     0.167 HD
ATOM     53  C   UNL A   1      40.798  28.131  30.114  1.00  0.00     0.037 A 
ATOM     54  C   UNL A   1      41.785  32.315  35.851  1.00  0.00     0.037 A 
ATOM     55  C   UNL A   1      41.985  28.267  30.981  1.00  0.00     0.049 A 
ATOM     56  C   UNL A   1      42.369  30.954  35.999  1.00  0.00     0.074 A 
ATOM     57  C   UNL A   1      43.191  28.937  30.854  1.00  0.00     0.029 A 
ATOM     58  N   UNL A   1      41.908  27.862  32.314  1.00  0.00    -0.354 N 
ATOM     59  N   UNL A   1      42.117  30.018  35.127  1.00  0.00    -0.248 NA
ATOM     60  C   UNL A   1      43.384  30.590  36.979  1.00  0.00     0.031 C 
ATOM     61  C   UNL A   1      43.815  28.965  32.135  1.00  0.00     0.029 A 
ATOM     62  C   UNL A   1      42.996  28.303  33.038  1.00  0.00     0.049 A 
ATOM     63  H   UNL A   1      41.171  27.328  32.691  1.00  0.00     0.167 HD
ATOM     64  C   UNL A   1      43.014  29.017  35.322  1.00  0.00     0.074 A 
ATOM     65  C   UNL A   1      43.732  29.369  36.535  1.00  0.00     0.031 C 
ATOM     66  C   UNL A   1      43.138  27.985  34.451  1.00  0.00     0.037 A 
BRANCH  53  67
ATOM     67  C   UNL A   1      40.882  27.635  28.675  1.00  0.00     0.064 A 
ATOM     68  C   UNL A   1      40.273  26.410  28.316  1.00  0.00     0.173 A 
ATOM     69  C   UNL A   1      41.597  28.246  27.618  1.00  0.00     0.173 A 
ATOM     70  F   UNL A   1      39.540  25.711  29.193  1.00  0.00    -0.203 F 
ATOM     71  C   UNL A   1      40.394  25.845  27.041  1.00  0.00     0.198 A 
ATOM     72  C   UNL A   1      41.680  27.701  26.333  1.00  0.00     0.198 A 
ATOM     73  F   UNL A   1      42.282  29.379  27.763  1.00  0.00    -0.203 F 
ATOM     74  F   UNL A   1      39.831  24.655  26.788  1.00  0.00    -0.200 F 
ATOM     75  C   UNL A   1      41.089  26.495  26.046  1.00  0.00     0.200 A 
ATOM     76  F   UNL A   1      42.359  28.360  25.382  1.00  0.00    -0.200 F 
ATOM     77  F   UNL A   1      41.195  25.963  24.821  1.00  0.00    -0.200 F 
ENDBRANCH  53  67
BRANCH  54  78
ATOM     78  C   UNL A   1      40.576  32.898  36.514  1.00  0.00     0.064 A 
ATOM     79  C   UNL A   1      39.431  32.066  36.636  1.00  0.00     0.173 A 
ATOM     80  C   UNL A   1      40.604  34.027  37.332  1.00  0.00     0.173 A 
ATOM     81  F   UNL A   1      39.400  30.884  35.998  1.00  0.00    -0.203 F 
ATOM     82  C   UNL A   1      38.401  32.318  37.534  1.00  0.00     0.198 A 
ATOM     83  C   UNL A   1      39.566  34.279  38.243  1.00  0.00     0.198 A 
ATOM     84  F   UNL A   1      41.674  34.832  37.340  1.00  0.00    -0.203 F 
ATOM     85  F   UNL A   1      37.404  31.430  37.668  1.00  0.00    -0.200 F 
ATOM     86  C   UNL A   1      38.474  33.425  38.347  1.00  0.00     0.200 A 
ATOM     87  F   UNL A   1      39.669  35.303  39.101  1.00  0.00    -0.200 F 
ATOM     88  F   UNL A   1      37.540  33.619  39.288  1.00  0.00    -0.200 F 
ENDBRANCH  54  78
BRANCH  66  89
ATOM     89  C   UNL A   1      43.394  26.587  34.920  1.00  0.00     0.064 A 
ATOM     90  C   UNL A   1      42.357  25.659  35.139  1.00  0.00     0.173 A 
ATOM     91  C   UNL A   1      44.704  26.067  34.942  1.00  0.00     0.173 A 
ATOM     92  F   UNL A   1      41.066  25.998  35.016  1.00  0.00    -0.203 F 
ATOM     93  C   UNL A   1      42.614  24.323  35.425  1.00  0.00     0.198 A 
ATOM     94  C   UNL A   1      44.953  24.717  35.169  1.00  0.00     0.198 A 
ATOM     95  F   UNL A   1      45.772  26.839  34.692  1.00  0.00    -0.203 F 
ATOM     96  F   UNL A   1      41.591  23.490  35.656  1.00  0.00    -0.200 F 
ATOM     97  C   UNL A   1      43.910  23.850  35.428  1.00  0.00     0.200 A 
ATOM     98  F   UNL A   1      46.210  24.254  35.101  1.00  0.00    -0.200 F 
ATOM     99  F   UNL A   1      44.151  22.553  35.657  1.00  0.00    -0.200 F 
ENDBRANCH  66  89
ENDBRANCH  40  41
ENDBRANCH  33  35
ENDBRANCH  32  33
ENDBRANCH  31  32
ENDBRANCH  30  31
ENDBRANCH   1  30
TORSDOF 16
ENDMDL
MODEL 3
REMARK VINA RESULT:     -12.4      3.966      9.687
REMARK SMILES Cc1ccc(C(=O)OCCOCCOC(=O)c2ccc(-c3c4nc(c(-c5c(F)c(F)c(F)c(F)c5F)c5ccc([nH]5)c(-c5c(F)c(F)c(F)c(F)c5F)c5nc(c(-c6c(F)c(F)c(F)c(F)c6F)c6ccc3[nH]6)C=C5)C=C4)cc2)cc1NC(=O)c1nn(C)c(=O)c2ccccc12
REMARK SMILES IDX 11 1 10 2 9 3 8 4 6 5 7 6 5 7 1 8 2 9 3 10 81 11 4 12 80 13
REMARK SMILES IDX 82 14 83 15 84 17 85 18 86 19 96 20 87 21 91 22 95 23 88 24
REMARK SMILES IDX 89 25 92 26 94 27 90 28 93 29 12 30 13 31 14 32 15 33 16 34
REMARK SMILES IDX 17 35 18 36 79 37 19 38 78 39 20 40 21 41 22 42 72 43 23 44
REMARK SMILES IDX 77 45 71 46 73 47 24 48 76 49 70 50 69 51 25 53 57 54 37 55
REMARK SMILES IDX 56 56 38 57 41 58 55 59 74 60 39 61 40 62 54 64 75 65 42 66
REMARK SMILES IDX 26 67 27 68 35 69 28 70 29 71 33 72 36 73 30 74 31 75 34 76
REMARK SMILES IDX 32 77 58 78 59 79 67 80 60 81 61 82 65 83 68 84 62 85 63 86
REMARK SMILES IDX 66 87 64 88 43 89 44 90 52 91 45 92 46 93 50 94 53 95 47 96
REMARK SMILES IDX 48 97 51 98 49 99
REMARK H PARENT 82 16 73 52 41 63
REMARK Flexibility Score: inf
ROOT
ATOM      1  O   UNL A   1      39.205  22.264  26.601  1.00  0.00    -0.374 OA
ENDROOT
BRANCH   1   2
ATOM      2  C   UNL A   1      39.029  23.667  26.567  1.00  0.00     0.202 C 
BRANCH   2   3
ATOM      3  C   UNL A   1      37.810  23.884  25.747  1.00  0.00     0.261 C 
BRANCH   3   4
ATOM      4  O   UNL A   1      37.456  22.699  25.043  1.00  0.00    -0.460 OA
BRANCH   4   5
ATOM      5  C   UNL A   1      36.628  22.717  23.951  1.00  0.00     0.338 C 
ATOM      6  O   UNL A   1      36.882  22.854  22.794  1.00  0.00    -0.246 OA
BRANCH   5   7
ATOM      7  C   UNL A   1      35.333  22.327  24.563  1.00  0.00     0.062 A 
ATOM      8  C   UNL A   1      32.932  22.314  28.053  1.00  0.00     0.046 C 
ATOM      9  C   UNL A   1      33.692  22.407  26.761  1.00  0.00    -0.027 A 
ATOM     10  C   UNL A   1      34.513  21.268  26.500  1.00  0.00     0.006 A 
ATOM     11  C   UNL A   1      33.628  23.479  25.831  1.00  0.00     0.045 A 
ATOM     12  C   UNL A   1      35.377  21.244  25.421  1.00  0.00     0.016 A 
ATOM     13  C   UNL A   1      34.342  23.322  24.654  1.00  0.00     0.042 A 
BRANCH  11  14
ATOM     14  N   UNL A   1      33.163  24.811  26.139  1.00  0.00    -0.320 N 
ATOM     15  C   UNL A   1      31.803  25.242  26.092  1.00  0.00     0.276 C 
ATOM     16  H   UNL A   1      33.839  25.476  26.402  1.00  0.00     0.170 HD
ATOM     17  O   UNL A   1      30.844  24.635  26.547  1.00  0.00    -0.267 OA
BRANCH  15  18
ATOM     18  C   UNL A   1      31.566  26.503  25.202  1.00  0.00     0.157 A 
ATOM     19  N   UNL A   1      30.874  26.198  24.141  1.00  0.00    -0.164 NA
ATOM     20  C   UNL A   1      31.807  27.951  25.600  1.00  0.00     0.020 A 
ATOM     21  N   UNL A   1      30.194  27.200  23.507  1.00  0.00    -0.232 N 
ATOM     22  C   UNL A   1      31.295  28.925  24.724  1.00  0.00     0.051 A 
ATOM     23  C   UNL A   1      32.336  28.423  26.811  1.00  0.00     0.011 A 
ATOM     24  C   UNL A   1      28.763  27.095  23.719  1.00  0.00     0.178 C 
ATOM     25  C   UNL A   1      30.651  28.507  23.473  1.00  0.00     0.274 A 
ATOM     26  C   UNL A   1      31.173  30.284  25.076  1.00  0.00     0.014 A 
ATOM     27  C   UNL A   1      32.228  29.795  27.165  1.00  0.00     0.001 A 
ATOM     28  O   UNL A   1      30.365  29.323  22.604  1.00  0.00    -0.267 OA
ATOM     29  C   UNL A   1      31.613  30.717  26.316  1.00  0.00     0.001 A 
ENDBRANCH  15  18
ENDBRANCH  11  14
ENDBRANCH   5   7
ENDBRANCH   4   5
ENDBRANCH   3   4
ENDBRANCH   2   3
ENDBRANCH   1   2
BRANCH   1  30
ATOM     30  C   UNL A   1      40.440  21.843  27.143  1.00  0.00     0.202 C 
BRANCH  30  31
ATOM     31  C   UNL A   1      41.206  20.908  26.197  1.00  0.00     0.261 C 
BRANCH  31  32
ATOM     32  O   UNL A   1      41.999  21.704  25.286  1.00  0.00    -0.460 OA
BRANCH  32  33
ATOM     33  C   UNL A   1      43.339  21.453  25.253  1.00  0.00     0.338 C 
ATOM     34  O   UNL A   1      43.851  20.364  25.046  1.00  0.00    -0.246 OA
BRANCH  33  35
ATOM     35  C   UNL A   1      44.090  22.622  25.811  1.00  0.00     0.060 A 
ATOM     36  C   UNL A   1      44.362  22.694  27.191  1.00  0.00     0.016 A 
ATOM     37  C   UNL A   1      44.207  23.772  25.031  1.00  0.00     0.016 A 
ATOM     38  C   UNL A   1      44.577  23.941  27.807  1.00  0.00     0.010 A 
ATOM     39  C   UNL A   1      44.318  25.001  25.655  1.00  0.00     0.010 A 
ATOM     40  C   UNL A   1      44.448  25.104  27.051  1.00  0.00    -0.014 A 
BRANCH  40  41
ATOM     41  C   UNL A   1      44.270  26.464  27.584  1.00  0.00     0.031 A 
ATOM     42  C   UNL A   1      42.944  27.091  27.530  1.00  0.00     0.074 A 
ATOM     43  C   UNL A   1      45.202  27.037  28.381  1.00  0.00     0.049 A 
ATOM     44  N   UNL A   1      42.722  28.328  27.814  1.00  0.00    -0.248 NA
ATOM     45  C   UNL A   1      41.749  26.387  27.076  1.00  0.00     0.031 C 
ATOM     46  C   UNL A   1      45.058  28.050  29.433  1.00  0.00     0.029 A 
ATOM     47  N   UNL A   1      46.575  26.848  28.348  1.00  0.00    -0.354 N 
ATOM     48  C   UNL A   1      41.372  28.429  28.031  1.00  0.00     0.074 A 
ATOM     49  C   UNL A   1      40.814  27.306  27.327  1.00  0.00     0.031 C 
ATOM     50  C   UNL A   1      46.258  28.603  29.695  1.00  0.00     0.029 A 
ATOM     51  C   UNL A   1      47.172  28.059  28.708  1.00  0.00     0.049 A 
ATOM     52  H   UNL A   1      47.043  26.013  28.114  1.00  0.00     0.167 HD
ATOM     53  C   UNL A   1      40.940  29.314  28.975  1.00  0.00     0.037 A 
ATOM     54  C   UNL A   1      47.993  28.703  27.839  1.00  0.00     0.037 A 
ATOM     55  C   UNL A   1      42.039  30.195  29.416  1.00  0.00     0.049 A 
ATOM     56  C   UNL A   1      47.491  30.101  27.738  1.00  0.00     0.074 A 
ATOM     57  C   UNL A   1      42.710  30.361  30.617  1.00  0.00     0.029 A 
ATOM     58  N   UNL A   1      42.780  30.895  28.461  1.00  0.00    -0.354 N 
ATOM     59  N   UNL A   1      46.213  30.357  27.733  1.00  0.00    -0.248 NA
ATOM     60  C   UNL A   1      48.331  31.290  27.818  1.00  0.00     0.031 C 
ATOM     61  C   UNL A   1      43.882  31.130  30.363  1.00  0.00     0.029 A 
ATOM     62  C   UNL A   1      43.919  31.444  29.012  1.00  0.00     0.049 A 
ATOM     63  H   UNL A   1      42.522  30.985  27.515  1.00  0.00     0.167 HD
ATOM     64  C   UNL A   1      46.055  31.686  27.960  1.00  0.00     0.074 A 
ATOM     65  C   UNL A   1      47.394  32.249  27.924  1.00  0.00     0.031 C 
ATOM     66  C   UNL A   1      44.838  32.233  28.206  1.00  0.00     0.037 A 
BRANCH  53  67
ATOM     67  C   UNL A   1      39.597  29.251  29.693  1.00  0.00     0.064 A 
ATOM     68  C   UNL A   1      38.444  29.792  29.079  1.00  0.00     0.173 A 
ATOM     69  C   UNL A   1      39.368  28.760  30.999  1.00  0.00     0.173 A 
ATOM     70  F   UNL A   1      38.481  30.283  27.833  1.00  0.00    -0.203 F 
ATOM     71  C   UNL A   1      37.201  29.860  29.719  1.00  0.00     0.198 A 
ATOM     72  C   UNL A   1      38.115  28.788  31.621  1.00  0.00     0.198 A 
ATOM     73  F   UNL A   1      40.333  28.255  31.767  1.00  0.00    -0.203 F 
ATOM     74  F   UNL A   1      36.163  30.433  29.093  1.00  0.00    -0.200 F 
ATOM     75  C   UNL A   1      37.034  29.348  30.987  1.00  0.00     0.200 A 
ATOM     76  F   UNL A   1      37.981  28.277  32.854  1.00  0.00    -0.200 F 
ATOM     77  F   UNL A   1      35.842  29.399  31.596  1.00  0.00    -0.200 F 
ENDBRANCH  53  67
BRANCH  54  78
ATOM     78  C   UNL A   1      48.453  27.787  26.748  1.00  0.00     0.064 A 
ATOM     79  C   UNL A   1      47.731  27.809  25.526  1.00  0.00     0.173 A 
ATOM     80  C   UNL A   1      49.719  27.206  26.702  1.00  0.00     0.173 A 
ATOM     81  F   UNL A   1      46.572  28.486  25.452  1.00  0.00    -0.203 F 
ATOM     82  C   UNL A   1      48.245  27.321  24.331  1.00  0.00     0.198 A 
ATOM     83  C   UNL A   1      50.242  26.717  25.494  1.00  0.00     0.198 A 
ATOM     84  F   UNL A   1      50.505  27.203  27.787  1.00  0.00    -0.203 F 
ATOM     85  F   UNL A   1      47.547  27.473  23.195  1.00  0.00    -0.200 F 
ATOM     86  C   UNL A   1      49.510  26.781  24.314  1.00  0.00     0.200 A 
ATOM     87  F   UNL A   1      51.504  26.271  25.448  1.00  0.00    -0.200 F 
ATOM     88  F   UNL A   1      50.054  26.403  23.149  1.00  0.00    -0.200 F 
ENDBRANCH  54  78
BRANCH  66  89
ATOM     89  C   UNL A   1      44.455  33.574  27.663  1.00  0.00     0.064 A 
ATOM     90  C   UNL A   1      43.917  33.744  26.373  1.00  0.00     0.173 A 
ATOM     91  C   UNL A   1      44.402  34.701  28.508  1.00  0.00     0.173 A 
ATOM     92  F   UNL A   1      43.789  32.718  25.519  1.00  0.00    -0.203 F 
ATOM     93  C   UNL A   1      43.423  34.968  25.937  1.00  0.00     0.198 A 
ATOM     94  C   UNL A   1      43.851  35.907  28.087  1.00  0.00     0.198 A 
ATOM     95  F   UNL A   1      44.831  34.649  29.777  1.00  0.00    -0.203 F 
ATOM     96  F   UNL A   1      42.952  35.082  24.688  1.00  0.00    -0.200 F 
ATOM     97  C   UNL A   1      43.379  36.046  26.797  1.00  0.00     0.200 A 
ATOM     98  F   UNL A   1      43.750  36.927  28.952  1.00  0.00    -0.200 F 
ATOM     99  F   UNL A   1      42.859  37.210  26.389  1.00  0.00    -0.200 F 
ENDBRANCH  66  89
ENDBRANCH  40  41
ENDBRANCH  33  35
ENDBRANCH  32  33
ENDBRANCH  31  32
ENDBRANCH  30  31
ENDBRANCH   1  30
TORSDOF 16
ENDMDL
