MODEL 1
REMARK VINA RESULT:     -11.3      0.000      0.000
REMARK SMILES COc1ccc(-c2ccc(C#N)c(S[C@@H](C)C(=O)OCCOCCOC(=O)c3ccc(-c4c5nc(c(-c6c(F)c(F)c(F)c(F)c6F)c6ccc([nH]6)c(-c6c(F)c(F)c(F)c(F)c6F)c6nc(c(-c7c(F)c(F)c(F)c(F)c7F)c7ccc4[nH]7)C=C6)C=C5)cc3)n2)cc1
REMARK SMILES IDX 21 1 20 2 19 3 17 4 18 5 15 6 16 7 14 8 13 9 7 10 8 11 91 12
REMARK SMILES IDX 9 13 10 14 6 15 3 16 4 17 93 18 5 19 92 20 2 21 1 22 11 23
REMARK SMILES IDX 12 24 22 25 23 26 24 27 25 28 26 29 27 30 28 31 29 32 90 33
REMARK SMILES IDX 30 34 89 35 31 36 32 37 33 38 83 39 34 40 88 41 82 42 84 43
REMARK SMILES IDX 35 44 87 45 81 46 80 47 36 49 68 50 48 51 67 52 49 53 52 54
REMARK SMILES IDX 66 55 85 56 50 57 51 58 65 60 86 61 53 62 37 63 38 64 46 65
REMARK SMILES IDX 39 66 40 67 44 68 47 69 41 70 42 71 45 72 43 73 69 74 70 75
REMARK SMILES IDX 78 76 71 77 72 78 76 79 79 80 73 81 74 82 77 83 75 84 54 85
REMARK SMILES IDX 55 86 63 87 56 88 57 89 61 90 64 91 58 92 59 93 62 94 60 95
REMARK H PARENT 84 48 52 59
REMARK Flexibility Score: inf
ROOT
ATOM      1  C   UNL A   1      33.959  33.004  28.846  1.00  0.00     0.202 C 
ENDROOT
BRANCH   1   2
ATOM      2  C   UNL A   1      34.567  31.947  27.926  1.00  0.00     0.261 C 
BRANCH   2   3
ATOM      3  O   UNL A   1      33.604  30.953  27.539  1.00  0.00    -0.462 OA
BRANCH   3   4
ATOM      4  C   UNL A   1      34.091  29.691  27.397  1.00  0.00     0.319 C 
ATOM      5  O   UNL A   1      35.204  29.336  27.773  1.00  0.00    -0.251 OA
BRANCH   4   6
ATOM      6  C   UNL A   1      33.108  28.709  26.784  1.00  0.00     0.160 C 
ATOM      7  C   UNL A   1      31.837  28.516  27.598  1.00  0.00     0.032 C 
BRANCH   6   8
ATOM      8  S   UNL A   1      33.737  27.159  26.037  1.00  0.00    -0.090 SA
BRANCH   8   9
ATOM      9  C   UNL A   1      32.644  26.487  24.798  1.00  0.00     0.115 A 
ATOM     10  C   UNL A   1      30.971  27.255  23.308  1.00  0.00     0.072 A 
ATOM     11  C   UNL A   1      30.846  25.993  22.748  1.00  0.00     0.030 A 
ATOM     12  N   UNL A   1      31.885  27.509  24.276  1.00  0.00    -0.240 NA
ATOM     13  C   UNL A   1      31.598  24.955  23.266  1.00  0.00     0.024 A 
ATOM     14  C   UNL A   1      32.473  25.183  24.338  1.00  0.00     0.084 A 
BRANCH  10  15
ATOM     15  C   UNL A   1      30.072  28.342  22.880  1.00  0.00     0.000 A 
ATOM     16  C   UNL A   1      28.217  30.219  21.842  1.00  0.00     0.118 A 
ATOM     17  C   UNL A   1      29.585  30.350  21.589  1.00  0.00     0.047 A 
ATOM     18  C   UNL A   1      27.776  29.175  22.647  1.00  0.00     0.047 A 
ATOM     19  C   UNL A   1      30.507  29.440  22.127  1.00  0.00     0.014 A 
ATOM     20  C   UNL A   1      28.695  28.252  23.158  1.00  0.00     0.014 A 
BRANCH  16  21
ATOM     21  O   UNL A   1      27.410  31.129  21.216  1.00  0.00    -0.497 OA
ATOM     22  C   UNL A   1      28.055  32.273  20.666  1.00  0.00     0.278 C 
ENDBRANCH  16  21
ENDBRANCH  10  15
BRANCH  14  23
ATOM     23  C   UNL A   1      33.075  24.012  24.884  1.00  0.00     0.102 C 
ATOM     24  N   UNL A   1      33.501  23.042  25.351  1.00  0.00    -0.192 NA
ENDBRANCH  14  23
ENDBRANCH   8   9
ENDBRANCH   6   8
ENDBRANCH   4   6
ENDBRANCH   3   4
ENDBRANCH   2   3
ENDBRANCH   1   2
BRANCH   1  25
ATOM     25  O   UNL A   1      34.746  34.142  29.179  1.00  0.00    -0.374 OA
BRANCH  25  26
ATOM     26  C   UNL A   1      35.197  34.301  30.522  1.00  0.00     0.202 C 
BRANCH  26  27
ATOM     27  C   UNL A   1      34.422  33.612  31.656  1.00  0.00     0.261 C 
BRANCH  27  28
ATOM     28  O   UNL A   1      34.775  32.234  31.873  1.00  0.00    -0.460 OA
BRANCH  28  29
ATOM     29  C   UNL A   1      35.845  32.050  32.685  1.00  0.00     0.338 C 
ATOM     30  O   UNL A   1      35.949  32.349  33.862  1.00  0.00    -0.246 OA
BRANCH  29  31
ATOM     31  C   UNL A   1      36.880  31.273  31.985  1.00  0.00     0.060 A 
ATOM     32  C   UNL A   1      37.955  30.764  32.720  1.00  0.00     0.016 A 
ATOM     33  C   UNL A   1      36.864  31.181  30.597  1.00  0.00     0.016 A 
ATOM     34  C   UNL A   1      39.036  30.182  32.058  1.00  0.00     0.010 A 
ATOM     35  C   UNL A   1      37.942  30.589  29.934  1.00  0.00     0.010 A 
ATOM     36  C   UNL A   1      39.051  30.116  30.658  1.00  0.00    -0.014 A 
BRANCH  36  37
ATOM     37  C   UNL A   1      40.276  29.675  29.945  1.00  0.00     0.031 A 
ATOM     38  C   UNL A   1      41.398  30.655  29.729  1.00  0.00     0.074 A 
ATOM     39  C   UNL A   1      40.393  28.408  29.505  1.00  0.00     0.049 A 
ATOM     40  N   UNL A   1      42.526  30.497  29.082  1.00  0.00    -0.248 NA
ATOM     41  C   UNL A   1      41.222  31.993  30.313  1.00  0.00     0.031 C 
ATOM     42  C   UNL A   1      39.394  27.357  29.684  1.00  0.00     0.029 A 
ATOM     43  N   UNL A   1      41.406  27.796  28.809  1.00  0.00    -0.354 N 
ATOM     44  C   UNL A   1      43.184  31.719  29.171  1.00  0.00     0.074 A 
ATOM     45  C   UNL A   1      42.312  32.618  29.894  1.00  0.00     0.031 C 
ATOM     46  C   UNL A   1      39.844  26.227  29.112  1.00  0.00     0.029 A 
ATOM     47  C   UNL A   1      41.139  26.488  28.489  1.00  0.00     0.049 A 
ATOM     48  H   UNL A   1      42.243  28.251  28.564  1.00  0.00     0.167 HD
ATOM     49  C   UNL A   1      44.410  32.055  28.701  1.00  0.00     0.037 A 
ATOM     50  C   UNL A   1      41.848  25.608  27.754  1.00  0.00     0.037 A 
ATOM     51  C   UNL A   1      45.276  31.155  27.983  1.00  0.00     0.049 A 
ATOM     52  C   UNL A   1      43.175  26.032  27.174  1.00  0.00     0.074 A 
ATOM     53  C   UNL A   1      46.546  31.392  27.489  1.00  0.00     0.029 A 
ATOM     54  N   UNL A   1      44.955  29.847  27.647  1.00  0.00    -0.354 N 
ATOM     55  N   UNL A   1      43.802  27.178  27.287  1.00  0.00    -0.248 NA
ATOM     56  C   UNL A   1      43.893  25.036  26.366  1.00  0.00     0.031 C 
ATOM     57  C   UNL A   1      46.962  30.256  26.788  1.00  0.00     0.029 A 
ATOM     58  C   UNL A   1      45.988  29.280  26.917  1.00  0.00     0.049 A 
ATOM     59  H   UNL A   1      44.117  29.391  27.890  1.00  0.00     0.167 HD
ATOM     60  C   UNL A   1      45.001  27.027  26.600  1.00  0.00     0.074 A 
ATOM     61  C   UNL A   1      45.019  25.675  26.085  1.00  0.00     0.031 C 
ATOM     62  C   UNL A   1      45.998  27.928  26.415  1.00  0.00     0.037 A 
BRANCH  49  63
ATOM     63  C   UNL A   1      44.878  33.467  28.918  1.00  0.00     0.064 A 
ATOM     64  C   UNL A   1      45.652  33.832  30.031  1.00  0.00     0.173 A 
ATOM     65  C   UNL A   1      44.580  34.465  27.976  1.00  0.00     0.173 A 
ATOM     66  F   UNL A   1      45.960  32.922  30.967  1.00  0.00    -0.203 F 
ATOM     67  C   UNL A   1      46.080  35.146  30.208  1.00  0.00     0.198 A 
ATOM     68  C   UNL A   1      45.041  35.768  28.136  1.00  0.00     0.198 A 
ATOM     69  F   UNL A   1      43.851  34.171  26.888  1.00  0.00    -0.203 F 
ATOM     70  F   UNL A   1      46.769  35.482  31.307  1.00  0.00    -0.200 F 
ATOM     71  C   UNL A   1      45.782  36.110  29.257  1.00  0.00     0.200 A 
ATOM     72  F   UNL A   1      44.770  36.693  27.204  1.00  0.00    -0.200 F 
ATOM     73  F   UNL A   1      46.204  37.371  29.423  1.00  0.00    -0.200 F 
ENDBRANCH  49  63
BRANCH  50  74
ATOM     74  C   UNL A   1      41.314  24.242  27.508  1.00  0.00     0.064 A 
ATOM     75  C   UNL A   1      41.909  23.114  28.091  1.00  0.00     0.173 A 
ATOM     76  C   UNL A   1      40.214  24.032  26.662  1.00  0.00     0.173 A 
ATOM     77  F   UNL A   1      42.977  23.258  28.889  1.00  0.00    -0.203 F 
ATOM     78  C   UNL A   1      41.443  21.830  27.816  1.00  0.00     0.198 A 
ATOM     79  C   UNL A   1      39.725  22.750  26.418  1.00  0.00     0.198 A 
ATOM     80  F   UNL A   1      39.605  25.076  26.080  1.00  0.00    -0.203 F 
ATOM     81  F   UNL A   1      42.069  20.767  28.338  1.00  0.00    -0.200 F 
ATOM     82  C   UNL A   1      40.347  21.650  26.984  1.00  0.00     0.200 A 
ATOM     83  F   UNL A   1      38.656  22.585  25.628  1.00  0.00    -0.200 F 
ATOM     84  F   UNL A   1      39.899  20.415  26.722  1.00  0.00    -0.200 F 
ENDBRANCH  50  74
BRANCH  62  85
ATOM     85  C   UNL A   1      47.221  27.470  25.666  1.00  0.00     0.064 A 
ATOM     86  C   UNL A   1      47.352  27.641  24.279  1.00  0.00     0.173 A 
ATOM     87  C   UNL A   1      48.295  26.886  26.355  1.00  0.00     0.173 A 
ATOM     88  F   UNL A   1      46.352  28.183  23.568  1.00  0.00    -0.203 F 
ATOM     89  C   UNL A   1      48.496  27.215  23.609  1.00  0.00     0.198 A 
ATOM     90  C   UNL A   1      49.454  26.498  25.689  1.00  0.00     0.198 A 
ATOM     91  F   UNL A   1      48.230  26.706  27.684  1.00  0.00    -0.203 F 
ATOM     92  F   UNL A   1      48.572  27.333  22.276  1.00  0.00    -0.200 F 
ATOM     93  C   UNL A   1      49.548  26.652  24.315  1.00  0.00     0.200 A 
ATOM     94  F   UNL A   1      50.478  25.975  26.377  1.00  0.00    -0.200 F 
ATOM     95  F   UNL A   1      50.652  26.251  23.668  1.00  0.00    -0.200 F 
ENDBRANCH  62  85
ENDBRANCH  36  37
ENDBRANCH  29  31
ENDBRANCH  28  29
ENDBRANCH  27  28
ENDBRANCH  26  27
ENDBRANCH  25  26
ENDBRANCH   1  25
TORSDOF 19
ENDMDL
MODEL 2
REMARK VINA RESULT:     -11.1      1.467      7.826
REMARK SMILES COc1ccc(-c2ccc(C#N)c(S[C@@H](C)C(=O)OCCOCCOC(=O)c3ccc(-c4c5nc(c(-c6c(F)c(F)c(F)c(F)c6F)c6ccc([nH]6)c(-c6c(F)c(F)c(F)c(F)c6F)c6nc(c(-c7c(F)c(F)c(F)c(F)c7F)c7ccc4[nH]7)C=C6)C=C5)cc3)n2)cc1
REMARK SMILES IDX 21 1 20 2 19 3 17 4 18 5 15 6 16 7 14 8 13 9 7 10 8 11 91 12
REMARK SMILES IDX 9 13 10 14 6 15 3 16 4 17 93 18 5 19 92 20 2 21 1 22 11 23
REMARK SMILES IDX 12 24 22 25 23 26 24 27 25 28 26 29 27 30 28 31 29 32 90 33
REMARK SMILES IDX 30 34 89 35 31 36 32 37 33 38 83 39 34 40 88 41 82 42 84 43
REMARK SMILES IDX 35 44 87 45 81 46 80 47 36 49 68 50 48 51 67 52 49 53 52 54
REMARK SMILES IDX 66 55 85 56 50 57 51 58 65 60 86 61 53 62 37 63 38 64 46 65
REMARK SMILES IDX 39 66 40 67 44 68 47 69 41 70 42 71 45 72 43 73 69 74 70 75
REMARK SMILES IDX 78 76 71 77 72 78 76 79 79 80 73 81 74 82 77 83 75 84 54 85
REMARK SMILES IDX 55 86 63 87 56 88 57 89 61 90 64 91 58 92 59 93 62 94 60 95
REMARK H PARENT 84 48 52 59
REMARK Flexibility Score: inf
ROOT
ATOM      1  C   UNL A   1      34.713  33.474  28.906  1.00  0.00     0.202 C 
ENDROOT
BRANCH   1   2
ATOM      2  C   UNL A   1      35.016  32.202  28.115  1.00  0.00     0.261 C 
BRANCH   2   3
ATOM      3  O   UNL A   1      33.818  31.509  27.733  1.00  0.00    -0.462 OA
BRANCH   3   4
ATOM      4  C   UNL A   1      33.998  30.247  27.257  1.00  0.00     0.319 C 
ATOM      5  O   UNL A   1      34.979  29.551  27.505  1.00  0.00    -0.251 OA
BRANCH   4   6
ATOM      6  C   UNL A   1      32.839  29.719  26.431  1.00  0.00     0.160 C 
ATOM      7  C   UNL A   1      31.779  28.992  27.246  1.00  0.00     0.032 C 
BRANCH   6   8
ATOM      8  S   UNL A   1      33.176  28.937  24.809  1.00  0.00    -0.090 SA
BRANCH   8   9
ATOM      9  C   UNL A   1      31.907  27.785  24.313  1.00  0.00     0.115 A 
ATOM     10  C   UNL A   1      31.617  25.443  24.122  1.00  0.00     0.072 A 
ATOM     11  C   UNL A   1      30.287  25.605  23.764  1.00  0.00     0.030 A 
ATOM     12  N   UNL A   1      32.395  26.506  24.439  1.00  0.00    -0.240 NA
ATOM     13  C   UNL A   1      29.784  26.886  23.628  1.00  0.00     0.024 A 
ATOM     14  C   UNL A   1      30.609  27.997  23.852  1.00  0.00     0.084 A 
BRANCH  10  15
ATOM     15  C   UNL A   1      32.219  24.098  24.125  1.00  0.00     0.000 A 
ATOM     16  C   UNL A   1      33.425  21.552  24.452  1.00  0.00     0.118 A 
ATOM     17  C   UNL A   1      34.088  22.576  23.770  1.00  0.00     0.047 A 
ATOM     18  C   UNL A   1      32.142  21.783  24.936  1.00  0.00     0.047 A 
ATOM     19  C   UNL A   1      33.481  23.826  23.581  1.00  0.00     0.014 A 
ATOM     20  C   UNL A   1      31.551  23.040  24.771  1.00  0.00     0.014 A 
BRANCH  16  21
ATOM     21  O   UNL A   1      34.139  20.399  24.627  1.00  0.00    -0.497 OA
ATOM     22  C   UNL A   1      33.380  19.205  24.788  1.00  0.00     0.278 C 
ENDBRANCH  16  21
ENDBRANCH  10  15
BRANCH  14  23
ATOM     23  C   UNL A   1      30.024  29.256  23.531  1.00  0.00     0.102 C 
ATOM     24  N   UNL A   1      29.490  30.258  23.301  1.00  0.00    -0.192 NA
ENDBRANCH  14  23
ENDBRANCH   8   9
ENDBRANCH   6   8
ENDBRANCH   4   6
ENDBRANCH   3   4
ENDBRANCH   2   3
ENDBRANCH   1   2
BRANCH   1  25
ATOM     25  O   UNL A   1      34.030  33.350  30.148  1.00  0.00    -0.374 OA
BRANCH  25  26
ATOM     26  C   UNL A   1      34.580  33.977  31.304  1.00  0.00     0.202 C 
BRANCH  26  27
ATOM     27  C   UNL A   1      34.693  33.171  32.608  1.00  0.00     0.261 C 
BRANCH  27  28
ATOM     28  O   UNL A   1      35.348  31.898  32.472  1.00  0.00    -0.460 OA
BRANCH  28  29
ATOM     29  C   UNL A   1      36.554  31.819  33.084  1.00  0.00     0.338 C 
ATOM     30  O   UNL A   1      36.831  32.123  34.232  1.00  0.00    -0.246 OA
BRANCH  29  31
ATOM     31  C   UNL A   1      37.524  31.151  32.202  1.00  0.00     0.060 A 
ATOM     32  C   UNL A   1      38.605  30.473  32.775  1.00  0.00     0.016 A 
ATOM     33  C   UNL A   1      37.448  31.323  30.824  1.00  0.00     0.016 A 
ATOM     34  C   UNL A   1      39.631  29.988  31.965  1.00  0.00     0.010 A 
ATOM     35  C   UNL A   1      38.470  30.829  30.010  1.00  0.00     0.010 A 
ATOM     36  C   UNL A   1      39.585  30.187  30.578  1.00  0.00    -0.014 A 
BRANCH  36  37
ATOM     37  C   UNL A   1      40.760  29.845  29.737  1.00  0.00     0.031 A 
ATOM     38  C   UNL A   1      40.860  28.470  29.132  1.00  0.00     0.074 A 
ATOM     39  C   UNL A   1      41.722  30.756  29.503  1.00  0.00     0.049 A 
ATOM     40  N   UNL A   1      41.823  27.945  28.419  1.00  0.00    -0.248 NA
ATOM     41  C   UNL A   1      39.726  27.564  29.371  1.00  0.00     0.031 C 
ATOM     42  C   UNL A   1      41.722  32.130  29.999  1.00  0.00     0.029 A 
ATOM     43  N   UNL A   1      42.891  30.655  28.790  1.00  0.00    -0.354 N 
ATOM     44  C   UNL A   1      41.418  26.645  28.137  1.00  0.00     0.074 A 
ATOM     45  C   UNL A   1      40.143  26.449  28.792  1.00  0.00     0.031 C 
ATOM     46  C   UNL A   1      42.840  32.746  29.576  1.00  0.00     0.029 A 
ATOM     47  C   UNL A   1      43.652  31.798  28.818  1.00  0.00     0.049 A 
ATOM     48  H   UNL A   1      43.158  29.842  28.304  1.00  0.00     0.167 HD
ATOM     49  C   UNL A   1      42.046  25.706  27.390  1.00  0.00     0.037 A 
ATOM     50  C   UNL A   1      44.877  32.042  28.313  1.00  0.00     0.037 A 
ATOM     51  C   UNL A   1      43.314  25.907  26.736  1.00  0.00     0.049 A 
ATOM     52  C   UNL A   1      45.591  30.953  27.551  1.00  0.00     0.074 A 
ATOM     53  C   UNL A   1      44.020  25.027  25.935  1.00  0.00     0.029 A 
ATOM     54  N   UNL A   1      44.072  27.067  26.819  1.00  0.00    -0.354 N 
ATOM     55  N   UNL A   1      45.188  29.739  27.266  1.00  0.00    -0.248 NA
ATOM     56  C   UNL A   1      46.932  31.272  27.040  1.00  0.00     0.031 C 
ATOM     57  C   UNL A   1      45.239  25.625  25.598  1.00  0.00     0.029 A 
ATOM     58  C   UNL A   1      45.256  26.909  26.116  1.00  0.00     0.049 A 
ATOM     59  H   UNL A   1      43.807  27.881  27.305  1.00  0.00     0.167 HD
ATOM     60  C   UNL A   1      46.205  29.165  26.510  1.00  0.00     0.074 A 
ATOM     61  C   UNL A   1      47.237  30.170  26.372  1.00  0.00     0.031 C 
ATOM     62  C   UNL A   1      46.275  27.919  25.978  1.00  0.00     0.037 A 
BRANCH  49  63
ATOM     63  C   UNL A   1      41.389  24.359  27.262  1.00  0.00     0.064 A 
ATOM     64  C   UNL A   1      40.225  24.168  26.501  1.00  0.00     0.173 A 
ATOM     65  C   UNL A   1      41.955  23.234  27.882  1.00  0.00     0.173 A 
ATOM     66  F   UNL A   1      39.636  25.209  25.894  1.00  0.00    -0.203 F 
ATOM     67  C   UNL A   1      39.637  22.910  26.392  1.00  0.00     0.198 A 
ATOM     68  C   UNL A   1      41.387  21.971  27.739  1.00  0.00     0.198 A 
ATOM     69  F   UNL A   1      43.072  23.356  28.615  1.00  0.00    -0.203 F 
ATOM     70  F   UNL A   1      38.496  22.763  25.706  1.00  0.00    -0.200 F 
ATOM     71  C   UNL A   1      40.222  21.811  27.003  1.00  0.00     0.200 A 
ATOM     72  F   UNL A   1      41.967  20.908  28.314  1.00  0.00    -0.200 F 
ATOM     73  F   UNL A   1      39.662  20.600  26.889  1.00  0.00    -0.200 F 
ENDBRANCH  49  63
BRANCH  50  74
ATOM     74  C   UNL A   1      45.519  33.368  28.521  1.00  0.00     0.064 A 
ATOM     75  C   UNL A   1      46.303  33.625  29.655  1.00  0.00     0.173 A 
ATOM     76  C   UNL A   1      45.339  34.415  27.605  1.00  0.00     0.173 A 
ATOM     77  F   UNL A   1      46.487  32.664  30.573  1.00  0.00    -0.203 F 
ATOM     78  C   UNL A   1      46.857  34.884  29.878  1.00  0.00     0.198 A 
ATOM     79  C   UNL A   1      45.925  35.663  27.810  1.00  0.00     0.198 A 
ATOM     80  F   UNL A   1      44.601  34.224  26.501  1.00  0.00    -0.203 F 
ATOM     81  F   UNL A   1      47.550  35.118  31.000  1.00  0.00    -0.200 F 
ATOM     82  C   UNL A   1      46.673  35.900  28.951  1.00  0.00     0.200 A 
ATOM     83  F   UNL A   1      45.759  36.634  26.902  1.00  0.00    -0.200 F 
ATOM     84  F   UNL A   1      47.208  37.109  29.166  1.00  0.00    -0.200 F 
ENDBRANCH  50  74
BRANCH  62  85
ATOM     85  C   UNL A   1      47.486  27.583  25.151  1.00  0.00     0.064 A 
ATOM     86  C   UNL A   1      47.513  27.765  23.760  1.00  0.00     0.173 A 
ATOM     87  C   UNL A   1      48.654  27.106  25.768  1.00  0.00     0.173 A 
ATOM     88  F   UNL A   1      46.422  28.206  23.116  1.00  0.00    -0.203 F 
ATOM     89  C   UNL A   1      48.648  27.451  23.016  1.00  0.00     0.198 A 
ATOM     90  C   UNL A   1      49.800  26.832  25.028  1.00  0.00     0.198 A 
ATOM     91  F   UNL A   1      48.691  26.921  27.097  1.00  0.00    -0.203 F 
ATOM     92  F   UNL A   1      48.628  27.576  21.682  1.00  0.00    -0.200 F 
ATOM     93  C   UNL A   1      49.793  26.995  23.651  1.00  0.00     0.200 A 
ATOM     94  F   UNL A   1      50.912  26.412  25.648  1.00  0.00    -0.200 F 
ATOM     95  F   UNL A   1      50.887  26.703  22.935  1.00  0.00    -0.200 F 
ENDBRANCH  62  85
ENDBRANCH  36  37
ENDBRANCH  29  31
ENDBRANCH  28  29
ENDBRANCH  27  28
ENDBRANCH  26  27
ENDBRANCH  25  26
ENDBRANCH   1  25
TORSDOF 19
ENDMDL
MODEL 3
REMARK VINA RESULT:     -10.9      4.819     10.002
REMARK SMILES COc1ccc(-c2ccc(C#N)c(S[C@@H](C)C(=O)OCCOCCOC(=O)c3ccc(-c4c5nc(c(-c6c(F)c(F)c(F)c(F)c6F)c6ccc([nH]6)c(-c6c(F)c(F)c(F)c(F)c6F)c6nc(c(-c7c(F)c(F)c(F)c(F)c7F)c7ccc4[nH]7)C=C6)C=C5)cc3)n2)cc1
REMARK SMILES IDX 21 1 20 2 19 3 17 4 18 5 15 6 16 7 14 8 13 9 7 10 8 11 91 12
REMARK SMILES IDX 9 13 10 14 6 15 3 16 4 17 93 18 5 19 92 20 2 21 1 22 11 23
REMARK SMILES IDX 12 24 22 25 23 26 24 27 25 28 26 29 27 30 28 31 29 32 90 33
REMARK SMILES IDX 30 34 89 35 31 36 32 37 33 38 83 39 34 40 88 41 82 42 84 43
REMARK SMILES IDX 35 44 87 45 81 46 80 47 36 49 68 50 48 51 67 52 49 53 52 54
REMARK SMILES IDX 66 55 85 56 50 57 51 58 65 60 86 61 53 62 37 63 38 64 46 65
REMARK SMILES IDX 39 66 40 67 44 68 47 69 41 70 42 71 45 72 43 73 69 74 70 75
REMARK SMILES IDX 78 76 71 77 72 78 76 79 79 80 73 81 74 82 77 83 75 84 54 85
REMARK SMILES IDX 55 86 63 87 56 88 57 89 61 90 64 91 58 92 59 93 62 94 60 95
REMARK H PARENT 84 48 52 59
REMARK Flexibility Score: inf
ROOT
ATOM      1  C   UNL A   1      33.571  28.978  27.037  1.00  0.00     0.202 C 
ENDROOT
BRANCH   1   2
ATOM      2  C   UNL A   1      33.902  28.431  25.650  1.00  0.00     0.261 C 
BRANCH   2   3
ATOM      3  O   UNL A   1      33.221  29.151  24.611  1.00  0.00    -0.462 OA
BRANCH   3   4
ATOM      4  C   UNL A   1      33.501  28.753  23.341  1.00  0.00     0.319 C 
ATOM      5  O   UNL A   1      34.588  28.918  22.793  1.00  0.00    -0.251 OA
BRANCH   4   6
ATOM      6  C   UNL A   1      32.368  28.013  22.653  1.00  0.00     0.160 C 
ATOM      7  C   UNL A   1      30.982  28.510  23.036  1.00  0.00     0.032 C 
BRANCH   6   8
ATOM      8  S   UNL A   1      32.466  26.192  22.473  1.00  0.00    -0.090 SA
BRANCH   8   9
ATOM      9  C   UNL A   1      32.613  25.343  24.034  1.00  0.00     0.115 A 
ATOM     10  C   UNL A   1      34.220  24.061  25.209  1.00  0.00     0.072 A 
ATOM     11  C   UNL A   1      33.393  23.984  26.319  1.00  0.00     0.030 A 
ATOM     12  N   UNL A   1      33.859  24.767  24.110  1.00  0.00    -0.240 NA
ATOM     13  C   UNL A   1      32.134  24.553  26.255  1.00  0.00     0.024 A 
ATOM     14  C   UNL A   1      31.710  25.198  25.085  1.00  0.00     0.084 A 
BRANCH  10  15
ATOM     15  C   UNL A   1      35.501  23.332  25.194  1.00  0.00     0.000 A 
ATOM     16  C   UNL A   1      37.851  21.761  25.422  1.00  0.00     0.118 A 
ATOM     17  C   UNL A   1      37.863  23.119  25.752  1.00  0.00     0.047 A 
ATOM     18  C   UNL A   1      36.678  21.194  24.938  1.00  0.00     0.047 A 
ATOM     19  C   UNL A   1      36.709  23.904  25.611  1.00  0.00     0.014 A 
ATOM     20  C   UNL A   1      35.521  21.973  24.826  1.00  0.00     0.014 A 
BRANCH  16  21
ATOM     21  O   UNL A   1      39.016  21.085  25.658  1.00  0.00    -0.497 OA
ATOM     22  C   UNL A   1      39.911  21.676  26.595  1.00  0.00     0.278 C 
ENDBRANCH  16  21
ENDBRANCH  10  15
BRANCH  14  23
ATOM     23  C   UNL A   1      30.345  25.607  25.085  1.00  0.00     0.102 C 
ATOM     24  N   UNL A   1      29.255  25.997  25.050  1.00  0.00    -0.192 NA
ENDBRANCH  14  23
ENDBRANCH   8   9
ENDBRANCH   6   8
ENDBRANCH   4   6
ENDBRANCH   3   4
ENDBRANCH   2   3
ENDBRANCH   1   2
BRANCH   1  25
ATOM     25  O   UNL A   1      34.044  30.274  27.382  1.00  0.00    -0.374 OA
BRANCH  25  26
ATOM     26  C   UNL A   1      33.143  31.377  27.323  1.00  0.00     0.202 C 
BRANCH  26  27
ATOM     27  C   UNL A   1      33.648  32.776  27.711  1.00  0.00     0.261 C 
BRANCH  27  28
ATOM     28  O   UNL A   1      32.611  33.732  27.992  1.00  0.00    -0.460 OA
BRANCH  28  29
ATOM     29  C   UNL A   1      33.031  34.838  28.654  1.00  0.00     0.338 C 
ATOM     30  O   UNL A   1      32.499  35.933  28.691  1.00  0.00    -0.246 OA
BRANCH  29  31
ATOM     31  C   UNL A   1      34.197  34.511  29.490  1.00  0.00     0.060 A 
ATOM     32  C   UNL A   1      35.477  34.626  28.940  1.00  0.00     0.016 A 
ATOM     33  C   UNL A   1      34.016  33.955  30.752  1.00  0.00     0.016 A 
ATOM     34  C   UNL A   1      36.583  34.154  29.646  1.00  0.00     0.010 A 
ATOM     35  C   UNL A   1      35.125  33.491  31.466  1.00  0.00     0.010 A 
ATOM     36  C   UNL A   1      36.412  33.557  30.903  1.00  0.00    -0.014 A 
BRANCH  36  37
ATOM     37  C   UNL A   1      37.554  32.884  31.571  1.00  0.00     0.031 A 
ATOM     38  C   UNL A   1      38.201  31.696  30.910  1.00  0.00     0.074 A 
ATOM     39  C   UNL A   1      38.020  33.335  32.750  1.00  0.00     0.049 A 
ATOM     40  N   UNL A   1      39.167  30.927  31.345  1.00  0.00    -0.248 NA
ATOM     41  C   UNL A   1      37.684  31.320  29.586  1.00  0.00     0.031 C 
ATOM     42  C   UNL A   1      37.504  34.497  33.472  1.00  0.00     0.029 A 
ATOM     43  N   UNL A   1      39.030  32.863  33.550  1.00  0.00    -0.354 N 
ATOM     44  C   UNL A   1      39.362  29.971  30.355  1.00  0.00     0.074 A 
ATOM     45  C   UNL A   1      38.386  30.229  29.320  1.00  0.00     0.031 C 
ATOM     46  C   UNL A   1      38.202  34.647  34.611  1.00  0.00     0.029 A 
ATOM     47  C   UNL A   1      39.181  33.568  34.719  1.00  0.00     0.049 A 
ATOM     48  H   UNL A   1      39.593  32.092  33.309  1.00  0.00     0.167 HD
ATOM     49  C   UNL A   1      40.280  28.975  30.310  1.00  0.00     0.037 A 
ATOM     50  C   UNL A   1      39.999  33.351  35.768  1.00  0.00     0.037 A 
ATOM     51  C   UNL A   1      41.253  28.724  31.343  1.00  0.00     0.049 A 
ATOM     52  C   UNL A   1      40.958  32.188  35.728  1.00  0.00     0.074 A 
ATOM     53  C   UNL A   1      42.241  27.757  31.378  1.00  0.00     0.029 A 
ATOM     54  N   UNL A   1      41.350  29.438  32.529  1.00  0.00    -0.354 N 
ATOM     55  N   UNL A   1      41.155  31.307  34.777  1.00  0.00    -0.248 NA
ATOM     56  C   UNL A   1      41.811  31.991  36.909  1.00  0.00     0.031 C 
ATOM     57  C   UNL A   1      42.885  27.835  32.617  1.00  0.00     0.029 A 
ATOM     58  C   UNL A   1      42.357  28.906  33.319  1.00  0.00     0.049 A 
ATOM     59  H   UNL A   1      40.787  30.208  32.773  1.00  0.00     0.167 HD
ATOM     60  C   UNL A   1      42.177  30.479  35.227  1.00  0.00     0.074 A 
ATOM     61  C   UNL A   1      42.567  30.972  36.531  1.00  0.00     0.031 C 
ATOM     62  C   UNL A   1      42.743  29.409  34.614  1.00  0.00     0.037 A 
BRANCH  49  63
ATOM     63  C   UNL A   1      40.258  28.058  29.119  1.00  0.00     0.064 A 
ATOM     64  C   UNL A   1      40.963  28.352  27.940  1.00  0.00     0.173 A 
ATOM     65  C   UNL A   1      39.551  26.847  29.171  1.00  0.00     0.173 A 
ATOM     66  F   UNL A   1      41.649  29.500  27.831  1.00  0.00    -0.203 F 
ATOM     67  C   UNL A   1      40.933  27.484  26.851  1.00  0.00     0.198 A 
ATOM     68  C   UNL A   1      39.555  25.964  28.095  1.00  0.00     0.198 A 
ATOM     69  F   UNL A   1      38.867  26.510  30.274  1.00  0.00    -0.203 F 
ATOM     70  F   UNL A   1      41.568  27.813  25.718  1.00  0.00    -0.200 F 
ATOM     71  C   UNL A   1      40.237  26.287  26.931  1.00  0.00     0.200 A 
ATOM     72  F   UNL A   1      38.899  24.798  28.184  1.00  0.00    -0.200 F 
ATOM     73  F   UNL A   1      40.219  25.448  25.887  1.00  0.00    -0.200 F 
ENDBRANCH  49  63
BRANCH  50  74
ATOM     74  C   UNL A   1      39.939  34.244  36.956  1.00  0.00     0.064 A 
ATOM     75  C   UNL A   1      40.737  35.394  37.041  1.00  0.00     0.173 A 
ATOM     76  C   UNL A   1      39.101  33.953  38.043  1.00  0.00     0.173 A 
ATOM     77  F   UNL A   1      41.572  35.705  36.039  1.00  0.00    -0.203 F 
ATOM     78  C   UNL A   1      40.722  36.200  38.178  1.00  0.00     0.198 A 
ATOM     79  C   UNL A   1      39.058  34.781  39.164  1.00  0.00     0.198 A 
ATOM     80  F   UNL A   1      38.313  32.868  38.014  1.00  0.00    -0.203 F 
ATOM     81  F   UNL A   1      41.541  37.257  38.258  1.00  0.00    -0.200 F 
ATOM     82  C   UNL A   1      39.877  35.896  39.236  1.00  0.00     0.200 A 
ATOM     83  F   UNL A   1      38.227  34.492  40.174  1.00  0.00    -0.200 F 
ATOM     84  F   UNL A   1      39.862  36.672  40.328  1.00  0.00    -0.200 F 
ENDBRANCH  50  74
BRANCH  62  85
ATOM     85  C   UNL A   1      43.882  28.724  35.320  1.00  0.00     0.064 A 
ATOM     86  C   UNL A   1      45.219  29.091  35.108  1.00  0.00     0.173 A 
ATOM     87  C   UNL A   1      43.625  27.708  36.254  1.00  0.00     0.173 A 
ATOM     88  F   UNL A   1      45.523  30.048  34.218  1.00  0.00    -0.203 F 
ATOM     89  C   UNL A   1      46.255  28.446  35.778  1.00  0.00     0.198 A 
ATOM     90  C   UNL A   1      44.660  27.092  36.952  1.00  0.00     0.198 A 
ATOM     91  F   UNL A   1      42.365  27.320  36.505  1.00  0.00    -0.203 F 
ATOM     92  F   UNL A   1      47.528  28.773  35.513  1.00  0.00    -0.200 F 
ATOM     93  C   UNL A   1      45.975  27.454  36.705  1.00  0.00     0.200 A 
ATOM     94  F   UNL A   1      44.384  26.150  37.864  1.00  0.00    -0.200 F 
ATOM     95  F   UNL A   1      46.974  26.841  37.356  1.00  0.00    -0.200 F 
ENDBRANCH  62  85
ENDBRANCH  36  37
ENDBRANCH  29  31
ENDBRANCH  28  29
ENDBRANCH  27  28
ENDBRANCH  26  27
ENDBRANCH  25  26
ENDBRANCH   1  25
TORSDOF 19
ENDMDL
