MODEL 1
REMARK VINA RESULT:     -11.5      0.000      0.000
REMARK SMILES Cc1ccccc1OCC(=O)c1nc(C)c(C(=O)OCCOCCOC(=O)c2ccc(-c3c4nc(c(-c5c(F)c(F)c(F)c(F)c5F)c5ccc([nH]5)c(-c5c(F)c(F)c(F)c(F)c5F)c5nc(c(-c6c(F)c(F)c(F)c(F)c6F)c6ccc3[nH]6)C=C5)C=C4)cc2)s1
REMARK SMILES IDX 21 1 20 2 19 3 17 4 18 5 16 6 12 7 13 8 91 9 14 10 15 11
REMARK SMILES IDX 10 12 11 13 9 14 8 15 7 16 1 17 2 18 3 19 4 20 6 21 5 22
REMARK SMILES IDX 22 23 23 24 24 25 25 26 26 27 27 28 28 29 29 30 90 31 30 32
REMARK SMILES IDX 89 33 31 34 32 35 33 36 83 37 34 38 88 39 82 40 84 41 35 42
REMARK SMILES IDX 87 43 81 44 80 45 36 47 68 48 48 49 67 50 49 51 52 52 66 53
REMARK SMILES IDX 85 54 50 55 51 56 65 58 86 59 53 60 37 61 38 62 46 63 39 64
REMARK SMILES IDX 40 65 44 66 47 67 41 68 42 69 45 70 43 71 69 72 70 73 78 74
REMARK SMILES IDX 71 75 72 76 76 77 79 78 73 79 74 80 77 81 75 82 54 83 55 84
REMARK SMILES IDX 63 85 56 86 57 87 61 88 64 89 58 90 59 91 62 92 60 93
REMARK H PARENT 84 46 52 57
REMARK Flexibility Score: inf
ROOT
ATOM      1  C   UNL A   1      31.832  29.055  24.727  1.00  0.00     0.202 C 
ENDROOT
BRANCH   1   2
ATOM      2  C   UNL A   1      32.844  27.990  24.458  1.00  0.00     0.261 C 
BRANCH   2   3
ATOM      3  O   UNL A   1      32.630  27.365  23.185  1.00  0.00    -0.459 OA
BRANCH   3   4
ATOM      4  C   UNL A   1      31.439  26.830  22.785  1.00  0.00     0.350 C 
ATOM      5  O   UNL A   1      30.650  27.331  22.021  1.00  0.00    -0.245 OA
BRANCH   4   6
ATOM      6  C   UNL A   1      31.343  25.550  23.441  1.00  0.00     0.136 A 
ATOM      7  C   UNL A   1      31.771  23.293  24.184  1.00  0.00     0.164 A 
ATOM      8  N   UNL A   1      30.903  23.875  24.984  1.00  0.00    -0.237 NA
ATOM      9  S   UNL A   1      32.280  24.243  22.863  1.00  0.00    -0.103 S 
ATOM     10  C   UNL A   1      30.658  25.173  24.586  1.00  0.00     0.064 A 
ATOM     11  C   UNL A   1      29.766  25.963  25.484  1.00  0.00     0.068 C 
BRANCH   7  12
ATOM     12  C   UNL A   1      32.241  21.948  24.478  1.00  0.00     0.228 C 
ATOM     13  O   UNL A   1      31.622  21.186  25.233  1.00  0.00    -0.288 OA
BRANCH  12  14
ATOM     14  C   UNL A   1      33.595  21.470  23.948  1.00  0.00     0.313 C 
BRANCH  14  15
ATOM     15  O   UNL A   1      34.609  20.902  24.729  1.00  0.00    -0.485 OA
BRANCH  15  16
ATOM     16  C   UNL A   1      35.751  21.542  25.104  1.00  0.00     0.122 A 
ATOM     17  C   UNL A   1      37.582  19.711  24.897  1.00  0.00     0.048 C 
ATOM     18  C   UNL A   1      37.077  21.095  25.183  1.00  0.00    -0.009 A 
ATOM     19  C   UNL A   1      38.076  22.037  25.524  1.00  0.00     0.007 A 
ATOM     20  C   UNL A   1      37.774  23.364  25.825  1.00  0.00     0.001 A 
ATOM     21  C   UNL A   1      35.463  22.884  25.426  1.00  0.00     0.047 A 
ATOM     22  C   UNL A   1      36.458  23.788  25.785  1.00  0.00     0.004 A 
ENDBRANCH  15  16
ENDBRANCH  14  15
ENDBRANCH  12  14
ENDBRANCH   7  12
ENDBRANCH   4   6
ENDBRANCH   3   4
ENDBRANCH   2   3
ENDBRANCH   1   2
BRANCH   1  23
ATOM     23  O   UNL A   1      31.790  29.185  26.134  1.00  0.00    -0.374 OA
BRANCH  23  24
ATOM     24  C   UNL A   1      33.030  29.439  26.760  1.00  0.00     0.202 C 
BRANCH  24  25
ATOM     25  C   UNL A   1      33.178  30.907  27.174  1.00  0.00     0.261 C 
BRANCH  25  26
ATOM     26  O   UNL A   1      34.576  31.232  27.355  1.00  0.00    -0.460 OA
BRANCH  26  27
ATOM     27  C   UNL A   1      35.053  31.177  28.632  1.00  0.00     0.338 C 
ATOM     28  O   UNL A   1      34.883  32.032  29.484  1.00  0.00    -0.246 OA
BRANCH  27  29
ATOM     29  C   UNL A   1      36.063  30.079  28.749  1.00  0.00     0.060 A 
ATOM     30  C   UNL A   1      36.315  29.470  29.997  1.00  0.00     0.016 A 
ATOM     31  C   UNL A   1      36.981  29.944  27.717  1.00  0.00     0.016 A 
ATOM     32  C   UNL A   1      37.561  28.868  30.251  1.00  0.00     0.010 A 
ATOM     33  C   UNL A   1      38.247  29.501  28.024  1.00  0.00     0.010 A 
ATOM     34  C   UNL A   1      38.558  28.964  29.283  1.00  0.00    -0.014 A 
BRANCH  34  35
ATOM     35  C   UNL A   1      39.967  28.592  29.431  1.00  0.00     0.031 A 
ATOM     36  C   UNL A   1      40.384  27.285  28.871  1.00  0.00     0.074 A 
ATOM     37  C   UNL A   1      40.915  29.471  29.842  1.00  0.00     0.049 A 
ATOM     38  N   UNL A   1      41.440  26.659  29.255  1.00  0.00    -0.248 NA
ATOM     39  C   UNL A   1      39.621  26.539  27.868  1.00  0.00     0.031 C 
ATOM     40  C   UNL A   1      42.347  29.445  29.531  1.00  0.00     0.029 A 
ATOM     41  N   UNL A   1      40.781  30.634  30.608  1.00  0.00    -0.354 N 
ATOM     42  C   UNL A   1      41.652  25.626  28.373  1.00  0.00     0.074 A 
ATOM     43  C   UNL A   1      40.450  25.530  27.589  1.00  0.00     0.031 C 
ATOM     44  C   UNL A   1      42.985  30.384  30.252  1.00  0.00     0.029 A 
ATOM     45  C   UNL A   1      42.021  30.977  31.162  1.00  0.00     0.049 A 
ATOM     46  H   UNL A   1      39.943  31.135  30.736  1.00  0.00     0.167 HD
ATOM     47  C   UNL A   1      42.888  25.062  28.300  1.00  0.00     0.037 A 
ATOM     48  C   UNL A   1      42.159  31.174  32.502  1.00  0.00     0.037 A 
ATOM     49  C   UNL A   1      43.824  25.787  29.163  1.00  0.00     0.049 A 
ATOM     50  C   UNL A   1      43.009  30.073  33.056  1.00  0.00     0.074 A 
ATOM     51  C   UNL A   1      44.741  26.789  28.887  1.00  0.00     0.029 A 
ATOM     52  N   UNL A   1      43.622  25.813  30.541  1.00  0.00    -0.354 N 
ATOM     53  N   UNL A   1      43.179  28.954  32.409  1.00  0.00    -0.248 NA
ATOM     54  C   UNL A   1      43.765  30.128  34.298  1.00  0.00     0.031 C 
ATOM     55  C   UNL A   1      45.078  27.426  30.111  1.00  0.00     0.029 A 
ATOM     56  C   UNL A   1      44.386  26.801  31.136  1.00  0.00     0.049 A 
ATOM     57  H   UNL A   1      43.015  25.209  31.028  1.00  0.00     0.167 HD
ATOM     58  C   UNL A   1      44.065  28.174  33.075  1.00  0.00     0.074 A 
ATOM     59  C   UNL A   1      44.389  28.936  34.268  1.00  0.00     0.031 C 
ATOM     60  C   UNL A   1      44.431  26.958  32.585  1.00  0.00     0.037 A 
BRANCH  47  61
ATOM     61  C   UNL A   1      43.297  24.079  27.228  1.00  0.00     0.064 A 
ATOM     62  C   UNL A   1      42.883  22.731  27.286  1.00  0.00     0.173 A 
ATOM     63  C   UNL A   1      44.099  24.402  26.115  1.00  0.00     0.173 A 
ATOM     64  F   UNL A   1      42.044  22.296  28.234  1.00  0.00    -0.203 F 
ATOM     65  C   UNL A   1      43.315  21.774  26.363  1.00  0.00     0.198 A 
ATOM     66  C   UNL A   1      44.579  23.434  25.227  1.00  0.00     0.198 A 
ATOM     67  F   UNL A   1      44.398  25.674  25.817  1.00  0.00    -0.203 F 
ATOM     68  F   UNL A   1      42.878  20.510  26.466  1.00  0.00    -0.200 F 
ATOM     69  C   UNL A   1      44.188  22.118  25.353  1.00  0.00     0.200 A 
ATOM     70  F   UNL A   1      45.416  23.789  24.241  1.00  0.00    -0.200 F 
ATOM     71  F   UNL A   1      44.626  21.192  24.488  1.00  0.00    -0.200 F 
ENDBRANCH  47  61
BRANCH  48  72
ATOM     72  C   UNL A   1      40.968  31.823  33.124  1.00  0.00     0.064 A 
ATOM     73  C   UNL A   1      40.759  33.188  32.842  1.00  0.00     0.173 A 
ATOM     74  C   UNL A   1      39.848  31.071  33.514  1.00  0.00     0.173 A 
ATOM     75  F   UNL A   1      41.783  33.950  32.428  1.00  0.00    -0.203 F 
ATOM     76  C   UNL A   1      39.477  33.743  32.827  1.00  0.00     0.198 A 
ATOM     77  C   UNL A   1      38.562  31.623  33.470  1.00  0.00     0.198 A 
ATOM     78  F   UNL A   1      39.971  29.763  33.776  1.00  0.00    -0.203 F 
ATOM     79  F   UNL A   1      39.297  34.998  32.390  1.00  0.00    -0.200 F 
ATOM     80  C   UNL A   1      38.377  32.948  33.104  1.00  0.00     0.200 A 
ATOM     81  F   UNL A   1      37.491  30.837  33.658  1.00  0.00    -0.200 F 
ATOM     82  F   UNL A   1      37.140  33.427  32.901  1.00  0.00    -0.200 F 
ENDBRANCH  48  72
BRANCH  60  83
ATOM     83  C   UNL A   1      44.953  25.846  33.440  1.00  0.00     0.064 A 
ATOM     84  C   UNL A   1      44.118  25.044  34.236  1.00  0.00     0.173 A 
ATOM     85  C   UNL A   1      46.297  25.428  33.338  1.00  0.00     0.173 A 
ATOM     86  F   UNL A   1      42.796  25.248  34.300  1.00  0.00    -0.203 F 
ATOM     87  C   UNL A   1      44.612  23.955  34.949  1.00  0.00     0.198 A 
ATOM     88  C   UNL A   1      46.768  24.293  33.987  1.00  0.00     0.198 A 
ATOM     89  F   UNL A   1      47.187  26.084  32.578  1.00  0.00    -0.203 F 
ATOM     90  F   UNL A   1      43.787  23.260  35.744  1.00  0.00    -0.200 F 
ATOM     91  C   UNL A   1      45.931  23.572  34.814  1.00  0.00     0.200 A 
ATOM     92  F   UNL A   1      48.029  23.889  33.785  1.00  0.00    -0.200 F 
ATOM     93  F   UNL A   1      46.391  22.495  35.462  1.00  0.00    -0.200 F 
ENDBRANCH  60  83
ENDBRANCH  34  35
ENDBRANCH  27  29
ENDBRANCH  26  27
ENDBRANCH  25  26
ENDBRANCH  24  25
ENDBRANCH  23  24
ENDBRANCH   1  23
TORSDOF 18
ENDMDL
MODEL 2
REMARK VINA RESULT:     -11.3      3.254      5.610
REMARK SMILES Cc1ccccc1OCC(=O)c1nc(C)c(C(=O)OCCOCCOC(=O)c2ccc(-c3c4nc(c(-c5c(F)c(F)c(F)c(F)c5F)c5ccc([nH]5)c(-c5c(F)c(F)c(F)c(F)c5F)c5nc(c(-c6c(F)c(F)c(F)c(F)c6F)c6ccc3[nH]6)C=C5)C=C4)cc2)s1
REMARK SMILES IDX 21 1 20 2 19 3 17 4 18 5 16 6 12 7 13 8 91 9 14 10 15 11
REMARK SMILES IDX 10 12 11 13 9 14 8 15 7 16 1 17 2 18 3 19 4 20 6 21 5 22
REMARK SMILES IDX 22 23 23 24 24 25 25 26 26 27 27 28 28 29 29 30 90 31 30 32
REMARK SMILES IDX 89 33 31 34 32 35 33 36 83 37 34 38 88 39 82 40 84 41 35 42
REMARK SMILES IDX 87 43 81 44 80 45 36 47 68 48 48 49 67 50 49 51 52 52 66 53
REMARK SMILES IDX 85 54 50 55 51 56 65 58 86 59 53 60 37 61 38 62 46 63 39 64
REMARK SMILES IDX 40 65 44 66 47 67 41 68 42 69 45 70 43 71 69 72 70 73 78 74
REMARK SMILES IDX 71 75 72 76 76 77 79 78 73 79 74 80 77 81 75 82 54 83 55 84
REMARK SMILES IDX 63 85 56 86 57 87 61 88 64 89 58 90 59 91 62 92 60 93
REMARK H PARENT 84 46 52 57
REMARK Flexibility Score: inf
ROOT
ATOM      1  C   UNL A   1      34.067  35.071  28.012  1.00  0.00     0.202 C 
ENDROOT
BRANCH   1   2
ATOM      2  C   UNL A   1      33.168  33.971  28.471  1.00  0.00     0.261 C 
BRANCH   2   3
ATOM      3  O   UNL A   1      33.317  32.793  27.667  1.00  0.00    -0.459 OA
BRANCH   3   4
ATOM      4  C   UNL A   1      34.350  31.909  27.787  1.00  0.00     0.350 C 
ATOM      5  O   UNL A   1      35.439  32.139  28.252  1.00  0.00    -0.245 OA
BRANCH   4   6
ATOM      6  C   UNL A   1      33.857  30.656  27.270  1.00  0.00     0.136 A 
ATOM      7  C   UNL A   1      32.572  28.984  26.093  1.00  0.00     0.164 A 
ATOM      8  N   UNL A   1      33.726  28.481  26.477  1.00  0.00    -0.237 NA
ATOM      9  S   UNL A   1      32.297  30.597  26.574  1.00  0.00    -0.103 S 
ATOM     10  C   UNL A   1      34.483  29.427  27.136  1.00  0.00     0.064 A 
ATOM     11  C   UNL A   1      35.857  28.994  27.524  1.00  0.00     0.068 C 
BRANCH   7  12
ATOM     12  C   UNL A   1      31.657  28.181  25.298  1.00  0.00     0.228 C 
ATOM     13  O   UNL A   1      30.677  27.612  25.799  1.00  0.00    -0.288 OA
BRANCH  12  14
ATOM     14  C   UNL A   1      31.947  27.914  23.819  1.00  0.00     0.313 C 
BRANCH  14  15
ATOM     15  O   UNL A   1      30.974  27.734  22.828  1.00  0.00    -0.485 OA
BRANCH  15  16
ATOM     16  C   UNL A   1      29.781  28.388  22.783  1.00  0.00     0.122 A 
ATOM     17  C   UNL A   1      28.118  26.717  23.874  1.00  0.00     0.048 C 
ATOM     18  C   UNL A   1      28.507  28.018  23.233  1.00  0.00    -0.009 A 
ATOM     19  C   UNL A   1      27.463  28.966  23.126  1.00  0.00     0.007 A 
ATOM     20  C   UNL A   1      27.655  30.221  22.550  1.00  0.00     0.001 A 
ATOM     21  C   UNL A   1      29.953  29.656  22.191  1.00  0.00     0.047 A 
ATOM     22  C   UNL A   1      28.907  30.565  22.071  1.00  0.00     0.004 A 
ENDBRANCH  15  16
ENDBRANCH  14  15
ENDBRANCH  12  14
ENDBRANCH   7  12
ENDBRANCH   4   6
ENDBRANCH   3   4
ENDBRANCH   2   3
ENDBRANCH   1   2
BRANCH   1  23
ATOM     23  O   UNL A   1      33.802  36.158  28.875  1.00  0.00    -0.374 OA
BRANCH  23  24
ATOM     24  C   UNL A   1      32.854  35.912  29.892  1.00  0.00     0.202 C 
BRANCH  24  25
ATOM     25  C   UNL A   1      33.310  36.456  31.250  1.00  0.00     0.261 C 
BRANCH  25  26
ATOM     26  O   UNL A   1      34.406  35.660  31.760  1.00  0.00    -0.460 OA
BRANCH  26  27
ATOM     27  C   UNL A   1      34.106  34.383  32.136  1.00  0.00     0.338 C 
ATOM     28  O   UNL A   1      33.309  34.074  33.005  1.00  0.00    -0.246 OA
BRANCH  27  29
ATOM     29  C   UNL A   1      35.108  33.436  31.554  1.00  0.00     0.060 A 
ATOM     30  C   UNL A   1      35.076  32.066  31.891  1.00  0.00     0.016 A 
ATOM     31  C   UNL A   1      36.256  33.984  30.997  1.00  0.00     0.016 A 
ATOM     32  C   UNL A   1      36.249  31.293  31.820  1.00  0.00     0.010 A 
ATOM     33  C   UNL A   1      37.428  33.268  31.085  1.00  0.00     0.010 A 
ATOM     34  C   UNL A   1      37.447  31.927  31.496  1.00  0.00    -0.014 A 
BRANCH  34  35
ATOM     35  C   UNL A   1      38.793  31.354  31.569  1.00  0.00     0.031 A 
ATOM     36  C   UNL A   1      39.109  30.248  30.635  1.00  0.00     0.074 A 
ATOM     37  C   UNL A   1      39.797  31.933  32.275  1.00  0.00     0.049 A 
ATOM     38  N   UNL A   1      40.060  29.406  30.835  1.00  0.00    -0.248 NA
ATOM     39  C   UNL A   1      38.348  29.957  29.417  1.00  0.00     0.031 C 
ATOM     40  C   UNL A   1      41.236  31.827  32.026  1.00  0.00     0.029 A 
ATOM     41  N   UNL A   1      39.730  32.803  33.369  1.00  0.00    -0.354 N 
ATOM     42  C   UNL A   1      40.227  28.685  29.677  1.00  0.00     0.074 A 
ATOM     43  C   UNL A   1      39.083  28.993  28.860  1.00  0.00     0.031 C 
ATOM     44  C   UNL A   1      41.915  32.404  33.034  1.00  0.00     0.029 A 
ATOM     45  C   UNL A   1      40.954  32.796  34.050  1.00  0.00     0.049 A 
ATOM     46  H   UNL A   1      38.943  33.339  33.620  1.00  0.00     0.167 HD
ATOM     47  C   UNL A   1      41.397  28.023  29.473  1.00  0.00     0.037 A 
ATOM     48  C   UNL A   1      41.011  32.543  35.386  1.00  0.00     0.037 A 
ATOM     49  C   UNL A   1      42.338  28.316  30.557  1.00  0.00     0.049 A 
ATOM     50  C   UNL A   1      41.694  31.226  35.588  1.00  0.00     0.074 A 
ATOM     51  C   UNL A   1      43.374  29.231  30.653  1.00  0.00     0.029 A 
ATOM     52  N   UNL A   1      42.037  27.932  31.862  1.00  0.00    -0.354 N 
ATOM     53  N   UNL A   1      41.793  30.355  34.623  1.00  0.00    -0.248 NA
ATOM     54  C   UNL A   1      42.357  30.792  36.810  1.00  0.00     0.031 C 
ATOM     55  C   UNL A   1      43.685  29.403  32.027  1.00  0.00     0.029 A 
ATOM     56  C   UNL A   1      42.855  28.579  32.771  1.00  0.00     0.049 A 
ATOM     57  H   UNL A   1      41.334  27.287  32.106  1.00  0.00     0.167 HD
ATOM     58  C   UNL A   1      42.537  29.301  35.035  1.00  0.00     0.074 A 
ATOM     59  C   UNL A   1      42.850  29.602  36.420  1.00  0.00     0.031 C 
ATOM     60  C   UNL A   1      42.808  28.265  34.194  1.00  0.00     0.037 A 
BRANCH  47  61
ATOM     61  C   UNL A   1      41.778  27.383  28.158  1.00  0.00     0.064 A 
ATOM     62  C   UNL A   1      42.134  26.020  28.091  1.00  0.00     0.173 A 
ATOM     63  C   UNL A   1      41.813  28.063  26.923  1.00  0.00     0.173 A 
ATOM     64  F   UNL A   1      42.061  25.224  29.165  1.00  0.00    -0.203 F 
ATOM     65  C   UNL A   1      42.578  25.417  26.911  1.00  0.00     0.198 A 
ATOM     66  C   UNL A   1      42.313  27.477  25.756  1.00  0.00     0.198 A 
ATOM     67  F   UNL A   1      41.310  29.298  26.793  1.00  0.00    -0.203 F 
ATOM     68  F   UNL A   1      42.893  24.114  26.910  1.00  0.00    -0.200 F 
ATOM     69  C   UNL A   1      42.699  26.153  25.751  1.00  0.00     0.200 A 
ATOM     70  F   UNL A   1      42.409  28.203  24.632  1.00  0.00    -0.200 F 
ATOM     71  F   UNL A   1      43.155  25.581  24.627  1.00  0.00    -0.200 F 
ENDBRANCH  47  61
BRANCH  48  72
ATOM     72  C   UNL A   1      39.853  33.106  36.139  1.00  0.00     0.064 A 
ATOM     73  C   UNL A   1      38.893  32.192  36.621  1.00  0.00     0.173 A 
ATOM     74  C   UNL A   1      39.940  34.346  36.792  1.00  0.00     0.173 A 
ATOM     75  F   UNL A   1      38.787  30.977  36.062  1.00  0.00    -0.203 F 
ATOM     76  C   UNL A   1      38.150  32.454  37.774  1.00  0.00     0.198 A 
ATOM     77  C   UNL A   1      39.214  34.594  37.963  1.00  0.00     0.198 A 
ATOM     78  F   UNL A   1      40.845  35.253  36.399  1.00  0.00    -0.203 F 
ATOM     79  F   UNL A   1      37.372  31.496  38.300  1.00  0.00    -0.200 F 
ATOM     80  C   UNL A   1      38.340  33.640  38.465  1.00  0.00     0.200 A 
ATOM     81  F   UNL A   1      39.456  35.703  38.677  1.00  0.00    -0.200 F 
ATOM     82  F   UNL A   1      37.775  33.808  39.670  1.00  0.00    -0.200 F 
ENDBRANCH  48  72
BRANCH  60  83
ATOM     83  C   UNL A   1      43.141  26.885  34.666  1.00  0.00     0.064 A 
ATOM     84  C   UNL A   1      42.160  25.922  34.954  1.00  0.00     0.173 A 
ATOM     85  C   UNL A   1      44.476  26.424  34.659  1.00  0.00     0.173 A 
ATOM     86  F   UNL A   1      40.853  26.195  34.852  1.00  0.00    -0.203 F 
ATOM     87  C   UNL A   1      42.495  24.615  35.299  1.00  0.00     0.198 A 
ATOM     88  C   UNL A   1      44.800  25.098  34.924  1.00  0.00     0.198 A 
ATOM     89  F   UNL A   1      45.503  27.232  34.359  1.00  0.00    -0.203 F 
ATOM     90  F   UNL A   1      41.524  23.752  35.628  1.00  0.00    -0.200 F 
ATOM     91  C   UNL A   1      43.811  24.201  35.270  1.00  0.00     0.200 A 
ATOM     92  F   UNL A   1      46.072  24.693  34.816  1.00  0.00    -0.200 F 
ATOM     93  F   UNL A   1      44.125  22.931  35.553  1.00  0.00    -0.200 F 
ENDBRANCH  60  83
ENDBRANCH  34  35
ENDBRANCH  27  29
ENDBRANCH  26  27
ENDBRANCH  25  26
ENDBRANCH  24  25
ENDBRANCH  23  24
ENDBRANCH   1  23
TORSDOF 18
ENDMDL
MODEL 3
REMARK VINA RESULT:     -11.3      1.255      2.106
REMARK SMILES Cc1ccccc1OCC(=O)c1nc(C)c(C(=O)OCCOCCOC(=O)c2ccc(-c3c4nc(c(-c5c(F)c(F)c(F)c(F)c5F)c5ccc([nH]5)c(-c5c(F)c(F)c(F)c(F)c5F)c5nc(c(-c6c(F)c(F)c(F)c(F)c6F)c6ccc3[nH]6)C=C5)C=C4)cc2)s1
REMARK SMILES IDX 21 1 20 2 19 3 17 4 18 5 16 6 12 7 13 8 91 9 14 10 15 11
REMARK SMILES IDX 10 12 11 13 9 14 8 15 7 16 1 17 2 18 3 19 4 20 6 21 5 22
REMARK SMILES IDX 22 23 23 24 24 25 25 26 26 27 27 28 28 29 29 30 90 31 30 32
REMARK SMILES IDX 89 33 31 34 32 35 33 36 83 37 34 38 88 39 82 40 84 41 35 42
REMARK SMILES IDX 87 43 81 44 80 45 36 47 68 48 48 49 67 50 49 51 52 52 66 53
REMARK SMILES IDX 85 54 50 55 51 56 65 58 86 59 53 60 37 61 38 62 46 63 39 64
REMARK SMILES IDX 40 65 44 66 47 67 41 68 42 69 45 70 43 71 69 72 70 73 78 74
REMARK SMILES IDX 71 75 72 76 76 77 79 78 73 79 74 80 77 81 75 82 54 83 55 84
REMARK SMILES IDX 63 85 56 86 57 87 61 88 64 89 58 90 59 91 62 92 60 93
REMARK H PARENT 84 46 52 57
REMARK Flexibility Score: inf
ROOT
ATOM      1  C   UNL A   1      30.638  30.323  24.609  1.00  0.00     0.202 C 
ENDROOT
BRANCH   1   2
ATOM      2  C   UNL A   1      30.441  29.243  23.597  1.00  0.00     0.261 C 
BRANCH   2   3
ATOM      3  O   UNL A   1      31.641  28.485  23.391  1.00  0.00    -0.459 OA
BRANCH   3   4
ATOM      4  C   UNL A   1      31.668  27.208  22.910  1.00  0.00     0.350 C 
ATOM      5  O   UNL A   1      31.676  26.880  21.749  1.00  0.00    -0.245 OA
BRANCH   4   6
ATOM      6  C   UNL A   1      31.707  26.352  24.070  1.00  0.00     0.136 A 
ATOM      7  C   UNL A   1      31.357  24.526  25.611  1.00  0.00     0.164 A 
ATOM      8  N   UNL A   1      32.397  25.241  25.985  1.00  0.00    -0.237 NA
ATOM      9  S   UNL A   1      30.545  25.109  24.229  1.00  0.00    -0.103 S 
ATOM     10  C   UNL A   1      32.624  26.280  25.106  1.00  0.00     0.064 A 
ATOM     11  C   UNL A   1      33.844  27.095  25.377  1.00  0.00     0.068 C 
BRANCH   7  12
ATOM     12  C   UNL A   1      30.997  23.325  26.348  1.00  0.00     0.228 C 
ATOM     13  O   UNL A   1      30.262  23.361  27.345  1.00  0.00    -0.288 OA
BRANCH  12  14
ATOM     14  C   UNL A   1      31.621  21.977  25.981  1.00  0.00     0.313 C 
BRANCH  14  15
ATOM     15  O   UNL A   1      32.860  21.808  25.350  1.00  0.00    -0.485 OA
BRANCH  15  16
ATOM     16  C   UNL A   1      33.380  20.610  24.967  1.00  0.00     0.122 A 
ATOM     17  C   UNL A   1      35.942  20.929  25.251  1.00  0.00     0.048 C 
ATOM     18  C   UNL A   1      34.703  20.151  24.916  1.00  0.00    -0.009 A 
ATOM     19  C   UNL A   1      34.924  18.801  24.555  1.00  0.00     0.007 A 
ATOM     20  C   UNL A   1      33.881  17.944  24.209  1.00  0.00     0.001 A 
ATOM     21  C   UNL A   1      32.339  19.733  24.600  1.00  0.00     0.047 A 
ATOM     22  C   UNL A   1      32.580  18.416  24.222  1.00  0.00     0.004 A 
ENDBRANCH  15  16
ENDBRANCH  14  15
ENDBRANCH  12  14
ENDBRANCH   7  12
ENDBRANCH   4   6
ENDBRANCH   3   4
ENDBRANCH   2   3
ENDBRANCH   1   2
BRANCH   1  23
ATOM     23  O   UNL A   1      31.735  29.907  25.395  1.00  0.00    -0.374 OA
BRANCH  23  24
ATOM     24  C   UNL A   1      32.051  30.740  26.490  1.00  0.00     0.202 C 
BRANCH  24  25
ATOM     25  C   UNL A   1      33.277  30.239  27.262  1.00  0.00     0.261 C 
BRANCH  25  26
ATOM     26  O   UNL A   1      34.245  31.306  27.400  1.00  0.00    -0.460 OA
BRANCH  26  27
ATOM     27  C   UNL A   1      34.927  31.359  28.581  1.00  0.00     0.338 C 
ATOM     28  O   UNL A   1      34.906  32.293  29.364  1.00  0.00    -0.246 OA
BRANCH  27  29
ATOM     29  C   UNL A   1      35.936  30.256  28.633  1.00  0.00     0.060 A 
ATOM     30  C   UNL A   1      36.226  29.610  29.854  1.00  0.00     0.016 A 
ATOM     31  C   UNL A   1      36.821  30.149  27.569  1.00  0.00     0.016 A 
ATOM     32  C   UNL A   1      37.477  28.997  30.051  1.00  0.00     0.010 A 
ATOM     33  C   UNL A   1      38.094  29.694  27.823  1.00  0.00     0.010 A 
ATOM     34  C   UNL A   1      38.443  29.119  29.054  1.00  0.00    -0.014 A 
BRANCH  34  35
ATOM     35  C   UNL A   1      39.855  28.740  29.147  1.00  0.00     0.031 A 
ATOM     36  C   UNL A   1      40.220  27.378  28.691  1.00  0.00     0.074 A 
ATOM     37  C   UNL A   1      40.838  29.638  29.408  1.00  0.00     0.049 A 
ATOM     38  N   UNL A   1      41.292  26.774  29.065  1.00  0.00    -0.248 NA
ATOM     39  C   UNL A   1      39.385  26.551  27.817  1.00  0.00     0.031 C 
ATOM     40  C   UNL A   1      42.245  29.558  29.010  1.00  0.00     0.029 A 
ATOM     41  N   UNL A   1      40.766  30.872  30.065  1.00  0.00    -0.354 N 
ATOM     42  C   UNL A   1      41.435  25.657  28.276  1.00  0.00     0.074 A 
ATOM     43  C   UNL A   1      40.183  25.507  27.584  1.00  0.00     0.031 C 
ATOM     44  C   UNL A   1      42.939  30.551  29.594  1.00  0.00     0.029 A 
ATOM     45  C   UNL A   1      42.043  31.245  30.502  1.00  0.00     0.049 A 
ATOM     46  H   UNL A   1      39.944  31.397  30.198  1.00  0.00     0.167 HD
ATOM     47  C   UNL A   1      42.658  25.069  28.178  1.00  0.00     0.037 A 
ATOM     48  C   UNL A   1      42.271  31.568  31.805  1.00  0.00     0.037 A 
ATOM     49  C   UNL A   1      43.656  25.857  28.904  1.00  0.00     0.049 A 
ATOM     50  C   UNL A   1      43.144  30.511  32.407  1.00  0.00     0.074 A 
ATOM     51  C   UNL A   1      44.563  26.812  28.474  1.00  0.00     0.029 A 
ATOM     52  N   UNL A   1      43.546  26.019  30.284  1.00  0.00    -0.354 N 
ATOM     53  N   UNL A   1      43.260  29.332  31.863  1.00  0.00    -0.248 NA
ATOM     54  C   UNL A   1      43.981  30.673  33.587  1.00  0.00     0.031 C 
ATOM     55  C   UNL A   1      44.987  27.558  29.606  1.00  0.00     0.029 A 
ATOM     56  C   UNL A   1      44.357  27.047  30.729  1.00  0.00     0.049 A 
ATOM     57  H   UNL A   1      42.966  25.475  30.865  1.00  0.00     0.167 HD
ATOM     58  C   UNL A   1      44.179  28.605  32.542  1.00  0.00     0.074 A 
ATOM     59  C   UNL A   1      44.589  29.473  33.632  1.00  0.00     0.031 C 
ATOM     60  C   UNL A   1      44.500  27.342  32.150  1.00  0.00     0.037 A 
BRANCH  47  61
ATOM     61  C   UNL A   1      42.984  23.979  27.183  1.00  0.00     0.064 A 
ATOM     62  C   UNL A   1      42.651  22.634  27.446  1.00  0.00     0.173 A 
ATOM     63  C   UNL A   1      43.628  24.197  25.948  1.00  0.00     0.173 A 
ATOM     64  F   UNL A   1      41.957  22.285  28.535  1.00  0.00    -0.203 F 
ATOM     65  C   UNL A   1      43.018  21.590  26.592  1.00  0.00     0.198 A 
ATOM     66  C   UNL A   1      44.047  23.148  25.123  1.00  0.00     0.198 A 
ATOM     67  F   UNL A   1      43.822  25.434  25.472  1.00  0.00    -0.203 F 
ATOM     68  F   UNL A   1      42.663  20.332  26.893  1.00  0.00    -0.200 F 
ATOM     69  C   UNL A   1      43.744  21.843  25.447  1.00  0.00     0.200 A 
ATOM     70  F   UNL A   1      44.739  23.414  24.005  1.00  0.00    -0.200 F 
ATOM     71  F   UNL A   1      44.121  20.837  24.645  1.00  0.00    -0.200 F 
ENDBRANCH  47  61
BRANCH  48  72
ATOM     72  C   UNL A   1      41.131  32.293  32.436  1.00  0.00     0.064 A 
ATOM     73  C   UNL A   1      40.270  31.542  33.262  1.00  0.00     0.173 A 
ATOM     74  C   UNL A   1      41.178  33.680  32.654  1.00  0.00     0.173 A 
ATOM     75  F   UNL A   1      40.208  30.208  33.127  1.00  0.00    -0.203 F 
ATOM     76  C   UNL A   1      39.589  32.128  34.332  1.00  0.00     0.198 A 
ATOM     77  C   UNL A   1      40.518  34.258  33.744  1.00  0.00     0.198 A 
ATOM     78  F   UNL A   1      41.992  34.451  31.920  1.00  0.00    -0.203 F 
ATOM     79  F   UNL A   1      38.914  31.357  35.197  1.00  0.00    -0.200 F 
ATOM     80  C   UNL A   1      39.745  33.480  34.594  1.00  0.00     0.200 A 
ATOM     81  F   UNL A   1      40.732  35.547  34.048  1.00  0.00    -0.200 F 
ATOM     82  F   UNL A   1      39.252  34.000  35.727  1.00  0.00    -0.200 F 
ENDBRANCH  48  72
BRANCH  60  83
ATOM     83  C   UNL A   1      45.064  26.309  33.074  1.00  0.00     0.064 A 
ATOM     84  C   UNL A   1      44.269  25.573  33.968  1.00  0.00     0.173 A 
ATOM     85  C   UNL A   1      46.407  25.890  32.952  1.00  0.00     0.173 A 
ATOM     86  F   UNL A   1      42.949  25.775  34.069  1.00  0.00    -0.203 F 
ATOM     87  C   UNL A   1      44.800  24.550  34.750  1.00  0.00     0.198 A 
ATOM     88  C   UNL A   1      46.913  24.816  33.675  1.00  0.00     0.198 A 
ATOM     89  F   UNL A   1      47.260  26.483  32.104  1.00  0.00    -0.203 F 
ATOM     90  F   UNL A   1      44.015  23.921  35.634  1.00  0.00    -0.200 F 
ATOM     91  C   UNL A   1      46.116  24.164  34.593  1.00  0.00     0.200 A 
ATOM     92  F   UNL A   1      48.168  24.403  33.457  1.00  0.00    -0.200 F 
ATOM     93  F   UNL A   1      46.611  23.147  35.310  1.00  0.00    -0.200 F 
ENDBRANCH  60  83
ENDBRANCH  34  35
ENDBRANCH  27  29
ENDBRANCH  26  27
ENDBRANCH  25  26
ENDBRANCH  24  25
ENDBRANCH  23  24
ENDBRANCH   1  23
TORSDOF 18
ENDMDL
