MODEL 1
REMARK VINA RESULT:     -11.4      0.000      0.000
REMARK SMILES CCc1c(Cl)ccc2c1C=C(C(=O)OCCOCCOC(=O)c1ccc(-c3c4nc(c(-c5c(F)c(F)c(F)c(F)c5F)c5ccc([nH]5)c(-c5c(F)c(F)c(F)c(F)c5F)c5nc(c(-c6c(F)c(F)c(F)c(F)c6F)c6ccc3[nH]6)C=C5)C=C4)cc1)[C@@H](C(F)(F)F)O2
REMARK SMILES IDX 18 1 17 2 16 3 15 4 14 5 12 6 13 7 11 8 3 9 4 10 9 11 5 12
REMARK SMILES IDX 6 13 8 14 10 15 7 16 91 17 86 18 2 19 1 20 87 21 88 22 89 23
REMARK SMILES IDX 90 24 19 25 20 26 21 27 22 28 23 29 24 30 85 31 25 32 84 33
REMARK SMILES IDX 26 34 27 35 28 36 78 37 29 38 83 39 77 40 79 41 30 42 82 43
REMARK SMILES IDX 76 44 75 45 31 47 63 48 43 49 62 50 44 51 47 52 61 53 80 54
REMARK SMILES IDX 45 55 46 56 60 58 81 59 48 60 32 61 33 62 41 63 34 64 35 65
REMARK SMILES IDX 39 66 42 67 36 68 37 69 40 70 38 71 64 72 65 73 73 74 66 75
REMARK SMILES IDX 67 76 71 77 74 78 68 79 69 80 72 81 70 82 49 83 50 84 58 85
REMARK SMILES IDX 51 86 52 87 56 88 59 89 53 90 54 91 57 92 55 93
REMARK H PARENT 79 46 47 57
REMARK Flexibility Score: inf
ROOT
ATOM      1  C   UNL A   1      31.579  31.279  26.434  1.00  0.00     0.202 C 
ENDROOT
BRANCH   1   2
ATOM      2  O   UNL A   1      32.350  30.294  27.120  1.00  0.00    -0.374 OA
BRANCH   2   3
ATOM      3  C   UNL A   1      33.480  29.732  26.461  1.00  0.00     0.202 C 
BRANCH   3   4
ATOM      4  C   UNL A   1      33.793  28.253  26.712  1.00  0.00     0.261 C 
BRANCH   4   5
ATOM      5  O   UNL A   1      33.059  27.384  25.837  1.00  0.00    -0.460 OA
BRANCH   5   6
ATOM      6  C   UNL A   1      32.073  26.678  26.444  1.00  0.00     0.338 C 
ATOM      7  O   UNL A   1      31.225  27.113  27.204  1.00  0.00    -0.246 OA
BRANCH   6   8
ATOM      8  C   UNL A   1      32.087  25.285  25.956  1.00  0.00     0.087 C 
ATOM      9  C   UNL A   1      34.547  22.493  25.678  1.00  0.00    -0.019 A 
ATOM     10  C   UNL A   1      34.604  21.264  24.985  1.00  0.00     0.045 A 
ATOM     11  C   UNL A   1      33.360  23.265  25.575  1.00  0.00     0.022 A 
ATOM     12  Cl  UNL A   1      36.011  20.255  24.997  1.00  0.00    -0.084 Cl
ATOM     13  C   UNL A   1      33.510  20.796  24.254  1.00  0.00     0.024 A 
ATOM     14  C   UNL A   1      32.248  22.744  24.893  1.00  0.00     0.128 A 
ATOM     15  C   UNL A   1      33.243  24.622  26.104  1.00  0.00     0.027 C 
ATOM     16  C   UNL A   1      32.326  21.522  24.233  1.00  0.00     0.048 A 
ATOM     17  O   UNL A   1      31.025  23.349  24.823  1.00  0.00    -0.475 OA
ATOM     18  C   UNL A   1      30.859  24.698  25.326  1.00  0.00     0.316 C 
BRANCH   9  19
ATOM     19  C   UNL A   1      35.727  22.943  26.524  1.00  0.00     0.034 C 
ATOM     20  C   UNL A   1      36.793  23.691  25.737  1.00  0.00     0.009 C 
ENDBRANCH   9  19
BRANCH  18  21
ATOM     21  C   UNL A   1      30.305  25.558  24.179  1.00  0.00     0.430 C 
ATOM     22  F   UNL A   1      31.303  26.189  23.514  1.00  0.00    -0.167 F 
ATOM     23  F   UNL A   1      29.643  24.814  23.261  1.00  0.00    -0.167 F 
ATOM     24  F   UNL A   1      29.450  26.506  24.625  1.00  0.00    -0.167 F 
ENDBRANCH  18  21
ENDBRANCH   6   8
ENDBRANCH   5   6
ENDBRANCH   4   5
ENDBRANCH   3   4
ENDBRANCH   2   3
ENDBRANCH   1   2
BRANCH   1  25
ATOM     25  C   UNL A   1      31.687  32.741  26.889  1.00  0.00     0.261 C 
BRANCH  25  26
ATOM     26  O   UNL A   1      33.034  33.239  26.875  1.00  0.00    -0.460 OA
BRANCH  26  27
ATOM     27  C   UNL A   1      33.429  33.847  28.021  1.00  0.00     0.338 C 
ATOM     28  O   UNL A   1      32.831  34.704  28.653  1.00  0.00    -0.246 OA
BRANCH  27  29
ATOM     29  C   UNL A   1      34.639  33.178  28.533  1.00  0.00     0.060 A 
ATOM     30  C   UNL A   1      35.896  33.767  28.405  1.00  0.00     0.016 A 
ATOM     31  C   UNL A   1      34.489  31.950  29.194  1.00  0.00     0.016 A 
ATOM     32  C   UNL A   1      37.007  33.130  28.961  1.00  0.00     0.010 A 
ATOM     33  C   UNL A   1      35.600  31.317  29.748  1.00  0.00     0.010 A 
ATOM     34  C   UNL A   1      36.866  31.910  29.650  1.00  0.00    -0.014 A 
BRANCH  34  35
ATOM     35  C   UNL A   1      38.026  31.325  30.366  1.00  0.00     0.031 A 
ATOM     36  C   UNL A   1      38.343  31.699  31.782  1.00  0.00     0.074 A 
ATOM     37  C   UNL A   1      38.804  30.440  29.712  1.00  0.00     0.049 A 
ATOM     38  N   UNL A   1      39.265  31.211  32.575  1.00  0.00    -0.248 NA
ATOM     39  C   UNL A   1      37.528  32.762  32.387  1.00  0.00     0.031 C 
ATOM     40  C   UNL A   1      38.616  30.033  28.320  1.00  0.00     0.029 A 
ATOM     41  N   UNL A   1      39.891  29.716  30.130  1.00  0.00    -0.354 N 
ATOM     42  C   UNL A   1      39.124  31.885  33.779  1.00  0.00     0.074 A 
ATOM     43  C   UNL A   1      38.070  32.860  33.595  1.00  0.00     0.031 C 
ATOM     44  C   UNL A   1      39.527  29.099  28.011  1.00  0.00     0.029 A 
ATOM     45  C   UNL A   1      40.383  28.864  29.171  1.00  0.00     0.049 A 
ATOM     46  H   UNL A   1      40.281  29.797  31.031  1.00  0.00     0.167 HD
ATOM     47  C   UNL A   1      39.799  31.686  34.938  1.00  0.00     0.037 A 
ATOM     48  C   UNL A   1      41.403  27.987  29.222  1.00  0.00     0.037 A 
ATOM     49  C   UNL A   1      40.860  30.725  35.106  1.00  0.00     0.049 A 
ATOM     50  C   UNL A   1      42.173  27.827  30.505  1.00  0.00     0.074 A 
ATOM     51  C   UNL A   1      41.580  30.429  36.252  1.00  0.00     0.029 A 
ATOM     52  N   UNL A   1      41.365  29.914  34.100  1.00  0.00    -0.354 N 
ATOM     53  N   UNL A   1      41.977  28.409  31.663  1.00  0.00    -0.248 NA
ATOM     54  C   UNL A   1      43.301  26.887  30.488  1.00  0.00     0.031 C 
ATOM     55  C   UNL A   1      42.558  29.485  35.925  1.00  0.00     0.029 A 
ATOM     56  C   UNL A   1      42.410  29.144  34.591  1.00  0.00     0.049 A 
ATOM     57  H   UNL A   1      41.032  29.890  33.174  1.00  0.00     0.167 HD
ATOM     58  C   UNL A   1      42.942  27.893  32.517  1.00  0.00     0.074 A 
ATOM     59  C   UNL A   1      43.709  26.934  31.750  1.00  0.00     0.031 C 
ATOM     60  C   UNL A   1      43.170  28.192  33.820  1.00  0.00     0.037 A 
BRANCH  47  61
ATOM     61  C   UNL A   1      39.404  32.511  36.130  1.00  0.00     0.064 A 
ATOM     62  C   UNL A   1      38.433  32.061  37.038  1.00  0.00     0.173 A 
ATOM     63  C   UNL A   1      40.055  33.722  36.413  1.00  0.00     0.173 A 
ATOM     64  F   UNL A   1      37.778  30.913  36.811  1.00  0.00    -0.203 F 
ATOM     65  C   UNL A   1      38.116  32.801  38.175  1.00  0.00     0.198 A 
ATOM     66  C   UNL A   1      39.757  34.443  37.567  1.00  0.00     0.198 A 
ATOM     67  F   UNL A   1      40.999  34.193  35.585  1.00  0.00    -0.203 F 
ATOM     68  F   UNL A   1      37.161  32.367  39.009  1.00  0.00    -0.200 F 
ATOM     69  C   UNL A   1      38.785  33.985  38.443  1.00  0.00     0.200 A 
ATOM     70  F   UNL A   1      40.418  35.578  37.836  1.00  0.00    -0.200 F 
ATOM     71  F   UNL A   1      38.492  34.686  39.547  1.00  0.00    -0.200 F 
ENDBRANCH  47  61
BRANCH  48  72
ATOM     72  C   UNL A   1      41.718  27.162  28.028  1.00  0.00     0.064 A 
ATOM     73  C   UNL A   1      41.063  25.943  27.805  1.00  0.00     0.173 A 
ATOM     74  C   UNL A   1      42.652  27.586  27.071  1.00  0.00     0.173 A 
ATOM     75  F   UNL A   1      40.176  25.486  28.700  1.00  0.00    -0.203 F 
ATOM     76  C   UNL A   1      41.334  25.177  26.672  1.00  0.00     0.198 A 
ATOM     77  C   UNL A   1      42.900  26.835  25.925  1.00  0.00     0.198 A 
ATOM     78  F   UNL A   1      43.303  28.747  27.236  1.00  0.00    -0.203 F 
ATOM     79  F   UNL A   1      40.717  24.000  26.499  1.00  0.00    -0.200 F 
ATOM     80  C   UNL A   1      42.244  25.629  25.729  1.00  0.00     0.200 A 
ATOM     81  F   UNL A   1      43.767  27.283  25.007  1.00  0.00    -0.200 F 
ATOM     82  F   UNL A   1      42.493  24.900  24.632  1.00  0.00    -0.200 F 
ENDBRANCH  48  72
BRANCH  60  83
ATOM     83  C   UNL A   1      44.293  27.475  34.515  1.00  0.00     0.064 A 
ATOM     84  C   UNL A   1      44.115  26.200  35.071  1.00  0.00     0.173 A 
ATOM     85  C   UNL A   1      45.582  28.032  34.550  1.00  0.00     0.173 A 
ATOM     86  F   UNL A   1      42.901  25.629  35.077  1.00  0.00    -0.203 F 
ATOM     87  C   UNL A   1      45.182  25.515  35.648  1.00  0.00     0.198 A 
ATOM     88  C   UNL A   1      46.652  27.330  35.098  1.00  0.00     0.198 A 
ATOM     89  F   UNL A   1      45.809  29.246  34.025  1.00  0.00    -0.203 F 
ATOM     90  F   UNL A   1      44.981  24.313  36.204  1.00  0.00    -0.200 F 
ATOM     91  C   UNL A   1      46.452  26.074  35.649  1.00  0.00     0.200 A 
ATOM     92  F   UNL A   1      47.881  27.864  35.080  1.00  0.00    -0.200 F 
ATOM     93  F   UNL A   1      47.481  25.403  36.182  1.00  0.00    -0.200 F 
ENDBRANCH  60  83
ENDBRANCH  34  35
ENDBRANCH  27  29
ENDBRANCH  26  27
ENDBRANCH  25  26
ENDBRANCH   1  25
TORSDOF 16
ENDMDL
MODEL 2
REMARK VINA RESULT:     -11.3      4.433      9.972
REMARK SMILES CCc1c(Cl)ccc2c1C=C(C(=O)OCCOCCOC(=O)c1ccc(-c3c4nc(c(-c5c(F)c(F)c(F)c(F)c5F)c5ccc([nH]5)c(-c5c(F)c(F)c(F)c(F)c5F)c5nc(c(-c6c(F)c(F)c(F)c(F)c6F)c6ccc3[nH]6)C=C5)C=C4)cc1)[C@@H](C(F)(F)F)O2
REMARK SMILES IDX 18 1 17 2 16 3 15 4 14 5 12 6 13 7 11 8 3 9 4 10 9 11 5 12
REMARK SMILES IDX 6 13 8 14 10 15 7 16 91 17 86 18 2 19 1 20 87 21 88 22 89 23
REMARK SMILES IDX 90 24 19 25 20 26 21 27 22 28 23 29 24 30 85 31 25 32 84 33
REMARK SMILES IDX 26 34 27 35 28 36 78 37 29 38 83 39 77 40 79 41 30 42 82 43
REMARK SMILES IDX 76 44 75 45 31 47 63 48 43 49 62 50 44 51 47 52 61 53 80 54
REMARK SMILES IDX 45 55 46 56 60 58 81 59 48 60 32 61 33 62 41 63 34 64 35 65
REMARK SMILES IDX 39 66 42 67 36 68 37 69 40 70 38 71 64 72 65 73 73 74 66 75
REMARK SMILES IDX 67 76 71 77 74 78 68 79 69 80 72 81 70 82 49 83 50 84 58 85
REMARK SMILES IDX 51 86 52 87 56 88 59 89 53 90 54 91 57 92 55 93
REMARK H PARENT 79 46 47 57
REMARK Flexibility Score: inf
ROOT
ATOM      1  C   UNL A   1      35.611  21.207  25.771  1.00  0.00     0.202 C 
ENDROOT
BRANCH   1   2
ATOM      2  O   UNL A   1      34.459  21.598  25.026  1.00  0.00    -0.374 OA
BRANCH   2   3
ATOM      3  C   UNL A   1      34.640  22.384  23.852  1.00  0.00     0.202 C 
BRANCH   3   4
ATOM      4  C   UNL A   1      33.772  23.636  23.688  1.00  0.00     0.261 C 
BRANCH   4   5
ATOM      5  O   UNL A   1      34.190  24.707  24.546  1.00  0.00    -0.460 OA
BRANCH   5   6
ATOM      6  C   UNL A   1      33.339  24.974  25.568  1.00  0.00     0.338 C 
ATOM      7  O   UNL A   1      33.044  24.228  26.486  1.00  0.00    -0.246 OA
BRANCH   6   8
ATOM      8  C   UNL A   1      32.891  26.378  25.488  1.00  0.00     0.087 C 
ATOM      9  C   UNL A   1      33.681  29.615  27.169  1.00  0.00    -0.019 A 
ATOM     10  C   UNL A   1      33.068  30.886  27.249  1.00  0.00     0.045 A 
ATOM     11  C   UNL A   1      33.079  28.635  26.335  1.00  0.00     0.022 A 
ATOM     12  Cl  UNL A   1      33.679  32.149  28.263  1.00  0.00    -0.084 Cl
ATOM     13  C   UNL A   1      31.930  31.188  26.499  1.00  0.00     0.024 A 
ATOM     14  C   UNL A   1      31.977  28.981  25.537  1.00  0.00     0.128 A 
ATOM     15  C   UNL A   1      33.519  27.242  26.298  1.00  0.00     0.027 C 
ATOM     16  C   UNL A   1      31.403  30.246  25.624  1.00  0.00     0.048 A 
ATOM     17  O   UNL A   1      31.390  28.153  24.622  1.00  0.00    -0.475 OA
ATOM     18  C   UNL A   1      31.784  26.761  24.552  1.00  0.00     0.316 C 
BRANCH   9  19
ATOM     19  C   UNL A   1      34.959  29.339  27.942  1.00  0.00     0.034 C 
ATOM     20  C   UNL A   1      36.214  29.849  27.249  1.00  0.00     0.009 C 
ENDBRANCH   9  19
BRANCH  18  21
ATOM     21  C   UNL A   1      30.520  25.908  24.738  1.00  0.00     0.430 C 
ATOM     22  F   UNL A   1      29.440  26.505  24.177  1.00  0.00    -0.167 F 
ATOM     23  F   UNL A   1      30.634  24.694  24.149  1.00  0.00    -0.167 F 
ATOM     24  F   UNL A   1      30.237  25.700  26.044  1.00  0.00    -0.167 F 
ENDBRANCH  18  21
ENDBRANCH   6   8
ENDBRANCH   5   6
ENDBRANCH   4   5
ENDBRANCH   3   4
ENDBRANCH   2   3
ENDBRANCH   1   2
BRANCH   1  25
ATOM     25  C   UNL A   1      36.880  20.815  25.003  1.00  0.00     0.261 C 
BRANCH  25  26
ATOM     26  O   UNL A   1      37.936  21.782  25.124  1.00  0.00    -0.460 OA
BRANCH  26  27
ATOM     27  C   UNL A   1      38.909  21.456  26.011  1.00  0.00     0.338 C 
ATOM     28  O   UNL A   1      39.365  20.346  26.241  1.00  0.00    -0.246 OA
BRANCH  27  29
ATOM     29  C   UNL A   1      39.505  22.690  26.553  1.00  0.00     0.060 A 
ATOM     30  C   UNL A   1      40.541  22.640  27.486  1.00  0.00     0.016 A 
ATOM     31  C   UNL A   1      39.034  23.921  26.075  1.00  0.00     0.016 A 
ATOM     32  C   UNL A   1      41.120  23.832  27.925  1.00  0.00     0.010 A 
ATOM     33  C   UNL A   1      39.615  25.109  26.515  1.00  0.00     0.010 A 
ATOM     34  C   UNL A   1      40.674  25.073  27.431  1.00  0.00    -0.014 A 
BRANCH  34  35
ATOM     35  C   UNL A   1      41.400  26.317  27.788  1.00  0.00     0.031 A 
ATOM     36  C   UNL A   1      42.811  26.555  27.346  1.00  0.00     0.074 A 
ATOM     37  C   UNL A   1      40.761  27.242  28.530  1.00  0.00     0.049 A 
ATOM     38  N   UNL A   1      43.551  27.625  27.498  1.00  0.00    -0.248 NA
ATOM     39  C   UNL A   1      43.485  25.450  26.649  1.00  0.00     0.031 C 
ATOM     40  C   UNL A   1      39.402  27.100  29.053  1.00  0.00     0.029 A 
ATOM     41  N   UNL A   1      41.157  28.483  28.959  1.00  0.00    -0.354 N 
ATOM     42  C   UNL A   1      44.766  27.336  26.893  1.00  0.00     0.074 A 
ATOM     43  C   UNL A   1      44.686  25.967  26.426  1.00  0.00     0.031 C 
ATOM     44  C   UNL A   1      39.060  28.227  29.694  1.00  0.00     0.029 A 
ATOM     45  C   UNL A   1      40.184  29.158  29.656  1.00  0.00     0.049 A 
ATOM     46  H   UNL A   1      42.052  28.855  28.784  1.00  0.00     0.167 HD
ATOM     47  C   UNL A   1      45.836  28.150  26.724  1.00  0.00     0.037 A 
ATOM     48  C   UNL A   1      40.194  30.391  30.197  1.00  0.00     0.037 A 
ATOM     49  C   UNL A   1      45.912  29.505  27.209  1.00  0.00     0.049 A 
ATOM     50  C   UNL A   1      41.417  31.252  30.044  1.00  0.00     0.074 A 
ATOM     51  C   UNL A   1      46.942  30.417  27.056  1.00  0.00     0.029 A 
ATOM     52  N   UNL A   1      44.928  30.139  27.953  1.00  0.00    -0.354 N 
ATOM     53  N   UNL A   1      42.529  31.000  29.397  1.00  0.00    -0.248 NA
ATOM     54  C   UNL A   1      41.385  32.571  30.691  1.00  0.00     0.031 C 
ATOM     55  C   UNL A   1      46.608  31.579  27.758  1.00  0.00     0.029 A 
ATOM     56  C   UNL A   1      45.342  31.418  28.296  1.00  0.00     0.049 A 
ATOM     57  H   UNL A   1      44.063  29.739  28.202  1.00  0.00     0.167 HD
ATOM     58  C   UNL A   1      43.320  32.131  29.542  1.00  0.00     0.074 A 
ATOM     59  C   UNL A   1      42.553  33.081  30.319  1.00  0.00     0.031 C 
ATOM     60  C   UNL A   1      44.572  32.358  29.072  1.00  0.00     0.037 A 
BRANCH  47  61
ATOM     61  C   UNL A   1      47.015  27.608  25.966  1.00  0.00     0.064 A 
ATOM     62  C   UNL A   1      47.086  27.699  24.567  1.00  0.00     0.173 A 
ATOM     63  C   UNL A   1      48.119  27.068  26.644  1.00  0.00     0.173 A 
ATOM     64  F   UNL A   1      46.057  28.203  23.870  1.00  0.00    -0.203 F 
ATOM     65  C   UNL A   1      48.209  27.253  23.875  1.00  0.00     0.198 A 
ATOM     66  C   UNL A   1      49.253  26.652  25.951  1.00  0.00     0.198 A 
ATOM     67  F   UNL A   1      48.109  26.968  27.982  1.00  0.00    -0.203 F 
ATOM     68  F   UNL A   1      48.239  27.318  22.537  1.00  0.00    -0.200 F 
ATOM     69  C   UNL A   1      49.295  26.739  24.568  1.00  0.00     0.200 A 
ATOM     70  F   UNL A   1      50.310  26.174  26.623  1.00  0.00    -0.200 F 
ATOM     71  F   UNL A   1      50.383  26.327  23.901  1.00  0.00    -0.200 F 
ENDBRANCH  47  61
BRANCH  48  72
ATOM     72  C   UNL A   1      38.981  30.893  30.894  1.00  0.00     0.064 A 
ATOM     73  C   UNL A   1      37.995  31.603  30.195  1.00  0.00     0.173 A 
ATOM     74  C   UNL A   1      38.766  30.648  32.258  1.00  0.00     0.173 A 
ATOM     75  F   UNL A   1      38.164  31.878  28.894  1.00  0.00    -0.203 F 
ATOM     76  C   UNL A   1      36.843  32.053  30.836  1.00  0.00     0.198 A 
ATOM     77  C   UNL A   1      37.601  31.072  32.891  1.00  0.00     0.198 A 
ATOM     78  F   UNL A   1      39.679  29.969  32.970  1.00  0.00    -0.203 F 
ATOM     79  F   UNL A   1      35.930  32.757  30.152  1.00  0.00    -0.200 F 
ATOM     80  C   UNL A   1      36.642  31.778  32.180  1.00  0.00     0.200 A 
ATOM     81  F   UNL A   1      37.403  30.789  34.185  1.00  0.00    -0.200 F 
ATOM     82  F   UNL A   1      35.526  32.197  32.793  1.00  0.00    -0.200 F 
ENDBRANCH  48  72
BRANCH  60  83
ATOM     83  C   UNL A   1      45.202  33.688  29.377  1.00  0.00     0.064 A 
ATOM     84  C   UNL A   1      45.022  34.794  28.534  1.00  0.00     0.173 A 
ATOM     85  C   UNL A   1      45.924  33.879  30.566  1.00  0.00     0.173 A 
ATOM     86  F   UNL A   1      44.353  34.661  27.379  1.00  0.00    -0.203 F 
ATOM     87  C   UNL A   1      45.550  36.040  28.866  1.00  0.00     0.198 A 
ATOM     88  C   UNL A   1      46.422  35.134  30.909  1.00  0.00     0.198 A 
ATOM     89  F   UNL A   1      46.120  32.855  31.411  1.00  0.00    -0.203 F 
ATOM     90  F   UNL A   1      45.394  37.074  28.028  1.00  0.00    -0.200 F 
ATOM     91  C   UNL A   1      46.238  36.212  30.058  1.00  0.00     0.200 A 
ATOM     92  F   UNL A   1      47.069  35.301  32.070  1.00  0.00    -0.200 F 
ATOM     93  F   UNL A   1      46.724  37.416  30.385  1.00  0.00    -0.200 F 
ENDBRANCH  60  83
ENDBRANCH  34  35
ENDBRANCH  27  29
ENDBRANCH  26  27
ENDBRANCH  25  26
ENDBRANCH   1  25
TORSDOF 16
ENDMDL
MODEL 3
REMARK VINA RESULT:     -11.2      1.302      2.523
REMARK SMILES CCc1c(Cl)ccc2c1C=C(C(=O)OCCOCCOC(=O)c1ccc(-c3c4nc(c(-c5c(F)c(F)c(F)c(F)c5F)c5ccc([nH]5)c(-c5c(F)c(F)c(F)c(F)c5F)c5nc(c(-c6c(F)c(F)c(F)c(F)c6F)c6ccc3[nH]6)C=C5)C=C4)cc1)[C@@H](C(F)(F)F)O2
REMARK SMILES IDX 18 1 17 2 16 3 15 4 14 5 12 6 13 7 11 8 3 9 4 10 9 11 5 12
REMARK SMILES IDX 6 13 8 14 10 15 7 16 91 17 86 18 2 19 1 20 87 21 88 22 89 23
REMARK SMILES IDX 90 24 19 25 20 26 21 27 22 28 23 29 24 30 85 31 25 32 84 33
REMARK SMILES IDX 26 34 27 35 28 36 78 37 29 38 83 39 77 40 79 41 30 42 82 43
REMARK SMILES IDX 76 44 75 45 31 47 63 48 43 49 62 50 44 51 47 52 61 53 80 54
REMARK SMILES IDX 45 55 46 56 60 58 81 59 48 60 32 61 33 62 41 63 34 64 35 65
REMARK SMILES IDX 39 66 42 67 36 68 37 69 40 70 38 71 64 72 65 73 73 74 66 75
REMARK SMILES IDX 67 76 71 77 74 78 68 79 69 80 72 81 70 82 49 83 50 84 58 85
REMARK SMILES IDX 51 86 52 87 56 88 59 89 53 90 54 91 57 92 55 93
REMARK H PARENT 79 46 47 57
REMARK Flexibility Score: inf
ROOT
ATOM      1  C   UNL A   1      31.937  31.910  27.086  1.00  0.00     0.202 C 
ENDROOT
BRANCH   1   2
ATOM      2  O   UNL A   1      32.736  30.825  26.617  1.00  0.00    -0.374 OA
BRANCH   2   3
ATOM      3  C   UNL A   1      33.991  30.581  27.245  1.00  0.00     0.202 C 
BRANCH   3   4
ATOM      4  C   UNL A   1      34.545  29.153  27.205  1.00  0.00     0.261 C 
BRANCH   4   5
ATOM      5  O   UNL A   1      33.527  28.179  26.939  1.00  0.00    -0.460 OA
BRANCH   5   6
ATOM      6  C   UNL A   1      33.578  27.636  25.698  1.00  0.00     0.338 C 
ATOM      7  O   UNL A   1      34.028  28.156  24.692  1.00  0.00    -0.246 OA
BRANCH   6   8
ATOM      8  C   UNL A   1      33.110  26.236  25.747  1.00  0.00     0.087 C 
ATOM      9  C   UNL A   1      34.581  22.829  25.358  1.00  0.00    -0.019 A 
ATOM     10  C   UNL A   1      34.070  21.526  25.163  1.00  0.00     0.045 A 
ATOM     11  C   UNL A   1      33.654  23.890  25.539  1.00  0.00     0.022 A 
ATOM     12  Cl  UNL A   1      35.096  20.159  24.889  1.00  0.00    -0.084 Cl
ATOM     13  C   UNL A   1      32.697  21.277  25.191  1.00  0.00     0.024 A 
ATOM     14  C   UNL A   1      32.281  23.607  25.632  1.00  0.00     0.128 A 
ATOM     15  C   UNL A   1      34.050  25.296  25.581  1.00  0.00     0.027 C 
ATOM     16  C   UNL A   1      31.807  22.311  25.453  1.00  0.00     0.048 A 
ATOM     17  O   UNL A   1      31.315  24.532  25.912  1.00  0.00    -0.475 OA
ATOM     18  C   UNL A   1      31.655  25.939  25.956  1.00  0.00     0.316 C 
BRANCH   9  19
ATOM     19  C   UNL A   1      36.082  23.058  25.395  1.00  0.00     0.034 C 
ATOM     20  C   UNL A   1      36.707  23.240  24.020  1.00  0.00     0.009 C 
ENDBRANCH   9  19
BRANCH  18  21
ATOM     21  C   UNL A   1      30.744  26.671  24.959  1.00  0.00     0.430 C 
ATOM     22  F   UNL A   1      31.191  26.522  23.688  1.00  0.00    -0.167 F 
ATOM     23  F   UNL A   1      29.478  26.189  24.978  1.00  0.00    -0.167 F 
ATOM     24  F   UNL A   1      30.676  27.997  25.214  1.00  0.00    -0.167 F 
ENDBRANCH  18  21
ENDBRANCH   6   8
ENDBRANCH   5   6
ENDBRANCH   4   5
ENDBRANCH   3   4
ENDBRANCH   2   3
ENDBRANCH   1   2
BRANCH   1  25
ATOM     25  C   UNL A   1      32.596  33.285  27.255  1.00  0.00     0.261 C 
BRANCH  25  26
ATOM     26  O   UNL A   1      32.164  33.977  28.438  1.00  0.00    -0.460 OA
BRANCH  26  27
ATOM     27  C   UNL A   1      32.947  35.022  28.806  1.00  0.00     0.338 C 
ATOM     28  O   UNL A   1      32.682  36.212  28.734  1.00  0.00    -0.246 OA
BRANCH  27  29
ATOM     29  C   UNL A   1      34.138  34.512  29.508  1.00  0.00     0.060 A 
ATOM     30  C   UNL A   1      34.034  33.923  30.768  1.00  0.00     0.016 A 
ATOM     31  C   UNL A   1      35.378  34.596  28.859  1.00  0.00     0.016 A 
ATOM     32  C   UNL A   1      35.178  33.396  31.370  1.00  0.00     0.010 A 
ATOM     33  C   UNL A   1      36.519  34.067  29.463  1.00  0.00     0.010 A 
ATOM     34  C   UNL A   1      36.424  33.448  30.717  1.00  0.00    -0.014 A 
BRANCH  34  35
ATOM     35  C   UNL A   1      37.596  32.749  31.299  1.00  0.00     0.031 A 
ATOM     36  C   UNL A   1      38.140  33.117  32.645  1.00  0.00     0.074 A 
ATOM     37  C   UNL A   1      38.174  31.763  30.585  1.00  0.00     0.049 A 
ATOM     38  N   UNL A   1      39.098  32.544  33.330  1.00  0.00    -0.248 NA
ATOM     39  C   UNL A   1      37.539  34.283  33.308  1.00  0.00     0.031 C 
ATOM     40  C   UNL A   1      37.757  31.347  29.246  1.00  0.00     0.029 A 
ATOM     41  N   UNL A   1      39.218  30.926  30.886  1.00  0.00    -0.354 N 
ATOM     42  C   UNL A   1      39.197  33.258  34.515  1.00  0.00     0.074 A 
ATOM     43  C   UNL A   1      38.244  34.346  34.430  1.00  0.00     0.031 C 
ATOM     44  C   UNL A   1      38.506  30.305  28.858  1.00  0.00     0.029 A 
ATOM     45  C   UNL A   1      39.478  29.999  29.906  1.00  0.00     0.049 A 
ATOM     46  H   UNL A   1      39.731  30.983  31.725  1.00  0.00     0.167 HD
ATOM     47  C   UNL A   1      39.993  33.010  35.583  1.00  0.00     0.037 A 
ATOM     48  C   UNL A   1      40.390  29.010  29.859  1.00  0.00     0.037 A 
ATOM     49  C   UNL A   1      40.952  31.936  35.650  1.00  0.00     0.049 A 
ATOM     50  C   UNL A   1      41.301  28.792  31.035  1.00  0.00     0.074 A 
ATOM     51  C   UNL A   1      41.780  31.585  36.703  1.00  0.00     0.029 A 
ATOM     52  N   UNL A   1      41.223  31.046  34.620  1.00  0.00    -0.354 N 
ATOM     53  N   UNL A   1      41.329  29.421  32.185  1.00  0.00    -0.248 NA
ATOM     54  C   UNL A   1      42.303  27.726  30.910  1.00  0.00     0.031 C 
ATOM     55  C   UNL A   1      42.592  30.525  36.290  1.00  0.00     0.029 A 
ATOM     56  C   UNL A   1      42.230  30.171  35.000  1.00  0.00     0.049 A 
ATOM     57  H   UNL A   1      40.768  31.039  33.747  1.00  0.00     0.167 HD
ATOM     58  C   UNL A   1      42.334  28.816  32.926  1.00  0.00     0.074 A 
ATOM     59  C   UNL A   1      42.879  27.755  32.105  1.00  0.00     0.031 C 
ATOM     60  C   UNL A   1      42.767  29.118  34.176  1.00  0.00     0.037 A 
BRANCH  47  61
ATOM     61  C   UNL A   1      39.857  33.905  36.782  1.00  0.00     0.064 A 
ATOM     62  C   UNL A   1      40.495  35.153  36.835  1.00  0.00     0.173 A 
ATOM     63  C   UNL A   1      39.019  33.552  37.851  1.00  0.00     0.173 A 
ATOM     64  F   UNL A   1      41.311  35.538  35.841  1.00  0.00    -0.203 F 
ATOM     65  C   UNL A   1      40.314  36.006  37.921  1.00  0.00     0.198 A 
ATOM     66  C   UNL A   1      38.816  34.421  38.921  1.00  0.00     0.198 A 
ATOM     67  F   UNL A   1      38.376  32.375  37.847  1.00  0.00    -0.203 F 
ATOM     68  F   UNL A   1      40.963  37.179  37.964  1.00  0.00    -0.200 F 
ATOM     69  C   UNL A   1      39.468  35.644  38.957  1.00  0.00     0.200 A 
ATOM     70  F   UNL A   1      37.983  34.078  39.913  1.00  0.00    -0.200 F 
ATOM     71  F   UNL A   1      39.281  36.474  39.993  1.00  0.00    -0.200 F 
ENDBRANCH  47  61
BRANCH  48  72
ATOM     72  C   UNL A   1      40.446  28.124  28.667  1.00  0.00     0.064 A 
ATOM     73  C   UNL A   1      41.214  28.475  27.548  1.00  0.00     0.173 A 
ATOM     74  C   UNL A   1      39.765  26.899  28.633  1.00  0.00     0.173 A 
ATOM     75  F   UNL A   1      41.869  29.646  27.526  1.00  0.00    -0.203 F 
ATOM     76  C   UNL A   1      41.294  27.637  26.438  1.00  0.00     0.198 A 
ATOM     77  C   UNL A   1      39.869  26.047  27.536  1.00  0.00     0.198 A 
ATOM     78  F   UNL A   1      39.020  26.515  29.680  1.00  0.00    -0.203 F 
ATOM     79  F   UNL A   1      42.010  28.011  25.369  1.00  0.00    -0.200 F 
ATOM     80  C   UNL A   1      40.630  26.419  26.437  1.00  0.00     0.200 A 
ATOM     81  F   UNL A   1      39.241  24.864  27.546  1.00  0.00    -0.200 F 
ATOM     82  F   UNL A   1      40.720  25.606  25.376  1.00  0.00    -0.200 F 
ENDBRANCH  48  72
BRANCH  60  83
ATOM     83  C   UNL A   1      43.885  28.291  34.747  1.00  0.00     0.064 A 
ATOM     84  C   UNL A   1      45.225  28.687  34.627  1.00  0.00     0.173 A 
ATOM     85  C   UNL A   1      43.606  27.134  35.493  1.00  0.00     0.173 A 
ATOM     86  F   UNL A   1      45.546  29.775  33.911  1.00  0.00    -0.203 F 
ATOM     87  C   UNL A   1      46.245  27.950  35.223  1.00  0.00     0.198 A 
ATOM     88  C   UNL A   1      44.627  26.420  36.115  1.00  0.00     0.198 A 
ATOM     89  F   UNL A   1      42.341  26.715  35.645  1.00  0.00    -0.203 F 
ATOM     90  F   UNL A   1      47.521  28.328  35.066  1.00  0.00    -0.200 F 
ATOM     91  C   UNL A   1      45.945  26.825  35.977  1.00  0.00     0.200 A 
ATOM     92  F   UNL A   1      44.332  25.344  36.859  1.00  0.00    -0.200 F 
ATOM     93  F   UNL A   1      46.926  26.132  36.569  1.00  0.00    -0.200 F 
ENDBRANCH  60  83
ENDBRANCH  34  35
ENDBRANCH  27  29
ENDBRANCH  26  27
ENDBRANCH  25  26
ENDBRANCH   1  25
TORSDOF 16
ENDMDL
