MODEL 1
REMARK VINA RESULT:     -11.9      0.000      0.000
REMARK SMILES CC(C)N(c1cc2c(cc1Cl)C=C(C(=O)OCCOCCOC(=O)c1ccc(-c3c4nc(c(-c5c(F)c(F)c(F)c(F)c5F)c5ccc([nH]5)c(-c5c(F)c(F)c(F)c(F)c5F)c5nc(c(-c6c(F)c(F)c(F)c(F)c6F)c6ccc3[nH]6)C=C5)C=C4)cc1)[C@@H](C(F)(F)F)O2)C(C)C
REMARK SMILES IDX 19 1 18 2 17 3 16 4 14 5 15 6 13 7 5 8 6 9 10 10 7 11 9 12
REMARK SMILES IDX 11 13 8 14 93 15 12 16 88 17 4 18 2 19 1 20 3 21 94 22 95 23
REMARK SMILES IDX 96 24 89 25 90 26 91 27 92 28 20 29 21 30 22 31 23 32 24 33
REMARK SMILES IDX 25 34 26 35 87 36 27 37 86 38 28 39 29 40 30 41 80 42 31 43
REMARK SMILES IDX 85 44 79 45 81 46 32 47 84 48 78 49 77 50 33 52 65 53 45 54
REMARK SMILES IDX 64 55 46 56 49 57 63 58 82 59 47 60 48 61 62 63 83 64 50 65
REMARK SMILES IDX 34 66 35 67 43 68 36 69 37 70 41 71 44 72 38 73 39 74 42 75
REMARK SMILES IDX 40 76 66 77 67 78 75 79 68 80 69 81 73 82 76 83 70 84 71 85
REMARK SMILES IDX 74 86 72 87 51 88 52 89 60 90 53 91 54 92 58 93 61 94 55 95
REMARK SMILES IDX 56 96 59 97 57 98
REMARK H PARENT 81 51 49 62
REMARK Flexibility Score: inf
ROOT
ATOM      1  O   UNL A   1      39.939  21.446  26.753  1.00  0.00    -0.374 OA
ENDROOT
BRANCH   1   2
ATOM      2  C   UNL A   1      38.939  22.057  25.946  1.00  0.00     0.202 C 
BRANCH   2   3
ATOM      3  C   UNL A   1      37.705  21.229  25.576  1.00  0.00     0.261 C 
BRANCH   3   4
ATOM      4  O   UNL A   1      36.745  21.982  24.820  1.00  0.00    -0.460 OA
BRANCH   4   5
ATOM      5  C   UNL A   1      35.533  21.388  24.723  1.00  0.00     0.338 C 
ATOM      6  O   UNL A   1      35.303  20.189  24.751  1.00  0.00    -0.246 OA
BRANCH   5   7
ATOM      7  C   UNL A   1      34.468  22.407  24.699  1.00  0.00     0.087 C 
ATOM      8  C   UNL A   1      32.203  26.889  24.252  1.00  0.00     0.060 A 
ATOM      9  C   UNL A   1      31.906  25.676  24.924  1.00  0.00     0.074 A 
ATOM     10  C   UNL A   1      33.278  26.845  23.332  1.00  0.00     0.065 A 
ATOM     11  C   UNL A   1      32.687  24.523  24.774  1.00  0.00     0.130 A 
ATOM     12  C   UNL A   1      34.025  25.675  23.142  1.00  0.00     0.034 A 
ATOM     13  Cl  UNL A   1      33.879  28.218  22.463  1.00  0.00    -0.082 Cl
ATOM     14  C   UNL A   1      33.758  24.533  23.892  1.00  0.00     0.019 A 
ATOM     15  O   UNL A   1      32.352  23.439  25.537  1.00  0.00    -0.475 OA
ATOM     16  C   UNL A   1      34.662  23.404  23.827  1.00  0.00     0.027 C 
ATOM     17  C   UNL A   1      33.302  22.335  25.645  1.00  0.00     0.316 C 
BRANCH   8  18
ATOM     18  N   UNL A   1      31.460  28.047  24.574  1.00  0.00    -0.365 N 
BRANCH  18  19
ATOM     19  C   UNL A   1      31.915  28.886  25.709  1.00  0.00     0.076 C 
ATOM     20  C   UNL A   1      31.605  30.369  25.517  1.00  0.00     0.030 C 
ATOM     21  C   UNL A   1      31.404  28.407  27.068  1.00  0.00     0.030 C 
ENDBRANCH  18  19
BRANCH  18  22
ATOM     22  C   UNL A   1      30.262  28.310  23.736  1.00  0.00     0.076 C 
ATOM     23  C   UNL A   1      30.587  29.020  22.425  1.00  0.00     0.030 C 
ATOM     24  C   UNL A   1      29.406  27.069  23.501  1.00  0.00     0.030 C 
ENDBRANCH  18  22
ENDBRANCH   8  18
BRANCH  17  25
ATOM     25  C   UNL A   1      33.743  22.198  27.110  1.00  0.00     0.430 C 
ATOM     26  F   UNL A   1      34.077  20.920  27.407  1.00  0.00    -0.167 F 
ATOM     27  F   UNL A   1      34.838  22.951  27.375  1.00  0.00    -0.167 F 
ATOM     28  F   UNL A   1      32.774  22.578  27.972  1.00  0.00    -0.167 F 
ENDBRANCH  17  25
ENDBRANCH   5   7
ENDBRANCH   4   5
ENDBRANCH   3   4
ENDBRANCH   2   3
ENDBRANCH   1   2
BRANCH   1  29
ATOM     29  C   UNL A   1      41.093  20.896  26.119  1.00  0.00     0.202 C 
BRANCH  29  30
ATOM     30  C   UNL A   1      42.352  21.767  26.000  1.00  0.00     0.261 C 
BRANCH  30  31
ATOM     31  O   UNL A   1      42.158  22.932  25.179  1.00  0.00    -0.460 OA
BRANCH  31  32
ATOM     32  C   UNL A   1      43.087  23.906  25.343  1.00  0.00     0.338 C 
ATOM     33  O   UNL A   1      44.112  24.073  24.702  1.00  0.00    -0.246 OA
BRANCH  32  34
ATOM     34  C   UNL A   1      42.580  24.896  26.309  1.00  0.00     0.060 A 
ATOM     35  C   UNL A   1      41.410  24.662  27.031  1.00  0.00     0.016 A 
ATOM     36  C   UNL A   1      43.328  26.063  26.522  1.00  0.00     0.016 A 
ATOM     37  C   UNL A   1      41.001  25.594  27.987  1.00  0.00     0.010 A 
ATOM     38  C   UNL A   1      42.915  26.993  27.475  1.00  0.00     0.010 A 
ATOM     39  C   UNL A   1      41.759  26.756  28.229  1.00  0.00    -0.014 A 
BRANCH  39  40
ATOM     40  C   UNL A   1      41.412  27.648  29.363  1.00  0.00     0.031 A 
ATOM     41  C   UNL A   1      40.282  28.628  29.273  1.00  0.00     0.074 A 
ATOM     42  C   UNL A   1      42.152  27.568  30.486  1.00  0.00     0.049 A 
ATOM     43  N   UNL A   1      39.820  29.434  30.196  1.00  0.00    -0.248 NA
ATOM     44  C   UNL A   1      39.583  28.724  27.984  1.00  0.00     0.031 C 
ATOM     45  C   UNL A   1      43.299  26.678  30.670  1.00  0.00     0.029 A 
ATOM     46  N   UNL A   1      42.048  28.232  31.682  1.00  0.00    -0.354 N 
ATOM     47  C   UNL A   1      38.762  30.115  29.611  1.00  0.00     0.074 A 
ATOM     48  C   UNL A   1      38.682  29.667  28.236  1.00  0.00     0.031 C 
ATOM     49  C   UNL A   1      43.772  26.827  31.917  1.00  0.00     0.029 A 
ATOM     50  C   UNL A   1      42.986  27.845  32.607  1.00  0.00     0.049 A 
ATOM     51  H   UNL A   1      41.367  28.921  31.859  1.00  0.00     0.167 HD
ATOM     52  C   UNL A   1      37.925  31.015  30.180  1.00  0.00     0.037 A 
ATOM     53  C   UNL A   1      43.190  28.260  33.872  1.00  0.00     0.037 A 
ATOM     54  C   UNL A   1      38.020  31.465  31.547  1.00  0.00     0.049 A 
ATOM     55  C   UNL A   1      42.273  29.297  34.459  1.00  0.00     0.074 A 
ATOM     56  C   UNL A   1      37.195  32.351  32.220  1.00  0.00     0.029 A 
ATOM     57  N   UNL A   1      39.002  31.076  32.448  1.00  0.00    -0.354 N 
ATOM     58  N   UNL A   1      41.229  29.879  33.921  1.00  0.00    -0.248 NA
ATOM     59  C   UNL A   1      42.556  29.730  35.835  1.00  0.00     0.031 C 
ATOM     60  C   UNL A   1      37.711  32.543  33.505  1.00  0.00     0.029 A 
ATOM     61  C   UNL A   1      38.818  31.726  33.658  1.00  0.00     0.049 A 
ATOM     62  H   UNL A   1      39.722  30.433  32.254  1.00  0.00     0.167 HD
ATOM     63  C   UNL A   1      40.716  30.724  34.897  1.00  0.00     0.074 A 
ATOM     64  C   UNL A   1      41.552  30.564  36.068  1.00  0.00     0.031 C 
ATOM     65  C   UNL A   1      39.650  31.557  34.824  1.00  0.00     0.037 A 
BRANCH  52  66
ATOM     66  C   UNL A   1      36.809  31.573  29.344  1.00  0.00     0.064 A 
ATOM     67  C   UNL A   1      35.693  30.795  29.009  1.00  0.00     0.173 A 
ATOM     68  C   UNL A   1      36.800  32.927  28.975  1.00  0.00     0.173 A 
ATOM     69  F   UNL A   1      35.654  29.494  29.333  1.00  0.00    -0.203 F 
ATOM     70  C   UNL A   1      34.610  31.349  28.330  1.00  0.00     0.198 A 
ATOM     71  C   UNL A   1      35.703  33.485  28.323  1.00  0.00     0.198 A 
ATOM     72  F   UNL A   1      37.839  33.720  29.282  1.00  0.00    -0.203 F 
ATOM     73  F   UNL A   1      33.561  30.581  28.002  1.00  0.00    -0.200 F 
ATOM     74  C   UNL A   1      34.610  32.696  28.000  1.00  0.00     0.200 A 
ATOM     75  F   UNL A   1      35.698  34.792  28.022  1.00  0.00    -0.200 F 
ATOM     76  F   UNL A   1      33.555  33.234  27.373  1.00  0.00    -0.200 F 
ENDBRANCH  52  66
BRANCH  53  77
ATOM     77  C   UNL A   1      44.292  27.669  34.674  1.00  0.00     0.064 A 
ATOM     78  C   UNL A   1      45.553  28.277  34.723  1.00  0.00     0.173 A 
ATOM     79  C   UNL A   1      44.105  26.494  35.417  1.00  0.00     0.173 A 
ATOM     80  F   UNL A   1      45.787  29.393  34.016  1.00  0.00    -0.203 F 
ATOM     81  C   UNL A   1      46.591  27.724  35.471  1.00  0.00     0.198 A 
ATOM     82  C   UNL A   1      45.134  25.959  36.190  1.00  0.00     0.198 A 
ATOM     83  F   UNL A   1      42.915  25.875  35.409  1.00  0.00    -0.203 F 
ATOM     84  F   UNL A   1      47.800  28.302  35.464  1.00  0.00    -0.200 F 
ATOM     85  C   UNL A   1      46.378  26.570  36.209  1.00  0.00     0.200 A 
ATOM     86  F   UNL A   1      44.918  24.855  36.917  1.00  0.00    -0.200 F 
ATOM     87  F   UNL A   1      47.373  26.044  36.935  1.00  0.00    -0.200 F 
ENDBRANCH  53  77
BRANCH  65  88
ATOM     88  C   UNL A   1      39.297  32.348  36.052  1.00  0.00     0.064 A 
ATOM     89  C   UNL A   1      39.840  33.620  36.289  1.00  0.00     0.173 A 
ATOM     90  C   UNL A   1      38.353  31.857  36.968  1.00  0.00     0.173 A 
ATOM     91  F   UNL A   1      40.755  34.130  35.453  1.00  0.00    -0.203 F 
ATOM     92  C   UNL A   1      39.464  34.361  37.407  1.00  0.00     0.198 A 
ATOM     93  C   UNL A   1      37.954  32.616  38.065  1.00  0.00     0.198 A 
ATOM     94  F   UNL A   1      37.797  30.650  36.784  1.00  0.00    -0.203 F 
ATOM     95  F   UNL A   1      40.027  35.556  37.635  1.00  0.00    -0.200 F 
ATOM     96  C   UNL A   1      38.515  33.865  38.286  1.00  0.00     0.200 A 
ATOM     97  F   UNL A   1      37.022  32.142  38.902  1.00  0.00    -0.200 F 
ATOM     98  F   UNL A   1      38.141  34.588  39.350  1.00  0.00    -0.200 F 
ENDBRANCH  65  88
ENDBRANCH  39  40
ENDBRANCH  32  34
ENDBRANCH  31  32
ENDBRANCH  30  31
ENDBRANCH  29  30
ENDBRANCH   1  29
TORSDOF 18
ENDMDL
MODEL 2
REMARK VINA RESULT:     -11.4      5.177      9.262
REMARK SMILES CC(C)N(c1cc2c(cc1Cl)C=C(C(=O)OCCOCCOC(=O)c1ccc(-c3c4nc(c(-c5c(F)c(F)c(F)c(F)c5F)c5ccc([nH]5)c(-c5c(F)c(F)c(F)c(F)c5F)c5nc(c(-c6c(F)c(F)c(F)c(F)c6F)c6ccc3[nH]6)C=C5)C=C4)cc1)[C@@H](C(F)(F)F)O2)C(C)C
REMARK SMILES IDX 19 1 18 2 17 3 16 4 14 5 15 6 13 7 5 8 6 9 10 10 7 11 9 12
REMARK SMILES IDX 11 13 8 14 93 15 12 16 88 17 4 18 2 19 1 20 3 21 94 22 95 23
REMARK SMILES IDX 96 24 89 25 90 26 91 27 92 28 20 29 21 30 22 31 23 32 24 33
REMARK SMILES IDX 25 34 26 35 87 36 27 37 86 38 28 39 29 40 30 41 80 42 31 43
REMARK SMILES IDX 85 44 79 45 81 46 32 47 84 48 78 49 77 50 33 52 65 53 45 54
REMARK SMILES IDX 64 55 46 56 49 57 63 58 82 59 47 60 48 61 62 63 83 64 50 65
REMARK SMILES IDX 34 66 35 67 43 68 36 69 37 70 41 71 44 72 38 73 39 74 42 75
REMARK SMILES IDX 40 76 66 77 67 78 75 79 68 80 69 81 73 82 76 83 70 84 71 85
REMARK SMILES IDX 74 86 72 87 51 88 52 89 60 90 53 91 54 92 58 93 61 94 55 95
REMARK SMILES IDX 56 96 59 97 57 98
REMARK H PARENT 81 51 49 62
REMARK Flexibility Score: inf
ROOT
ATOM      1  O   UNL A   1      40.437  21.054  25.802  1.00  0.00    -0.374 OA
ENDROOT
BRANCH   1   2
ATOM      2  C   UNL A   1      39.170  21.617  26.126  1.00  0.00     0.202 C 
BRANCH   2   3
ATOM      3  C   UNL A   1      37.989  21.317  25.198  1.00  0.00     0.261 C 
BRANCH   3   4
ATOM      4  O   UNL A   1      36.770  21.927  25.648  1.00  0.00    -0.460 OA
BRANCH   4   5
ATOM      5  C   UNL A   1      35.650  21.316  25.195  1.00  0.00     0.338 C 
ATOM      6  O   UNL A   1      35.498  20.121  25.000  1.00  0.00    -0.246 OA
BRANCH   5   7
ATOM      7  C   UNL A   1      34.553  22.293  25.072  1.00  0.00     0.087 C 
ATOM      8  C   UNL A   1      32.162  26.674  24.361  1.00  0.00     0.060 A 
ATOM      9  C   UNL A   1      31.864  25.466  25.041  1.00  0.00     0.074 A 
ATOM     10  C   UNL A   1      33.299  26.651  23.518  1.00  0.00     0.065 A 
ATOM     11  C   UNL A   1      32.695  24.341  24.973  1.00  0.00     0.130 A 
ATOM     12  C   UNL A   1      34.100  25.506  23.409  1.00  0.00     0.034 A 
ATOM     13  Cl  UNL A   1      33.909  28.027  22.660  1.00  0.00    -0.082 Cl
ATOM     14  C   UNL A   1      33.824  24.372  24.167  1.00  0.00     0.019 A 
ATOM     15  O   UNL A   1      32.348  23.261  25.737  1.00  0.00    -0.475 OA
ATOM     16  C   UNL A   1      34.770  23.277  24.192  1.00  0.00     0.027 C 
ATOM     17  C   UNL A   1      33.328  22.197  25.937  1.00  0.00     0.316 C 
BRANCH   8  18
ATOM     18  N   UNL A   1      31.357  27.810  24.603  1.00  0.00    -0.365 N 
BRANCH  18  19
ATOM     19  C   UNL A   1      30.101  27.964  23.830  1.00  0.00     0.076 C 
ATOM     20  C   UNL A   1      30.338  28.393  22.384  1.00  0.00     0.030 C 
ATOM     21  C   UNL A   1      29.197  26.731  23.877  1.00  0.00     0.030 C 
ENDBRANCH  18  19
BRANCH  18  22
ATOM     22  C   UNL A   1      31.865  28.767  25.618  1.00  0.00     0.076 C 
ATOM     23  C   UNL A   1      31.404  30.202  25.379  1.00  0.00     0.030 C 
ATOM     24  C   UNL A   1      31.594  28.326  27.053  1.00  0.00     0.030 C 
ENDBRANCH  18  22
ENDBRANCH   8  18
BRANCH  17  25
ATOM     25  C   UNL A   1      33.670  22.110  27.433  1.00  0.00     0.430 C 
ATOM     26  F   UNL A   1      32.599  22.416  28.202  1.00  0.00    -0.167 F 
ATOM     27  F   UNL A   1      34.050  20.858  27.785  1.00  0.00    -0.167 F 
ATOM     28  F   UNL A   1      34.673  22.948  27.776  1.00  0.00    -0.167 F 
ENDBRANCH  17  25
ENDBRANCH   5   7
ENDBRANCH   4   5
ENDBRANCH   3   4
ENDBRANCH   2   3
ENDBRANCH   1   2
BRANCH   1  29
ATOM     29  C   UNL A   1      41.156  20.352  26.815  1.00  0.00     0.202 C 
BRANCH  29  30
ATOM     30  C   UNL A   1      42.281  19.398  26.391  1.00  0.00     0.261 C 
BRANCH  30  31
ATOM     31  O   UNL A   1      42.627  19.513  25.000  1.00  0.00    -0.460 OA
BRANCH  31  32
ATOM     32  C   UNL A   1      43.953  19.645  24.750  1.00  0.00     0.338 C 
ATOM     33  O   UNL A   1      44.694  18.835  24.214  1.00  0.00    -0.246 OA
BRANCH  32  34
ATOM     34  C   UNL A   1      44.363  21.029  25.046  1.00  0.00     0.060 A 
ATOM     35  C   UNL A   1      43.871  22.098  24.299  1.00  0.00     0.016 A 
ATOM     36  C   UNL A   1      45.226  21.250  26.129  1.00  0.00     0.016 A 
ATOM     37  C   UNL A   1      44.231  23.400  24.655  1.00  0.00     0.010 A 
ATOM     38  C   UNL A   1      45.585  22.551  26.479  1.00  0.00     0.010 A 
ATOM     39  C   UNL A   1      45.074  23.638  25.757  1.00  0.00    -0.014 A 
BRANCH  39  40
ATOM     40  C   UNL A   1      45.307  25.024  26.232  1.00  0.00     0.031 A 
ATOM     41  C   UNL A   1      46.658  25.665  26.146  1.00  0.00     0.074 A 
ATOM     42  C   UNL A   1      44.268  25.700  26.759  1.00  0.00     0.049 A 
ATOM     43  N   UNL A   1      47.009  26.887  26.465  1.00  0.00    -0.248 NA
ATOM     44  C   UNL A   1      47.762  24.833  25.647  1.00  0.00     0.031 C 
ATOM     45  C   UNL A   1      42.919  25.161  26.927  1.00  0.00     0.029 A 
ATOM     46  N   UNL A   1      44.180  26.981  27.242  1.00  0.00    -0.354 N 
ATOM     47  C   UNL A   1      48.364  26.979  26.183  1.00  0.00     0.074 A 
ATOM     48  C   UNL A   1      48.787  25.675  25.716  1.00  0.00     0.031 C 
ATOM     49  C   UNL A   1      42.127  26.114  27.443  1.00  0.00     0.029 A 
ATOM     50  C   UNL A   1      42.920  27.318  27.674  1.00  0.00     0.049 A 
ATOM     51  H   UNL A   1      44.945  27.599  27.276  1.00  0.00     0.167 HD
ATOM     52  C   UNL A   1      49.171  28.062  26.286  1.00  0.00     0.037 A 
ATOM     53  C   UNL A   1      42.454  28.468  28.196  1.00  0.00     0.037 A 
ATOM     54  C   UNL A   1      48.744  29.355  26.763  1.00  0.00     0.049 A 
ATOM     55  C   UNL A   1      43.387  29.638  28.343  1.00  0.00     0.074 A 
ATOM     56  C   UNL A   1      49.485  30.519  26.872  1.00  0.00     0.029 A 
ATOM     57  N   UNL A   1      47.468  29.652  27.223  1.00  0.00    -0.354 N 
ATOM     58  N   UNL A   1      44.649  29.738  28.002  1.00  0.00    -0.248 NA
ATOM     59  C   UNL A   1      42.831  30.861  28.940  1.00  0.00     0.031 C 
ATOM     60  C   UNL A   1      48.677  31.502  27.450  1.00  0.00     0.029 A 
ATOM     61  C   UNL A   1      47.413  30.973  27.641  1.00  0.00     0.049 A 
ATOM     62  H   UNL A   1      46.715  29.019  27.247  1.00  0.00     0.167 HD
ATOM     63  C   UNL A   1      45.029  31.035  28.317  1.00  0.00     0.074 A 
ATOM     64  C   UNL A   1      43.858  31.694  28.857  1.00  0.00     0.031 C 
ATOM     65  C   UNL A   1      46.241  31.625  28.171  1.00  0.00     0.037 A 
BRANCH  52  66
ATOM     66  C   UNL A   1      50.604  27.922  25.859  1.00  0.00     0.064 A 
ATOM     67  C   UNL A   1      50.978  28.046  24.514  1.00  0.00     0.173 A 
ATOM     68  C   UNL A   1      51.624  27.779  26.813  1.00  0.00     0.173 A 
ATOM     69  F   UNL A   1      50.042  28.179  23.562  1.00  0.00    -0.203 F 
ATOM     70  C   UNL A   1      52.319  28.028  24.137  1.00  0.00     0.198 A 
ATOM     71  C   UNL A   1      52.965  27.790  26.437  1.00  0.00     0.198 A 
ATOM     72  F   UNL A   1      51.322  27.667  28.116  1.00  0.00    -0.203 F 
ATOM     73  F   UNL A   1      52.651  28.129  22.843  1.00  0.00    -0.200 F 
ATOM     74  C   UNL A   1      53.311  27.913  25.099  1.00  0.00     0.200 A 
ATOM     75  F   UNL A   1      53.922  27.699  27.370  1.00  0.00    -0.200 F 
ATOM     76  F   UNL A   1      54.602  27.925  24.738  1.00  0.00    -0.200 F 
ENDBRANCH  52  66
BRANCH  53  77
ATOM     77  C   UNL A   1      41.024  28.575  28.587  1.00  0.00     0.064 A 
ATOM     78  C   UNL A   1      40.608  28.261  29.888  1.00  0.00     0.173 A 
ATOM     79  C   UNL A   1      40.048  29.005  27.676  1.00  0.00     0.173 A 
ATOM     80  F   UNL A   1      41.501  27.828  30.790  1.00  0.00    -0.203 F 
ATOM     81  C   UNL A   1      39.268  28.355  30.258  1.00  0.00     0.198 A 
ATOM     82  C   UNL A   1      38.713  29.130  28.056  1.00  0.00     0.198 A 
ATOM     83  F   UNL A   1      40.394  29.323  26.420  1.00  0.00    -0.203 F 
ATOM     84  F   UNL A   1      38.891  28.005  31.495  1.00  0.00    -0.200 F 
ATOM     85  C   UNL A   1      38.324  28.797  29.344  1.00  0.00     0.200 A 
ATOM     86  F   UNL A   1      37.807  29.575  27.175  1.00  0.00    -0.200 F 
ATOM     87  F   UNL A   1      37.037  28.896  29.703  1.00  0.00    -0.200 F 
ENDBRANCH  53  77
BRANCH  65  88
ATOM     88  C   UNL A   1      46.369  33.067  28.575  1.00  0.00     0.064 A 
ATOM     89  C   UNL A   1      46.746  33.437  29.875  1.00  0.00     0.173 A 
ATOM     90  C   UNL A   1      46.178  34.089  27.632  1.00  0.00     0.173 A 
ATOM     91  F   UNL A   1      46.929  32.501  30.817  1.00  0.00    -0.203 F 
ATOM     92  C   UNL A   1      46.909  34.777  30.219  1.00  0.00     0.198 A 
ATOM     93  C   UNL A   1      46.376  35.425  27.971  1.00  0.00     0.198 A 
ATOM     94  F   UNL A   1      45.824  33.790  26.373  1.00  0.00    -0.203 F 
ATOM     95  F   UNL A   1      47.230  35.108  31.477  1.00  0.00    -0.200 F 
ATOM     96  C   UNL A   1      46.735  35.767  29.265  1.00  0.00     0.200 A 
ATOM     97  F   UNL A   1      46.226  36.379  27.042  1.00  0.00    -0.200 F 
ATOM     98  F   UNL A   1      46.911  37.055  29.594  1.00  0.00    -0.200 F 
ENDBRANCH  65  88
ENDBRANCH  39  40
ENDBRANCH  32  34
ENDBRANCH  31  32
ENDBRANCH  30  31
ENDBRANCH  29  30
ENDBRANCH   1  29
TORSDOF 18
ENDMDL
MODEL 3
REMARK VINA RESULT:     -11.4      4.603      8.818
REMARK SMILES CC(C)N(c1cc2c(cc1Cl)C=C(C(=O)OCCOCCOC(=O)c1ccc(-c3c4nc(c(-c5c(F)c(F)c(F)c(F)c5F)c5ccc([nH]5)c(-c5c(F)c(F)c(F)c(F)c5F)c5nc(c(-c6c(F)c(F)c(F)c(F)c6F)c6ccc3[nH]6)C=C5)C=C4)cc1)[C@@H](C(F)(F)F)O2)C(C)C
REMARK SMILES IDX 19 1 18 2 17 3 16 4 14 5 15 6 13 7 5 8 6 9 10 10 7 11 9 12
REMARK SMILES IDX 11 13 8 14 93 15 12 16 88 17 4 18 2 19 1 20 3 21 94 22 95 23
REMARK SMILES IDX 96 24 89 25 90 26 91 27 92 28 20 29 21 30 22 31 23 32 24 33
REMARK SMILES IDX 25 34 26 35 87 36 27 37 86 38 28 39 29 40 30 41 80 42 31 43
REMARK SMILES IDX 85 44 79 45 81 46 32 47 84 48 78 49 77 50 33 52 65 53 45 54
REMARK SMILES IDX 64 55 46 56 49 57 63 58 82 59 47 60 48 61 62 63 83 64 50 65
REMARK SMILES IDX 34 66 35 67 43 68 36 69 37 70 41 71 44 72 38 73 39 74 42 75
REMARK SMILES IDX 40 76 66 77 67 78 75 79 68 80 69 81 73 82 76 83 70 84 71 85
REMARK SMILES IDX 74 86 72 87 51 88 52 89 60 90 53 91 54 92 58 93 61 94 55 95
REMARK SMILES IDX 56 96 59 97 57 98
REMARK H PARENT 81 51 49 62
REMARK Flexibility Score: inf
ROOT
ATOM      1  O   UNL A   1      38.361  21.834  25.122  1.00  0.00    -0.374 OA
ENDROOT
BRANCH   1   2
ATOM      2  C   UNL A   1      37.013  22.067  25.514  1.00  0.00     0.202 C 
BRANCH   2   3
ATOM      3  C   UNL A   1      36.108  20.853  25.744  1.00  0.00     0.261 C 
BRANCH   3   4
ATOM      4  O   UNL A   1      35.248  20.591  24.626  1.00  0.00    -0.460 OA
BRANCH   4   5
ATOM      5  C   UNL A   1      33.965  20.330  24.969  1.00  0.00     0.338 C 
ATOM      6  O   UNL A   1      33.527  19.282  25.415  1.00  0.00    -0.246 OA
BRANCH   5   7
ATOM      7  C   UNL A   1      33.148  21.551  24.845  1.00  0.00     0.087 C 
ATOM      8  C   UNL A   1      31.689  26.155  23.398  1.00  0.00     0.060 A 
ATOM      9  C   UNL A   1      31.419  25.319  24.511  1.00  0.00     0.074 A 
ATOM     10  C   UNL A   1      32.380  25.552  22.319  1.00  0.00     0.065 A 
ATOM     11  C   UNL A   1      31.892  24.003  24.595  1.00  0.00     0.130 A 
ATOM     12  C   UNL A   1      32.805  24.218  22.382  1.00  0.00     0.034 A 
ATOM     13  Cl  UNL A   1      32.898  26.394  20.896  1.00  0.00    -0.082 Cl
ATOM     14  C   UNL A   1      32.601  23.462  23.533  1.00  0.00     0.019 A 
ATOM     15  O   UNL A   1      31.638  23.322  25.754  1.00  0.00    -0.475 OA
ATOM     16  C   UNL A   1      33.219  22.159  23.656  1.00  0.00     0.027 C 
ATOM     17  C   UNL A   1      32.360  22.080  26.011  1.00  0.00     0.316 C 
BRANCH   8  18
ATOM     18  N   UNL A   1      31.309  27.514  23.456  1.00  0.00    -0.365 N 
BRANCH  18  19
ATOM     19  C   UNL A   1      32.165  28.455  24.218  1.00  0.00     0.076 C 
ATOM     20  C   UNL A   1      31.708  28.643  25.663  1.00  0.00     0.030 C 
ATOM     21  C   UNL A   1      33.653  28.105  24.172  1.00  0.00     0.030 C 
ENDBRANCH  18  19
BRANCH  18  22
ATOM     22  C   UNL A   1      30.054  27.873  22.747  1.00  0.00     0.076 C 
ATOM     23  C   UNL A   1      28.795  27.461  23.502  1.00  0.00     0.030 C 
ATOM     24  C   UNL A   1      29.997  29.339  22.326  1.00  0.00     0.030 C 
ENDBRANCH  18  22
ENDBRANCH   8  18
BRANCH  17  25
ATOM     25  C   UNL A   1      33.223  22.257  27.270  1.00  0.00     0.430 C 
ATOM     26  F   UNL A   1      34.294  23.049  27.026  1.00  0.00    -0.167 F 
ATOM     27  F   UNL A   1      32.529  22.848  28.272  1.00  0.00    -0.167 F 
ATOM     28  F   UNL A   1      33.687  21.078  27.741  1.00  0.00    -0.167 F 
ENDBRANCH  17  25
ENDBRANCH   5   7
ENDBRANCH   4   5
ENDBRANCH   3   4
ENDBRANCH   2   3
ENDBRANCH   1   2
BRANCH   1  29
ATOM     29  C   UNL A   1      39.245  21.199  26.044  1.00  0.00     0.202 C 
BRANCH  29  30
ATOM     30  C   UNL A   1      39.707  19.765  25.753  1.00  0.00     0.261 C 
BRANCH  30  31
ATOM     31  O   UNL A   1      40.746  19.314  26.638  1.00  0.00    -0.460 OA
BRANCH  31  32
ATOM     32  C   UNL A   1      42.000  19.373  26.124  1.00  0.00     0.338 C 
ATOM     33  O   UNL A   1      42.546  18.558  25.397  1.00  0.00    -0.246 OA
BRANCH  32  34
ATOM     34  C   UNL A   1      42.573  20.700  26.408  1.00  0.00     0.060 A 
ATOM     35  C   UNL A   1      43.044  21.514  25.379  1.00  0.00     0.016 A 
ATOM     36  C   UNL A   1      42.593  21.146  27.737  1.00  0.00     0.016 A 
ATOM     37  C   UNL A   1      43.517  22.793  25.684  1.00  0.00     0.010 A 
ATOM     38  C   UNL A   1      43.069  22.422  28.038  1.00  0.00     0.010 A 
ATOM     39  C   UNL A   1      43.516  23.263  27.011  1.00  0.00    -0.014 A 
BRANCH  39  40
ATOM     40  C   UNL A   1      43.854  24.678  27.300  1.00  0.00     0.031 A 
ATOM     41  C   UNL A   1      45.247  25.203  27.125  1.00  0.00     0.074 A 
ATOM     42  C   UNL A   1      42.874  25.491  27.740  1.00  0.00     0.049 A 
ATOM     43  N   UNL A   1      45.689  26.427  27.280  1.00  0.00    -0.248 NA
ATOM     44  C   UNL A   1      46.281  24.235  26.731  1.00  0.00     0.031 C 
ATOM     45  C   UNL A   1      41.493  25.077  27.984  1.00  0.00     0.029 A 
ATOM     46  N   UNL A   1      42.885  26.826  28.054  1.00  0.00    -0.354 N 
ATOM     47  C   UNL A   1      47.042  26.383  26.981  1.00  0.00     0.074 A 
ATOM     48  C   UNL A   1      47.364  25.003  26.686  1.00  0.00     0.031 C 
ATOM     49  C   UNL A   1      40.779  26.144  28.376  1.00  0.00     0.029 A 
ATOM     50  C   UNL A   1      41.659  27.307  28.445  1.00  0.00     0.049 A 
ATOM     51  H   UNL A   1      43.693  27.386  28.003  1.00  0.00     0.167 HD
ATOM     52  C   UNL A   1      47.926  27.409  26.939  1.00  0.00     0.037 A 
ATOM     53  C   UNL A   1      41.284  28.546  28.815  1.00  0.00     0.037 A 
ATOM     54  C   UNL A   1      47.600  28.779  27.246  1.00  0.00     0.049 A 
ATOM     55  C   UNL A   1      42.301  29.654  28.805  1.00  0.00     0.074 A 
ATOM     56  C   UNL A   1      48.424  29.891  27.199  1.00  0.00     0.029 A 
ATOM     57  N   UNL A   1      46.356  29.226  27.670  1.00  0.00    -0.354 N 
ATOM     58  N   UNL A   1      43.561  29.616  28.447  1.00  0.00    -0.248 NA
ATOM     59  C   UNL A   1      41.842  30.981  29.240  1.00  0.00     0.031 C 
ATOM     60  C   UNL A   1      47.697  30.997  27.649  1.00  0.00     0.029 A 
ATOM     61  C   UNL A   1      46.401  30.590  27.914  1.00  0.00     0.049 A 
ATOM     62  H   UNL A   1      45.560  28.657  27.781  1.00  0.00     0.167 HD
ATOM     63  C   UNL A   1      44.038  30.913  28.589  1.00  0.00     0.074 A 
ATOM     64  C   UNL A   1      42.925  31.719  29.045  1.00  0.00     0.031 C 
ATOM     65  C   UNL A   1      45.286  31.389  28.361  1.00  0.00     0.037 A 
BRANCH  52  66
ATOM     66  C   UNL A   1      49.339  27.110  26.526  1.00  0.00     0.064 A 
ATOM     67  C   UNL A   1      50.296  26.689  27.461  1.00  0.00     0.173 A 
ATOM     68  C   UNL A   1      49.710  27.131  25.173  1.00  0.00     0.173 A 
ATOM     69  F   UNL A   1      49.994  26.656  28.768  1.00  0.00    -0.203 F 
ATOM     70  C   UNL A   1      51.572  26.305  27.057  1.00  0.00     0.198 A 
ATOM     71  C   UNL A   1      50.977  26.719  24.769  1.00  0.00     0.198 A 
ATOM     72  F   UNL A   1      48.829  27.515  24.236  1.00  0.00    -0.203 F 
ATOM     73  F   UNL A   1      52.476  25.925  27.971  1.00  0.00    -0.200 F 
ATOM     74  C   UNL A   1      51.907  26.308  25.712  1.00  0.00     0.200 A 
ATOM     75  F   UNL A   1      51.292  26.703  23.467  1.00  0.00    -0.200 F 
ATOM     76  F   UNL A   1      53.127  25.910  25.322  1.00  0.00    -0.200 F 
ENDBRANCH  52  66
BRANCH  53  77
ATOM     77  C   UNL A   1      39.871  28.806  29.197  1.00  0.00     0.064 A 
ATOM     78  C   UNL A   1      39.447  28.665  30.525  1.00  0.00     0.173 A 
ATOM     79  C   UNL A   1      38.922  29.212  28.248  1.00  0.00     0.173 A 
ATOM     80  F   UNL A   1      40.314  28.261  31.466  1.00  0.00    -0.203 F 
ATOM     81  C   UNL A   1      38.122  28.903  30.886  1.00  0.00     0.198 A 
ATOM     82  C   UNL A   1      37.605  29.482  28.616  1.00  0.00     0.198 A 
ATOM     83  F   UNL A   1      39.278  29.368  26.964  1.00  0.00    -0.203 F 
ATOM     84  F   UNL A   1      37.733  28.717  32.155  1.00  0.00    -0.200 F 
ATOM     85  C   UNL A   1      37.205  29.319  29.934  1.00  0.00     0.200 A 
ATOM     86  F   UNL A   1      36.727  29.902  27.695  1.00  0.00    -0.200 F 
ATOM     87  F   UNL A   1      35.934  29.557  30.284  1.00  0.00    -0.200 F 
ENDBRANCH  53  77
BRANCH  65  88
ATOM     88  C   UNL A   1      45.523  32.858  28.574  1.00  0.00     0.064 A 
ATOM     89  C   UNL A   1      45.322  33.792  27.548  1.00  0.00     0.173 A 
ATOM     90  C   UNL A   1      45.890  33.343  29.839  1.00  0.00     0.173 A 
ATOM     91  F   UNL A   1      44.982  33.381  26.317  1.00  0.00    -0.203 F 
ATOM     92  C   UNL A   1      45.497  35.155  27.775  1.00  0.00     0.198 A 
ATOM     93  C   UNL A   1      46.030  34.708  30.072  1.00  0.00     0.198 A 
ATOM     94  F   UNL A   1      46.088  32.492  30.859  1.00  0.00    -0.203 F 
ATOM     95  F   UNL A   1      45.340  36.026  26.769  1.00  0.00    -0.200 F 
ATOM     96  C   UNL A   1      45.840  35.612  29.038  1.00  0.00     0.200 A 
ATOM     97  F   UNL A   1      46.343  35.148  31.299  1.00  0.00    -0.200 F 
ATOM     98  F   UNL A   1      45.989  36.925  29.260  1.00  0.00    -0.200 F 
ENDBRANCH  65  88
ENDBRANCH  39  40
ENDBRANCH  32  34
ENDBRANCH  31  32
ENDBRANCH  30  31
ENDBRANCH  29  30
ENDBRANCH   1  29
TORSDOF 18
ENDMDL
