MODEL 1
REMARK VINA RESULT:     -12.2      0.000      0.000
REMARK SMILES O=C(OCCOCCOC(=O)[C@@H]1CCCN(C(=O)Nc2ccccc2)C1)c1ccc(-c2c3nc(c(-c4c(F)c(F)c(F)c(F)c4F)c4ccc([nH]4)c(-c4c(F)c(F)c(F)c(F)c4F)c4nc(c(-c5c(F)c(F)c(F)c(F)c5F)c5ccc2[nH]5)C=C4)C=C3)cc1
REMARK SMILES IDX 6 1 5 2 4 3 3 4 2 5 1 6 27 7 28 8 89 9 29 10 88 11 30 12
REMARK SMILES IDX 31 13 32 14 82 15 33 16 87 17 81 18 83 19 34 20 86 21 80 22
REMARK SMILES IDX 79 23 35 25 67 26 47 27 66 28 48 29 51 30 65 31 84 32 49 33
REMARK SMILES IDX 50 34 64 36 85 37 52 38 36 39 37 40 45 41 38 42 39 43 43 44
REMARK SMILES IDX 46 45 40 46 41 47 44 48 42 49 68 50 69 51 77 52 70 53 71 54
REMARK SMILES IDX 75 55 78 56 72 57 73 58 76 59 74 60 53 61 54 62 62 63 55 64
REMARK SMILES IDX 56 65 60 66 63 67 57 68 58 69 61 70 59 71 7 72 8 73 9 74
REMARK SMILES IDX 10 75 11 76 12 77 13 78 26 79 14 80 16 81 15 82 17 83 18 84
REMARK SMILES IDX 19 85 20 87 21 88 25 89 22 90 24 91 23 92
REMARK H PARENT 83 24 51 35 19 86
REMARK Flexibility Score: inf
ROOT
ATOM      1  O   UNL A   1      31.127  27.082  27.356  1.00  0.00    -0.374 OA
ENDROOT
BRANCH   1   2
ATOM      2  C   UNL A   1      31.719  28.364  27.546  1.00  0.00     0.202 C 
BRANCH   2   3
ATOM      3  C   UNL A   1      31.847  29.354  26.353  1.00  0.00     0.261 C 
BRANCH   3   4
ATOM      4  O   UNL A   1      33.072  30.135  26.213  1.00  0.00    -0.460 OA
BRANCH   4   5
ATOM      5  C   UNL A   1      33.447  31.162  27.025  1.00  0.00     0.338 C 
ATOM      6  O   UNL A   1      32.752  32.164  27.179  1.00  0.00    -0.246 OA
BRANCH   5   7
ATOM      7  C   UNL A   1      34.778  31.054  27.650  1.00  0.00     0.060 A 
ATOM      8  C   UNL A   1      35.207  29.795  27.985  1.00  0.00     0.016 A 
ATOM      9  C   UNL A   1      35.627  32.124  27.905  1.00  0.00     0.016 A 
ATOM     10  C   UNL A   1      36.139  29.619  28.965  1.00  0.00     0.010 A 
ATOM     11  C   UNL A   1      36.832  31.879  28.582  1.00  0.00     0.010 A 
ATOM     12  C   UNL A   1      37.070  30.618  29.159  1.00  0.00    -0.014 A 
BRANCH  12  13
ATOM     13  C   UNL A   1      38.268  30.250  29.946  1.00  0.00     0.031 A 
ATOM     14  C   UNL A   1      39.335  29.437  29.294  1.00  0.00     0.074 A 
ATOM     15  C   UNL A   1      38.424  30.747  31.195  1.00  0.00     0.049 A 
ATOM     16  N   UNL A   1      40.349  28.825  29.840  1.00  0.00    -0.248 NA
ATOM     17  C   UNL A   1      39.238  29.266  27.835  1.00  0.00     0.031 C 
ATOM     18  C   UNL A   1      37.495  31.663  31.881  1.00  0.00     0.029 A 
ATOM     19  N   UNL A   1      39.440  30.605  32.103  1.00  0.00    -0.354 N 
ATOM     20  C   UNL A   1      40.956  28.127  28.807  1.00  0.00     0.074 A 
ATOM     21  C   UNL A   1      40.208  28.397  27.601  1.00  0.00     0.031 C 
ATOM     22  C   UNL A   1      38.031  32.075  33.034  1.00  0.00     0.029 A 
ATOM     23  C   UNL A   1      39.238  31.310  33.268  1.00  0.00     0.049 A 
ATOM     24  H   UNL A   1      40.238  30.052  31.938  1.00  0.00     0.167 HD
ATOM     25  C   UNL A   1      42.035  27.316  28.892  1.00  0.00     0.037 A 
ATOM     26  C   UNL A   1      39.905  31.273  34.434  1.00  0.00     0.037 A 
ATOM     27  C   UNL A   1      42.767  27.123  30.116  1.00  0.00     0.049 A 
ATOM     28  C   UNL A   1      41.048  30.309  34.523  1.00  0.00     0.074 A 
ATOM     29  C   UNL A   1      43.844  26.296  30.366  1.00  0.00     0.029 A 
ATOM     30  N   UNL A   1      42.490  27.795  31.304  1.00  0.00    -0.354 N 
ATOM     31  N   UNL A   1      41.550  29.539  33.585  1.00  0.00    -0.248 NA
ATOM     32  C   UNL A   1      41.694  30.172  35.830  1.00  0.00     0.031 C 
ATOM     33  C   UNL A   1      44.187  26.431  31.716  1.00  0.00     0.029 A 
ATOM     34  C   UNL A   1      43.365  27.390  32.295  1.00  0.00     0.049 A 
ATOM     35  H   UNL A   1      41.774  28.461  31.421  1.00  0.00     0.167 HD
ATOM     36  C   UNL A   1      42.580  28.834  34.181  1.00  0.00     0.074 A 
ATOM     37  C   UNL A   1      42.645  29.290  35.558  1.00  0.00     0.031 C 
ATOM     38  C   UNL A   1      43.393  27.888  33.649  1.00  0.00     0.037 A 
BRANCH  25  39
ATOM     39  C   UNL A   1      42.397  26.531  27.665  1.00  0.00     0.064 A 
ATOM     40  C   UNL A   1      41.831  25.282  27.374  1.00  0.00     0.173 A 
ATOM     41  C   UNL A   1      43.386  27.018  26.795  1.00  0.00     0.173 A 
ATOM     42  F   UNL A   1      40.904  24.754  28.188  1.00  0.00    -0.203 F 
ATOM     43  C   UNL A   1      42.271  24.530  26.286  1.00  0.00     0.198 A 
ATOM     44  C   UNL A   1      43.799  26.280  25.689  1.00  0.00     0.198 A 
ATOM     45  F   UNL A   1      43.970  28.204  27.028  1.00  0.00    -0.203 F 
ATOM     46  F   UNL A   1      41.772  23.304  26.074  1.00  0.00    -0.200 F 
ATOM     47  C   UNL A   1      43.252  25.031  25.443  1.00  0.00     0.200 A 
ATOM     48  F   UNL A   1      44.744  26.769  24.874  1.00  0.00    -0.200 F 
ATOM     49  F   UNL A   1      43.683  24.301  24.405  1.00  0.00    -0.200 F 
ENDBRANCH  25  39
BRANCH  26  50
ATOM     50  C   UNL A   1      39.446  32.078  35.602  1.00  0.00     0.064 A 
ATOM     51  C   UNL A   1      38.518  31.562  36.517  1.00  0.00     0.173 A 
ATOM     52  C   UNL A   1      39.926  33.379  35.834  1.00  0.00     0.173 A 
ATOM     53  F   UNL A   1      38.012  30.334  36.336  1.00  0.00    -0.203 F 
ATOM     54  C   UNL A   1      38.079  32.318  37.604  1.00  0.00     0.198 A 
ATOM     55  C   UNL A   1      39.516  34.118  36.943  1.00  0.00     0.198 A 
ATOM     56  F   UNL A   1      40.816  33.929  34.996  1.00  0.00    -0.203 F 
ATOM     57  F   UNL A   1      37.154  31.816  38.434  1.00  0.00    -0.200 F 
ATOM     58  C   UNL A   1      38.584  33.591  37.821  1.00  0.00     0.200 A 
ATOM     59  F   UNL A   1      40.025  35.338  37.157  1.00  0.00    -0.200 F 
ATOM     60  F   UNL A   1      38.165  34.314  38.869  1.00  0.00    -0.200 F 
ENDBRANCH  26  50
BRANCH  38  61
ATOM     61  C   UNL A   1      44.446  27.334  34.557  1.00  0.00     0.064 A 
ATOM     62  C   UNL A   1      45.684  27.969  34.723  1.00  0.00     0.173 A 
ATOM     63  C   UNL A   1      44.189  26.172  35.299  1.00  0.00     0.173 A 
ATOM     64  F   UNL A   1      45.980  29.070  34.015  1.00  0.00    -0.203 F 
ATOM     65  C   UNL A   1      46.640  27.443  35.583  1.00  0.00     0.198 A 
ATOM     66  C   UNL A   1      45.133  25.672  36.186  1.00  0.00     0.198 A 
ATOM     67  F   UNL A   1      43.015  25.534  35.172  1.00  0.00    -0.203 F 
ATOM     68  F   UNL A   1      47.839  28.033  35.689  1.00  0.00    -0.200 F 
ATOM     69  C   UNL A   1      46.360  26.302  36.321  1.00  0.00     0.200 A 
ATOM     70  F   UNL A   1      44.855  24.579  36.910  1.00  0.00    -0.200 F 
ATOM     71  F   UNL A   1      47.279  25.806  37.162  1.00  0.00    -0.200 F 
ENDBRANCH  38  61
ENDBRANCH  12  13
ENDBRANCH   5   7
ENDBRANCH   4   5
ENDBRANCH   3   4
ENDBRANCH   2   3
ENDBRANCH   1   2
BRANCH   1  72
ATOM     72  C   UNL A   1      31.017  26.589  26.032  1.00  0.00     0.202 C 
BRANCH  72  73
ATOM     73  C   UNL A   1      30.382  25.207  25.902  1.00  0.00     0.261 C 
BRANCH  73  74
ATOM     74  O   UNL A   1      30.941  24.223  26.803  1.00  0.00    -0.463 OA
BRANCH  74  75
ATOM     75  C   UNL A   1      31.022  22.961  26.297  1.00  0.00     0.310 C 
ATOM     76  O   UNL A   1      30.075  22.183  26.230  1.00  0.00    -0.252 OA
BRANCH  75  77
ATOM     77  C   UNL A   1      32.413  22.564  25.819  1.00  0.00     0.119 C 
ATOM     78  C   UNL A   1      33.505  23.309  26.584  1.00  0.00     0.019 C 
ATOM     79  C   UNL A   1      32.632  22.467  24.297  1.00  0.00     0.136 C 
ATOM     80  C   UNL A   1      34.071  24.504  25.836  1.00  0.00     0.023 C 
ATOM     81  N   UNL A   1      33.283  23.622  23.678  1.00  0.00    -0.324 N 
ATOM     82  C   UNL A   1      34.430  24.150  24.408  1.00  0.00     0.121 C 
BRANCH  81  83
ATOM     83  C   UNL A   1      33.055  23.883  22.322  1.00  0.00     0.321 C 
ATOM     84  O   UNL A   1      33.554  23.209  21.423  1.00  0.00    -0.248 OA
ATOM     85  N   UNL A   1      32.062  24.797  22.054  1.00  0.00    -0.308 N 
ATOM     86  H   UNL A   1      31.176  24.453  21.799  1.00  0.00     0.171 HD
BRANCH  85  87
ATOM     87  C   UNL A   1      32.234  26.191  22.123  1.00  0.00     0.042 A 
ATOM     88  C   UNL A   1      31.113  26.976  22.413  1.00  0.00     0.026 A 
ATOM     89  C   UNL A   1      33.501  26.773  22.067  1.00  0.00     0.026 A 
ATOM     90  C   UNL A   1      31.280  28.315  22.767  1.00  0.00     0.002 A 
ATOM     91  C   UNL A   1      33.661  28.115  22.406  1.00  0.00     0.002 A 
ATOM     92  C   UNL A   1      32.557  28.877  22.785  1.00  0.00     0.000 A 
ENDBRANCH  85  87
ENDBRANCH  81  83
ENDBRANCH  75  77
ENDBRANCH  74  75
ENDBRANCH  73  74
ENDBRANCH  72  73
ENDBRANCH   1  72
TORSDOF 16
ENDMDL
MODEL 2
REMARK VINA RESULT:     -12.0      1.496      3.219
REMARK SMILES O=C(OCCOCCOC(=O)[C@@H]1CCCN(C(=O)Nc2ccccc2)C1)c1ccc(-c2c3nc(c(-c4c(F)c(F)c(F)c(F)c4F)c4ccc([nH]4)c(-c4c(F)c(F)c(F)c(F)c4F)c4nc(c(-c5c(F)c(F)c(F)c(F)c5F)c5ccc2[nH]5)C=C4)C=C3)cc1
REMARK SMILES IDX 6 1 5 2 4 3 3 4 2 5 1 6 27 7 28 8 89 9 29 10 88 11 30 12
REMARK SMILES IDX 31 13 32 14 82 15 33 16 87 17 81 18 83 19 34 20 86 21 80 22
REMARK SMILES IDX 79 23 35 25 67 26 47 27 66 28 48 29 51 30 65 31 84 32 49 33
REMARK SMILES IDX 50 34 64 36 85 37 52 38 36 39 37 40 45 41 38 42 39 43 43 44
REMARK SMILES IDX 46 45 40 46 41 47 44 48 42 49 68 50 69 51 77 52 70 53 71 54
REMARK SMILES IDX 75 55 78 56 72 57 73 58 76 59 74 60 53 61 54 62 62 63 55 64
REMARK SMILES IDX 56 65 60 66 63 67 57 68 58 69 61 70 59 71 7 72 8 73 9 74
REMARK SMILES IDX 10 75 11 76 12 77 13 78 26 79 14 80 16 81 15 82 17 83 18 84
REMARK SMILES IDX 19 85 20 87 21 88 25 89 22 90 24 91 23 92
REMARK H PARENT 83 24 51 35 19 86
REMARK Flexibility Score: inf
ROOT
ATOM      1  O   UNL A   1      30.913  26.862  26.885  1.00  0.00    -0.374 OA
ENDROOT
BRANCH   1   2
ATOM      2  C   UNL A   1      32.049  27.714  26.772  1.00  0.00     0.202 C 
BRANCH   2   3
ATOM      3  C   UNL A   1      31.866  29.241  26.540  1.00  0.00     0.261 C 
BRANCH   3   4
ATOM      4  O   UNL A   1      33.046  30.065  26.296  1.00  0.00    -0.460 OA
BRANCH   4   5
ATOM      5  C   UNL A   1      33.444  31.115  27.066  1.00  0.00     0.338 C 
ATOM      6  O   UNL A   1      32.768  32.134  27.188  1.00  0.00    -0.246 OA
BRANCH   5   7
ATOM      7  C   UNL A   1      34.779  31.008  27.684  1.00  0.00     0.060 A 
ATOM      8  C   UNL A   1      35.203  29.751  28.033  1.00  0.00     0.016 A 
ATOM      9  C   UNL A   1      35.635  32.077  27.920  1.00  0.00     0.016 A 
ATOM     10  C   UNL A   1      36.140  29.583  29.009  1.00  0.00     0.010 A 
ATOM     11  C   UNL A   1      36.843  31.834  28.593  1.00  0.00     0.010 A 
ATOM     12  C   UNL A   1      37.078  30.579  29.185  1.00  0.00    -0.014 A 
BRANCH  12  13
ATOM     13  C   UNL A   1      38.278  30.215  29.969  1.00  0.00     0.031 A 
ATOM     14  C   UNL A   1      39.346  29.405  29.315  1.00  0.00     0.074 A 
ATOM     15  C   UNL A   1      38.436  30.713  31.218  1.00  0.00     0.049 A 
ATOM     16  N   UNL A   1      40.363  28.797  29.858  1.00  0.00    -0.248 NA
ATOM     17  C   UNL A   1      39.246  29.234  27.857  1.00  0.00     0.031 C 
ATOM     18  C   UNL A   1      37.506  31.627  31.905  1.00  0.00     0.029 A 
ATOM     19  N   UNL A   1      39.454  30.574  32.123  1.00  0.00    -0.354 N 
ATOM     20  C   UNL A   1      40.971  28.100  28.825  1.00  0.00     0.074 A 
ATOM     21  C   UNL A   1      40.219  28.368  27.621  1.00  0.00     0.031 C 
ATOM     22  C   UNL A   1      38.043  32.040  33.057  1.00  0.00     0.029 A 
ATOM     23  C   UNL A   1      39.253  31.279  33.289  1.00  0.00     0.049 A 
ATOM     24  H   UNL A   1      40.254  30.024  31.956  1.00  0.00     0.167 HD
ATOM     25  C   UNL A   1      42.052  27.292  28.908  1.00  0.00     0.037 A 
ATOM     26  C   UNL A   1      39.922  31.244  34.453  1.00  0.00     0.037 A 
ATOM     27  C   UNL A   1      42.787  27.101  30.130  1.00  0.00     0.049 A 
ATOM     28  C   UNL A   1      41.069  30.284  34.539  1.00  0.00     0.074 A 
ATOM     29  C   UNL A   1      43.867  26.278  30.377  1.00  0.00     0.029 A 
ATOM     30  N   UNL A   1      42.511  27.773  31.318  1.00  0.00    -0.354 N 
ATOM     31  N   UNL A   1      41.571  29.515  33.600  1.00  0.00    -0.248 NA
ATOM     32  C   UNL A   1      41.719  30.150  35.845  1.00  0.00     0.031 C 
ATOM     33  C   UNL A   1      44.213  26.415  31.726  1.00  0.00     0.029 A 
ATOM     34  C   UNL A   1      43.390  27.371  32.307  1.00  0.00     0.049 A 
ATOM     35  H   UNL A   1      41.794  28.437  31.437  1.00  0.00     0.167 HD
ATOM     36  C   UNL A   1      42.605  28.813  34.194  1.00  0.00     0.074 A 
ATOM     37  C   UNL A   1      42.671  29.270  35.571  1.00  0.00     0.031 C 
ATOM     38  C   UNL A   1      43.419  27.870  33.661  1.00  0.00     0.037 A 
BRANCH  25  39
ATOM     39  C   UNL A   1      42.413  26.508  27.680  1.00  0.00     0.064 A 
ATOM     40  C   UNL A   1      41.866  25.247  27.401  1.00  0.00     0.173 A 
ATOM     41  C   UNL A   1      43.383  27.009  26.796  1.00  0.00     0.173 A 
ATOM     42  F   UNL A   1      40.958  24.707  28.229  1.00  0.00    -0.203 F 
ATOM     43  C   UNL A   1      42.307  24.498  26.312  1.00  0.00     0.198 A 
ATOM     44  C   UNL A   1      43.797  26.272  25.688  1.00  0.00     0.198 A 
ATOM     45  F   UNL A   1      43.949  28.205  27.017  1.00  0.00    -0.203 F 
ATOM     46  F   UNL A   1      41.828  23.263  26.111  1.00  0.00    -0.200 F 
ATOM     47  C   UNL A   1      43.269  25.012  25.455  1.00  0.00     0.200 A 
ATOM     48  F   UNL A   1      44.723  26.774  24.860  1.00  0.00    -0.200 F 
ATOM     49  F   UNL A   1      43.701  24.285  24.415  1.00  0.00    -0.200 F 
ENDBRANCH  25  39
BRANCH  26  50
ATOM     50  C   UNL A   1      39.464  32.048  35.622  1.00  0.00     0.064 A 
ATOM     51  C   UNL A   1      39.958  33.340  35.850  1.00  0.00     0.173 A 
ATOM     52  C   UNL A   1      38.520  31.548  36.536  1.00  0.00     0.173 A 
ATOM     53  F   UNL A   1      40.875  33.861  35.022  1.00  0.00    -0.203 F 
ATOM     54  C   UNL A   1      39.540  34.089  36.950  1.00  0.00     0.198 A 
ATOM     55  C   UNL A   1      38.074  32.313  37.612  1.00  0.00     0.198 A 
ATOM     56  F   UNL A   1      38.008  30.319  36.373  1.00  0.00    -0.203 F 
ATOM     57  F   UNL A   1      40.068  35.301  37.169  1.00  0.00    -0.200 F 
ATOM     58  C   UNL A   1      38.593  33.579  37.825  1.00  0.00     0.200 A 
ATOM     59  F   UNL A   1      37.142  31.822  38.440  1.00  0.00    -0.200 F 
ATOM     60  F   UNL A   1      38.189  34.304  38.878  1.00  0.00    -0.200 F 
ENDBRANCH  26  50
BRANCH  38  61
ATOM     61  C   UNL A   1      44.476  27.319  34.567  1.00  0.00     0.064 A 
ATOM     62  C   UNL A   1      44.276  26.144  35.303  1.00  0.00     0.173 A 
ATOM     63  C   UNL A   1      45.719  27.962  34.662  1.00  0.00     0.173 A 
ATOM     64  F   UNL A   1      43.094  25.511  35.259  1.00  0.00    -0.203 F 
ATOM     65  C   UNL A   1      45.279  25.644  36.126  1.00  0.00     0.198 A 
ATOM     66  C   UNL A   1      46.731  27.438  35.456  1.00  0.00     0.198 A 
ATOM     67  F   UNL A   1      45.953  29.088  33.971  1.00  0.00    -0.203 F 
ATOM     68  F   UNL A   1      45.052  24.550  36.864  1.00  0.00    -0.200 F 
ATOM     69  C   UNL A   1      46.507  26.285  36.193  1.00  0.00     0.200 A 
ATOM     70  F   UNL A   1      47.922  28.049  35.507  1.00  0.00    -0.200 F 
ATOM     71  F   UNL A   1      47.478  25.793  36.976  1.00  0.00    -0.200 F 
ENDBRANCH  38  61
ENDBRANCH  12  13
ENDBRANCH   5   7
ENDBRANCH   4   5
ENDBRANCH   3   4
ENDBRANCH   2   3
ENDBRANCH   1   2
BRANCH   1  72
ATOM     72  C   UNL A   1      30.506  26.139  25.736  1.00  0.00     0.202 C 
BRANCH  72  73
ATOM     73  C   UNL A   1      30.286  24.644  25.951  1.00  0.00     0.261 C 
BRANCH  73  74
ATOM     74  O   UNL A   1      31.408  23.827  25.544  1.00  0.00    -0.463 OA
BRANCH  74  75
ATOM     75  C   UNL A   1      32.382  23.676  26.486  1.00  0.00     0.310 C 
ATOM     76  O   UNL A   1      32.185  23.238  27.616  1.00  0.00    -0.252 OA
BRANCH  75  77
ATOM     77  C   UNL A   1      33.767  24.114  26.032  1.00  0.00     0.119 C 
ATOM     78  C   UNL A   1      33.728  24.771  24.654  1.00  0.00     0.019 C 
ATOM     79  C   UNL A   1      34.925  23.121  26.249  1.00  0.00     0.136 C 
ATOM     80  C   UNL A   1      34.134  23.844  23.522  1.00  0.00     0.023 C 
ATOM     81  N   UNL A   1      35.321  22.347  25.072  1.00  0.00    -0.324 N 
ATOM     82  C   UNL A   1      35.422  23.111  23.835  1.00  0.00     0.121 C 
BRANCH  81  83
ATOM     83  C   UNL A   1      35.938  21.103  25.254  1.00  0.00     0.321 C 
ATOM     84  O   UNL A   1      37.156  20.976  25.360  1.00  0.00    -0.248 OA
ATOM     85  N   UNL A   1      35.090  20.057  25.534  1.00  0.00    -0.308 N 
ATOM     86  H   UNL A   1      34.995  19.780  26.473  1.00  0.00     0.171 HD
BRANCH  85  87
ATOM     87  C   UNL A   1      34.348  19.362  24.562  1.00  0.00     0.042 A 
ATOM     88  C   UNL A   1      34.767  18.072  24.218  1.00  0.00     0.026 A 
ATOM     89  C   UNL A   1      33.144  19.863  24.067  1.00  0.00     0.026 A 
ATOM     90  C   UNL A   1      33.919  17.244  23.481  1.00  0.00     0.002 A 
ATOM     91  C   UNL A   1      32.307  19.038  23.318  1.00  0.00     0.002 A 
ATOM     92  C   UNL A   1      32.680  17.721  23.051  1.00  0.00     0.000 A 
ENDBRANCH  85  87
ENDBRANCH  81  83
ENDBRANCH  75  77
ENDBRANCH  74  75
ENDBRANCH  73  74
ENDBRANCH  72  73
ENDBRANCH   1  72
TORSDOF 16
ENDMDL
MODEL 3
REMARK VINA RESULT:     -11.9      5.616      9.664
REMARK SMILES O=C(OCCOCCOC(=O)[C@@H]1CCCN(C(=O)Nc2ccccc2)C1)c1ccc(-c2c3nc(c(-c4c(F)c(F)c(F)c(F)c4F)c4ccc([nH]4)c(-c4c(F)c(F)c(F)c(F)c4F)c4nc(c(-c5c(F)c(F)c(F)c(F)c5F)c5ccc2[nH]5)C=C4)C=C3)cc1
REMARK SMILES IDX 6 1 5 2 4 3 3 4 2 5 1 6 27 7 28 8 89 9 29 10 88 11 30 12
REMARK SMILES IDX 31 13 32 14 82 15 33 16 87 17 81 18 83 19 34 20 86 21 80 22
REMARK SMILES IDX 79 23 35 25 67 26 47 27 66 28 48 29 51 30 65 31 84 32 49 33
REMARK SMILES IDX 50 34 64 36 85 37 52 38 36 39 37 40 45 41 38 42 39 43 43 44
REMARK SMILES IDX 46 45 40 46 41 47 44 48 42 49 68 50 69 51 77 52 70 53 71 54
REMARK SMILES IDX 75 55 78 56 72 57 73 58 76 59 74 60 53 61 54 62 62 63 55 64
REMARK SMILES IDX 56 65 60 66 63 67 57 68 58 69 61 70 59 71 7 72 8 73 9 74
REMARK SMILES IDX 10 75 11 76 12 77 13 78 26 79 14 80 16 81 15 82 17 83 18 84
REMARK SMILES IDX 19 85 20 87 21 88 25 89 22 90 24 91 23 92
REMARK H PARENT 83 24 51 35 19 86
REMARK Flexibility Score: inf
ROOT
ATOM      1  O   UNL A   1      41.166  20.199  26.627  1.00  0.00    -0.374 OA
ENDROOT
BRANCH   1   2
ATOM      2  C   UNL A   1      42.250  19.414  27.116  1.00  0.00     0.202 C 
BRANCH   2   3
ATOM      3  C   UNL A   1      42.940  18.369  26.194  1.00  0.00     0.261 C 
BRANCH   3   4
ATOM      4  O   UNL A   1      43.431  18.796  24.887  1.00  0.00    -0.460 OA
BRANCH   4   5
ATOM      5  C   UNL A   1      44.672  19.300  24.639  1.00  0.00     0.338 C 
ATOM      6  O   UNL A   1      45.640  18.577  24.413  1.00  0.00    -0.246 OA
BRANCH   5   7
ATOM      7  C   UNL A   1      44.819  20.762  24.741  1.00  0.00     0.060 A 
ATOM      8  C   UNL A   1      45.673  21.235  25.707  1.00  0.00     0.016 A 
ATOM      9  C   UNL A   1      44.175  21.687  23.928  1.00  0.00     0.016 A 
ATOM     10  C   UNL A   1      45.521  22.494  26.208  1.00  0.00     0.010 A 
ATOM     11  C   UNL A   1      44.348  23.054  24.197  1.00  0.00     0.010 A 
ATOM     12  C   UNL A   1      44.993  23.462  25.379  1.00  0.00    -0.014 A 
BRANCH  12  13
ATOM     13  C   UNL A   1      45.186  24.865  25.808  1.00  0.00     0.031 A 
ATOM     14  C   UNL A   1      46.489  25.531  25.522  1.00  0.00     0.074 A 
ATOM     15  C   UNL A   1      44.148  25.547  26.345  1.00  0.00     0.049 A 
ATOM     16  N   UNL A   1      46.953  26.658  25.986  1.00  0.00    -0.248 NA
ATOM     17  C   UNL A   1      47.406  24.827  24.612  1.00  0.00     0.031 C 
ATOM     18  C   UNL A   1      42.784  25.024  26.548  1.00  0.00     0.029 A 
ATOM     19  N   UNL A   1      44.045  26.844  26.774  1.00  0.00    -0.354 N 
ATOM     20  C   UNL A   1      48.247  26.752  25.496  1.00  0.00     0.074 A 
ATOM     21  C   UNL A   1      48.493  25.578  24.690  1.00  0.00     0.031 C 
ATOM     22  C   UNL A   1      41.976  26.008  26.954  1.00  0.00     0.029 A 
ATOM     23  C   UNL A   1      42.789  27.173  27.231  1.00  0.00     0.049 A 
ATOM     24  H   UNL A   1      44.797  27.479  26.757  1.00  0.00     0.167 HD
ATOM     25  C   UNL A   1      49.142  27.738  25.734  1.00  0.00     0.037 A 
ATOM     26  C   UNL A   1      42.360  28.265  27.887  1.00  0.00     0.037 A 
ATOM     27  C   UNL A   1      48.822  28.907  26.509  1.00  0.00     0.049 A 
ATOM     28  C   UNL A   1      43.391  29.305  28.203  1.00  0.00     0.074 A 
ATOM     29  C   UNL A   1      49.636  29.959  26.876  1.00  0.00     0.029 A 
ATOM     30  N   UNL A   1      47.557  29.177  27.026  1.00  0.00    -0.354 N 
ATOM     31  N   UNL A   1      44.657  29.341  27.858  1.00  0.00    -0.248 NA
ATOM     32  C   UNL A   1      42.955  30.434  29.029  1.00  0.00     0.031 C 
ATOM     33  C   UNL A   1      48.878  30.840  27.655  1.00  0.00     0.029 A 
ATOM     34  C   UNL A   1      47.572  30.371  27.722  1.00  0.00     0.049 A 
ATOM     35  H   UNL A   1      46.767  28.600  26.912  1.00  0.00     0.167 HD
ATOM     36  C   UNL A   1      45.171  30.500  28.412  1.00  0.00     0.074 A 
ATOM     37  C   UNL A   1      44.067  31.151  29.095  1.00  0.00     0.031 C 
ATOM     38  C   UNL A   1      46.437  30.981  28.374  1.00  0.00     0.037 A 
BRANCH  25  39
ATOM     39  C   UNL A   1      50.541  27.524  25.234  1.00  0.00     0.064 A 
ATOM     40  C   UNL A   1      50.907  27.745  23.898  1.00  0.00     0.173 A 
ATOM     41  C   UNL A   1      51.522  27.023  26.105  1.00  0.00     0.173 A 
ATOM     42  F   UNL A   1      50.002  28.194  23.015  1.00  0.00    -0.203 F 
ATOM     43  C   UNL A   1      52.187  27.430  23.443  1.00  0.00     0.198 A 
ATOM     44  C   UNL A   1      52.809  26.742  25.655  1.00  0.00     0.198 A 
ATOM     45  F   UNL A   1      51.226  26.783  27.392  1.00  0.00    -0.203 F 
ATOM     46  F   UNL A   1      52.489  27.574  22.146  1.00  0.00    -0.200 F 
ATOM     47  C   UNL A   1      53.137  26.932  24.323  1.00  0.00     0.200 A 
ATOM     48  F   UNL A   1      53.726  26.265  26.508  1.00  0.00    -0.200 F 
ATOM     49  F   UNL A   1      54.363  26.618  23.881  1.00  0.00    -0.200 F 
ENDBRANCH  25  39
BRANCH  26  50
ATOM     50  C   UNL A   1      40.951  28.367  28.361  1.00  0.00     0.064 A 
ATOM     51  C   UNL A   1      40.583  27.923  29.639  1.00  0.00     0.173 A 
ATOM     52  C   UNL A   1      39.938  28.912  27.553  1.00  0.00     0.173 A 
ATOM     53  F   UNL A   1      41.503  27.376  30.447  1.00  0.00    -0.203 F 
ATOM     54  C   UNL A   1      39.262  28.006  30.081  1.00  0.00     0.198 A 
ATOM     55  C   UNL A   1      38.627  29.031  28.010  1.00  0.00     0.198 A 
ATOM     56  F   UNL A   1      40.225  29.356  26.320  1.00  0.00    -0.203 F 
ATOM     57  F   UNL A   1      38.933  27.527  31.288  1.00  0.00    -0.200 F 
ATOM     58  C   UNL A   1      38.288  28.567  29.270  1.00  0.00     0.200 A 
ATOM     59  F   UNL A   1      37.695  29.594  27.229  1.00  0.00    -0.200 F 
ATOM     60  F   UNL A   1      37.020  28.651  29.699  1.00  0.00    -0.200 F 
ENDBRANCH  26  50
BRANCH  38  61
ATOM     61  C   UNL A   1      46.667  32.296  29.049  1.00  0.00     0.064 A 
ATOM     62  C   UNL A   1      46.487  33.512  28.375  1.00  0.00     0.173 A 
ATOM     63  C   UNL A   1      47.033  32.333  30.403  1.00  0.00     0.173 A 
ATOM     64  F   UNL A   1      46.160  33.522  27.074  1.00  0.00    -0.203 F 
ATOM     65  C   UNL A   1      46.691  34.721  29.029  1.00  0.00     0.198 A 
ATOM     66  C   UNL A   1      47.198  33.545  31.062  1.00  0.00     0.198 A 
ATOM     67  F   UNL A   1      47.212  31.193  31.087  1.00  0.00    -0.203 F 
ATOM     68  F   UNL A   1      46.567  35.873  28.355  1.00  0.00    -0.200 F 
ATOM     69  C   UNL A   1      47.036  34.737  30.372  1.00  0.00     0.200 A 
ATOM     70  F   UNL A   1      47.515  33.558  32.363  1.00  0.00    -0.200 F 
ATOM     71  F   UNL A   1      47.217  35.905  31.004  1.00  0.00    -0.200 F 
ENDBRANCH  38  61
ENDBRANCH  12  13
ENDBRANCH   5   7
ENDBRANCH   4   5
ENDBRANCH   3   4
ENDBRANCH   2   3
ENDBRANCH   1   2
BRANCH   1  72
ATOM     72  C   UNL A   1      41.194  21.596  26.865  1.00  0.00     0.202 C 
BRANCH  72  73
ATOM     73  C   UNL A   1      39.845  22.302  26.759  1.00  0.00     0.261 C 
BRANCH  73  74
ATOM     74  O   UNL A   1      38.973  21.741  25.751  1.00  0.00    -0.463 OA
BRANCH  74  75
ATOM     75  C   UNL A   1      37.832  22.449  25.520  1.00  0.00     0.310 C 
ATOM     76  O   UNL A   1      37.536  23.489  26.102  1.00  0.00    -0.252 OA
BRANCH  75  77
ATOM     77  C   UNL A   1      36.915  21.837  24.470  1.00  0.00     0.119 C 
ATOM     78  C   UNL A   1      36.423  22.882  23.472  1.00  0.00     0.019 C 
ATOM     79  C   UNL A   1      35.839  20.850  24.966  1.00  0.00     0.136 C 
ATOM     80  C   UNL A   1      35.022  23.393  23.759  1.00  0.00     0.023 C 
ATOM     81  N   UNL A   1      34.493  21.406  25.109  1.00  0.00    -0.324 N 
ATOM     82  C   UNL A   1      34.053  22.256  24.010  1.00  0.00     0.121 C 
BRANCH  81  83
ATOM     83  C   UNL A   1      33.607  20.810  26.015  1.00  0.00     0.321 C 
ATOM     84  O   UNL A   1      33.605  21.078  27.215  1.00  0.00    -0.248 OA
ATOM     85  N   UNL A   1      32.588  20.078  25.452  1.00  0.00    -0.308 N 
ATOM     86  H   UNL A   1      31.704  20.503  25.373  1.00  0.00     0.171 HD
BRANCH  85  87
ATOM     87  C   UNL A   1      32.732  18.760  24.982  1.00  0.00     0.042 A 
ATOM     88  C   UNL A   1      32.891  18.569  23.605  1.00  0.00     0.026 A 
ATOM     89  C   UNL A   1      32.873  17.684  25.859  1.00  0.00     0.026 A 
ATOM     90  C   UNL A   1      33.313  17.329  23.124  1.00  0.00     0.002 A 
ATOM     91  C   UNL A   1      33.280  16.443  25.372  1.00  0.00     0.002 A 
ATOM     92  C   UNL A   1      33.529  16.274  24.011  1.00  0.00     0.000 A 
ENDBRANCH  85  87
ENDBRANCH  81  83
ENDBRANCH  75  77
ENDBRANCH  74  75
ENDBRANCH  73  74
ENDBRANCH  72  73
ENDBRANCH   1  72
TORSDOF 16
ENDMDL
