MODEL 1
REMARK VINA RESULT:     -10.7      0.000      0.000
REMARK SMILES C=CCN(CC(=O)OCCOCCOC(=O)c1ccc(-c2c3nc(c(-c4c(F)c(F)c(F)c(F)c4F)c4ccc([nH]4)c(-c4c(F)c(F)c(F)c(F)c4F)c4nc(c(-c5c(F)c(F)c(F)c(F)c5F)c5ccc2[nH]5)C=C4)C=C3)cc1)c1ccc([N+](=O)[O-])cc1Br
REMARK SMILES IDX 10 1 9 2 8 3 6 4 7 5 5 6 4 7 3 8 2 9 1 10 80 11 81 12 88 13
REMARK SMILES IDX 82 14 87 15 89 16 83 17 84 18 85 19 86 20 11 21 12 22 13 23
REMARK SMILES IDX 14 24 15 25 16 26 17 27 18 28 79 29 19 30 78 31 20 32 21 33
REMARK SMILES IDX 22 34 72 35 23 36 77 37 71 38 73 39 24 40 76 41 70 42 69 43
REMARK SMILES IDX 25 45 57 46 37 47 56 48 38 49 41 50 55 51 74 52 39 53 40 54
REMARK SMILES IDX 54 56 75 57 42 58 26 59 27 60 35 61 28 62 29 63 33 64 36 65
REMARK SMILES IDX 30 66 31 67 34 68 32 69 58 70 59 71 67 72 60 73 61 74 65 75
REMARK SMILES IDX 68 76 62 77 63 78 66 79 64 80 43 81 44 82 52 83 45 84 46 85
REMARK SMILES IDX 50 86 53 87 47 88 48 89 51 90 49 91
REMARK H PARENT 73 44 41 55
REMARK Flexibility Score: inf
ROOT
ATOM      1  C   UNL A   1      33.064  28.513  24.322  1.00  0.00     0.202 C 
ENDROOT
BRANCH   1   2
ATOM      2  C   UNL A   1      32.509  27.267  23.618  1.00  0.00     0.261 C 
BRANCH   2   3
ATOM      3  O   UNL A   1      33.243  26.900  22.438  1.00  0.00    -0.462 OA
BRANCH   3   4
ATOM      4  C   UNL A   1      32.982  25.651  21.947  1.00  0.00     0.325 C 
ATOM      5  O   UNL A   1      33.275  25.276  20.816  1.00  0.00    -0.250 OA
BRANCH   4   6
ATOM      6  C   UNL A   1      32.358  24.711  22.980  1.00  0.00     0.239 C 
BRANCH   6   7
ATOM      7  N   UNL A   1      33.099  23.461  23.195  1.00  0.00    -0.356 N 
BRANCH   7   8
ATOM      8  C   UNL A   1      32.605  22.208  22.642  1.00  0.00     0.144 C 
BRANCH   8   9
ATOM      9  C   UNL A   1      32.590  21.163  23.719  1.00  0.00    -0.014 C 
ATOM     10  C   UNL A   1      32.253  19.878  23.537  1.00  0.00     0.006 C 
ENDBRANCH   8   9
ENDBRANCH   7   8
BRANCH   7  11
ATOM     11  C   UNL A   1      34.280  23.496  23.918  1.00  0.00     0.052 A 
ATOM     12  C   UNL A   1      35.485  23.287  23.230  1.00  0.00     0.034 A 
ATOM     13  C   UNL A   1      34.344  23.699  25.314  1.00  0.00     0.048 A 
ATOM     14  C   UNL A   1      36.711  23.236  23.898  1.00  0.00     0.088 A 
ATOM     15  C   UNL A   1      35.567  23.686  25.994  1.00  0.00     0.103 A 
ATOM     16  Br  UNL A   1      32.787  24.012  26.365  1.00  0.00    -0.048 Br
ATOM     17  C   UNL A   1      36.740  23.435  25.278  1.00  0.00     0.270 A 
BRANCH  17  18
ATOM     18  N   UNL A   1      38.013  23.357  25.990  1.00  0.00     0.062 N 
ATOM     19  O   UNL A   1      38.519  22.236  26.130  1.00  0.00    -0.258 OA
ATOM     20  O   UNL A   1      38.498  24.416  26.413  1.00  0.00    -0.258 OA
ENDBRANCH  17  18
ENDBRANCH   7  11
ENDBRANCH   6   7
ENDBRANCH   4   6
ENDBRANCH   3   4
ENDBRANCH   2   3
ENDBRANCH   1   2
BRANCH   1  21
ATOM     21  O   UNL A   1      32.368  28.935  25.493  1.00  0.00    -0.374 OA
BRANCH  21  22
ATOM     22  C   UNL A   1      31.432  30.009  25.355  1.00  0.00     0.202 C 
BRANCH  22  23
ATOM     23  C   UNL A   1      31.645  31.196  26.299  1.00  0.00     0.261 C 
BRANCH  23  24
ATOM     24  O   UNL A   1      32.712  30.913  27.222  1.00  0.00    -0.460 OA
BRANCH  24  25
ATOM     25  C   UNL A   1      33.478  31.979  27.525  1.00  0.00     0.338 C 
ATOM     26  O   UNL A   1      33.121  33.142  27.632  1.00  0.00    -0.246 OA
BRANCH  25  27
ATOM     27  C   UNL A   1      34.825  31.506  27.871  1.00  0.00     0.060 A 
ATOM     28  C   UNL A   1      35.004  30.136  28.085  1.00  0.00     0.016 A 
ATOM     29  C   UNL A   1      35.868  32.406  28.097  1.00  0.00     0.016 A 
ATOM     30  C   UNL A   1      36.216  29.667  28.593  1.00  0.00     0.010 A 
ATOM     31  C   UNL A   1      37.089  31.930  28.592  1.00  0.00     0.010 A 
ATOM     32  C   UNL A   1      37.254  30.564  28.889  1.00  0.00    -0.014 A 
BRANCH  32  33
ATOM     33  C   UNL A   1      38.441  30.079  29.642  1.00  0.00     0.031 A 
ATOM     34  C   UNL A   1      38.659  30.543  31.058  1.00  0.00     0.074 A 
ATOM     35  C   UNL A   1      39.295  29.196  29.096  1.00  0.00     0.049 A 
ATOM     36  N   UNL A   1      39.588  30.194  31.914  1.00  0.00    -0.248 NA
ATOM     37  C   UNL A   1      37.706  31.534  31.580  1.00  0.00     0.031 C 
ATOM     38  C   UNL A   1      39.204  28.662  27.740  1.00  0.00     0.029 A 
ATOM     39  N   UNL A   1      40.410  28.590  29.624  1.00  0.00    -0.354 N 
ATOM     40  C   UNL A   1      39.329  30.917  33.070  1.00  0.00     0.074 A 
ATOM     41  C   UNL A   1      38.183  31.756  32.796  1.00  0.00     0.031 C 
ATOM     42  C   UNL A   1      40.222  27.808  27.539  1.00  0.00     0.029 A 
ATOM     43  C   UNL A   1      41.044  27.746  28.747  1.00  0.00     0.049 A 
ATOM     44  H   UNL A   1      40.724  28.747  30.544  1.00  0.00     0.167 HD
ATOM     45  C   UNL A   1      39.975  30.874  34.261  1.00  0.00     0.037 A 
ATOM     46  C   UNL A   1      42.163  27.009  28.900  1.00  0.00     0.037 A 
ATOM     47  C   UNL A   1      41.109  30.038  34.549  1.00  0.00     0.049 A 
ATOM     48  C   UNL A   1      42.884  27.003  30.221  1.00  0.00     0.074 A 
ATOM     49  C   UNL A   1      41.793  29.891  35.744  1.00  0.00     0.029 A 
ATOM     50  N   UNL A   1      41.735  29.212  33.627  1.00  0.00    -0.354 N 
ATOM     51  N   UNL A   1      42.589  27.638  31.329  1.00  0.00    -0.248 NA
ATOM     52  C   UNL A   1      44.090  26.166  30.316  1.00  0.00     0.031 C 
ATOM     53  C   UNL A   1      42.863  29.014  35.533  1.00  0.00     0.029 A 
ATOM     54  C   UNL A   1      42.817  28.578  34.219  1.00  0.00     0.049 A 
ATOM     55  H   UNL A   1      41.453  29.094  32.691  1.00  0.00     0.167 HD
ATOM     56  C   UNL A   1      43.555  27.264  32.255  1.00  0.00     0.074 A 
ATOM     57  C   UNL A   1      44.438  26.333  31.584  1.00  0.00     0.031 C 
ATOM     58  C   UNL A   1      43.694  27.657  33.545  1.00  0.00     0.037 A 
BRANCH  45  59
ATOM     59  C   UNL A   1      39.472  31.776  35.350  1.00  0.00     0.064 A 
ATOM     60  C   UNL A   1      38.543  31.330  36.302  1.00  0.00     0.173 A 
ATOM     61  C   UNL A   1      39.951  33.089  35.463  1.00  0.00     0.173 A 
ATOM     62  F   UNL A   1      38.046  30.085  36.230  1.00  0.00    -0.203 F 
ATOM     63  C   UNL A   1      38.093  32.176  37.312  1.00  0.00     0.198 A 
ATOM     64  C   UNL A   1      39.519  33.923  36.489  1.00  0.00     0.198 A 
ATOM     65  F   UNL A   1      40.845  33.560  34.580  1.00  0.00    -0.203 F 
ATOM     66  F   UNL A   1      37.173  31.744  38.186  1.00  0.00    -0.200 F 
ATOM     67  C   UNL A   1      38.585  33.469  37.409  1.00  0.00     0.200 A 
ATOM     68  F   UNL A   1      40.003  35.169  36.587  1.00  0.00    -0.200 F 
ATOM     69  F   UNL A   1      38.154  34.280  38.384  1.00  0.00    -0.200 F 
ENDBRANCH  45  59
BRANCH  46  70
ATOM     70  C   UNL A   1      42.671  26.206  27.758  1.00  0.00     0.064 A 
ATOM     71  C   UNL A   1      43.668  26.702  26.906  1.00  0.00     0.173 A 
ATOM     72  C   UNL A   1      42.160  24.928  27.493  1.00  0.00     0.173 A 
ATOM     73  F   UNL A   1      44.167  27.930  27.105  1.00  0.00    -0.203 F 
ATOM     74  C   UNL A   1      44.128  25.952  25.826  1.00  0.00     0.198 A 
ATOM     75  C   UNL A   1      42.638  24.168  26.428  1.00  0.00     0.198 A 
ATOM     76  F   UNL A   1      41.204  24.411  28.278  1.00  0.00    -0.203 F 
ATOM     77  F   UNL A   1      45.055  26.463  25.006  1.00  0.00    -0.200 F 
ATOM     78  C   UNL A   1      43.619  24.683  25.592  1.00  0.00     0.200 A 
ATOM     79  F   UNL A   1      42.150  22.940  26.211  1.00  0.00    -0.200 F 
ATOM     80  F   UNL A   1      44.065  23.960  24.556  1.00  0.00    -0.200 F 
ENDBRANCH  46  70
BRANCH  58  81
ATOM     81  C   UNL A   1      44.835  27.072  34.328  1.00  0.00     0.064 A 
ATOM     82  C   UNL A   1      44.709  25.851  35.006  1.00  0.00     0.173 A 
ATOM     83  C   UNL A   1      46.080  27.718  34.365  1.00  0.00     0.173 A 
ATOM     84  F   UNL A   1      43.535  25.201  35.014  1.00  0.00    -0.203 F 
ATOM     85  C   UNL A   1      45.781  25.309  35.710  1.00  0.00     0.198 A 
ATOM     86  C   UNL A   1      47.157  27.160  35.048  1.00  0.00     0.198 A 
ATOM     87  F   UNL A   1      46.256  28.885  33.727  1.00  0.00    -0.203 F 
ATOM     88  F   UNL A   1      45.626  24.161  36.386  1.00  0.00    -0.200 F 
ATOM     89  C   UNL A   1      47.005  25.959  35.725  1.00  0.00     0.200 A 
ATOM     90  F   UNL A   1      48.343  27.785  35.052  1.00  0.00    -0.200 F 
ATOM     91  F   UNL A   1      48.038  25.433  36.398  1.00  0.00    -0.200 F 
ENDBRANCH  58  81
ENDBRANCH  32  33
ENDBRANCH  25  27
ENDBRANCH  24  25
ENDBRANCH  23  24
ENDBRANCH  22  23
ENDBRANCH  21  22
ENDBRANCH   1  21
TORSDOF 19
ENDMDL
MODEL 2
REMARK VINA RESULT:     -10.4      0.535      2.015
REMARK SMILES C=CCN(CC(=O)OCCOCCOC(=O)c1ccc(-c2c3nc(c(-c4c(F)c(F)c(F)c(F)c4F)c4ccc([nH]4)c(-c4c(F)c(F)c(F)c(F)c4F)c4nc(c(-c5c(F)c(F)c(F)c(F)c5F)c5ccc2[nH]5)C=C4)C=C3)cc1)c1ccc([N+](=O)[O-])cc1Br
REMARK SMILES IDX 10 1 9 2 8 3 6 4 7 5 5 6 4 7 3 8 2 9 1 10 80 11 81 12 88 13
REMARK SMILES IDX 82 14 87 15 89 16 83 17 84 18 85 19 86 20 11 21 12 22 13 23
REMARK SMILES IDX 14 24 15 25 16 26 17 27 18 28 79 29 19 30 78 31 20 32 21 33
REMARK SMILES IDX 22 34 72 35 23 36 77 37 71 38 73 39 24 40 76 41 70 42 69 43
REMARK SMILES IDX 25 45 57 46 37 47 56 48 38 49 41 50 55 51 74 52 39 53 40 54
REMARK SMILES IDX 54 56 75 57 42 58 26 59 27 60 35 61 28 62 29 63 33 64 36 65
REMARK SMILES IDX 30 66 31 67 34 68 32 69 58 70 59 71 67 72 60 73 61 74 65 75
REMARK SMILES IDX 68 76 62 77 63 78 66 79 64 80 43 81 44 82 52 83 45 84 46 85
REMARK SMILES IDX 50 86 53 87 47 88 48 89 51 90 49 91
REMARK H PARENT 73 44 41 55
REMARK Flexibility Score: inf
ROOT
ATOM      1  C   UNL A   1      33.080  28.420  23.510  1.00  0.00     0.202 C 
ENDROOT
BRANCH   1   2
ATOM      2  C   UNL A   1      32.495  27.592  22.359  1.00  0.00     0.261 C 
BRANCH   2   3
ATOM      3  O   UNL A   1      33.458  26.737  21.719  1.00  0.00    -0.462 OA
BRANCH   3   4
ATOM      4  C   UNL A   1      33.035  25.462  21.462  1.00  0.00     0.325 C 
ATOM      5  O   UNL A   1      33.216  24.873  20.401  1.00  0.00    -0.250 OA
BRANCH   4   6
ATOM      6  C   UNL A   1      32.377  24.787  22.667  1.00  0.00     0.239 C 
BRANCH   6   7
ATOM      7  N   UNL A   1      32.993  23.513  23.064  1.00  0.00    -0.356 N 
BRANCH   7   8
ATOM      8  C   UNL A   1      32.370  22.249  22.701  1.00  0.00     0.144 C 
BRANCH   8   9
ATOM      9  C   UNL A   1      32.370  21.336  23.891  1.00  0.00    -0.014 C 
ATOM     10  C   UNL A   1      32.663  20.029  23.857  1.00  0.00     0.006 C 
ENDBRANCH   8   9
ENDBRANCH   7   8
BRANCH   7  11
ATOM     11  C   UNL A   1      34.180  23.537  23.776  1.00  0.00     0.052 A 
ATOM     12  C   UNL A   1      35.356  23.142  23.119  1.00  0.00     0.034 A 
ATOM     13  C   UNL A   1      34.277  23.902  25.138  1.00  0.00     0.048 A 
ATOM     14  C   UNL A   1      36.580  23.068  23.788  1.00  0.00     0.088 A 
ATOM     15  C   UNL A   1      35.502  23.869  25.813  1.00  0.00     0.103 A 
ATOM     16  Br  UNL A   1      32.764  24.474  26.142  1.00  0.00    -0.048 Br
ATOM     17  C   UNL A   1      36.641  23.433  25.133  1.00  0.00     0.270 A 
BRANCH  17  18
ATOM     18  N   UNL A   1      37.911  23.333  25.848  1.00  0.00     0.062 N 
ATOM     19  O   UNL A   1      38.486  22.237  25.838  1.00  0.00    -0.258 OA
ATOM     20  O   UNL A   1      38.324  24.349  26.425  1.00  0.00    -0.258 OA
ENDBRANCH  17  18
ENDBRANCH   7  11
ENDBRANCH   6   7
ENDBRANCH   4   6
ENDBRANCH   3   4
ENDBRANCH   2   3
ENDBRANCH   1   2
BRANCH   1  21
ATOM     21  O   UNL A   1      32.299  28.481  24.701  1.00  0.00    -0.374 OA
BRANCH  21  22
ATOM     22  C   UNL A   1      31.507  29.654  24.913  1.00  0.00     0.202 C 
BRANCH  22  23
ATOM     23  C   UNL A   1      31.819  30.440  26.190  1.00  0.00     0.261 C 
BRANCH  23  24
ATOM     24  O   UNL A   1      33.204  30.284  26.544  1.00  0.00    -0.460 OA
BRANCH  24  25
ATOM     25  C   UNL A   1      33.695  31.278  27.310  1.00  0.00     0.338 C 
ATOM     26  O   UNL A   1      33.091  32.247  27.742  1.00  0.00    -0.246 OA
BRANCH  25  27
ATOM     27  C   UNL A   1      35.073  30.941  27.693  1.00  0.00     0.060 A 
ATOM     28  C   UNL A   1      35.408  29.588  27.808  1.00  0.00     0.016 A 
ATOM     29  C   UNL A   1      35.985  31.936  28.048  1.00  0.00     0.016 A 
ATOM     30  C   UNL A   1      36.644  29.224  28.344  1.00  0.00     0.010 A 
ATOM     31  C   UNL A   1      37.232  31.567  28.571  1.00  0.00     0.010 A 
ATOM     32  C   UNL A   1      37.549  30.210  28.768  1.00  0.00    -0.014 A 
BRANCH  32  33
ATOM     33  C   UNL A   1      38.750  29.807  29.545  1.00  0.00     0.031 A 
ATOM     34  C   UNL A   1      38.958  30.365  30.929  1.00  0.00     0.074 A 
ATOM     35  C   UNL A   1      39.628  28.915  29.054  1.00  0.00     0.049 A 
ATOM     36  N   UNL A   1      39.898  30.097  31.802  1.00  0.00    -0.248 NA
ATOM     37  C   UNL A   1      37.979  31.360  31.391  1.00  0.00     0.031 C 
ATOM     38  C   UNL A   1      39.549  28.294  27.734  1.00  0.00     0.029 A 
ATOM     39  N   UNL A   1      40.760  28.375  29.615  1.00  0.00    -0.354 N 
ATOM     40  C   UNL A   1      39.621  30.884  32.911  1.00  0.00     0.074 A 
ATOM     41  C   UNL A   1      38.451  31.672  32.588  1.00  0.00     0.031 C 
ATOM     42  C   UNL A   1      40.591  27.457  27.584  1.00  0.00     0.029 A 
ATOM     43  C   UNL A   1      41.416  27.494  28.791  1.00  0.00     0.049 A 
ATOM     44  H   UNL A   1      41.071  28.598  30.522  1.00  0.00     0.167 HD
ATOM     45  C   UNL A   1      40.270  30.935  34.100  1.00  0.00     0.037 A 
ATOM     46  C   UNL A   1      42.555  26.800  28.985  1.00  0.00     0.037 A 
ATOM     47  C   UNL A   1      41.428  30.149  34.436  1.00  0.00     0.049 A 
ATOM     48  C   UNL A   1      43.278  26.898  30.303  1.00  0.00     0.074 A 
ATOM     49  C   UNL A   1      42.117  30.098  35.636  1.00  0.00     0.029 A 
ATOM     50  N   UNL A   1      42.075  29.285  33.566  1.00  0.00    -0.354 N 
ATOM     51  N   UNL A   1      42.968  27.593  31.369  1.00  0.00    -0.248 NA
ATOM     52  C   UNL A   1      44.507  26.102  30.445  1.00  0.00     0.031 C 
ATOM     53  C   UNL A   1      43.211  29.239  35.476  1.00  0.00     0.029 A 
ATOM     54  C   UNL A   1      43.175  28.720  34.193  1.00  0.00     0.049 A 
ATOM     55  H   UNL A   1      41.794  29.100  32.641  1.00  0.00     0.167 HD
ATOM     56  C   UNL A   1      43.946  27.305  32.313  1.00  0.00     0.074 A 
ATOM     57  C   UNL A   1      44.853  26.359  31.700  1.00  0.00     0.031 C 
ATOM     58  C   UNL A   1      44.076  27.783  33.575  1.00  0.00     0.037 A 
BRANCH  45  59
ATOM     59  C   UNL A   1      39.744  31.889  35.131  1.00  0.00     0.064 A 
ATOM     60  C   UNL A   1      40.145  33.233  35.160  1.00  0.00     0.173 A 
ATOM     61  C   UNL A   1      38.802  31.463  36.079  1.00  0.00     0.173 A 
ATOM     62  F   UNL A   1      41.052  33.686  34.282  1.00  0.00    -0.203 F 
ATOM     63  C   UNL A   1      39.641  34.109  36.119  1.00  0.00     0.198 A 
ATOM     64  C   UNL A   1      38.281  32.347  37.018  1.00  0.00     0.198 A 
ATOM     65  F   UNL A   1      38.383  30.188  36.088  1.00  0.00    -0.203 F 
ATOM     66  F   UNL A   1      40.070  35.377  36.156  1.00  0.00    -0.200 F 
ATOM     67  C   UNL A   1      38.706  33.667  37.043  1.00  0.00     0.200 A 
ATOM     68  F   UNL A   1      37.370  31.921  37.904  1.00  0.00    -0.200 F 
ATOM     69  F   UNL A   1      38.218  34.512  37.961  1.00  0.00    -0.200 F 
ENDBRANCH  45  59
BRANCH  46  70
ATOM     70  C   UNL A   1      43.083  25.941  27.895  1.00  0.00     0.064 A 
ATOM     71  C   UNL A   1      42.759  24.579  27.821  1.00  0.00     0.173 A 
ATOM     72  C   UNL A   1      43.930  26.466  26.910  1.00  0.00     0.173 A 
ATOM     73  F   UNL A   1      41.973  24.026  28.757  1.00  0.00    -0.203 F 
ATOM     74  C   UNL A   1      43.271  23.773  26.806  1.00  0.00     0.198 A 
ATOM     75  C   UNL A   1      44.422  25.665  25.882  1.00  0.00     0.198 A 
ATOM     76  F   UNL A   1      44.271  27.762  26.939  1.00  0.00    -0.203 F 
ATOM     77  F   UNL A   1      42.976  22.467  26.779  1.00  0.00    -0.200 F 
ATOM     78  C   UNL A   1      44.096  24.318  25.834  1.00  0.00     0.200 A 
ATOM     79  F   UNL A   1      45.211  26.198  24.939  1.00  0.00    -0.200 F 
ATOM     80  F   UNL A   1      44.584  23.544  24.856  1.00  0.00    -0.200 F 
ENDBRANCH  46  70
BRANCH  58  81
ATOM     81  C   UNL A   1      45.234  27.280  34.389  1.00  0.00     0.064 A 
ATOM     82  C   UNL A   1      46.462  27.955  34.413  1.00  0.00     0.173 A 
ATOM     83  C   UNL A   1      45.099  26.134  35.188  1.00  0.00     0.173 A 
ATOM     84  F   UNL A   1      46.647  29.048  33.656  1.00  0.00    -0.203 F 
ATOM     85  C   UNL A   1      47.520  27.491  35.191  1.00  0.00     0.198 A 
ATOM     86  C   UNL A   1      46.150  25.687  35.984  1.00  0.00     0.198 A 
ATOM     87  F   UNL A   1      43.943  25.454  35.207  1.00  0.00    -0.203 F 
ATOM     88  F   UNL A   1      48.699  28.129  35.166  1.00  0.00    -0.200 F 
ATOM     89  C   UNL A   1      47.362  26.361  35.980  1.00  0.00     0.200 A 
ATOM     90  F   UNL A   1      45.991  24.602  36.754  1.00  0.00    -0.200 F 
ATOM     91  F   UNL A   1      48.380  25.919  36.731  1.00  0.00    -0.200 F 
ENDBRANCH  58  81
ENDBRANCH  32  33
ENDBRANCH  25  27
ENDBRANCH  24  25
ENDBRANCH  23  24
ENDBRANCH  22  23
ENDBRANCH  21  22
ENDBRANCH   1  21
TORSDOF 19
ENDMDL
MODEL 3
REMARK VINA RESULT:     -10.4      4.187      9.695
REMARK SMILES C=CCN(CC(=O)OCCOCCOC(=O)c1ccc(-c2c3nc(c(-c4c(F)c(F)c(F)c(F)c4F)c4ccc([nH]4)c(-c4c(F)c(F)c(F)c(F)c4F)c4nc(c(-c5c(F)c(F)c(F)c(F)c5F)c5ccc2[nH]5)C=C4)C=C3)cc1)c1ccc([N+](=O)[O-])cc1Br
REMARK SMILES IDX 10 1 9 2 8 3 6 4 7 5 5 6 4 7 3 8 2 9 1 10 80 11 81 12 88 13
REMARK SMILES IDX 82 14 87 15 89 16 83 17 84 18 85 19 86 20 11 21 12 22 13 23
REMARK SMILES IDX 14 24 15 25 16 26 17 27 18 28 79 29 19 30 78 31 20 32 21 33
REMARK SMILES IDX 22 34 72 35 23 36 77 37 71 38 73 39 24 40 76 41 70 42 69 43
REMARK SMILES IDX 25 45 57 46 37 47 56 48 38 49 41 50 55 51 74 52 39 53 40 54
REMARK SMILES IDX 54 56 75 57 42 58 26 59 27 60 35 61 28 62 29 63 33 64 36 65
REMARK SMILES IDX 30 66 31 67 34 68 32 69 58 70 59 71 67 72 60 73 61 74 65 75
REMARK SMILES IDX 68 76 62 77 63 78 66 79 64 80 43 81 44 82 52 83 45 84 46 85
REMARK SMILES IDX 50 86 53 87 47 88 48 89 51 90 49 91
REMARK H PARENT 73 44 41 55
REMARK Flexibility Score: inf
ROOT
ATOM      1  C   UNL A   1      33.758  21.752  25.068  1.00  0.00     0.202 C 
ENDROOT
BRANCH   1   2
ATOM      2  C   UNL A   1      32.604  21.847  26.075  1.00  0.00     0.261 C 
BRANCH   2   3
ATOM      3  O   UNL A   1      32.468  23.148  26.671  1.00  0.00    -0.462 OA
BRANCH   3   4
ATOM      4  C   UNL A   1      31.272  23.774  26.452  1.00  0.00     0.325 C 
ATOM      5  O   UNL A   1      30.370  23.854  27.281  1.00  0.00    -0.250 OA
BRANCH   4   6
ATOM      6  C   UNL A   1      31.185  24.456  25.086  1.00  0.00     0.239 C 
BRANCH   6   7
ATOM      7  N   UNL A   1      30.870  25.890  25.138  1.00  0.00    -0.356 N 
BRANCH   7   8
ATOM      8  C   UNL A   1      29.624  26.392  24.578  1.00  0.00     0.144 C 
BRANCH   8   9
ATOM      9  C   UNL A   1      29.927  27.484  23.594  1.00  0.00    -0.014 C 
ATOM     10  C   UNL A   1      30.633  27.326  22.466  1.00  0.00     0.006 C 
ENDBRANCH   8   9
ENDBRANCH   7   8
BRANCH   7  11
ATOM     11  C   UNL A   1      31.770  26.753  25.743  1.00  0.00     0.052 A 
ATOM     12  C   UNL A   1      31.332  27.503  26.845  1.00  0.00     0.034 A 
ATOM     13  C   UNL A   1      33.096  26.950  25.296  1.00  0.00     0.048 A 
ATOM     14  C   UNL A   1      32.155  28.447  27.463  1.00  0.00     0.088 A 
ATOM     15  C   UNL A   1      33.946  27.865  25.926  1.00  0.00     0.103 A 
ATOM     16  Br  UNL A   1      33.822  25.984  23.825  1.00  0.00    -0.048 Br
ATOM     17  C   UNL A   1      33.458  28.620  26.996  1.00  0.00     0.270 A 
BRANCH  17  18
ATOM     18  N   UNL A   1      34.318  29.623  27.618  1.00  0.00     0.062 N 
ATOM     19  O   UNL A   1      35.456  29.269  27.954  1.00  0.00    -0.258 OA
ATOM     20  O   UNL A   1      33.850  30.760  27.776  1.00  0.00    -0.258 OA
ENDBRANCH  17  18
ENDBRANCH   7  11
ENDBRANCH   6   7
ENDBRANCH   4   6
ENDBRANCH   3   4
ENDBRANCH   2   3
ENDBRANCH   1   2
BRANCH   1  21
ATOM     21  O   UNL A   1      35.057  21.543  25.618  1.00  0.00    -0.374 OA
BRANCH  21  22
ATOM     22  C   UNL A   1      36.162  21.511  24.709  1.00  0.00     0.202 C 
BRANCH  22  23
ATOM     23  C   UNL A   1      37.374  20.697  25.172  1.00  0.00     0.261 C 
BRANCH  23  24
ATOM     24  O   UNL A   1      38.561  21.509  25.139  1.00  0.00    -0.460 OA
BRANCH  24  25
ATOM     25  C   UNL A   1      39.455  21.220  26.105  1.00  0.00     0.338 C 
ATOM     26  O   UNL A   1      39.993  20.145  26.320  1.00  0.00    -0.246 OA
BRANCH  25  27
ATOM     27  C   UNL A   1      39.820  22.465  26.795  1.00  0.00     0.060 A 
ATOM     28  C   UNL A   1      39.159  23.639  26.421  1.00  0.00     0.016 A 
ATOM     29  C   UNL A   1      40.876  22.499  27.707  1.00  0.00     0.016 A 
ATOM     30  C   UNL A   1      39.599  24.868  26.914  1.00  0.00     0.010 A 
ATOM     31  C   UNL A   1      41.305  23.734  28.213  1.00  0.00     0.010 A 
ATOM     32  C   UNL A   1      40.700  24.930  27.782  1.00  0.00    -0.014 A 
BRANCH  32  33
ATOM     33  C   UNL A   1      41.296  26.252  28.108  1.00  0.00     0.031 A 
ATOM     34  C   UNL A   1      42.700  26.562  27.660  1.00  0.00     0.074 A 
ATOM     35  C   UNL A   1      40.584  27.194  28.752  1.00  0.00     0.049 A 
ATOM     36  N   UNL A   1      43.385  27.673  27.780  1.00  0.00    -0.248 NA
ATOM     37  C   UNL A   1      43.432  25.477  26.991  1.00  0.00     0.031 C 
ATOM     38  C   UNL A   1      39.217  27.031  29.238  1.00  0.00     0.029 A 
ATOM     39  N   UNL A   1      40.917  28.479  29.103  1.00  0.00    -0.354 N 
ATOM     40  C   UNL A   1      44.621  27.420  27.201  1.00  0.00     0.074 A 
ATOM     41  C   UNL A   1      44.610  26.040  26.767  1.00  0.00     0.031 C 
ATOM     42  C   UNL A   1      38.826  28.174  29.830  1.00  0.00     0.029 A 
ATOM     43  C   UNL A   1      39.921  29.143  29.774  1.00  0.00     0.049 A 
ATOM     44  H   UNL A   1      41.789  28.886  28.894  1.00  0.00     0.167 HD
ATOM     45  C   UNL A   1      45.666  28.265  27.028  1.00  0.00     0.037 A 
ATOM     46  C   UNL A   1      39.894  30.388  30.289  1.00  0.00     0.037 A 
ATOM     47  C   UNL A   1      45.686  29.641  27.446  1.00  0.00     0.049 A 
ATOM     48  C   UNL A   1      41.080  31.299  30.114  1.00  0.00     0.074 A 
ATOM     49  C   UNL A   1      46.683  30.585  27.263  1.00  0.00     0.029 A 
ATOM     50  N   UNL A   1      44.664  30.270  28.141  1.00  0.00    -0.354 N 
ATOM     51  N   UNL A   1      42.216  31.071  29.504  1.00  0.00    -0.248 NA
ATOM     52  C   UNL A   1      40.973  32.647  30.692  1.00  0.00     0.031 C 
ATOM     53  C   UNL A   1      46.285  31.771  27.891  1.00  0.00     0.029 A 
ATOM     54  C   UNL A   1      45.021  31.580  28.423  1.00  0.00     0.049 A 
ATOM     55  H   UNL A   1      43.813  29.848  28.397  1.00  0.00     0.167 HD
ATOM     56  C   UNL A   1      42.950  32.247  29.605  1.00  0.00     0.074 A 
ATOM     57  C   UNL A   1      42.123  33.194  30.322  1.00  0.00     0.031 C 
ATOM     58  C   UNL A   1      44.195  32.515  29.142  1.00  0.00     0.037 A 
BRANCH  45  59
ATOM     59  C   UNL A   1      46.893  27.715  26.361  1.00  0.00     0.064 A 
ATOM     60  C   UNL A   1      47.951  27.170  27.104  1.00  0.00     0.173 A 
ATOM     61  C   UNL A   1      46.996  27.701  24.963  1.00  0.00     0.173 A 
ATOM     62  F   UNL A   1      47.905  27.170  28.445  1.00  0.00    -0.203 F 
ATOM     63  C   UNL A   1      49.079  26.655  26.470  1.00  0.00     0.198 A 
ATOM     64  C   UNL A   1      48.113  27.163  24.332  1.00  0.00     0.198 A 
ATOM     65  F   UNL A   1      46.008  28.207  24.208  1.00  0.00    -0.203 F 
ATOM     66  F   UNL A   1      50.097  26.179  27.200  1.00  0.00    -0.200 F 
ATOM     67  C   UNL A   1      49.157  26.647  25.085  1.00  0.00     0.200 A 
ATOM     68  F   UNL A   1      48.182  27.146  22.994  1.00  0.00    -0.200 F 
ATOM     69  F   UNL A   1      50.241  26.147  24.477  1.00  0.00    -0.200 F 
ENDBRANCH  45  59
BRANCH  46  70
ATOM     70  C   UNL A   1      38.688  30.851  31.022  1.00  0.00     0.064 A 
ATOM     71  C   UNL A   1      37.583  31.384  30.343  1.00  0.00     0.173 A 
ATOM     72  C   UNL A   1      38.621  30.775  32.420  1.00  0.00     0.173 A 
ATOM     73  F   UNL A   1      37.613  31.502  29.007  1.00  0.00    -0.203 F 
ATOM     74  C   UNL A   1      36.461  31.833  31.036  1.00  0.00     0.198 A 
ATOM     75  C   UNL A   1      37.489  31.201  33.111  1.00  0.00     0.198 A 
ATOM     76  F   UNL A   1      39.653  30.274  33.115  1.00  0.00    -0.203 F 
ATOM     77  F   UNL A   1      35.436  32.373  30.367  1.00  0.00    -0.200 F 
ATOM     78  C   UNL A   1      36.412  31.735  32.419  1.00  0.00     0.200 A 
ATOM     79  F   UNL A   1      37.442  31.095  34.446  1.00  0.00    -0.200 F 
ATOM     80  F   UNL A   1      35.331  32.162  33.085  1.00  0.00    -0.200 F 
ENDBRANCH  46  70
BRANCH  58  81
ATOM     81  C   UNL A   1      44.741  33.894  29.381  1.00  0.00     0.064 A 
ATOM     82  C   UNL A   1      45.442  34.213  30.553  1.00  0.00     0.173 A 
ATOM     83  C   UNL A   1      44.597  34.896  28.408  1.00  0.00     0.173 A 
ATOM     84  F   UNL A   1      45.594  33.295  31.519  1.00  0.00    -0.203 F 
ATOM     85  C   UNL A   1      45.962  35.489  30.751  1.00  0.00     0.198 A 
ATOM     86  C   UNL A   1      45.141  36.163  28.599  1.00  0.00     0.198 A 
ATOM     87  F   UNL A   1      43.941  34.642  27.267  1.00  0.00    -0.203 F 
ATOM     88  F   UNL A   1      46.593  35.784  31.897  1.00  0.00    -0.200 F 
ATOM     89  C   UNL A   1      45.817  36.461  29.773  1.00  0.00     0.200 A 
ATOM     90  F   UNL A   1      45.009  37.097  27.647  1.00  0.00    -0.200 F 
ATOM     91  F   UNL A   1      46.323  37.688  29.964  1.00  0.00    -0.200 F 
ENDBRANCH  58  81
ENDBRANCH  32  33
ENDBRANCH  25  27
ENDBRANCH  24  25
ENDBRANCH  23  24
ENDBRANCH  22  23
ENDBRANCH  21  22
ENDBRANCH   1  21
TORSDOF 19
ENDMDL
