MODEL 1
REMARK VINA RESULT:     -11.2      0.000      0.000
REMARK SMILES COc1ccc(CC(=O)N[C@H](C)C(=O)OCCOCCOC(=O)c2ccc(-c3c4nc(c(-c5c(F)c(F)c(F)c(F)c5F)c5ccc([nH]5)c(-c5c(F)c(F)c(F)c(F)c5F)c5nc(c(-c6c(F)c(F)c(F)c(F)c6F)c6ccc3[nH]6)C=C5)C=C4)cc2)cc1F
REMARK SMILES IDX 17 1 16 2 15 3 13 4 14 5 11 6 12 7 10 8 8 9 9 10 7 12 6 13
REMARK SMILES IDX 3 14 4 15 88 16 5 17 87 18 89 19 2 20 1 21 18 22 19 23 20 24
REMARK SMILES IDX 21 25 22 26 23 27 24 28 25 29 86 30 26 31 85 32 27 33 28 34
REMARK SMILES IDX 29 35 79 36 30 37 84 38 78 39 80 40 31 41 83 42 77 43 76 44
REMARK SMILES IDX 32 46 64 47 44 48 63 49 45 50 48 51 62 52 81 53 46 54 47 55
REMARK SMILES IDX 61 57 82 58 49 59 33 60 34 61 42 62 35 63 36 64 40 65 43 66
REMARK SMILES IDX 37 67 38 68 41 69 39 70 65 71 66 72 74 73 67 74 68 75 72 76
REMARK SMILES IDX 75 77 69 78 70 79 73 80 71 81 50 82 51 83 59 84 52 85 53 86
REMARK SMILES IDX 57 87 60 88 54 89 55 90 58 91 56 92
REMARK H PARENT 10 11 80 45 48 56
REMARK Flexibility Score: inf
ROOT
ATOM      1  C   UNL A   1      35.221  22.891  25.980  1.00  0.00     0.202 C 
ENDROOT
BRANCH   1   2
ATOM      2  C   UNL A   1      33.918  23.333  26.685  1.00  0.00     0.261 C 
BRANCH   2   3
ATOM      3  O   UNL A   1      33.267  24.512  26.184  1.00  0.00    -0.462 OA
BRANCH   3   4
ATOM      4  C   UNL A   1      31.959  24.527  26.545  1.00  0.00     0.328 C 
ATOM      5  O   UNL A   1      31.476  25.470  27.149  1.00  0.00    -0.250 OA
BRANCH   4   6
ATOM      6  C   UNL A   1      31.137  23.285  26.211  1.00  0.00     0.189 C 
ATOM      7  C   UNL A   1      30.032  22.977  27.216  1.00  0.00     0.043 C 
BRANCH   6   8
ATOM      8  N   UNL A   1      30.612  23.447  24.851  1.00  0.00    -0.343 N 
ATOM      9  C   UNL A   1      31.183  23.143  23.646  1.00  0.00     0.225 C 
ATOM     10  O   UNL A   1      30.584  23.519  22.634  1.00  0.00    -0.275 OA
ATOM     11  H   UNL A   1      29.709  23.834  24.798  1.00  0.00     0.164 HD
BRANCH   9  12
ATOM     12  C   UNL A   1      32.490  22.355  23.533  1.00  0.00     0.135 C 
BRANCH  12  13
ATOM     13  C   UNL A   1      32.359  20.851  23.665  1.00  0.00    -0.036 A 
ATOM     14  C   UNL A   1      32.659  18.046  23.912  1.00  0.00     0.154 A 
ATOM     15  C   UNL A   1      32.375  18.627  22.671  1.00  0.00     0.050 A 
ATOM     16  C   UNL A   1      32.670  18.866  25.041  1.00  0.00     0.165 A 
ATOM     17  C   UNL A   1      32.212  20.016  22.546  1.00  0.00     0.008 A 
ATOM     18  C   UNL A   1      32.504  20.250  24.928  1.00  0.00     0.047 A 
ATOM     19  F   UNL A   1      32.887  18.366  26.267  1.00  0.00    -0.203 F 
BRANCH  14  20
ATOM     20  O   UNL A   1      32.917  16.700  23.868  1.00  0.00    -0.494 OA
ATOM     21  C   UNL A   1      34.237  16.299  24.229  1.00  0.00     0.278 C 
ENDBRANCH  14  20
ENDBRANCH  12  13
ENDBRANCH   9  12
ENDBRANCH   6   8
ENDBRANCH   4   6
ENDBRANCH   3   4
ENDBRANCH   2   3
ENDBRANCH   1   2
BRANCH   1  22
ATOM     22  O   UNL A   1      35.753  21.587  26.165  1.00  0.00    -0.374 OA
BRANCH  22  23
ATOM     23  C   UNL A   1      36.193  20.824  25.047  1.00  0.00     0.202 C 
BRANCH  23  24
ATOM     24  C   UNL A   1      37.620  20.280  25.054  1.00  0.00     0.261 C 
BRANCH  24  25
ATOM     25  O   UNL A   1      38.587  21.329  25.228  1.00  0.00    -0.460 OA
BRANCH  25  26
ATOM     26  C   UNL A   1      39.534  21.062  26.157  1.00  0.00     0.338 C 
ATOM     27  O   UNL A   1      40.153  20.021  26.310  1.00  0.00    -0.246 OA
BRANCH  26  28
ATOM     28  C   UNL A   1      39.894  22.295  26.875  1.00  0.00     0.060 A 
ATOM     29  C   UNL A   1      39.185  23.458  26.547  1.00  0.00     0.016 A 
ATOM     30  C   UNL A   1      40.957  22.333  27.778  1.00  0.00     0.016 A 
ATOM     31  C   UNL A   1      39.583  24.682  27.070  1.00  0.00     0.010 A 
ATOM     32  C   UNL A   1      41.368  23.567  28.289  1.00  0.00     0.010 A 
ATOM     33  C   UNL A   1      40.711  24.747  27.898  1.00  0.00    -0.014 A 
BRANCH  33  34
ATOM     34  C   UNL A   1      41.306  26.071  28.180  1.00  0.00     0.031 A 
ATOM     35  C   UNL A   1      42.687  26.361  27.664  1.00  0.00     0.074 A 
ATOM     36  C   UNL A   1      40.599  27.019  28.816  1.00  0.00     0.049 A 
ATOM     37  N   UNL A   1      43.395  27.457  27.759  1.00  0.00    -0.248 NA
ATOM     38  C   UNL A   1      43.359  25.270  26.938  1.00  0.00     0.031 C 
ATOM     39  C   UNL A   1      39.233  26.862  29.310  1.00  0.00     0.029 A 
ATOM     40  N   UNL A   1      40.934  28.308  29.145  1.00  0.00    -0.354 N 
ATOM     41  C   UNL A   1      44.588  27.189  27.102  1.00  0.00     0.074 A 
ATOM     42  C   UNL A   1      44.527  25.821  26.640  1.00  0.00     0.031 C 
ATOM     43  C   UNL A   1      38.843  28.015  29.879  1.00  0.00     0.029 A 
ATOM     44  C   UNL A   1      39.940  28.980  29.809  1.00  0.00     0.049 A 
ATOM     45  H   UNL A   1      41.805  28.711  28.925  1.00  0.00     0.167 HD
ATOM     46  C   UNL A   1      45.636  28.019  26.891  1.00  0.00     0.037 A 
ATOM     47  C   UNL A   1      39.926  30.231  30.308  1.00  0.00     0.037 A 
ATOM     48  C   UNL A   1      45.690  29.380  27.350  1.00  0.00     0.049 A 
ATOM     49  C   UNL A   1      41.133  31.110  30.127  1.00  0.00     0.074 A 
ATOM     50  C   UNL A   1      46.704  30.307  27.181  1.00  0.00     0.029 A 
ATOM     51  N   UNL A   1      44.689  30.007  28.075  1.00  0.00    -0.354 N 
ATOM     52  N   UNL A   1      42.255  30.855  29.497  1.00  0.00    -0.248 NA
ATOM     53  C   UNL A   1      41.075  32.452  30.726  1.00  0.00     0.031 C 
ATOM     54  C   UNL A   1      46.334  31.482  27.842  1.00  0.00     0.029 A 
ATOM     55  C   UNL A   1      45.069  31.303  28.383  1.00  0.00     0.049 A 
ATOM     56  H   UNL A   1      43.833  29.593  28.332  1.00  0.00     0.167 HD
ATOM     57  C   UNL A   1      43.026  32.005  29.606  1.00  0.00     0.074 A 
ATOM     58  C   UNL A   1      42.241  32.964  30.353  1.00  0.00     0.031 C 
ATOM     59  C   UNL A   1      44.272  32.242  29.128  1.00  0.00     0.037 A 
BRANCH  46  60
ATOM     60  C   UNL A   1      46.816  27.476  26.144  1.00  0.00     0.064 A 
ATOM     61  C   UNL A   1      47.855  26.833  26.830  1.00  0.00     0.173 A 
ATOM     62  C   UNL A   1      46.942  27.636  24.756  1.00  0.00     0.173 A 
ATOM     63  F   UNL A   1      47.782  26.655  28.158  1.00  0.00    -0.203 F 
ATOM     64  C   UNL A   1      48.986  26.381  26.155  1.00  0.00     0.198 A 
ATOM     65  C   UNL A   1      48.063  27.161  24.081  1.00  0.00     0.198 A 
ATOM     66  F   UNL A   1      45.966  28.229  24.053  1.00  0.00    -0.203 F 
ATOM     67  F   UNL A   1      49.979  25.791  26.835  1.00  0.00    -0.200 F 
ATOM     68  C   UNL A   1      49.088  26.542  24.782  1.00  0.00     0.200 A 
ATOM     69  F   UNL A   1      48.150  27.296  22.750  1.00  0.00    -0.200 F 
ATOM     70  F   UNL A   1      50.172  26.096  24.132  1.00  0.00    -0.200 F 
ENDBRANCH  46  60
BRANCH  47  71
ATOM     71  C   UNL A   1      38.717  30.720  31.018  1.00  0.00     0.064 A 
ATOM     72  C   UNL A   1      37.648  31.298  30.317  1.00  0.00     0.173 A 
ATOM     73  C   UNL A   1      38.618  30.643  32.414  1.00  0.00     0.173 A 
ATOM     74  F   UNL A   1      37.695  31.392  28.980  1.00  0.00    -0.203 F 
ATOM     75  C   UNL A   1      36.535  31.799  30.988  1.00  0.00     0.198 A 
ATOM     76  C   UNL A   1      37.495  31.126  33.081  1.00  0.00     0.198 A 
ATOM     77  F   UNL A   1      39.606  30.078  33.124  1.00  0.00    -0.203 F 
ATOM     78  F   UNL A   1      35.542  32.374  30.296  1.00  0.00    -0.200 F 
ATOM     79  C   UNL A   1      36.458  31.710  32.369  1.00  0.00     0.200 A 
ATOM     80  F   UNL A   1      37.413  31.018  34.414  1.00  0.00    -0.200 F 
ATOM     81  F   UNL A   1      35.383  32.185  33.014  1.00  0.00    -0.200 F 
ENDBRANCH  47  71
BRANCH  59  82
ATOM     82  C   UNL A   1      44.869  33.594  29.385  1.00  0.00     0.064 A 
ATOM     83  C   UNL A   1      44.618  34.661  28.508  1.00  0.00     0.173 A 
ATOM     84  C   UNL A   1      45.758  33.810  30.447  1.00  0.00     0.173 A 
ATOM     85  F   UNL A   1      43.781  34.500  27.472  1.00  0.00    -0.203 F 
ATOM     86  C   UNL A   1      45.248  35.889  28.676  1.00  0.00     0.198 A 
ATOM     87  C   UNL A   1      46.368  35.048  30.627  1.00  0.00     0.198 A 
ATOM     88  F   UNL A   1      46.022  32.824  31.317  1.00  0.00    -0.203 F 
ATOM     89  F   UNL A   1      45.020  36.883  27.806  1.00  0.00    -0.200 F 
ATOM     90  C   UNL A   1      46.121  36.083  29.737  1.00  0.00     0.200 A 
ATOM     91  F   UNL A   1      47.195  35.241  31.663  1.00  0.00    -0.200 F 
ATOM     92  F   UNL A   1      46.723  37.269  29.901  1.00  0.00    -0.200 F 
ENDBRANCH  59  82
ENDBRANCH  33  34
ENDBRANCH  26  28
ENDBRANCH  25  26
ENDBRANCH  24  25
ENDBRANCH  23  24
ENDBRANCH  22  23
ENDBRANCH   1  22
TORSDOF 18
ENDMDL
MODEL 2
REMARK VINA RESULT:     -11.1      4.357      9.662
REMARK SMILES COc1ccc(CC(=O)N[C@H](C)C(=O)OCCOCCOC(=O)c2ccc(-c3c4nc(c(-c5c(F)c(F)c(F)c(F)c5F)c5ccc([nH]5)c(-c5c(F)c(F)c(F)c(F)c5F)c5nc(c(-c6c(F)c(F)c(F)c(F)c6F)c6ccc3[nH]6)C=C5)C=C4)cc2)cc1F
REMARK SMILES IDX 17 1 16 2 15 3 13 4 14 5 11 6 12 7 10 8 8 9 9 10 7 12 6 13
REMARK SMILES IDX 3 14 4 15 88 16 5 17 87 18 89 19 2 20 1 21 18 22 19 23 20 24
REMARK SMILES IDX 21 25 22 26 23 27 24 28 25 29 86 30 26 31 85 32 27 33 28 34
REMARK SMILES IDX 29 35 79 36 30 37 84 38 78 39 80 40 31 41 83 42 77 43 76 44
REMARK SMILES IDX 32 46 64 47 44 48 63 49 45 50 48 51 62 52 81 53 46 54 47 55
REMARK SMILES IDX 61 57 82 58 49 59 33 60 34 61 42 62 35 63 36 64 40 65 43 66
REMARK SMILES IDX 37 67 38 68 41 69 39 70 65 71 66 72 74 73 67 74 68 75 72 76
REMARK SMILES IDX 75 77 69 78 70 79 73 80 71 81 50 82 51 83 59 84 52 85 53 86
REMARK SMILES IDX 57 87 60 88 54 89 55 90 58 91 56 92
REMARK H PARENT 10 11 80 45 48 56
REMARK Flexibility Score: inf
ROOT
ATOM      1  C   UNL A   1      32.026  28.966  23.757  1.00  0.00     0.202 C 
ENDROOT
BRANCH   1   2
ATOM      2  C   UNL A   1      30.853  29.170  22.772  1.00  0.00     0.261 C 
BRANCH   2   3
ATOM      3  O   UNL A   1      30.297  27.997  22.158  1.00  0.00    -0.462 OA
BRANCH   3   4
ATOM      4  C   UNL A   1      30.006  27.058  23.092  1.00  0.00     0.328 C 
ATOM      5  O   UNL A   1      29.073  27.198  23.866  1.00  0.00    -0.250 OA
BRANCH   4   6
ATOM      6  C   UNL A   1      30.933  25.848  23.168  1.00  0.00     0.189 C 
ATOM      7  C   UNL A   1      30.277  24.592  23.731  1.00  0.00     0.043 C 
BRANCH   6   8
ATOM      8  N   UNL A   1      31.490  25.625  21.831  1.00  0.00    -0.343 N 
ATOM      9  C   UNL A   1      32.789  25.649  21.403  1.00  0.00     0.225 C 
ATOM     10  O   UNL A   1      32.977  25.575  20.185  1.00  0.00    -0.275 OA
ATOM     11  H   UNL A   1      30.826  25.428  21.132  1.00  0.00     0.164 HD
BRANCH   9  12
ATOM     12  C   UNL A   1      33.970  25.740  22.372  1.00  0.00     0.135 C 
BRANCH  12  13
ATOM     13  C   UNL A   1      34.053  24.634  23.404  1.00  0.00    -0.036 A 
ATOM     14  C   UNL A   1      33.663  22.605  25.342  1.00  0.00     0.154 A 
ATOM     15  C   UNL A   1      34.046  23.895  25.725  1.00  0.00     0.050 A 
ATOM     16  C   UNL A   1      33.597  22.311  23.979  1.00  0.00     0.165 A 
ATOM     17  C   UNL A   1      34.253  24.901  24.768  1.00  0.00     0.008 A 
ATOM     18  C   UNL A   1      33.807  23.304  23.017  1.00  0.00     0.047 A 
ATOM     19  F   UNL A   1      33.285  21.081  23.543  1.00  0.00    -0.203 F 
BRANCH  14  20
ATOM     20  O   UNL A   1      33.373  21.761  26.382  1.00  0.00    -0.494 OA
ATOM     21  C   UNL A   1      33.032  22.380  27.621  1.00  0.00     0.278 C 
ENDBRANCH  14  20
ENDBRANCH  12  13
ENDBRANCH   9  12
ENDBRANCH   6   8
ENDBRANCH   4   6
ENDBRANCH   3   4
ENDBRANCH   2   3
ENDBRANCH   1   2
BRANCH   1  22
ATOM     22  O   UNL A   1      32.042  29.601  25.028  1.00  0.00    -0.374 OA
BRANCH  22  23
ATOM     23  C   UNL A   1      31.108  30.631  25.329  1.00  0.00     0.202 C 
BRANCH  23  24
ATOM     24  C   UNL A   1      31.407  31.564  26.501  1.00  0.00     0.261 C 
BRANCH  24  25
ATOM     25  O   UNL A   1      32.616  31.188  27.182  1.00  0.00    -0.460 OA
BRANCH  25  26
ATOM     26  C   UNL A   1      33.415  32.230  27.508  1.00  0.00     0.338 C 
ATOM     27  O   UNL A   1      33.086  33.391  27.695  1.00  0.00    -0.246 OA
BRANCH  26  28
ATOM     28  C   UNL A   1      34.768  31.745  27.822  1.00  0.00     0.060 A 
ATOM     29  C   UNL A   1      34.928  30.366  28.012  1.00  0.00     0.016 A 
ATOM     30  C   UNL A   1      35.836  32.624  28.016  1.00  0.00     0.016 A 
ATOM     31  C   UNL A   1      36.141  29.865  28.466  1.00  0.00     0.010 A 
ATOM     32  C   UNL A   1      37.050  32.121  28.490  1.00  0.00     0.010 A 
ATOM     33  C   UNL A   1      37.188  30.748  28.761  1.00  0.00    -0.014 A 
BRANCH  33  34
ATOM     34  C   UNL A   1      38.341  30.243  29.536  1.00  0.00     0.031 A 
ATOM     35  C   UNL A   1      38.505  30.701  30.958  1.00  0.00     0.074 A 
ATOM     36  C   UNL A   1      39.180  29.338  29.008  1.00  0.00     0.049 A 
ATOM     37  N   UNL A   1      39.414  30.370  31.837  1.00  0.00    -0.248 NA
ATOM     38  C   UNL A   1      37.504  31.659  31.458  1.00  0.00     0.031 C 
ATOM     39  C   UNL A   1      39.081  28.786  27.658  1.00  0.00     0.029 A 
ATOM     40  N   UNL A   1      40.276  28.717  29.551  1.00  0.00    -0.354 N 
ATOM     41  C   UNL A   1      39.092  31.071  32.991  1.00  0.00     0.074 A 
ATOM     42  C   UNL A   1      37.925  31.872  32.696  1.00  0.00     0.031 C 
ATOM     43  C   UNL A   1      40.078  27.902  27.478  1.00  0.00     0.029 A 
ATOM     44  C   UNL A   1      40.894  27.846  28.691  1.00  0.00     0.049 A 
ATOM     45  H   UNL A   1      40.588  28.881  30.470  1.00  0.00     0.167 HD
ATOM     46  C   UNL A   1      39.709  31.036  34.195  1.00  0.00     0.037 A 
ATOM     47  C   UNL A   1      42.000  27.097  28.865  1.00  0.00     0.037 A 
ATOM     48  C   UNL A   1      40.867  30.235  34.484  1.00  0.00     0.049 A 
ATOM     49  C   UNL A   1      42.713  27.133  30.190  1.00  0.00     0.074 A 
ATOM     50  C   UNL A   1      41.563  30.124  35.675  1.00  0.00     0.029 A 
ATOM     51  N   UNL A   1      41.504  29.413  33.568  1.00  0.00    -0.354 N 
ATOM     52  N   UNL A   1      42.399  27.791  31.280  1.00  0.00    -0.248 NA
ATOM     53  C   UNL A   1      43.935  26.324  30.310  1.00  0.00     0.031 C 
ATOM     54  C   UNL A   1      42.648  29.267  35.467  1.00  0.00     0.029 A 
ATOM     55  C   UNL A   1      42.601  28.807  34.159  1.00  0.00     0.049 A 
ATOM     56  H   UNL A   1      41.219  29.278  32.635  1.00  0.00     0.167 HD
ATOM     57  C   UNL A   1      43.368  27.463  32.218  1.00  0.00     0.074 A 
ATOM     58  C   UNL A   1      44.277  26.538  31.574  1.00  0.00     0.031 C 
ATOM     59  C   UNL A   1      43.492  27.889  33.499  1.00  0.00     0.037 A 
BRANCH  46  60
ATOM     60  C   UNL A   1      39.154  31.899  35.287  1.00  0.00     0.064 A 
ATOM     61  C   UNL A   1      39.483  33.260  35.353  1.00  0.00     0.173 A 
ATOM     62  C   UNL A   1      38.337  31.369  36.297  1.00  0.00     0.173 A 
ATOM     63  F   UNL A   1      40.262  33.814  34.411  1.00  0.00    -0.203 F 
ATOM     64  C   UNL A   1      39.027  34.057  36.399  1.00  0.00     0.198 A 
ATOM     65  C   UNL A   1      37.862  32.175  37.328  1.00  0.00     0.198 A 
ATOM     66  F   UNL A   1      37.980  30.077  36.269  1.00  0.00    -0.203 F 
ATOM     67  F   UNL A   1      39.374  35.351  36.455  1.00  0.00    -0.200 F 
ATOM     68  C   UNL A   1      38.214  33.516  37.383  1.00  0.00     0.200 A 
ATOM     69  F   UNL A   1      37.057  31.656  38.266  1.00  0.00    -0.200 F 
ATOM     70  F   UNL A   1      37.765  34.288  38.382  1.00  0.00    -0.200 F 
ENDBRANCH  46  60
BRANCH  47  71
ATOM     71  C   UNL A   1      42.487  26.243  27.752  1.00  0.00     0.064 A 
ATOM     72  C   UNL A   1      43.466  26.704  26.860  1.00  0.00     0.173 A 
ATOM     73  C   UNL A   1      41.963  24.961  27.544  1.00  0.00     0.173 A 
ATOM     74  F   UNL A   1      43.999  27.924  27.020  1.00  0.00    -0.203 F 
ATOM     75  C   UNL A   1      43.889  25.921  25.788  1.00  0.00     0.198 A 
ATOM     76  C   UNL A   1      42.402  24.170  26.483  1.00  0.00     0.198 A 
ATOM     77  F   UNL A   1      41.041  24.470  28.384  1.00  0.00    -0.203 F 
ATOM     78  F   UNL A   1      44.803  26.397  24.933  1.00  0.00    -0.200 F 
ATOM     79  C   UNL A   1      43.358  24.653  25.602  1.00  0.00     0.200 A 
ATOM     80  F   UNL A   1      41.904  22.937  26.319  1.00  0.00    -0.200 F 
ATOM     81  F   UNL A   1      43.770  23.897  24.575  1.00  0.00    -0.200 F 
ENDBRANCH  47  71
BRANCH  59  82
ATOM     82  C   UNL A   1      44.644  27.358  34.300  1.00  0.00     0.064 A 
ATOM     83  C   UNL A   1      44.501  26.184  35.057  1.00  0.00     0.173 A 
ATOM     84  C   UNL A   1      45.855  28.056  34.390  1.00  0.00     0.173 A 
ATOM     85  F   UNL A   1      43.356  25.486  35.011  1.00  0.00    -0.203 F 
ATOM     86  C   UNL A   1      45.525  25.739  35.886  1.00  0.00     0.198 A 
ATOM     87  C   UNL A   1      46.887  27.594  35.201  1.00  0.00     0.198 A 
ATOM     88  F   UNL A   1      46.042  29.178  33.679  1.00  0.00    -0.203 F 
ATOM     89  F   UNL A   1      45.355  24.634  36.626  1.00  0.00    -0.200 F 
ATOM     90  C   UNL A   1      46.719  26.442  35.955  1.00  0.00     0.200 A 
ATOM     91  F   UNL A   1      48.047  28.263  35.252  1.00  0.00    -0.200 F 
ATOM     92  F   UNL A   1      47.707  26.009  36.750  1.00  0.00    -0.200 F 
ENDBRANCH  59  82
ENDBRANCH  33  34
ENDBRANCH  26  28
ENDBRANCH  25  26
ENDBRANCH  24  25
ENDBRANCH  23  24
ENDBRANCH  22  23
ENDBRANCH   1  22
TORSDOF 18
ENDMDL
MODEL 3
REMARK VINA RESULT:     -11.0      4.592      7.347
REMARK SMILES COc1ccc(CC(=O)N[C@H](C)C(=O)OCCOCCOC(=O)c2ccc(-c3c4nc(c(-c5c(F)c(F)c(F)c(F)c5F)c5ccc([nH]5)c(-c5c(F)c(F)c(F)c(F)c5F)c5nc(c(-c6c(F)c(F)c(F)c(F)c6F)c6ccc3[nH]6)C=C5)C=C4)cc2)cc1F
REMARK SMILES IDX 17 1 16 2 15 3 13 4 14 5 11 6 12 7 10 8 8 9 9 10 7 12 6 13
REMARK SMILES IDX 3 14 4 15 88 16 5 17 87 18 89 19 2 20 1 21 18 22 19 23 20 24
REMARK SMILES IDX 21 25 22 26 23 27 24 28 25 29 86 30 26 31 85 32 27 33 28 34
REMARK SMILES IDX 29 35 79 36 30 37 84 38 78 39 80 40 31 41 83 42 77 43 76 44
REMARK SMILES IDX 32 46 64 47 44 48 63 49 45 50 48 51 62 52 81 53 46 54 47 55
REMARK SMILES IDX 61 57 82 58 49 59 33 60 34 61 42 62 35 63 36 64 40 65 43 66
REMARK SMILES IDX 37 67 38 68 41 69 39 70 65 71 66 72 74 73 67 74 68 75 72 76
REMARK SMILES IDX 75 77 69 78 70 79 73 80 71 81 50 82 51 83 59 84 52 85 53 86
REMARK SMILES IDX 57 87 60 88 54 89 55 90 58 91 56 92
REMARK H PARENT 10 11 80 45 48 56
REMARK Flexibility Score: inf
ROOT
ATOM      1  C   UNL A   1      41.046  21.601  26.206  1.00  0.00     0.202 C 
ENDROOT
BRANCH   1   2
ATOM      2  C   UNL A   1      39.644  20.998  25.965  1.00  0.00     0.261 C 
BRANCH   2   3
ATOM      3  O   UNL A   1      38.519  21.885  26.070  1.00  0.00    -0.462 OA
BRANCH   3   4
ATOM      4  C   UNL A   1      37.488  21.445  25.306  1.00  0.00     0.328 C 
ATOM      5  O   UNL A   1      37.411  20.281  24.950  1.00  0.00    -0.250 OA
BRANCH   4   6
ATOM      6  C   UNL A   1      36.463  22.486  24.865  1.00  0.00     0.189 C 
ATOM      7  C   UNL A   1      36.692  23.033  23.460  1.00  0.00     0.043 C 
BRANCH   6   8
ATOM      8  N   UNL A   1      35.130  21.893  25.012  1.00  0.00    -0.343 N 
ATOM      9  C   UNL A   1      34.048  22.329  25.726  1.00  0.00     0.225 C 
ATOM     10  O   UNL A   1      33.084  21.561  25.803  1.00  0.00    -0.275 OA
ATOM     11  H   UNL A   1      34.993  21.052  24.521  1.00  0.00     0.164 HD
BRANCH   9  12
ATOM     12  C   UNL A   1      34.002  23.708  26.387  1.00  0.00     0.135 C 
BRANCH  12  13
ATOM     13  C   UNL A   1      33.314  24.793  25.585  1.00  0.00    -0.036 A 
ATOM     14  C   UNL A   1      32.456  27.130  24.232  1.00  0.00     0.154 A 
ATOM     15  C   UNL A   1      31.913  26.783  25.475  1.00  0.00     0.050 A 
ATOM     16  C   UNL A   1      33.337  26.236  23.622  1.00  0.00     0.165 A 
ATOM     17  C   UNL A   1      32.326  25.620  26.143  1.00  0.00     0.008 A 
ATOM     18  C   UNL A   1      33.750  25.071  24.277  1.00  0.00     0.047 A 
ATOM     19  F   UNL A   1      33.855  26.482  22.409  1.00  0.00    -0.203 F 
BRANCH  14  20
ATOM     20  O   UNL A   1      32.058  28.351  23.754  1.00  0.00    -0.494 OA
ATOM     21  C   UNL A   1      31.672  29.315  24.730  1.00  0.00     0.278 C 
ENDBRANCH  14  20
ENDBRANCH  12  13
ENDBRANCH   9  12
ENDBRANCH   6   8
ENDBRANCH   4   6
ENDBRANCH   3   4
ENDBRANCH   2   3
ENDBRANCH   1   2
BRANCH   1  22
ATOM     22  O   UNL A   1      42.222  20.926  25.784  1.00  0.00    -0.374 OA
BRANCH  22  23
ATOM     23  C   UNL A   1      43.496  21.548  25.916  1.00  0.00     0.202 C 
BRANCH  23  24
ATOM     24  C   UNL A   1      44.041  22.347  24.734  1.00  0.00     0.261 C 
BRANCH  24  25
ATOM     25  O   UNL A   1      43.359  23.604  24.585  1.00  0.00    -0.460 OA
BRANCH  25  26
ATOM     26  C   UNL A   1      44.062  24.671  25.031  1.00  0.00     0.338 C 
ATOM     27  O   UNL A   1      45.177  25.026  24.683  1.00  0.00    -0.246 OA
BRANCH  26  28
ATOM     28  C   UNL A   1      43.208  25.512  25.884  1.00  0.00     0.060 A 
ATOM     29  C   UNL A   1      43.621  26.833  26.103  1.00  0.00     0.016 A 
ATOM     30  C   UNL A   1      42.081  24.997  26.528  1.00  0.00     0.016 A 
ATOM     31  C   UNL A   1      42.948  27.626  27.024  1.00  0.00     0.010 A 
ATOM     32  C   UNL A   1      41.415  25.790  27.466  1.00  0.00     0.010 A 
ATOM     33  C   UNL A   1      41.877  27.087  27.749  1.00  0.00    -0.014 A 
BRANCH  33  34
ATOM     34  C   UNL A   1      41.386  27.822  28.934  1.00  0.00     0.031 A 
ATOM     35  C   UNL A   1      42.159  27.710  30.218  1.00  0.00     0.074 A 
ATOM     36  C   UNL A   1      40.318  28.631  28.846  1.00  0.00     0.049 A 
ATOM     37  N   UNL A   1      41.940  28.286  31.372  1.00  0.00    -0.248 NA
ATOM     38  C   UNL A   1      43.343  26.834  30.198  1.00  0.00     0.031 C 
ATOM     39  C   UNL A   1      39.529  28.855  27.637  1.00  0.00     0.029 A 
ATOM     40  N   UNL A   1      39.721  29.422  29.794  1.00  0.00    -0.354 N 
ATOM     41  C   UNL A   1      42.957  27.848  32.208  1.00  0.00     0.074 A 
ATOM     42  C   UNL A   1      43.777  26.934  31.445  1.00  0.00     0.031 C 
ATOM     43  C   UNL A   1      38.549  29.731  27.915  1.00  0.00     0.029 A 
ATOM     44  C   UNL A   1      38.631  30.109  29.326  1.00  0.00     0.049 A 
ATOM     45  H   UNL A   1      40.045  29.491  30.721  1.00  0.00     0.167 HD
ATOM     46  C   UNL A   1      43.194  28.192  33.496  1.00  0.00     0.037 A 
ATOM     47  C   UNL A   1      37.791  30.943  29.971  1.00  0.00     0.037 A 
ATOM     48  C   UNL A   1      42.377  29.104  34.249  1.00  0.00     0.049 A 
ATOM     49  C   UNL A   1      38.031  31.250  31.424  1.00  0.00     0.074 A 
ATOM     50  C   UNL A   1      42.535  29.525  35.558  1.00  0.00     0.029 A 
ATOM     51  N   UNL A   1      41.242  29.733  33.759  1.00  0.00    -0.354 N 
ATOM     52  N   UNL A   1      38.999  30.841  32.207  1.00  0.00    -0.248 NA
ATOM     53  C   UNL A   1      37.061  32.136  32.085  1.00  0.00     0.031 C 
ATOM     54  C   UNL A   1      41.471  30.374  35.874  1.00  0.00     0.029 A 
ATOM     55  C   UNL A   1      40.675  30.520  34.748  1.00  0.00     0.049 A 
ATOM     56  H   UNL A   1      40.891  29.635  32.844  1.00  0.00     0.167 HD
ATOM     57  C   UNL A   1      38.769  31.431  33.443  1.00  0.00     0.074 A 
ATOM     58  C   UNL A   1      37.574  32.236  33.304  1.00  0.00     0.031 C 
ATOM     59  C   UNL A   1      39.484  31.315  34.588  1.00  0.00     0.037 A 
BRANCH  46  60
ATOM     60  C   UNL A   1      44.373  27.569  34.177  1.00  0.00     0.064 A 
ATOM     61  C   UNL A   1      45.623  28.205  34.157  1.00  0.00     0.173 A 
ATOM     62  C   UNL A   1      44.281  26.320  34.808  1.00  0.00     0.173 A 
ATOM     63  F   UNL A   1      45.763  29.402  33.566  1.00  0.00    -0.203 F 
ATOM     64  C   UNL A   1      46.741  27.606  34.730  1.00  0.00     0.198 A 
ATOM     65  C   UNL A   1      45.396  25.734  35.401  1.00  0.00     0.198 A 
ATOM     66  F   UNL A   1      43.104  25.679  34.868  1.00  0.00    -0.203 F 
ATOM     67  F   UNL A   1      47.930  28.222  34.678  1.00  0.00    -0.200 F 
ATOM     68  C   UNL A   1      46.626  26.374  35.355  1.00  0.00     0.200 A 
ATOM     69  F   UNL A   1      45.279  24.554  36.026  1.00  0.00    -0.200 F 
ATOM     70  F   UNL A   1      47.701  25.804  35.917  1.00  0.00    -0.200 F 
ENDBRANCH  46  60
BRANCH  47  71
ATOM     71  C   UNL A   1      36.653  31.547  29.233  1.00  0.00     0.064 A 
ATOM     72  C   UNL A   1      36.633  32.916  28.928  1.00  0.00     0.173 A 
ATOM     73  C   UNL A   1      35.553  30.773  28.842  1.00  0.00     0.173 A 
ATOM     74  F   UNL A   1      37.664  33.698  29.279  1.00  0.00    -0.203 F 
ATOM     75  C   UNL A   1      35.544  33.492  28.277  1.00  0.00     0.198 A 
ATOM     76  C   UNL A   1      34.473  31.347  28.173  1.00  0.00     0.198 A 
ATOM     77  F   UNL A   1      35.538  29.456  29.093  1.00  0.00    -0.203 F 
ATOM     78  F   UNL A   1      35.536  34.808  28.025  1.00  0.00    -0.200 F 
ATOM     79  C   UNL A   1      34.466  32.706  27.898  1.00  0.00     0.200 A 
ATOM     80  F   UNL A   1      33.444  30.581  27.788  1.00  0.00    -0.200 F 
ATOM     81  F   UNL A   1      33.422  33.259  27.265  1.00  0.00    -0.200 F 
ENDBRANCH  47  71
BRANCH  59  82
ATOM     82  C   UNL A   1      39.008  32.081  35.786  1.00  0.00     0.064 A 
ATOM     83  C   UNL A   1      39.406  33.413  35.982  1.00  0.00     0.173 A 
ATOM     84  C   UNL A   1      38.233  31.472  36.782  1.00  0.00     0.173 A 
ATOM     85  F   UNL A   1      40.156  34.036  35.061  1.00  0.00    -0.203 F 
ATOM     86  C   UNL A   1      39.058  34.101  37.140  1.00  0.00     0.198 A 
ATOM     87  C   UNL A   1      37.865  32.171  37.928  1.00  0.00     0.198 A 
ATOM     88  F   UNL A   1      37.821  30.204  36.635  1.00  0.00    -0.203 F 
ATOM     89  F   UNL A   1      39.478  35.360  37.322  1.00  0.00    -0.200 F 
ATOM     90  C   UNL A   1      38.285  33.480  38.111  1.00  0.00     0.200 A 
ATOM     91  F   UNL A   1      37.102  31.578  38.856  1.00  0.00    -0.200 F 
ATOM     92  F   UNL A   1      37.946  34.146  39.223  1.00  0.00    -0.200 F 
ENDBRANCH  59  82
ENDBRANCH  33  34
ENDBRANCH  26  28
ENDBRANCH  25  26
ENDBRANCH  24  25
ENDBRANCH  23  24
ENDBRANCH  22  23
ENDBRANCH   1  22
TORSDOF 18
ENDMDL
