MODEL 1
REMARK VINA RESULT:     -11.0      0.000      0.000
REMARK SMILES COc1cc([N+](=O)[O-])cc2c1=N[C@H](C(=O)OCCOCCOC(=O)c1ccc(-c3c4nc(c(-c5c(F)c(F)c(F)c(F)c5F)c5ccc([nH]5)c(-c5c(F)c(F)c(F)c(F)c5F)c5nc(c(-c6c(F)c(F)c(F)c(F)c6F)c6ccc3[nH]6)C=C5)C=C4)cc1)C=2CC[NH3+]
REMARK SMILES IDX 18 1 17 2 16 3 14 4 15 5 13 6 3 7 4 8 11 9 5 10 10 11 12 12
REMARK SMILES IDX 9 13 88 14 2 15 1 16 6 17 7 18 8 19 89 20 90 21 91 22 19 26
REMARK SMILES IDX 20 27 21 28 22 29 23 30 24 31 25 32 26 33 87 34 27 35 86 36
REMARK SMILES IDX 28 37 29 38 30 39 80 40 31 41 85 42 79 43 81 44 32 45 84 46
REMARK SMILES IDX 78 47 77 48 33 50 65 51 45 52 64 53 46 54 49 55 63 56 82 57
REMARK SMILES IDX 47 58 48 59 62 61 83 62 50 63 34 64 35 65 43 66 36 67 37 68
REMARK SMILES IDX 41 69 44 70 38 71 39 72 42 73 40 74 66 75 67 76 75 77 68 78
REMARK SMILES IDX 69 79 73 80 76 81 70 82 71 83 74 84 72 85 51 86 52 87 60 88
REMARK SMILES IDX 53 89 54 90 58 91 61 92 55 93 56 94 59 95 57 96
REMARK H PARENT 91 23 91 24 91 25 81 49 49 60
REMARK Flexibility Score: inf
ROOT
ATOM      1  C   UNL A   1      29.982  29.811  23.066  1.00  0.00     0.202 C 
ENDROOT
BRANCH   1   2
ATOM      2  C   UNL A   1      29.251  28.474  23.200  1.00  0.00     0.261 C 
BRANCH   2   3
ATOM      3  O   UNL A   1      30.163  27.358  23.117  1.00  0.00    -0.461 OA
BRANCH   3   4
ATOM      4  C   UNL A   1      30.193  26.569  24.229  1.00  0.00     0.335 C 
ATOM      5  O   UNL A   1      29.428  25.623  24.399  1.00  0.00    -0.249 OA
BRANCH   4   6
ATOM      6  C   UNL A   1      31.324  26.981  25.225  1.00  0.00     0.243 C 
ATOM      7  C   UNL A   1      32.371  23.872  26.859  1.00  0.00     0.151 A 
ATOM      8  C   UNL A   1      33.557  23.249  26.697  1.00  0.00     0.134 A 
ATOM      9  C   UNL A   1      32.162  25.168  26.148  1.00  0.00     0.109 A 
ATOM     10  C   UNL A   1      34.629  23.797  25.871  1.00  0.00     0.273 A 
ATOM     11  C   UNL A   1      33.211  25.594  25.202  1.00  0.00     0.012 A 
ATOM     12  N   UNL A   1      31.187  26.002  26.349  1.00  0.00    -0.261 NA
ATOM     13  C   UNL A   1      34.473  24.918  25.140  1.00  0.00     0.096 A 
ATOM     14  C   UNL A   1      32.747  26.766  24.749  1.00  0.00    -0.019 C 
BRANCH   7  15
ATOM     15  O   UNL A   1      31.297  23.416  27.584  1.00  0.00    -0.494 OA
ATOM     16  C   UNL A   1      30.230  22.817  26.866  1.00  0.00     0.278 C 
ENDBRANCH   7  15
BRANCH  10  17
ATOM     17  N   UNL A   1      35.937  23.126  25.811  1.00  0.00     0.062 N 
ATOM     18  O   UNL A   1      36.944  23.818  25.612  1.00  0.00    -0.258 OA
ATOM     19  O   UNL A   1      35.949  21.898  25.968  1.00  0.00    -0.258 OA
ENDBRANCH  10  17
BRANCH  14  20
ATOM     20  C   UNL A   1      33.603  27.874  24.189  1.00  0.00     0.096 C 
BRANCH  20  21
ATOM     21  C   UNL A   1      33.269  28.415  22.799  1.00  0.00     0.263 C 
BRANCH  21  22
ATOM     22  N   UNL A   1      33.117  27.347  21.822  1.00  0.00    -0.357 N 
ATOM     23  H   UNL A   1      33.269  27.720  20.884  1.00  0.00     0.344 HD
ATOM     24  H   UNL A   1      32.175  26.959  21.886  1.00  0.00     0.344 HD
ATOM     25  H   UNL A   1      33.800  26.613  22.010  1.00  0.00     0.344 HD
ENDBRANCH  21  22
ENDBRANCH  20  21
ENDBRANCH  14  20
ENDBRANCH   4   6
ENDBRANCH   3   4
ENDBRANCH   2   3
ENDBRANCH   1   2
BRANCH   1  26
ATOM     26  O   UNL A   1      30.061  30.575  24.268  1.00  0.00    -0.374 OA
BRANCH  26  27
ATOM     27  C   UNL A   1      31.183  30.311  25.111  1.00  0.00     0.202 C 
BRANCH  27  28
ATOM     28  C   UNL A   1      31.401  31.362  26.206  1.00  0.00     0.261 C 
BRANCH  28  29
ATOM     29  O   UNL A   1      32.667  31.143  26.858  1.00  0.00    -0.460 OA
BRANCH  29  30
ATOM     30  C   UNL A   1      33.269  32.242  27.373  1.00  0.00     0.338 C 
ATOM     31  O   UNL A   1      32.775  33.343  27.541  1.00  0.00    -0.246 OA
BRANCH  30  32
ATOM     32  C   UNL A   1      34.584  31.847  27.928  1.00  0.00     0.060 A 
ATOM     33  C   UNL A   1      35.642  32.750  28.064  1.00  0.00     0.016 A 
ATOM     34  C   UNL A   1      34.751  30.507  28.297  1.00  0.00     0.016 A 
ATOM     35  C   UNL A   1      36.865  32.310  28.591  1.00  0.00     0.010 A 
ATOM     36  C   UNL A   1      35.964  30.073  28.831  1.00  0.00     0.010 A 
ATOM     37  C   UNL A   1      37.024  30.975  29.005  1.00  0.00    -0.014 A 
BRANCH  37  38
ATOM     38  C   UNL A   1      38.212  30.544  29.786  1.00  0.00     0.031 A 
ATOM     39  C   UNL A   1      39.205  29.556  29.252  1.00  0.00     0.074 A 
ATOM     40  C   UNL A   1      38.329  30.991  31.051  1.00  0.00     0.049 A 
ATOM     41  N   UNL A   1      40.226  29.003  29.861  1.00  0.00    -0.248 NA
ATOM     42  C   UNL A   1      39.031  29.125  27.858  1.00  0.00     0.031 C 
ATOM     43  C   UNL A   1      37.413  31.933  31.694  1.00  0.00     0.029 A 
ATOM     44  N   UNL A   1      39.248  30.698  32.026  1.00  0.00    -0.354 N 
ATOM     45  C   UNL A   1      40.822  28.166  28.928  1.00  0.00     0.074 A 
ATOM     46  C   UNL A   1      40.028  28.259  27.719  1.00  0.00     0.031 C 
ATOM     47  C   UNL A   1      37.819  32.146  32.955  1.00  0.00     0.029 A 
ATOM     48  C   UNL A   1      38.995  31.324  33.221  1.00  0.00     0.049 A 
ATOM     49  H   UNL A   1      40.015  30.097  31.883  1.00  0.00     0.167 HD
ATOM     50  C   UNL A   1      41.933  27.402  29.069  1.00  0.00     0.037 A 
ATOM     51  C   UNL A   1      39.624  31.235  34.408  1.00  0.00     0.037 A 
ATOM     52  C   UNL A   1      42.715  27.300  30.278  1.00  0.00     0.049 A 
ATOM     53  C   UNL A   1      40.821  30.342  34.549  1.00  0.00     0.074 A 
ATOM     54  C   UNL A   1      43.867  26.563  30.500  1.00  0.00     0.029 A 
ATOM     55  N   UNL A   1      42.425  27.947  31.470  1.00  0.00    -0.354 N 
ATOM     56  N   UNL A   1      41.392  29.578  33.651  1.00  0.00    -0.248 NA
ATOM     57  C   UNL A   1      41.463  30.303  35.870  1.00  0.00     0.031 C 
ATOM     58  C   UNL A   1      44.251  26.731  31.835  1.00  0.00     0.029 A 
ATOM     59  C   UNL A   1      43.368  27.614  32.432  1.00  0.00     0.049 A 
ATOM     60  H   UNL A   1      41.663  28.554  31.612  1.00  0.00     0.167 HD
ATOM     61  C   UNL A   1      42.475  28.991  34.286  1.00  0.00     0.074 A 
ATOM     62  C   UNL A   1      42.488  29.492  35.646  1.00  0.00     0.031 C 
ATOM     63  C   UNL A   1      43.381  28.116  33.783  1.00  0.00     0.037 A 
BRANCH  50  64
ATOM     64  C   UNL A   1      42.391  26.605  27.882  1.00  0.00     0.064 A 
ATOM     65  C   UNL A   1      41.870  25.329  27.618  1.00  0.00     0.173 A 
ATOM     66  C   UNL A   1      43.280  27.157  26.947  1.00  0.00     0.173 A 
ATOM     67  F   UNL A   1      41.020  24.755  28.482  1.00  0.00    -0.203 F 
ATOM     68  C   UNL A   1      42.232  24.632  26.467  1.00  0.00     0.198 A 
ATOM     69  C   UNL A   1      43.619  26.468  25.786  1.00  0.00     0.198 A 
ATOM     70  F   UNL A   1      43.797  28.379  27.148  1.00  0.00    -0.203 F 
ATOM     71  F   UNL A   1      41.739  23.405  26.246  1.00  0.00    -0.200 F 
ATOM     72  C   UNL A   1      43.097  25.206  25.548  1.00  0.00     0.200 A 
ATOM     73  F   UNL A   1      44.444  27.031  24.891  1.00  0.00    -0.200 F 
ATOM     74  F   UNL A   1      43.428  24.543  24.431  1.00  0.00    -0.200 F 
ENDBRANCH  50  64
BRANCH  51  75
ATOM     75  C   UNL A   1      39.138  32.050  35.547  1.00  0.00     0.064 A 
ATOM     76  C   UNL A   1      38.313  31.483  36.527  1.00  0.00     0.173 A 
ATOM     77  C   UNL A   1      39.515  33.392  35.701  1.00  0.00     0.173 A 
ATOM     78  F   UNL A   1      37.912  30.208  36.408  1.00  0.00    -0.203 F 
ATOM     79  C   UNL A   1      37.878  32.230  37.619  1.00  0.00     0.198 A 
ATOM     80  C   UNL A   1      39.100  34.130  36.807  1.00  0.00     0.198 A 
ATOM     81  F   UNL A   1      40.310  33.974  34.792  1.00  0.00    -0.203 F 
ATOM     82  F   UNL A   1      37.067  31.672  38.528  1.00  0.00    -0.200 F 
ATOM     83  C   UNL A   1      38.279  33.550  37.762  1.00  0.00     0.200 A 
ATOM     84  F   UNL A   1      39.503  35.400  36.951  1.00  0.00    -0.200 F 
ATOM     85  F   UNL A   1      37.873  34.263  38.822  1.00  0.00    -0.200 F 
ENDBRANCH  51  75
BRANCH  63  86
ATOM     86  C   UNL A   1      44.491  27.673  34.691  1.00  0.00     0.064 A 
ATOM     87  C   UNL A   1      44.383  26.517  35.479  1.00  0.00     0.173 A 
ATOM     88  C   UNL A   1      45.689  28.400  34.753  1.00  0.00     0.173 A 
ATOM     89  F   UNL A   1      43.251  25.797  35.469  1.00  0.00    -0.203 F 
ATOM     90  C   UNL A   1      45.425  26.120  36.313  1.00  0.00     0.198 A 
ATOM     91  C   UNL A   1      46.740  27.985  35.567  1.00  0.00     0.198 A 
ATOM     92  F   UNL A   1      45.845  29.511  34.018  1.00  0.00    -0.203 F 
ATOM     93  F   UNL A   1      45.283  25.038  37.092  1.00  0.00    -0.200 F 
ATOM     94  C   UNL A   1      46.604  26.850  36.352  1.00  0.00     0.200 A 
ATOM     95  F   UNL A   1      47.882  28.686  35.595  1.00  0.00    -0.200 F 
ATOM     96  F   UNL A   1      47.608  26.463  37.152  1.00  0.00    -0.200 F 
ENDBRANCH  63  86
ENDBRANCH  37  38
ENDBRANCH  30  32
ENDBRANCH  29  30
ENDBRANCH  28  29
ENDBRANCH  27  28
ENDBRANCH  26  27
ENDBRANCH   1  26
TORSDOF 19
ENDMDL
MODEL 2
REMARK VINA RESULT:     -10.9      1.621      2.926
REMARK SMILES COc1cc([N+](=O)[O-])cc2c1=N[C@H](C(=O)OCCOCCOC(=O)c1ccc(-c3c4nc(c(-c5c(F)c(F)c(F)c(F)c5F)c5ccc([nH]5)c(-c5c(F)c(F)c(F)c(F)c5F)c5nc(c(-c6c(F)c(F)c(F)c(F)c6F)c6ccc3[nH]6)C=C5)C=C4)cc1)C=2CC[NH3+]
REMARK SMILES IDX 18 1 17 2 16 3 14 4 15 5 13 6 3 7 4 8 11 9 5 10 10 11 12 12
REMARK SMILES IDX 9 13 88 14 2 15 1 16 6 17 7 18 8 19 89 20 90 21 91 22 19 26
REMARK SMILES IDX 20 27 21 28 22 29 23 30 24 31 25 32 26 33 87 34 27 35 86 36
REMARK SMILES IDX 28 37 29 38 30 39 80 40 31 41 85 42 79 43 81 44 32 45 84 46
REMARK SMILES IDX 78 47 77 48 33 50 65 51 45 52 64 53 46 54 49 55 63 56 82 57
REMARK SMILES IDX 47 58 48 59 62 61 83 62 50 63 34 64 35 65 43 66 36 67 37 68
REMARK SMILES IDX 41 69 44 70 38 71 39 72 42 73 40 74 66 75 67 76 75 77 68 78
REMARK SMILES IDX 69 79 73 80 76 81 70 82 71 83 74 84 72 85 51 86 52 87 60 88
REMARK SMILES IDX 53 89 54 90 58 91 61 92 55 93 56 94 59 95 57 96
REMARK H PARENT 91 23 91 24 91 25 81 49 49 60
REMARK Flexibility Score: inf
ROOT
ATOM      1  C   UNL A   1      32.399  27.965  25.154  1.00  0.00     0.202 C 
ENDROOT
BRANCH   1   2
ATOM      2  C   UNL A   1      33.464  27.476  26.137  1.00  0.00     0.261 C 
BRANCH   2   3
ATOM      3  O   UNL A   1      34.225  26.375  25.595  1.00  0.00    -0.461 OA
BRANCH   3   4
ATOM      4  C   UNL A   1      33.556  25.187  25.566  1.00  0.00     0.335 C 
ATOM      5  O   UNL A   1      32.851  24.793  26.491  1.00  0.00    -0.249 OA
BRANCH   4   6
ATOM      6  C   UNL A   1      33.759  24.418  24.221  1.00  0.00     0.243 C 
ATOM      7  C   UNL A   1      35.586  21.366  25.101  1.00  0.00     0.151 A 
ATOM      8  C   UNL A   1      35.098  20.108  25.059  1.00  0.00     0.134 A 
ATOM      9  C   UNL A   1      34.696  22.474  24.640  1.00  0.00     0.109 A 
ATOM     10  C   UNL A   1      33.756  19.798  24.575  1.00  0.00     0.273 A 
ATOM     11  C   UNL A   1      33.300  22.124  24.316  1.00  0.00     0.012 A 
ATOM     12  N   UNL A   1      35.058  23.699  24.410  1.00  0.00    -0.261 NA
ATOM     13  C   UNL A   1      32.878  20.758  24.224  1.00  0.00     0.096 A 
ATOM     14  C   UNL A   1      32.779  23.298  23.934  1.00  0.00    -0.019 C 
BRANCH   7  15
ATOM     15  O   UNL A   1      36.817  21.754  25.571  1.00  0.00    -0.494 OA
ATOM     16  C   UNL A   1      37.948  21.031  25.115  1.00  0.00     0.278 C 
ENDBRANCH   7  15
BRANCH  10  17
ATOM     17  N   UNL A   1      33.315  18.400  24.457  1.00  0.00     0.062 N 
ATOM     18  O   UNL A   1      32.118  18.143  24.645  1.00  0.00    -0.258 OA
ATOM     19  O   UNL A   1      34.177  17.558  24.170  1.00  0.00    -0.258 OA
ENDBRANCH  10  17
BRANCH  14  20
ATOM     20  C   UNL A   1      31.592  23.458  23.019  1.00  0.00     0.096 C 
BRANCH  20  21
ATOM     21  C   UNL A   1      30.451  24.373  23.465  1.00  0.00     0.263 C 
BRANCH  21  22
ATOM     22  N   UNL A   1      30.255  24.335  24.906  1.00  0.00    -0.357 N 
ATOM     23  H   UNL A   1      29.383  23.851  25.119  1.00  0.00     0.344 HD
ATOM     24  H   UNL A   1      30.213  25.288  25.269  1.00  0.00     0.344 HD
ATOM     25  H   UNL A   1      31.033  23.840  25.343  1.00  0.00     0.344 HD
ENDBRANCH  21  22
ENDBRANCH  20  21
ENDBRANCH  14  20
ENDBRANCH   4   6
ENDBRANCH   3   4
ENDBRANCH   2   3
ENDBRANCH   1   2
BRANCH   1  26
ATOM     26  O   UNL A   1      32.476  29.351  24.826  1.00  0.00    -0.374 OA
BRANCH  26  27
ATOM     27  C   UNL A   1      31.286  30.114  25.028  1.00  0.00     0.202 C 
BRANCH  27  28
ATOM     28  C   UNL A   1      31.402  31.166  26.139  1.00  0.00     0.261 C 
BRANCH  28  29
ATOM     29  O   UNL A   1      32.619  30.966  26.885  1.00  0.00    -0.460 OA
BRANCH  29  30
ATOM     30  C   UNL A   1      33.233  32.087  27.332  1.00  0.00     0.338 C 
ATOM     31  O   UNL A   1      32.742  33.195  27.465  1.00  0.00    -0.246 OA
BRANCH  30  32
ATOM     32  C   UNL A   1      34.565  31.719  27.863  1.00  0.00     0.060 A 
ATOM     33  C   UNL A   1      35.596  32.651  28.016  1.00  0.00     0.016 A 
ATOM     34  C   UNL A   1      34.779  30.375  28.191  1.00  0.00     0.016 A 
ATOM     35  C   UNL A   1      36.837  32.236  28.519  1.00  0.00     0.010 A 
ATOM     36  C   UNL A   1      36.010  29.965  28.702  1.00  0.00     0.010 A 
ATOM     37  C   UNL A   1      37.043  30.895  28.892  1.00  0.00    -0.014 A 
BRANCH  37  38
ATOM     38  C   UNL A   1      38.251  30.480  29.650  1.00  0.00     0.031 A 
ATOM     39  C   UNL A   1      39.246  29.503  29.098  1.00  0.00     0.074 A 
ATOM     40  C   UNL A   1      38.389  30.932  30.911  1.00  0.00     0.049 A 
ATOM     41  N   UNL A   1      40.285  28.964  29.687  1.00  0.00    -0.248 NA
ATOM     42  C   UNL A   1      39.048  29.067  27.709  1.00  0.00     0.031 C 
ATOM     43  C   UNL A   1      37.475  31.864  31.572  1.00  0.00     0.029 A 
ATOM     44  N   UNL A   1      39.331  30.652  31.868  1.00  0.00    -0.354 N 
ATOM     45  C   UNL A   1      40.872  28.132  28.744  1.00  0.00     0.074 A 
ATOM     46  C   UNL A   1      40.053  28.213  27.551  1.00  0.00     0.031 C 
ATOM     47  C   UNL A   1      37.903  32.085  32.824  1.00  0.00     0.029 A 
ATOM     48  C   UNL A   1      39.094  31.278  33.067  1.00  0.00     0.049 A 
ATOM     49  H   UNL A   1      40.101  30.060  31.711  1.00  0.00     0.167 HD
ATOM     50  C   UNL A   1      41.995  27.382  28.864  1.00  0.00     0.037 A 
ATOM     51  C   UNL A   1      39.748  31.199  34.241  1.00  0.00     0.037 A 
ATOM     52  C   UNL A   1      42.802  27.292  30.056  1.00  0.00     0.049 A 
ATOM     53  C   UNL A   1      40.959  30.321  34.359  1.00  0.00     0.074 A 
ATOM     54  C   UNL A   1      43.968  26.569  30.257  1.00  0.00     0.029 A 
ATOM     55  N   UNL A   1      42.529  27.939  31.253  1.00  0.00    -0.354 N 
ATOM     56  N   UNL A   1      41.521  29.562  33.452  1.00  0.00    -0.248 NA
ATOM     57  C   UNL A   1      41.628  30.292  35.667  1.00  0.00     0.031 C 
ATOM     58  C   UNL A   1      44.377  26.745  31.583  1.00  0.00     0.029 A 
ATOM     59  C   UNL A   1      43.495  27.619  32.197  1.00  0.00     0.049 A 
ATOM     60  H   UNL A   1      41.763  28.537  31.409  1.00  0.00     0.167 HD
ATOM     61  C   UNL A   1      42.624  28.989  34.066  1.00  0.00     0.074 A 
ATOM     62  C   UNL A   1      42.658  29.493  35.424  1.00  0.00     0.031 C 
ATOM     63  C   UNL A   1      43.529  28.125  33.546  1.00  0.00     0.037 A 
BRANCH  50  64
ATOM     64  C   UNL A   1      42.438  26.588  27.669  1.00  0.00     0.064 A 
ATOM     65  C   UNL A   1      43.404  27.087  26.782  1.00  0.00     0.173 A 
ATOM     66  C   UNL A   1      41.971  25.281  27.463  1.00  0.00     0.173 A 
ATOM     67  F   UNL A   1      43.880  28.332  26.933  1.00  0.00    -0.203 F 
ATOM     68  C   UNL A   1      43.877  26.310  25.727  1.00  0.00     0.198 A 
ATOM     69  C   UNL A   1      42.464  24.499  26.423  1.00  0.00     0.198 A 
ATOM     70  F   UNL A   1      41.056  24.753  28.290  1.00  0.00    -0.203 F 
ATOM     71  F   UNL A   1      44.783  26.814  24.879  1.00  0.00    -0.200 F 
ATOM     72  C   UNL A   1      43.415  25.013  25.555  1.00  0.00     0.200 A 
ATOM     73  F   UNL A   1      42.027  23.241  26.267  1.00  0.00    -0.200 F 
ATOM     74  F   UNL A   1      43.886  24.260  24.552  1.00  0.00    -0.200 F 
ENDBRANCH  50  64
BRANCH  51  75
ATOM     75  C   UNL A   1      39.276  32.011  35.388  1.00  0.00     0.064 A 
ATOM     76  C   UNL A   1      38.452  31.444  36.369  1.00  0.00     0.173 A 
ATOM     77  C   UNL A   1      39.665  33.348  35.549  1.00  0.00     0.173 A 
ATOM     78  F   UNL A   1      38.040  30.173  36.245  1.00  0.00    -0.203 F 
ATOM     79  C   UNL A   1      38.030  32.187  37.468  1.00  0.00     0.198 A 
ATOM     80  C   UNL A   1      39.263  34.082  36.661  1.00  0.00     0.198 A 
ATOM     81  F   UNL A   1      40.459  33.930  34.638  1.00  0.00    -0.203 F 
ATOM     82  F   UNL A   1      37.219  31.630  38.379  1.00  0.00    -0.200 F 
ATOM     83  C   UNL A   1      38.442  33.503  37.618  1.00  0.00     0.200 A 
ATOM     84  F   UNL A   1      39.677  35.348  36.812  1.00  0.00    -0.200 F 
ATOM     85  F   UNL A   1      38.049  34.213  38.684  1.00  0.00    -0.200 F 
ENDBRANCH  51  75
BRANCH  63  86
ATOM     86  C   UNL A   1      44.663  27.697  34.432  1.00  0.00     0.064 A 
ATOM     87  C   UNL A   1      45.856  28.430  34.510  1.00  0.00     0.173 A 
ATOM     88  C   UNL A   1      44.542  26.553  35.235  1.00  0.00     0.173 A 
ATOM     89  F   UNL A   1      46.028  29.522  33.749  1.00  0.00    -0.203 F 
ATOM     90  C   UNL A   1      46.895  28.019  35.341  1.00  0.00     0.198 A 
ATOM     91  C   UNL A   1      45.572  26.160  36.086  1.00  0.00     0.198 A 
ATOM     92  F   UNL A   1      43.421  25.818  35.202  1.00  0.00    -0.203 F 
ATOM     93  F   UNL A   1      48.045  28.709  35.365  1.00  0.00    -0.200 F 
ATOM     94  C   UNL A   1      46.751  26.889  36.132  1.00  0.00     0.200 A 
ATOM     95  F   UNL A   1      45.426  25.074  36.857  1.00  0.00    -0.200 F 
ATOM     96  F   UNL A   1      47.751  26.498  36.935  1.00  0.00    -0.200 F 
ENDBRANCH  63  86
ENDBRANCH  37  38
ENDBRANCH  30  32
ENDBRANCH  29  30
ENDBRANCH  28  29
ENDBRANCH  27  28
ENDBRANCH  26  27
ENDBRANCH   1  26
TORSDOF 19
ENDMDL
MODEL 3
REMARK VINA RESULT:     -10.8      1.562      2.497
REMARK SMILES COc1cc([N+](=O)[O-])cc2c1=N[C@H](C(=O)OCCOCCOC(=O)c1ccc(-c3c4nc(c(-c5c(F)c(F)c(F)c(F)c5F)c5ccc([nH]5)c(-c5c(F)c(F)c(F)c(F)c5F)c5nc(c(-c6c(F)c(F)c(F)c(F)c6F)c6ccc3[nH]6)C=C5)C=C4)cc1)C=2CC[NH3+]
REMARK SMILES IDX 18 1 17 2 16 3 14 4 15 5 13 6 3 7 4 8 11 9 5 10 10 11 12 12
REMARK SMILES IDX 9 13 88 14 2 15 1 16 6 17 7 18 8 19 89 20 90 21 91 22 19 26
REMARK SMILES IDX 20 27 21 28 22 29 23 30 24 31 25 32 26 33 87 34 27 35 86 36
REMARK SMILES IDX 28 37 29 38 30 39 80 40 31 41 85 42 79 43 81 44 32 45 84 46
REMARK SMILES IDX 78 47 77 48 33 50 65 51 45 52 64 53 46 54 49 55 63 56 82 57
REMARK SMILES IDX 47 58 48 59 62 61 83 62 50 63 34 64 35 65 43 66 36 67 37 68
REMARK SMILES IDX 41 69 44 70 38 71 39 72 42 73 40 74 66 75 67 76 75 77 68 78
REMARK SMILES IDX 69 79 73 80 76 81 70 82 71 83 74 84 72 85 51 86 52 87 60 88
REMARK SMILES IDX 53 89 54 90 58 91 61 92 55 93 56 94 59 95 57 96
REMARK H PARENT 91 23 91 24 91 25 81 49 49 60
REMARK Flexibility Score: inf
ROOT
ATOM      1  C   UNL A   1      32.913  28.749  26.837  1.00  0.00     0.202 C 
ENDROOT
BRANCH   1   2
ATOM      2  C   UNL A   1      32.695  27.671  25.772  1.00  0.00     0.261 C 
BRANCH   2   3
ATOM      3  O   UNL A   1      33.942  27.259  25.170  1.00  0.00    -0.461 OA
BRANCH   3   4
ATOM      4  C   UNL A   1      33.869  26.095  24.462  1.00  0.00     0.335 C 
ATOM      5  O   UNL A   1      33.314  26.009  23.371  1.00  0.00    -0.249 OA
BRANCH   4   6
ATOM      6  C   UNL A   1      34.600  24.914  25.178  1.00  0.00     0.243 C 
ATOM      7  C   UNL A   1      31.949  22.604  26.212  1.00  0.00     0.151 A 
ATOM      8  C   UNL A   1      31.724  21.375  25.703  1.00  0.00     0.134 A 
ATOM      9  C   UNL A   1      33.125  23.367  25.695  1.00  0.00     0.109 A 
ATOM     10  C   UNL A   1      32.583  20.770  24.689  1.00  0.00     0.273 A 
ATOM     11  C   UNL A   1      33.862  22.779  24.560  1.00  0.00     0.012 A 
ATOM     12  N   UNL A   1      33.616  24.454  26.208  1.00  0.00    -0.261 NA
ATOM     13  C   UNL A   1      33.608  21.437  24.125  1.00  0.00     0.096 A 
ATOM     14  C   UNL A   1      34.838  23.671  24.345  1.00  0.00    -0.019 C 
BRANCH   7  15
ATOM     15  O   UNL A   1      31.178  23.264  27.138  1.00  0.00    -0.494 OA
ATOM     16  C   UNL A   1      29.792  22.961  27.169  1.00  0.00     0.278 C 
ENDBRANCH   7  15
BRANCH  10  17
ATOM     17  N   UNL A   1      32.348  19.388  24.246  1.00  0.00     0.062 N 
ATOM     18  O   UNL A   1      32.512  19.119  23.048  1.00  0.00    -0.258 OA
ATOM     19  O   UNL A   1      31.998  18.570  25.107  1.00  0.00    -0.258 OA
ENDBRANCH  10  17
BRANCH  14  20
ATOM     20  C   UNL A   1      36.161  23.359  23.692  1.00  0.00     0.096 C 
BRANCH  20  21
ATOM     21  C   UNL A   1      37.216  22.616  24.512  1.00  0.00     0.263 C 
BRANCH  21  22
ATOM     22  N   UNL A   1      37.943  23.510  25.400  1.00  0.00    -0.357 N 
ATOM     23  H   UNL A   1      37.804  23.216  26.367  1.00  0.00     0.344 HD
ATOM     24  H   UNL A   1      37.598  24.463  25.281  1.00  0.00     0.344 HD
ATOM     25  H   UNL A   1      38.938  23.479  25.175  1.00  0.00     0.344 HD
ENDBRANCH  21  22
ENDBRANCH  20  21
ENDBRANCH  14  20
ENDBRANCH   4   6
ENDBRANCH   3   4
ENDBRANCH   2   3
ENDBRANCH   1   2
BRANCH   1  26
ATOM     26  O   UNL A   1      31.793  29.601  27.065  1.00  0.00    -0.374 OA
BRANCH  26  27
ATOM     27  C   UNL A   1      31.629  30.685  26.151  1.00  0.00     0.202 C 
BRANCH  27  28
ATOM     28  C   UNL A   1      31.600  32.065  26.820  1.00  0.00     0.261 C 
BRANCH  28  29
ATOM     29  O   UNL A   1      32.886  32.704  26.693  1.00  0.00    -0.460 OA
BRANCH  29  30
ATOM     30  C   UNL A   1      33.297  33.430  27.760  1.00  0.00     0.338 C 
ATOM     31  O   UNL A   1      32.666  34.283  28.360  1.00  0.00    -0.246 OA
BRANCH  30  32
ATOM     32  C   UNL A   1      34.577  32.870  28.251  1.00  0.00     0.060 A 
ATOM     33  C   UNL A   1      35.769  33.599  28.237  1.00  0.00     0.016 A 
ATOM     34  C   UNL A   1      34.566  31.549  28.715  1.00  0.00     0.016 A 
ATOM     35  C   UNL A   1      36.949  33.007  28.711  1.00  0.00     0.010 A 
ATOM     36  C   UNL A   1      35.738  30.966  29.196  1.00  0.00     0.010 A 
ATOM     37  C   UNL A   1      36.935  31.696  29.220  1.00  0.00    -0.014 A 
BRANCH  37  38
ATOM     38  C   UNL A   1      38.103  31.136  29.948  1.00  0.00     0.031 A 
ATOM     39  C   UNL A   1      38.993  30.090  29.347  1.00  0.00     0.074 A 
ATOM     40  C   UNL A   1      38.292  31.522  31.224  1.00  0.00     0.049 A 
ATOM     41  N   UNL A   1      39.980  29.431  29.903  1.00  0.00    -0.248 NA
ATOM     42  C   UNL A   1      38.745  29.732  27.944  1.00  0.00     0.031 C 
ATOM     43  C   UNL A   1      37.477  32.511  31.930  1.00  0.00     0.029 A 
ATOM     44  N   UNL A   1      39.209  31.114  32.159  1.00  0.00    -0.354 N 
ATOM     45  C   UNL A   1      40.477  28.584  28.922  1.00  0.00     0.074 A 
ATOM     46  C   UNL A   1      39.661  28.791  27.742  1.00  0.00     0.031 C 
ATOM     47  C   UNL A   1      37.934  32.639  33.185  1.00  0.00     0.029 A 
ATOM     48  C   UNL A   1      39.042  31.711  33.384  1.00  0.00     0.049 A 
ATOM     49  H   UNL A   1      39.917  30.457  31.971  1.00  0.00     0.167 HD
ATOM     50  C   UNL A   1      41.522  27.725  29.000  1.00  0.00     0.037 A 
ATOM     51  C   UNL A   1      39.694  31.523  34.547  1.00  0.00     0.037 A 
ATOM     52  C   UNL A   1      42.326  27.510  30.180  1.00  0.00     0.049 A 
ATOM     53  C   UNL A   1      40.814  30.528  34.618  1.00  0.00     0.074 A 
ATOM     54  C   UNL A   1      43.417  26.670  30.339  1.00  0.00     0.029 A 
ATOM     55  N   UNL A   1      42.125  28.131  31.404  1.00  0.00    -0.354 N 
ATOM     56  N   UNL A   1      41.294  29.755  33.675  1.00  0.00    -0.248 NA
ATOM     57  C   UNL A   1      41.486  30.383  35.916  1.00  0.00     0.031 C 
ATOM     58  C   UNL A   1      43.850  26.752  31.667  1.00  0.00     0.029 A 
ATOM     59  C   UNL A   1      43.061  27.682  32.324  1.00  0.00     0.049 A 
ATOM     60  H   UNL A   1      41.421  28.794  31.592  1.00  0.00     0.167 HD
ATOM     61  C   UNL A   1      42.340  29.054  34.254  1.00  0.00     0.074 A 
ATOM     62  C   UNL A   1      42.433  29.498  35.630  1.00  0.00     0.031 C 
ATOM     63  C   UNL A   1      43.154  28.128  33.691  1.00  0.00     0.037 A 
BRANCH  50  64
ATOM     64  C   UNL A   1      41.878  26.940  27.771  1.00  0.00     0.064 A 
ATOM     65  C   UNL A   1      42.882  27.378  26.894  1.00  0.00     0.173 A 
ATOM     66  C   UNL A   1      41.284  25.694  27.519  1.00  0.00     0.173 A 
ATOM     67  F   UNL A   1      43.479  28.563  27.089  1.00  0.00    -0.203 F 
ATOM     68  C   UNL A   1      43.270  26.601  25.804  1.00  0.00     0.198 A 
ATOM     69  C   UNL A   1      41.692  24.910  26.443  1.00  0.00     0.198 A 
ATOM     70  F   UNL A   1      40.327  25.225  28.334  1.00  0.00    -0.203 F 
ATOM     71  F   UNL A   1      44.216  27.049  24.967  1.00  0.00    -0.200 F 
ATOM     72  C   UNL A   1      42.682  25.364  25.586  1.00  0.00     0.200 A 
ATOM     73  F   UNL A   1      41.133  23.708  26.242  1.00  0.00    -0.200 F 
ATOM     74  F   UNL A   1      43.071  24.610  24.549  1.00  0.00    -0.200 F 
ENDBRANCH  50  64
BRANCH  51  75
ATOM     75  C   UNL A   1      39.310  32.330  35.730  1.00  0.00     0.064 A 
ATOM     76  C   UNL A   1      38.412  31.822  36.677  1.00  0.00     0.173 A 
ATOM     77  C   UNL A   1      39.858  33.600  35.959  1.00  0.00     0.173 A 
ATOM     78  F   UNL A   1      37.850  30.618  36.487  1.00  0.00    -0.203 F 
ATOM     79  C   UNL A   1      38.071  32.557  37.809  1.00  0.00     0.198 A 
ATOM     80  C   UNL A   1      39.535  34.323  37.104  1.00  0.00     0.198 A 
ATOM     81  F   UNL A   1      40.728  34.124  35.083  1.00  0.00    -0.203 F 
ATOM     82  F   UNL A   1      37.188  32.060  38.686  1.00  0.00    -0.200 F 
ATOM     83  C   UNL A   1      38.639  33.803  38.026  1.00  0.00     0.200 A 
ATOM     84  F   UNL A   1      40.099  35.520  37.319  1.00  0.00    -0.200 F 
ATOM     85  F   UNL A   1      38.322  34.504  39.123  1.00  0.00    -0.200 F 
ENDBRANCH  51  75
BRANCH  63  86
ATOM     86  C   UNL A   1      44.247  27.557  34.548  1.00  0.00     0.064 A 
ATOM     87  C   UNL A   1      44.064  26.381  35.291  1.00  0.00     0.173 A 
ATOM     88  C   UNL A   1      45.502  28.181  34.604  1.00  0.00     0.173 A 
ATOM     89  F   UNL A   1      42.877  25.757  35.285  1.00  0.00    -0.203 F 
ATOM     90  C   UNL A   1      45.092  25.866  36.077  1.00  0.00     0.198 A 
ATOM     91  C   UNL A   1      46.536  27.648  35.369  1.00  0.00     0.198 A 
ATOM     92  F   UNL A   1      45.730  29.306  33.910  1.00  0.00    -0.203 F 
ATOM     93  F   UNL A   1      44.881  24.767  36.815  1.00  0.00    -0.200 F 
ATOM     94  C   UNL A   1      46.328  26.495  36.111  1.00  0.00     0.200 A 
ATOM     95  F   UNL A   1      47.732  28.251  35.392  1.00  0.00    -0.200 F 
ATOM     96  F   UNL A   1      47.316  25.994  36.865  1.00  0.00    -0.200 F 
ENDBRANCH  63  86
ENDBRANCH  37  38
ENDBRANCH  30  32
ENDBRANCH  29  30
ENDBRANCH  28  29
ENDBRANCH  27  28
ENDBRANCH  26  27
ENDBRANCH   1  26
TORSDOF 19
ENDMDL
