MODEL 1
REMARK VINA RESULT:     -10.3      0.000      0.000
REMARK SMILES C=CCN(CC(=O)OCCOCCOC(=O)c1ccc(-c2c3nc(c(-c4c(F)c(F)c(F)c(F)c4F)c4ccc([nH]4)c(-c4c(F)c(F)c(F)c(F)c4F)c4nc(c(-c5c(F)c(F)c(F)c(F)c5F)c5ccc2[nH]5)C=C4)C=C3)cc1)C(=O)[C@@H]1[C@H](C)[C@H](C)O[C@@H]1C
REMARK SMILES IDX 10 1 9 2 8 3 6 4 7 5 5 6 4 7 3 8 2 9 1 10 80 11 81 12 82 13
REMARK SMILES IDX 83 14 88 15 84 16 85 17 87 18 89 19 86 20 11 21 12 22 13 23
REMARK SMILES IDX 14 24 15 25 16 26 17 27 18 28 79 29 19 30 78 31 20 32 21 33
REMARK SMILES IDX 22 34 72 35 23 36 77 37 71 38 73 39 24 40 76 41 70 42 69 43
REMARK SMILES IDX 25 45 57 46 37 47 56 48 38 49 41 50 55 51 74 52 39 53 40 54
REMARK SMILES IDX 54 56 75 57 42 58 26 59 27 60 35 61 28 62 29 63 33 64 36 65
REMARK SMILES IDX 30 66 31 67 34 68 32 69 58 70 59 71 67 72 60 73 61 74 65 75
REMARK SMILES IDX 68 76 62 77 63 78 66 79 64 80 43 81 44 82 52 83 45 84 46 85
REMARK SMILES IDX 50 86 53 87 47 88 48 89 51 90 49 91
REMARK H PARENT 73 44 41 55
REMARK Flexibility Score: inf
ROOT
ATOM      1  C   UNL A   1      40.047  21.776  26.906  1.00  0.00     0.202 C 
ENDROOT
BRANCH   1   2
ATOM      2  C   UNL A   1      38.996  21.535  25.811  1.00  0.00     0.261 C 
BRANCH   2   3
ATOM      3  O   UNL A   1      37.696  22.100  26.100  1.00  0.00    -0.462 OA
BRANCH   3   4
ATOM      4  C   UNL A   1      37.098  22.730  25.048  1.00  0.00     0.325 C 
ATOM      5  O   UNL A   1      37.115  22.315  23.893  1.00  0.00    -0.250 OA
BRANCH   4   6
ATOM      6  C   UNL A   1      36.244  23.947  25.435  1.00  0.00     0.242 C 
BRANCH   6   7
ATOM      7  N   UNL A   1      34.781  23.822  25.483  1.00  0.00    -0.328 N 
BRANCH   7   8
ATOM      8  C   UNL A   1      34.251  22.484  25.235  1.00  0.00     0.147 C 
BRANCH   8   9
ATOM      9  C   UNL A   1      33.439  22.524  23.967  1.00  0.00    -0.014 C 
ATOM     10  C   UNL A   1      33.909  22.965  22.791  1.00  0.00     0.006 C 
ENDBRANCH   8   9
ENDBRANCH   7   8
BRANCH   7  11
ATOM     11  C   UNL A   1      33.859  24.834  25.735  1.00  0.00     0.229 C 
ATOM     12  O   UNL A   1      32.808  24.581  26.331  1.00  0.00    -0.274 OA
BRANCH  11  13
ATOM     13  C   UNL A   1      34.131  26.253  25.241  1.00  0.00     0.113 C 
ATOM     14  C   UNL A   1      33.646  27.468  26.044  1.00  0.00     0.030 C 
ATOM     15  C   UNL A   1      33.614  26.551  23.828  1.00  0.00     0.128 C 
ATOM     16  C   UNL A   1      32.364  27.285  26.847  1.00  0.00     0.011 C 
ATOM     17  C   UNL A   1      33.631  28.587  24.978  1.00  0.00     0.119 C 
ATOM     18  O   UNL A   1      33.790  27.970  23.690  1.00  0.00    -0.374 OA
ATOM     19  C   UNL A   1      32.172  26.209  23.465  1.00  0.00     0.039 C 
ATOM     20  C   UNL A   1      32.412  29.491  24.907  1.00  0.00     0.039 C 
ENDBRANCH  11  13
ENDBRANCH   7  11
ENDBRANCH   6   7
ENDBRANCH   4   6
ENDBRANCH   3   4
ENDBRANCH   2   3
ENDBRANCH   1   2
BRANCH   1  21
ATOM     21  O   UNL A   1      41.126  20.843  26.982  1.00  0.00    -0.374 OA
BRANCH  21  22
ATOM     22  C   UNL A   1      42.010  20.781  25.868  1.00  0.00     0.202 C 
BRANCH  22  23
ATOM     23  C   UNL A   1      43.077  21.874  25.786  1.00  0.00     0.261 C 
BRANCH  23  24
ATOM     24  O   UNL A   1      42.714  22.957  24.937  1.00  0.00    -0.460 OA
BRANCH  24  25
ATOM     25  C   UNL A   1      43.531  24.027  25.032  1.00  0.00     0.338 C 
ATOM     26  O   UNL A   1      44.572  24.242  24.422  1.00  0.00    -0.246 OA
BRANCH  25  27
ATOM     27  C   UNL A   1      42.911  25.004  25.924  1.00  0.00     0.060 A 
ATOM     28  C   UNL A   1      43.605  26.186  26.200  1.00  0.00     0.016 A 
ATOM     29  C   UNL A   1      41.696  24.710  26.540  1.00  0.00     0.016 A 
ATOM     30  C   UNL A   1      43.095  27.071  27.145  1.00  0.00     0.010 A 
ATOM     31  C   UNL A   1      41.182  25.600  27.483  1.00  0.00     0.010 A 
ATOM     32  C   UNL A   1      41.900  26.764  27.813  1.00  0.00    -0.014 A 
BRANCH  32  33
ATOM     33  C   UNL A   1      41.480  27.594  28.961  1.00  0.00     0.031 A 
ATOM     34  C   UNL A   1      42.284  27.532  30.228  1.00  0.00     0.074 A 
ATOM     35  C   UNL A   1      40.423  28.416  28.848  1.00  0.00     0.049 A 
ATOM     36  N   UNL A   1      42.115  28.181  31.351  1.00  0.00    -0.248 NA
ATOM     37  C   UNL A   1      43.435  26.613  30.231  1.00  0.00     0.031 C 
ATOM     38  C   UNL A   1      39.595  28.561  27.651  1.00  0.00     0.029 A 
ATOM     39  N   UNL A   1      39.867  29.283  29.751  1.00  0.00    -0.354 N 
ATOM     40  C   UNL A   1      43.144  27.764  32.184  1.00  0.00     0.074 A 
ATOM     41  C   UNL A   1      43.907  26.772  31.459  1.00  0.00     0.031 C 
ATOM     42  C   UNL A   1      38.630  29.463  27.896  1.00  0.00     0.029 A 
ATOM     43  C   UNL A   1      38.762  29.940  29.271  1.00  0.00     0.049 A 
ATOM     44  H   UNL A   1      40.225  29.421  30.658  1.00  0.00     0.167 HD
ATOM     45  C   UNL A   1      43.435  28.188  33.436  1.00  0.00     0.037 A 
ATOM     46  C   UNL A   1      37.946  30.818  29.884  1.00  0.00     0.037 A 
ATOM     47  C   UNL A   1      42.657  29.162  34.151  1.00  0.00     0.049 A 
ATOM     48  C   UNL A   1      38.253  31.222  31.303  1.00  0.00     0.074 A 
ATOM     49  C   UNL A   1      42.849  29.654  35.430  1.00  0.00     0.029 A 
ATOM     50  N   UNL A   1      41.528  29.789  33.643  1.00  0.00    -0.354 N 
ATOM     51  N   UNL A   1      39.244  30.842  32.075  1.00  0.00    -0.248 NA
ATOM     52  C   UNL A   1      37.334  32.177  31.934  1.00  0.00     0.031 C 
ATOM     53  C   UNL A   1      41.813  30.554  35.707  1.00  0.00     0.029 A 
ATOM     54  C   UNL A   1      41.003  30.654  34.588  1.00  0.00     0.049 A 
ATOM     55  H   UNL A   1      41.158  29.642  32.743  1.00  0.00     0.167 HD
ATOM     56  C   UNL A   1      39.081  31.526  33.270  1.00  0.00     0.074 A 
ATOM     57  C   UNL A   1      37.906  32.358  33.117  1.00  0.00     0.031 C 
ATOM     58  C   UNL A   1      39.834  31.473  34.398  1.00  0.00     0.037 A 
BRANCH  45  59
ATOM     59  C   UNL A   1      44.637  27.591  34.105  1.00  0.00     0.064 A 
ATOM     60  C   UNL A   1      44.545  26.407  34.853  1.00  0.00     0.173 A 
ATOM     61  C   UNL A   1      45.899  28.191  33.980  1.00  0.00     0.173 A 
ATOM     62  F   UNL A   1      43.358  25.803  35.016  1.00  0.00    -0.203 F 
ATOM     63  C   UNL A   1      45.667  25.859  35.469  1.00  0.00     0.198 A 
ATOM     64  C   UNL A   1      47.023  27.627  34.578  1.00  0.00     0.198 A 
ATOM     65  F   UNL A   1      46.041  29.323  33.275  1.00  0.00    -0.203 F 
ATOM     66  F   UNL A   1      45.547  24.750  36.213  1.00  0.00    -0.200 F 
ATOM     67  C   UNL A   1      46.905  26.465  35.326  1.00  0.00     0.200 A 
ATOM     68  F   UNL A   1      48.222  28.210  34.431  1.00  0.00    -0.200 F 
ATOM     69  F   UNL A   1      47.986  25.933  35.915  1.00  0.00    -0.200 F 
ENDBRANCH  45  59
BRANCH  46  70
ATOM     70  C   UNL A   1      36.767  31.368  29.166  1.00  0.00     0.064 A 
ATOM     71  C   UNL A   1      36.718  32.711  28.770  1.00  0.00     0.173 A 
ATOM     72  C   UNL A   1      35.657  30.562  28.872  1.00  0.00     0.173 A 
ATOM     73  F   UNL A   1      37.745  33.529  29.047  1.00  0.00    -0.203 F 
ATOM     74  C   UNL A   1      35.597  33.233  28.126  1.00  0.00     0.198 A 
ATOM     75  C   UNL A   1      34.549  31.076  28.203  1.00  0.00     0.198 A 
ATOM     76  F   UNL A   1      35.653  29.269  29.227  1.00  0.00    -0.203 F 
ATOM     77  F   UNL A   1      35.558  34.531  27.798  1.00  0.00    -0.200 F 
ATOM     78  C   UNL A   1      34.515  32.413  27.838  1.00  0.00     0.200 A 
ATOM     79  F   UNL A   1      33.512  30.278  27.916  1.00  0.00    -0.200 F 
ATOM     80  F   UNL A   1      33.440  32.914  27.217  1.00  0.00    -0.200 F 
ENDBRANCH  46  70
BRANCH  58  81
ATOM     81  C   UNL A   1      39.417  32.353  35.537  1.00  0.00     0.064 A 
ATOM     82  C   UNL A   1      38.541  31.896  36.532  1.00  0.00     0.173 A 
ATOM     83  C   UNL A   1      39.940  33.649  35.660  1.00  0.00     0.173 A 
ATOM     84  F   UNL A   1      38.006  30.669  36.447  1.00  0.00    -0.203 F 
ATOM     85  C   UNL A   1      38.187  32.714  37.600  1.00  0.00     0.198 A 
ATOM     86  C   UNL A   1      39.604  34.455  36.743  1.00  0.00     0.198 A 
ATOM     87  F   UNL A   1      40.787  34.127  34.736  1.00  0.00    -0.203 F 
ATOM     88  F   UNL A   1      37.317  32.273  38.519  1.00  0.00    -0.200 F 
ATOM     89  C   UNL A   1      38.724  33.989  37.709  1.00  0.00     0.200 A 
ATOM     90  F   UNL A   1      40.131  35.681  36.854  1.00  0.00    -0.200 F 
ATOM     91  F   UNL A   1      38.387  34.771  38.742  1.00  0.00    -0.200 F 
ENDBRANCH  58  81
ENDBRANCH  32  33
ENDBRANCH  25  27
ENDBRANCH  24  25
ENDBRANCH  23  24
ENDBRANCH  22  23
ENDBRANCH  21  22
ENDBRANCH   1  21
TORSDOF 19
ENDMDL
MODEL 2
REMARK VINA RESULT:     -10.3      4.684      9.180
REMARK SMILES C=CCN(CC(=O)OCCOCCOC(=O)c1ccc(-c2c3nc(c(-c4c(F)c(F)c(F)c(F)c4F)c4ccc([nH]4)c(-c4c(F)c(F)c(F)c(F)c4F)c4nc(c(-c5c(F)c(F)c(F)c(F)c5F)c5ccc2[nH]5)C=C4)C=C3)cc1)C(=O)[C@@H]1[C@H](C)[C@H](C)O[C@@H]1C
REMARK SMILES IDX 10 1 9 2 8 3 6 4 7 5 5 6 4 7 3 8 2 9 1 10 80 11 81 12 82 13
REMARK SMILES IDX 83 14 88 15 84 16 85 17 87 18 89 19 86 20 11 21 12 22 13 23
REMARK SMILES IDX 14 24 15 25 16 26 17 27 18 28 79 29 19 30 78 31 20 32 21 33
REMARK SMILES IDX 22 34 72 35 23 36 77 37 71 38 73 39 24 40 76 41 70 42 69 43
REMARK SMILES IDX 25 45 57 46 37 47 56 48 38 49 41 50 55 51 74 52 39 53 40 54
REMARK SMILES IDX 54 56 75 57 42 58 26 59 27 60 35 61 28 62 29 63 33 64 36 65
REMARK SMILES IDX 30 66 31 67 34 68 32 69 58 70 59 71 67 72 60 73 61 74 65 75
REMARK SMILES IDX 68 76 62 77 63 78 66 79 64 80 43 81 44 82 52 83 45 84 46 85
REMARK SMILES IDX 50 86 53 87 47 88 48 89 51 90 49 91
REMARK H PARENT 73 44 41 55
REMARK Flexibility Score: inf
ROOT
ATOM      1  C   UNL A   1      38.281  23.400  26.140  1.00  0.00     0.202 C 
ENDROOT
BRANCH   1   2
ATOM      2  C   UNL A   1      36.766  23.237  25.941  1.00  0.00     0.261 C 
BRANCH   2   3
ATOM      3  O   UNL A   1      36.249  23.884  24.755  1.00  0.00    -0.462 OA
BRANCH   3   4
ATOM      4  C   UNL A   1      35.931  23.039  23.733  1.00  0.00     0.325 C 
ATOM      5  O   UNL A   1      36.567  22.950  22.685  1.00  0.00    -0.250 OA
BRANCH   4   6
ATOM      6  C   UNL A   1      34.785  22.064  24.043  1.00  0.00     0.242 C 
BRANCH   6   7
ATOM      7  N   UNL A   1      33.462  22.284  23.443  1.00  0.00    -0.328 N 
BRANCH   7   8
ATOM      8  C   UNL A   1      32.544  21.149  23.499  1.00  0.00     0.147 C 
BRANCH   8   9
ATOM      9  C   UNL A   1      32.428  20.706  24.933  1.00  0.00    -0.014 C 
ATOM     10  C   UNL A   1      32.823  19.504  25.379  1.00  0.00     0.006 C 
ENDBRANCH   8   9
ENDBRANCH   7   8
BRANCH   7  11
ATOM     11  C   UNL A   1      32.999  23.446  22.832  1.00  0.00     0.229 C 
ATOM     12  O   UNL A   1      33.589  23.911  21.854  1.00  0.00    -0.274 OA
BRANCH  11  13
ATOM     13  C   UNL A   1      31.778  24.169  23.398  1.00  0.00     0.113 C 
ATOM     14  C   UNL A   1      31.252  25.451  22.740  1.00  0.00     0.030 C 
ATOM     15  C   UNL A   1      31.896  24.569  24.875  1.00  0.00     0.128 C 
ATOM     16  C   UNL A   1      32.286  26.341  22.059  1.00  0.00     0.011 C 
ATOM     17  C   UNL A   1      30.436  26.101  23.880  1.00  0.00     0.119 C 
ATOM     18  O   UNL A   1      30.748  25.404  25.097  1.00  0.00    -0.374 OA
ATOM     19  C   UNL A   1      33.135  25.318  25.356  1.00  0.00     0.039 C 
ATOM     20  C   UNL A   1      30.627  27.586  24.140  1.00  0.00     0.039 C 
ENDBRANCH  11  13
ENDBRANCH   7  11
ENDBRANCH   6   7
ENDBRANCH   4   6
ENDBRANCH   3   4
ENDBRANCH   2   3
ENDBRANCH   1   2
BRANCH   1  21
ATOM     21  O   UNL A   1      39.078  22.221  26.021  1.00  0.00    -0.374 OA
BRANCH  21  22
ATOM     22  C   UNL A   1      38.484  21.098  25.378  1.00  0.00     0.202 C 
BRANCH  22  23
ATOM     23  C   UNL A   1      39.241  19.774  25.489  1.00  0.00     0.261 C 
BRANCH  23  24
ATOM     24  O   UNL A   1      40.138  19.724  26.594  1.00  0.00    -0.460 OA
BRANCH  24  25
ATOM     25  C   UNL A   1      41.423  19.502  26.248  1.00  0.00     0.338 C 
ATOM     26  O   UNL A   1      41.910  18.492  25.751  1.00  0.00    -0.246 OA
BRANCH  25  27
ATOM     27  C   UNL A   1      42.177  20.736  26.449  1.00  0.00     0.060 A 
ATOM     28  C   UNL A   1      42.332  21.217  27.753  1.00  0.00     0.016 A 
ATOM     29  C   UNL A   1      42.651  21.448  25.349  1.00  0.00     0.016 A 
ATOM     30  C   UNL A   1      42.932  22.455  27.957  1.00  0.00     0.010 A 
ATOM     31  C   UNL A   1      43.259  22.687  25.553  1.00  0.00     0.010 A 
ATOM     32  C   UNL A   1      43.367  23.207  26.855  1.00  0.00    -0.014 A 
BRANCH  32  33
ATOM     33  C   UNL A   1      43.803  24.604  27.061  1.00  0.00     0.031 A 
ATOM     34  C   UNL A   1      42.811  25.598  27.594  1.00  0.00     0.074 A 
ATOM     35  C   UNL A   1      45.076  24.957  26.813  1.00  0.00     0.049 A 
ATOM     36  N   UNL A   1      42.974  26.866  27.870  1.00  0.00    -0.248 NA
ATOM     37  C   UNL A   1      41.451  25.095  27.852  1.00  0.00     0.031 C 
ATOM     38  C   UNL A   1      46.115  24.057  26.315  1.00  0.00     0.029 A 
ATOM     39  N   UNL A   1      45.709  26.164  26.947  1.00  0.00    -0.354 N 
ATOM     40  C   UNL A   1      41.746  27.306  28.348  1.00  0.00     0.074 A 
ATOM     41  C   UNL A   1      40.835  26.186  28.283  1.00  0.00     0.031 C 
ATOM     42  C   UNL A   1      47.260  24.747  26.182  1.00  0.00     0.029 A 
ATOM     43  C   UNL A   1      47.026  26.138  26.563  1.00  0.00     0.049 A 
ATOM     44  H   UNL A   1      45.262  26.973  27.286  1.00  0.00     0.167 HD
ATOM     45  C   UNL A   1      41.419  28.533  28.817  1.00  0.00     0.037 A 
ATOM     46  C   UNL A   1      47.931  27.133  26.517  1.00  0.00     0.037 A 
ATOM     47  C   UNL A   1      42.332  29.643  28.860  1.00  0.00     0.049 A 
ATOM     48  C   UNL A   1      47.521  28.506  26.980  1.00  0.00     0.074 A 
ATOM     49  C   UNL A   1      42.105  30.935  29.299  1.00  0.00     0.029 A 
ATOM     50  N   UNL A   1      43.653  29.587  28.438  1.00  0.00    -0.354 N 
ATOM     51  N   UNL A   1      46.366  28.908  27.455  1.00  0.00    -0.248 NA
ATOM     52  C   UNL A   1      48.538  29.563  26.906  1.00  0.00     0.031 C 
ATOM     53  C   UNL A   1      43.280  31.670  29.109  1.00  0.00     0.029 A 
ATOM     54  C   UNL A   1      44.250  30.826  28.592  1.00  0.00     0.049 A 
ATOM     55  H   UNL A   1      44.099  28.784  28.084  1.00  0.00     0.167 HD
ATOM     56  C   UNL A   1      46.523  30.253  27.757  1.00  0.00     0.074 A 
ATOM     57  C   UNL A   1      47.891  30.597  27.428  1.00  0.00     0.031 C 
ATOM     58  C   UNL A   1      45.618  31.130  28.260  1.00  0.00     0.037 A 
BRANCH  45  59
ATOM     59  C   UNL A   1      40.016  28.732  29.310  1.00  0.00     0.064 A 
ATOM     60  C   UNL A   1      39.679  28.525  30.656  1.00  0.00     0.173 A 
ATOM     61  C   UNL A   1      39.003  29.155  28.437  1.00  0.00     0.173 A 
ATOM     62  F   UNL A   1      40.609  28.105  31.528  1.00  0.00    -0.203 F 
ATOM     63  C   UNL A   1      38.375  28.715  31.106  1.00  0.00     0.198 A 
ATOM     64  C   UNL A   1      37.705  29.367  28.895  1.00  0.00     0.198 A 
ATOM     65  F   UNL A   1      39.274  29.367  27.140  1.00  0.00    -0.203 F 
ATOM     66  F   UNL A   1      38.067  28.473  32.388  1.00  0.00    -0.200 F 
ATOM     67  C   UNL A   1      37.391  29.141  30.227  1.00  0.00     0.200 A 
ATOM     68  F   UNL A   1      36.757  29.787  28.046  1.00  0.00    -0.200 F 
ATOM     69  F   UNL A   1      36.137  29.328  30.662  1.00  0.00    -0.200 F 
ENDBRANCH  45  59
BRANCH  46  70
ATOM     70  C   UNL A   1      49.304  26.871  26.011  1.00  0.00     0.064 A 
ATOM     71  C   UNL A   1      49.628  27.052  24.660  1.00  0.00     0.173 A 
ATOM     72  C   UNL A   1      50.318  26.421  26.869  1.00  0.00     0.173 A 
ATOM     73  F   UNL A   1      48.687  27.460  23.794  1.00  0.00    -0.203 F 
ATOM     74  C   UNL A   1      50.908  26.775  24.181  1.00  0.00     0.198 A 
ATOM     75  C   UNL A   1      51.605  26.171  26.396  1.00  0.00     0.198 A 
ATOM     76  F   UNL A   1      50.063  26.233  28.172  1.00  0.00    -0.203 F 
ATOM     77  F   UNL A   1      51.178  26.914  22.876  1.00  0.00    -0.200 F 
ATOM     78  C   UNL A   1      51.897  26.339  25.051  1.00  0.00     0.200 A 
ATOM     79  F   UNL A   1      52.560  25.763  27.242  1.00  0.00    -0.200 F 
ATOM     80  F   UNL A   1      53.127  26.075  24.591  1.00  0.00    -0.200 F 
ENDBRANCH  46  70
BRANCH  58  81
ATOM     81  C   UNL A   1      46.091  32.531  28.503  1.00  0.00     0.064 A 
ATOM     82  C   UNL A   1      46.686  32.902  29.717  1.00  0.00     0.173 A 
ATOM     83  C   UNL A   1      45.992  33.498  27.492  1.00  0.00     0.173 A 
ATOM     84  F   UNL A   1      46.788  32.015  30.717  1.00  0.00    -0.203 F 
ATOM     85  C   UNL A   1      47.147  34.200  29.917  1.00  0.00     0.198 A 
ATOM     86  C   UNL A   1      46.478  34.787  27.686  1.00  0.00     0.198 A 
ATOM     87  F   UNL A   1      45.436  33.187  26.311  1.00  0.00    -0.203 F 
ATOM     88  F   UNL A   1      47.676  34.545  31.099  1.00  0.00    -0.200 F 
ATOM     89  C   UNL A   1      47.050  35.138  28.900  1.00  0.00     0.200 A 
ATOM     90  F   UNL A   1      46.395  35.690  26.700  1.00  0.00    -0.200 F 
ATOM     91  F   UNL A   1      47.502  36.384  29.093  1.00  0.00    -0.200 F 
ENDBRANCH  58  81
ENDBRANCH  32  33
ENDBRANCH  25  27
ENDBRANCH  24  25
ENDBRANCH  23  24
ENDBRANCH  22  23
ENDBRANCH  21  22
ENDBRANCH   1  21
TORSDOF 19
ENDMDL
MODEL 3
REMARK VINA RESULT:     -10.1      0.829      2.049
REMARK SMILES C=CCN(CC(=O)OCCOCCOC(=O)c1ccc(-c2c3nc(c(-c4c(F)c(F)c(F)c(F)c4F)c4ccc([nH]4)c(-c4c(F)c(F)c(F)c(F)c4F)c4nc(c(-c5c(F)c(F)c(F)c(F)c5F)c5ccc2[nH]5)C=C4)C=C3)cc1)C(=O)[C@@H]1[C@H](C)[C@H](C)O[C@@H]1C
REMARK SMILES IDX 10 1 9 2 8 3 6 4 7 5 5 6 4 7 3 8 2 9 1 10 80 11 81 12 82 13
REMARK SMILES IDX 83 14 88 15 84 16 85 17 87 18 89 19 86 20 11 21 12 22 13 23
REMARK SMILES IDX 14 24 15 25 16 26 17 27 18 28 79 29 19 30 78 31 20 32 21 33
REMARK SMILES IDX 22 34 72 35 23 36 77 37 71 38 73 39 24 40 76 41 70 42 69 43
REMARK SMILES IDX 25 45 57 46 37 47 56 48 38 49 41 50 55 51 74 52 39 53 40 54
REMARK SMILES IDX 54 56 75 57 42 58 26 59 27 60 35 61 28 62 29 63 33 64 36 65
REMARK SMILES IDX 30 66 31 67 34 68 32 69 58 70 59 71 67 72 60 73 61 74 65 75
REMARK SMILES IDX 68 76 62 77 63 78 66 79 64 80 43 81 44 82 52 83 45 84 46 85
REMARK SMILES IDX 50 86 53 87 47 88 48 89 51 90 49 91
REMARK H PARENT 73 44 41 55
REMARK Flexibility Score: inf
ROOT
ATOM      1  C   UNL A   1      40.158  21.949  27.127  1.00  0.00     0.202 C 
ENDROOT
BRANCH   1   2
ATOM      2  C   UNL A   1      39.297  21.488  25.941  1.00  0.00     0.261 C 
BRANCH   2   3
ATOM      3  O   UNL A   1      37.883  21.757  26.094  1.00  0.00    -0.462 OA
BRANCH   3   4
ATOM      4  C   UNL A   1      37.317  22.448  25.063  1.00  0.00     0.325 C 
ATOM      5  O   UNL A   1      37.381  22.108  23.884  1.00  0.00    -0.250 OA
BRANCH   4   6
ATOM      6  C   UNL A   1      36.436  23.630  25.494  1.00  0.00     0.242 C 
BRANCH   6   7
ATOM      7  N   UNL A   1      34.974  23.510  25.422  1.00  0.00    -0.328 N 
BRANCH   7   8
ATOM      8  C   UNL A   1      34.418  22.238  25.879  1.00  0.00     0.147 C 
BRANCH   8   9
ATOM      9  C   UNL A   1      34.090  21.405  24.669  1.00  0.00    -0.014 C 
ATOM     10  C   UNL A   1      32.863  20.942  24.389  1.00  0.00     0.006 C 
ENDBRANCH   8   9
ENDBRANCH   7   8
BRANCH   7  11
ATOM     11  C   UNL A   1      34.073  24.470  24.968  1.00  0.00     0.229 C 
ATOM     12  O   UNL A   1      34.390  25.234  24.053  1.00  0.00    -0.274 OA
BRANCH  11  13
ATOM     13  C   UNL A   1      32.702  24.601  25.629  1.00  0.00     0.113 C 
ATOM     14  C   UNL A   1      31.419  24.336  24.830  1.00  0.00     0.030 C 
ATOM     15  C   UNL A   1      32.428  25.967  26.270  1.00  0.00     0.128 C 
ATOM     16  C   UNL A   1      31.465  24.659  23.341  1.00  0.00     0.011 C 
ATOM     17  C   UNL A   1      30.350  25.084  25.658  1.00  0.00     0.119 C 
ATOM     18  O   UNL A   1      31.034  25.910  26.615  1.00  0.00    -0.374 OA
ATOM     19  C   UNL A   1      32.671  27.240  25.466  1.00  0.00     0.039 C 
ATOM     20  C   UNL A   1      29.358  25.964  24.918  1.00  0.00     0.039 C 
ENDBRANCH  11  13
ENDBRANCH   7  11
ENDBRANCH   6   7
ENDBRANCH   4   6
ENDBRANCH   3   4
ENDBRANCH   2   3
ENDBRANCH   1   2
BRANCH   1  21
ATOM     21  O   UNL A   1      41.391  21.259  27.336  1.00  0.00    -0.374 OA
BRANCH  21  22
ATOM     22  C   UNL A   1      42.220  21.051  26.198  1.00  0.00     0.202 C 
BRANCH  22  23
ATOM     23  C   UNL A   1      43.271  22.126  25.917  1.00  0.00     0.261 C 
BRANCH  23  24
ATOM     24  O   UNL A   1      42.837  23.113  24.986  1.00  0.00    -0.460 OA
BRANCH  24  25
ATOM     25  C   UNL A   1      43.572  24.243  25.001  1.00  0.00     0.338 C 
ATOM     26  O   UNL A   1      44.548  24.521  24.313  1.00  0.00    -0.246 OA
BRANCH  25  27
ATOM     27  C   UNL A   1      42.943  25.193  25.915  1.00  0.00     0.060 A 
ATOM     28  C   UNL A   1      43.678  26.310  26.322  1.00  0.00     0.016 A 
ATOM     29  C   UNL A   1      41.672  24.931  26.422  1.00  0.00     0.016 A 
ATOM     30  C   UNL A   1      43.149  27.158  27.290  1.00  0.00     0.010 A 
ATOM     31  C   UNL A   1      41.140  25.784  27.389  1.00  0.00     0.010 A 
ATOM     32  C   UNL A   1      41.893  26.878  27.850  1.00  0.00    -0.014 A 
BRANCH  32  33
ATOM     33  C   UNL A   1      41.436  27.653  29.023  1.00  0.00     0.031 A 
ATOM     34  C   UNL A   1      42.197  27.526  30.311  1.00  0.00     0.074 A 
ATOM     35  C   UNL A   1      40.385  28.482  28.914  1.00  0.00     0.049 A 
ATOM     36  N   UNL A   1      41.991  28.121  31.458  1.00  0.00    -0.248 NA
ATOM     37  C   UNL A   1      43.346  26.605  30.308  1.00  0.00     0.031 C 
ATOM     38  C   UNL A   1      39.597  28.687  27.699  1.00  0.00     0.029 A 
ATOM     39  N   UNL A   1      39.800  29.306  29.839  1.00  0.00    -0.354 N 
ATOM     40  C   UNL A   1      42.991  27.660  32.303  1.00  0.00     0.074 A 
ATOM     41  C   UNL A   1      43.777  26.703  31.557  1.00  0.00     0.031 C 
ATOM     42  C   UNL A   1      38.626  29.580  27.955  1.00  0.00     0.029 A 
ATOM     43  C   UNL A   1      38.712  29.989  29.355  1.00  0.00     0.049 A 
ATOM     44  H   UNL A   1      40.127  29.399  30.763  1.00  0.00     0.167 HD
ATOM     45  C   UNL A   1      43.240  28.021  33.584  1.00  0.00     0.037 A 
ATOM     46  C   UNL A   1      37.878  30.839  29.983  1.00  0.00     0.037 A 
ATOM     47  C   UNL A   1      42.440  28.962  34.320  1.00  0.00     0.049 A 
ATOM     48  C   UNL A   1      38.137  31.171  31.429  1.00  0.00     0.074 A 
ATOM     49  C   UNL A   1      42.589  29.391  35.626  1.00  0.00     0.029 A 
ATOM     50  N   UNL A   1      41.330  29.617  33.805  1.00  0.00    -0.354 N 
ATOM     51  N   UNL A   1      39.101  30.752  32.214  1.00  0.00    -0.248 NA
ATOM     52  C   UNL A   1      37.198  32.098  32.075  1.00  0.00     0.031 C 
ATOM     53  C   UNL A   1      41.546  30.279  35.913  1.00  0.00     0.029 A 
ATOM     54  C   UNL A   1      40.774  30.436  34.773  1.00  0.00     0.049 A 
ATOM     55  H   UNL A   1      40.990  29.515  32.887  1.00  0.00     0.167 HD
ATOM     56  C   UNL A   1      38.899  31.377  33.436  1.00  0.00     0.074 A 
ATOM     57  C   UNL A   1      37.730  32.219  33.284  1.00  0.00     0.031 C 
ATOM     58  C   UNL A   1      39.613  31.267  34.583  1.00  0.00     0.037 A 
BRANCH  45  59
ATOM     59  C   UNL A   1      44.419  27.389  34.263  1.00  0.00     0.064 A 
ATOM     60  C   UNL A   1      45.683  27.999  34.250  1.00  0.00     0.173 A 
ATOM     61  C   UNL A   1      44.282  26.176  34.953  1.00  0.00     0.173 A 
ATOM     62  F   UNL A   1      45.869  29.152  33.590  1.00  0.00    -0.203 F 
ATOM     63  C   UNL A   1      46.771  27.406  34.886  1.00  0.00     0.198 A 
ATOM     64  C   UNL A   1      45.367  25.598  35.608  1.00  0.00     0.198 A 
ATOM     65  F   UNL A   1      43.095  25.553  34.997  1.00  0.00    -0.203 F 
ATOM     66  F   UNL A   1      47.978  27.986  34.826  1.00  0.00    -0.200 F 
ATOM     67  C   UNL A   1      46.611  26.210  35.569  1.00  0.00     0.200 A 
ATOM     68  F   UNL A   1      45.209  24.446  36.276  1.00  0.00    -0.200 F 
ATOM     69  F   UNL A   1      47.658  25.643  36.185  1.00  0.00    -0.200 F 
ENDBRANCH  45  59
BRANCH  46  70
ATOM     70  C   UNL A   1      36.724  31.426  29.254  1.00  0.00     0.064 A 
ATOM     71  C   UNL A   1      36.688  32.788  28.926  1.00  0.00     0.173 A 
ATOM     72  C   UNL A   1      35.626  30.638  28.879  1.00  0.00     0.173 A 
ATOM     73  F   UNL A   1      37.704  33.589  29.281  1.00  0.00    -0.203 F 
ATOM     74  C   UNL A   1      35.590  33.344  28.270  1.00  0.00     0.198 A 
ATOM     75  C   UNL A   1      34.541  31.187  28.199  1.00  0.00     0.198 A 
ATOM     76  F   UNL A   1      35.610  29.328  29.166  1.00  0.00    -0.203 F 
ATOM     77  F   UNL A   1      35.562  34.658  28.010  1.00  0.00    -0.200 F 
ATOM     78  C   UNL A   1      34.519  32.542  27.903  1.00  0.00     0.200 A 
ATOM     79  F   UNL A   1      33.516  30.406  27.835  1.00  0.00    -0.200 F 
ATOM     80  F   UNL A   1      33.466  33.075  27.271  1.00  0.00    -0.200 F 
ENDBRANCH  46  70
BRANCH  58  81
ATOM     81  C   UNL A   1      39.160  32.092  35.750  1.00  0.00     0.064 A 
ATOM     82  C   UNL A   1      39.585  33.418  35.916  1.00  0.00     0.173 A 
ATOM     83  C   UNL A   1      38.251  31.567  36.681  1.00  0.00     0.173 A 
ATOM     84  F   UNL A   1      40.464  33.957  35.059  1.00  0.00    -0.203 F 
ATOM     85  C   UNL A   1      39.132  34.182  36.987  1.00  0.00     0.198 A 
ATOM     86  C   UNL A   1      37.781  32.342  37.735  1.00  0.00     0.198 A 
ATOM     87  F   UNL A   1      37.812  30.305  36.558  1.00  0.00    -0.203 F 
ATOM     88  F   UNL A   1      39.582  35.434  37.151  1.00  0.00    -0.200 F 
ATOM     89  C   UNL A   1      38.225  33.647  37.891  1.00  0.00     0.200 A 
ATOM     90  F   UNL A   1      36.897  31.829  38.601  1.00  0.00    -0.200 F 
ATOM     91  F   UNL A   1      37.785  34.387  38.916  1.00  0.00    -0.200 F 
ENDBRANCH  58  81
ENDBRANCH  32  33
ENDBRANCH  25  27
ENDBRANCH  24  25
ENDBRANCH  23  24
ENDBRANCH  22  23
ENDBRANCH  21  22
ENDBRANCH   1  21
TORSDOF 19
ENDMDL
