MODEL 1
REMARK VINA RESULT:     -16.8      0.000      0.000
REMARK SMILES Cc1ccccc1[C@H]1[NH2+][C@@H](C(=O)OCCOCCOC(=O)c2ccc(-c3c4nc(c(-c5c(F)c(F)c(F)c(F)c5F)c5ccc([nH]5)c(-c5c(F)c(F)c(F)c(F)c5F)c5nc(c(-c6c(F)c(F)c(F)c(F)c6F)c6ccc3[nH]6)C=C5)C=C4)cc2)CC2=c3ccccc3=N[C@@H]21
REMARK SMILES IDX 17 1 16 2 15 3 14 4 13 5 11 6 12 7 10 8 8 9 9 10 94 11 86 14
REMARK SMILES IDX 93 15 85 16 87 17 92 18 88 19 91 20 89 21 90 22 7 23 1 24
REMARK SMILES IDX 2 25 3 26 4 27 6 28 5 29 18 30 19 31 20 32 21 33 22 34 23 35
REMARK SMILES IDX 84 36 24 37 83 38 25 39 26 40 27 41 77 42 28 43 82 44 76 45
REMARK SMILES IDX 78 46 29 47 81 48 75 49 74 50 30 52 62 53 42 54 61 55 43 56
REMARK SMILES IDX 46 57 60 58 79 59 44 60 45 61 59 63 80 64 47 65 31 66 32 67
REMARK SMILES IDX 40 68 33 69 34 70 38 71 41 72 35 73 36 74 39 75 37 76 63 77
REMARK SMILES IDX 64 78 72 79 65 80 66 81 70 82 73 83 67 84 68 85 71 86 69 87
REMARK SMILES IDX 48 88 49 89 57 90 50 91 51 92 55 93 58 94 52 95 53 96 56 97
REMARK SMILES IDX 54 98
REMARK H PARENT 9 12 9 13 78 51 46 62
REMARK Flexibility Score: inf
ROOT
ATOM      1  C   UNL A   1      33.656  34.440  28.155  1.00  0.00     0.202 C 
ENDROOT
BRANCH   1   2
ATOM      2  O   UNL A   1      34.776  33.601  28.585  1.00  0.00    -0.374 OA
BRANCH   2   3
ATOM      3  C   UNL A   1      34.392  32.276  28.713  1.00  0.00     0.202 C 
BRANCH   3   4
ATOM      4  C   UNL A   1      34.245  31.206  27.663  1.00  0.00     0.261 C 
BRANCH   4   5
ATOM      5  O   UNL A   1      32.947  30.843  27.252  1.00  0.00    -0.459 OA
BRANCH   5   6
ATOM      6  C   UNL A   1      32.775  29.554  26.940  1.00  0.00     0.365 C 
ATOM      7  O   UNL A   1      33.534  28.715  27.416  1.00  0.00    -0.245 OA
BRANCH   6   8
ATOM      8  C   UNL A   1      31.737  29.201  25.865  1.00  0.00     0.298 C 
ATOM      9  C   UNL A   1      31.354  26.838  24.784  1.00  0.00     0.243 C 
ATOM     10  N   UNL A   1      30.999  27.837  25.920  1.00  0.00    -0.326 N 
ATOM     11  C   UNL A   1      31.272  27.606  23.271  1.00  0.00     0.196 C 
ATOM     12  H   UNL A   1      31.225  27.394  26.811  1.00  0.00     0.347 HD
ATOM     13  H   UNL A   1      30.008  28.051  25.806  1.00  0.00     0.347 HD
ATOM     14  C   UNL A   1      31.395  29.108  23.502  1.00  0.00    -0.024 C 
ATOM     15  N   UNL A   1      29.887  27.503  22.680  1.00  0.00    -0.270 NA
ATOM     16  C   UNL A   1      32.371  29.558  24.510  1.00  0.00     0.111 C 
ATOM     17  C   UNL A   1      30.258  29.769  23.263  1.00  0.00     0.002 A 
ATOM     18  C   UNL A   1      29.397  28.708  22.744  1.00  0.00     0.066 A 
ATOM     19  C   UNL A   1      29.713  30.957  23.871  1.00  0.00     0.010 A 
ATOM     20  C   UNL A   1      27.983  29.106  22.517  1.00  0.00     0.028 A 
ATOM     21  C   UNL A   1      28.378  31.101  23.900  1.00  0.00     0.001 A 
ATOM     22  C   UNL A   1      27.518  30.190  23.166  1.00  0.00     0.002 A 
BRANCH   9  23
ATOM     23  C   UNL A   1      31.911  25.245  25.302  1.00  0.00     0.015 A 
ATOM     24  C   UNL A   1      30.195  22.968  26.994  1.00  0.00     0.045 C 
ATOM     25  C   UNL A   1      31.328  23.580  26.078  1.00  0.00    -0.042 A 
ATOM     26  C   UNL A   1      32.616  22.361  26.614  1.00  0.00     0.004 A 
ATOM     27  C   UNL A   1      34.319  22.703  26.443  1.00  0.00     0.000 A 
ATOM     28  C   UNL A   1      33.720  25.532  25.320  1.00  0.00     0.010 A 
ATOM     29  C   UNL A   1      34.871  24.273  25.873  1.00  0.00     0.001 A 
ENDBRANCH   9  23
ENDBRANCH   6   8
ENDBRANCH   5   6
ENDBRANCH   4   5
ENDBRANCH   3   4
ENDBRANCH   2   3
ENDBRANCH   1   2
BRANCH   1  30
ATOM     30  C   UNL A   1      33.089  35.953  28.757  1.00  0.00     0.261 C 
BRANCH  30  31
ATOM     31  O   UNL A   1      32.809  36.671  30.279  1.00  0.00    -0.460 OA
BRANCH  31  32
ATOM     32  C   UNL A   1      33.099  36.467  31.955  1.00  0.00     0.338 C 
ATOM     33  O   UNL A   1      32.552  37.510  32.382  1.00  0.00    -0.246 OA
BRANCH  32  34
ATOM     34  C   UNL A   1      34.123  34.773  32.810  1.00  0.00     0.060 A 
ATOM     35  C   UNL A   1      34.939  34.573  34.071  1.00  0.00     0.016 A 
ATOM     36  C   UNL A   1      34.285  33.388  32.239  1.00  0.00     0.016 A 
ATOM     37  C   UNL A   1      35.987  33.624  34.318  1.00  0.00     0.010 A 
ATOM     38  C   UNL A   1      35.380  32.532  32.381  1.00  0.00     0.010 A 
ATOM     39  C   UNL A   1      36.339  32.744  33.336  1.00  0.00    -0.014 A 
BRANCH  39  40
ATOM     40  C   UNL A   1      37.664  32.146  33.127  1.00  0.00     0.031 A 
ATOM     41  C   UNL A   1      37.765  30.843  32.417  1.00  0.00     0.074 A 
ATOM     42  C   UNL A   1      38.767  32.924  33.343  1.00  0.00     0.049 A 
ATOM     43  N   UNL A   1      38.755  30.030  32.577  1.00  0.00    -0.248 NA
ATOM     44  C   UNL A   1      36.725  30.251  31.554  1.00  0.00     0.031 C 
ATOM     45  C   UNL A   1      40.086  32.834  32.700  1.00  0.00     0.029 A 
ATOM     46  N   UNL A   1      38.889  34.098  34.123  1.00  0.00    -0.354 N 
ATOM     47  C   UNL A   1      38.662  29.126  31.540  1.00  0.00     0.074 A 
ATOM     48  C   UNL A   1      37.278  29.091  31.197  1.00  0.00     0.031 C 
ATOM     49  C   UNL A   1      40.931  33.720  33.261  1.00  0.00     0.029 A 
ATOM     50  C   UNL A   1      40.258  34.284  34.412  1.00  0.00     0.049 A 
ATOM     51  H   UNL A   1      38.150  34.680  34.413  1.00  0.00     0.167 HD
ATOM     52  C   UNL A   1      39.790  28.748  30.879  1.00  0.00     0.037 A 
ATOM     53  C   UNL A   1      40.690  34.183  35.704  1.00  0.00     0.037 A 
ATOM     54  C   UNL A   1      40.976  29.361  31.500  1.00  0.00     0.049 A 
ATOM     55  C   UNL A   1      41.487  32.952  35.958  1.00  0.00     0.074 A 
ATOM     56  C   UNL A   1      41.935  30.269  31.089  1.00  0.00     0.029 A 
ATOM     57  N   UNL A   1      41.124  29.280  32.881  1.00  0.00    -0.354 N 
ATOM     58  N   UNL A   1      41.723  32.072  35.032  1.00  0.00    -0.248 NA
ATOM     59  C   UNL A   1      41.977  32.547  37.263  1.00  0.00     0.031 C 
ATOM     60  C   UNL A   1      42.683  30.679  32.244  1.00  0.00     0.029 A 
ATOM     61  C   UNL A   1      42.208  29.991  33.351  1.00  0.00     0.049 A 
ATOM     62  H   UNL A   1      40.516  28.768  33.463  1.00  0.00     0.167 HD
ATOM     63  C   UNL A   1      42.276  30.960  35.571  1.00  0.00     0.074 A 
ATOM     64  C   UNL A   1      42.369  31.290  36.991  1.00  0.00     0.031 C 
ATOM     65  C   UNL A   1      42.544  29.878  34.775  1.00  0.00     0.037 A 
BRANCH  52  66
ATOM     66  C   UNL A   1      39.837  27.962  29.574  1.00  0.00     0.064 A 
ATOM     67  C   UNL A   1      40.377  28.582  28.427  1.00  0.00     0.173 A 
ATOM     68  C   UNL A   1      39.386  26.637  29.352  1.00  0.00     0.173 A 
ATOM     69  F   UNL A   1      40.816  29.848  28.472  1.00  0.00    -0.203 F 
ATOM     70  C   UNL A   1      40.495  27.929  27.194  1.00  0.00     0.198 A 
ATOM     71  C   UNL A   1      39.557  25.965  28.134  1.00  0.00     0.198 A 
ATOM     72  F   UNL A   1      38.709  25.941  30.271  1.00  0.00    -0.203 F 
ATOM     73  F   UNL A   1      40.996  28.588  26.140  1.00  0.00    -0.200 F 
ATOM     74  C   UNL A   1      40.112  26.612  27.054  1.00  0.00     0.200 A 
ATOM     75  F   UNL A   1      39.166  24.687  28.018  1.00  0.00    -0.200 F 
ATOM     76  F   UNL A   1      40.261  25.975  25.884  1.00  0.00    -0.200 F 
ENDBRANCH  52  66
BRANCH  53  77
ATOM     77  C   UNL A   1      39.752  34.831  36.645  1.00  0.00     0.064 A 
ATOM     78  C   UNL A   1      38.975  33.925  37.368  1.00  0.00     0.173 A 
ATOM     79  C   UNL A   1      40.043  36.077  37.231  1.00  0.00     0.173 A 
ATOM     80  F   UNL A   1      38.684  32.723  36.844  1.00  0.00    -0.203 F 
ATOM     81  C   UNL A   1      38.712  34.170  38.703  1.00  0.00     0.198 A 
ATOM     82  C   UNL A   1      39.668  36.344  38.547  1.00  0.00     0.198 A 
ATOM     83  F   UNL A   1      40.859  36.940  36.611  1.00  0.00    -0.203 F 
ATOM     84  F   UNL A   1      38.311  33.180  39.488  1.00  0.00    -0.200 F 
ATOM     85  C   UNL A   1      39.027  35.375  39.289  1.00  0.00     0.200 A 
ATOM     86  F   UNL A   1      40.064  37.470  39.156  1.00  0.00    -0.200 F 
ATOM     87  F   UNL A   1      38.766  35.564  40.589  1.00  0.00    -0.200 F 
ENDBRANCH  53  77
BRANCH  65  88
ATOM     88  C   UNL A   1      43.013  28.552  35.313  1.00  0.00     0.064 A 
ATOM     89  C   UNL A   1      42.191  27.679  36.030  1.00  0.00     0.173 A 
ATOM     90  C   UNL A   1      44.331  28.084  35.098  1.00  0.00     0.173 A 
ATOM     91  F   UNL A   1      41.065  28.107  36.615  1.00  0.00    -0.203 F 
ATOM     92  C   UNL A   1      42.541  26.350  36.245  1.00  0.00     0.198 A 
ATOM     93  C   UNL A   1      44.712  26.780  35.381  1.00  0.00     0.198 A 
ATOM     94  F   UNL A   1      45.309  28.863  34.623  1.00  0.00    -0.203 F 
ATOM     95  F   UNL A   1      41.651  25.517  36.797  1.00  0.00    -0.200 F 
ATOM     96  C   UNL A   1      43.798  25.895  35.900  1.00  0.00     0.200 A 
ATOM     97  F   UNL A   1      45.970  26.393  35.130  1.00  0.00    -0.200 F 
ATOM     98  F   UNL A   1      44.142  24.620  36.115  1.00  0.00    -0.200 F 
ENDBRANCH  65  88
ENDBRANCH  39  40
ENDBRANCH  32  34
ENDBRANCH  31  32
ENDBRANCH  30  31
ENDBRANCH   1  30
TORSDOF 15
ENDMDL
MODEL 2
REMARK VINA RESULT:     -16.7      1.756      2.665
REMARK SMILES Cc1ccccc1[C@H]1[NH2+][C@@H](C(=O)OCCOCCOC(=O)c2ccc(-c3c4nc(c(-c5c(F)c(F)c(F)c(F)c5F)c5ccc([nH]5)c(-c5c(F)c(F)c(F)c(F)c5F)c5nc(c(-c6c(F)c(F)c(F)c(F)c6F)c6ccc3[nH]6)C=C5)C=C4)cc2)CC2=c3ccccc3=N[C@@H]21
REMARK SMILES IDX 17 1 16 2 15 3 14 4 13 5 11 6 12 7 10 8 8 9 9 10 94 11 86 14
REMARK SMILES IDX 93 15 85 16 87 17 92 18 88 19 91 20 89 21 90 22 7 23 1 24
REMARK SMILES IDX 2 25 3 26 4 27 6 28 5 29 18 30 19 31 20 32 21 33 22 34 23 35
REMARK SMILES IDX 84 36 24 37 83 38 25 39 26 40 27 41 77 42 28 43 82 44 76 45
REMARK SMILES IDX 78 46 29 47 81 48 75 49 74 50 30 52 62 53 42 54 61 55 43 56
REMARK SMILES IDX 46 57 60 58 79 59 44 60 45 61 59 63 80 64 47 65 31 66 32 67
REMARK SMILES IDX 40 68 33 69 34 70 38 71 41 72 35 73 36 74 39 75 37 76 63 77
REMARK SMILES IDX 64 78 72 79 65 80 66 81 70 82 73 83 67 84 68 85 71 86 69 87
REMARK SMILES IDX 48 88 49 89 57 90 50 91 51 92 55 93 58 94 52 95 53 96 56 97
REMARK SMILES IDX 54 98
REMARK H PARENT 9 12 9 13 78 51 46 62
REMARK Flexibility Score: inf
ROOT
ATOM      1  C   UNL A   1      32.889  35.625  28.566  1.00  0.00     0.202 C 
ENDROOT
BRANCH   1   2
ATOM      2  O   UNL A   1      32.525  34.250  28.217  1.00  0.00    -0.374 OA
BRANCH   2   3
ATOM      3  C   UNL A   1      33.648  33.447  28.093  1.00  0.00     0.202 C 
BRANCH   3   4
ATOM      4  C   UNL A   1      33.755  31.976  27.789  1.00  0.00     0.261 C 
BRANCH   4   5
ATOM      5  O   UNL A   1      32.647  31.329  27.208  1.00  0.00    -0.459 OA
BRANCH   5   6
ATOM      6  C   UNL A   1      32.903  30.158  26.615  1.00  0.00     0.365 C 
ATOM      7  O   UNL A   1      34.027  29.673  26.705  1.00  0.00    -0.245 OA
BRANCH   6   8
ATOM      8  C   UNL A   1      31.822  29.554  25.706  1.00  0.00     0.298 C 
ATOM      9  C   UNL A   1      31.560  27.020  25.066  1.00  0.00     0.243 C 
ATOM     10  N   UNL A   1      31.206  28.172  26.047  1.00  0.00    -0.326 N 
ATOM     11  C   UNL A   1      31.305  27.511  23.460  1.00  0.00     0.196 C 
ATOM     12  H   UNL A   1      31.532  27.904  26.977  1.00  0.00     0.347 HD
ATOM     13  H   UNL A   1      30.196  28.293  25.985  1.00  0.00     0.347 HD
ATOM     14  C   UNL A   1      31.319  29.035  23.428  1.00  0.00    -0.024 C 
ATOM     15  N   UNL A   1      29.894  27.212  23.013  1.00  0.00    -0.270 NA
ATOM     16  C   UNL A   1      32.325  29.718  24.261  1.00  0.00     0.111 C 
ATOM     17  C   UNL A   1      30.117  29.564  23.182  1.00  0.00     0.002 A 
ATOM     18  C   UNL A   1      29.312  28.373  22.919  1.00  0.00     0.066 A 
ATOM     19  C   UNL A   1      29.521  30.798  23.629  1.00  0.00     0.010 A 
ATOM     20  C   UNL A   1      27.858  28.626  22.751  1.00  0.00     0.028 A 
ATOM     21  C   UNL A   1      28.184  30.851  23.747  1.00  0.00     0.001 A 
ATOM     22  C   UNL A   1      27.351  29.770  23.251  1.00  0.00     0.002 A 
BRANCH   9  23
ATOM     23  C   UNL A   1      32.284  25.582  25.790  1.00  0.00     0.015 A 
ATOM     24  C   UNL A   1      35.372  24.454  25.356  1.00  0.00     0.045 C 
ATOM     25  C   UNL A   1      33.950  24.639  26.020  1.00  0.00    -0.042 A 
ATOM     26  C   UNL A   1      33.901  22.929  26.728  1.00  0.00     0.004 A 
ATOM     27  C   UNL A   1      32.391  22.168  27.166  1.00  0.00     0.000 A 
ATOM     28  C   UNL A   1      30.774  24.613  26.150  1.00  0.00     0.010 A 
ATOM     29  C   UNL A   1      30.854  22.954  26.828  1.00  0.00     0.001 A 
ENDBRANCH   9  23
ENDBRANCH   6   8
ENDBRANCH   5   6
ENDBRANCH   4   5
ENDBRANCH   3   4
ENDBRANCH   2   3
ENDBRANCH   1   2
BRANCH   1  30
ATOM     30  C   UNL A   1      32.917  36.426  30.092  1.00  0.00     0.261 C 
BRANCH  30  31
ATOM     31  O   UNL A   1      33.623  36.179  31.625  1.00  0.00    -0.460 OA
BRANCH  31  32
ATOM     32  C   UNL A   1      34.753  35.202  32.463  1.00  0.00     0.338 C 
ATOM     33  O   UNL A   1      34.805  35.835  33.543  1.00  0.00    -0.246 OA
BRANCH  32  34
ATOM     34  C   UNL A   1      35.650  33.418  31.648  1.00  0.00     0.060 A 
ATOM     35  C   UNL A   1      35.617  31.957  32.045  1.00  0.00     0.016 A 
ATOM     36  C   UNL A   1      36.600  33.293  30.485  1.00  0.00     0.016 A 
ATOM     37  C   UNL A   1      36.601  30.940  31.805  1.00  0.00     0.010 A 
ATOM     38  C   UNL A   1      37.643  32.377  30.334  1.00  0.00     0.010 A 
ATOM     39  C   UNL A   1      37.738  31.258  31.119  1.00  0.00    -0.014 A 
BRANCH  39  40
ATOM     40  C   UNL A   1      39.056  30.626  31.265  1.00  0.00     0.031 A 
ATOM     41  C   UNL A   1      39.358  29.398  30.481  1.00  0.00     0.074 A 
ATOM     42  C   UNL A   1      40.045  31.328  31.894  1.00  0.00     0.049 A 
ATOM     43  N   UNL A   1      40.240  28.530  30.848  1.00  0.00    -0.248 NA
ATOM     44  C   UNL A   1      38.631  28.943  29.280  1.00  0.00     0.031 C 
ATOM     45  C   UNL A   1      41.497  31.244  31.683  1.00  0.00     0.029 A 
ATOM     46  N   UNL A   1      39.931  32.410  32.798  1.00  0.00    -0.354 N 
ATOM     47  C   UNL A   1      40.465  27.741  29.740  1.00  0.00     0.074 A 
ATOM     48  C   UNL A   1      39.256  27.802  28.985  1.00  0.00     0.031 C 
ATOM     49  C   UNL A   1      42.135  32.031  32.571  1.00  0.00     0.029 A 
ATOM     50  C   UNL A   1      41.144  32.505  33.513  1.00  0.00     0.049 A 
ATOM     51  H   UNL A   1      39.145  32.993  32.908  1.00  0.00     0.167 HD
ATOM     52  C   UNL A   1      41.738  27.382  29.422  1.00  0.00     0.037 A 
ATOM     53  C   UNL A   1      41.151  32.254  34.856  1.00  0.00     0.037 A 
ATOM     54  C   UNL A   1      42.679  27.875  30.442  1.00  0.00     0.049 A 
ATOM     55  C   UNL A   1      41.816  30.969  35.207  1.00  0.00     0.074 A 
ATOM     56  C   UNL A   1      43.727  28.776  30.449  1.00  0.00     0.029 A 
ATOM     57  N   UNL A   1      42.388  27.648  31.783  1.00  0.00    -0.354 N 
ATOM     58  N   UNL A   1      42.319  30.178  34.308  1.00  0.00    -0.248 NA
ATOM     59  C   UNL A   1      41.870  30.414  36.546  1.00  0.00     0.031 C 
ATOM     60  C   UNL A   1      44.083  29.033  31.816  1.00  0.00     0.029 A 
ATOM     61  C   UNL A   1      43.280  28.259  32.639  1.00  0.00     0.049 A 
ATOM     62  H   UNL A   1      41.624  27.108  32.089  1.00  0.00     0.167 HD
ATOM     63  C   UNL A   1      42.664  28.994  34.864  1.00  0.00     0.074 A 
ATOM     64  C   UNL A   1      42.314  29.175  36.271  1.00  0.00     0.031 C 
ATOM     65  C   UNL A   1      43.155  27.987  34.076  1.00  0.00     0.037 A 
BRANCH  52  66
ATOM     66  C   UNL A   1      42.180  26.730  28.116  1.00  0.00     0.064 A 
ATOM     67  C   UNL A   1      42.449  25.345  28.106  1.00  0.00     0.173 A 
ATOM     68  C   UNL A   1      42.368  27.361  26.861  1.00  0.00     0.173 A 
ATOM     69  F   UNL A   1      42.347  24.616  29.226  1.00  0.00    -0.203 F 
ATOM     70  C   UNL A   1      42.825  24.652  26.949  1.00  0.00     0.198 A 
ATOM     71  C   UNL A   1      42.687  26.658  25.692  1.00  0.00     0.198 A 
ATOM     72  F   UNL A   1      42.311  28.687  26.704  1.00  0.00    -0.203 F 
ATOM     73  F   UNL A   1      43.088  23.340  27.018  1.00  0.00    -0.200 F 
ATOM     74  C   UNL A   1      42.916  25.301  25.736  1.00  0.00     0.200 A 
ATOM     75  F   UNL A   1      42.782  27.313  24.525  1.00  0.00    -0.200 F 
ATOM     76  F   UNL A   1      43.238  24.631  24.621  1.00  0.00    -0.200 F 
ENDBRANCH  52  66
BRANCH  53  77
ATOM     77  C   UNL A   1      39.974  32.846  35.527  1.00  0.00     0.064 A 
ATOM     78  C   UNL A   1      38.981  31.913  35.830  1.00  0.00     0.173 A 
ATOM     79  C   UNL A   1      40.089  33.986  36.344  1.00  0.00     0.173 A 
ATOM     80  F   UNL A   1      38.847  30.808  35.079  1.00  0.00    -0.203 F 
ATOM     81  C   UNL A   1      38.302  32.010  37.030  1.00  0.00     0.198 A 
ATOM     82  C   UNL A   1      39.311  34.115  37.494  1.00  0.00     0.198 A 
ATOM     83  F   UNL A   1      41.085  34.861  36.144  1.00  0.00    -0.203 F 
ATOM     84  F   UNL A   1      37.642  30.961  37.500  1.00  0.00    -0.200 F 
ATOM     85  C   UNL A   1      38.439  33.108  37.849  1.00  0.00     0.200 A 
ATOM     86  F   UNL A   1      39.516  35.127  38.347  1.00  0.00    -0.200 F 
ATOM     87  F   UNL A   1      37.772  33.154  39.009  1.00  0.00    -0.200 F 
ENDBRANCH  53  77
BRANCH  65  88
ATOM     88  C   UNL A   1      43.419  26.594  34.583  1.00  0.00     0.064 A 
ATOM     89  C   UNL A   1      42.406  25.710  34.965  1.00  0.00     0.173 A 
ATOM     90  C   UNL A   1      44.730  26.071  34.680  1.00  0.00     0.173 A 
ATOM     91  F   UNL A   1      41.179  26.149  35.270  1.00  0.00    -0.203 F 
ATOM     92  C   UNL A   1      42.642  24.349  35.130  1.00  0.00     0.198 A 
ATOM     93  C   UNL A   1      44.978  24.728  34.922  1.00  0.00     0.198 A 
ATOM     94  F   UNL A   1      45.825  26.831  34.563  1.00  0.00    -0.203 F 
ATOM     95  F   UNL A   1      41.610  23.524  35.339  1.00  0.00    -0.200 F 
ATOM     96  C   UNL A   1      43.930  23.854  35.087  1.00  0.00     0.200 A 
ATOM     97  F   UNL A   1      46.245  24.292  34.976  1.00  0.00    -0.200 F 
ATOM     98  F   UNL A   1      44.162  22.548  35.257  1.00  0.00    -0.200 F 
ENDBRANCH  65  88
ENDBRANCH  39  40
ENDBRANCH  32  34
ENDBRANCH  31  32
ENDBRANCH  30  31
ENDBRANCH   1  30
TORSDOF 15
ENDMDL
MODEL 3
REMARK VINA RESULT:     -15.8      2.553      3.982
REMARK SMILES Cc1ccccc1[C@H]1[NH2+][C@@H](C(=O)OCCOCCOC(=O)c2ccc(-c3c4nc(c(-c5c(F)c(F)c(F)c(F)c5F)c5ccc([nH]5)c(-c5c(F)c(F)c(F)c(F)c5F)c5nc(c(-c6c(F)c(F)c(F)c(F)c6F)c6ccc3[nH]6)C=C5)C=C4)cc2)CC2=c3ccccc3=N[C@@H]21
REMARK SMILES IDX 17 1 16 2 15 3 14 4 13 5 11 6 12 7 10 8 8 9 9 10 94 11 86 14
REMARK SMILES IDX 93 15 85 16 87 17 92 18 88 19 91 20 89 21 90 22 7 23 1 24
REMARK SMILES IDX 2 25 3 26 4 27 6 28 5 29 18 30 19 31 20 32 21 33 22 34 23 35
REMARK SMILES IDX 84 36 24 37 83 38 25 39 26 40 27 41 77 42 28 43 82 44 76 45
REMARK SMILES IDX 78 46 29 47 81 48 75 49 74 50 30 52 62 53 42 54 61 55 43 56
REMARK SMILES IDX 46 57 60 58 79 59 44 60 45 61 59 63 80 64 47 65 31 66 32 67
REMARK SMILES IDX 40 68 33 69 34 70 38 71 41 72 35 73 36 74 39 75 37 76 63 77
REMARK SMILES IDX 64 78 72 79 65 80 66 81 70 82 73 83 67 84 68 85 71 86 69 87
REMARK SMILES IDX 48 88 49 89 57 90 50 91 51 92 55 93 58 94 52 95 53 96 56 97
REMARK SMILES IDX 54 98
REMARK H PARENT 9 12 9 13 78 51 46 62
REMARK Flexibility Score: inf
ROOT
ATOM      1  C   UNL A   1      32.959  34.502  28.235  1.00  0.00     0.202 C 
ENDROOT
BRANCH   1   2
ATOM      2  O   UNL A   1      33.589  33.676  27.203  1.00  0.00    -0.374 OA
BRANCH   2   3
ATOM      3  C   UNL A   1      34.296  32.623  27.762  1.00  0.00     0.202 C 
BRANCH   3   4
ATOM      4  C   UNL A   1      33.961  31.156  27.816  1.00  0.00     0.261 C 
BRANCH   4   5
ATOM      5  O   UNL A   1      32.697  30.738  27.354  1.00  0.00    -0.459 OA
BRANCH   5   6
ATOM      6  C   UNL A   1      32.611  29.460  26.971  1.00  0.00     0.365 C 
ATOM      7  O   UNL A   1      33.391  28.638  27.444  1.00  0.00    -0.245 OA
BRANCH   6   8
ATOM      8  C   UNL A   1      31.647  29.108  25.828  1.00  0.00     0.298 C 
ATOM      9  C   UNL A   1      31.427  26.780  24.633  1.00  0.00     0.243 C 
ATOM     10  N   UNL A   1      30.969  27.713  25.788  1.00  0.00    -0.326 N 
ATOM     11  C   UNL A   1      31.389  27.608  23.150  1.00  0.00     0.196 C 
ATOM     12  H   UNL A   1      31.169  27.242  26.671  1.00  0.00     0.347 HD
ATOM     13  H   UNL A   1      29.978  27.889  25.630  1.00  0.00     0.347 HD
ATOM     14  C   UNL A   1      31.431  29.103  23.448  1.00  0.00    -0.024 C 
ATOM     15  N   UNL A   1      30.043  27.472  22.482  1.00  0.00    -0.270 NA
ATOM     16  C   UNL A   1      32.333  29.551  24.525  1.00  0.00     0.111 C 
ATOM     17  C   UNL A   1      30.280  29.724  23.177  1.00  0.00     0.002 A 
ATOM     18  C   UNL A   1      29.496  28.651  22.569  1.00  0.00     0.066 A 
ATOM     19  C   UNL A   1      29.651  30.860  23.802  1.00  0.00     0.010 A 
ATOM     20  C   UNL A   1      28.079  28.996  22.283  1.00  0.00     0.028 A 
ATOM     21  C   UNL A   1      28.312  30.945  23.765  1.00  0.00     0.001 A 
ATOM     22  C   UNL A   1      27.532  30.030  22.951  1.00  0.00     0.002 A 
BRANCH   9  23
ATOM     23  C   UNL A   1      32.029  25.192  25.115  1.00  0.00     0.015 A 
ATOM     24  C   UNL A   1      30.379  22.832  26.758  1.00  0.00     0.045 C 
ATOM     25  C   UNL A   1      31.493  23.494  25.854  1.00  0.00    -0.042 A 
ATOM     26  C   UNL A   1      32.814  22.300  26.361  1.00  0.00     0.004 A 
ATOM     27  C   UNL A   1      34.508  22.692  26.195  1.00  0.00     0.000 A 
ATOM     28  C   UNL A   1      33.829  25.527  25.136  1.00  0.00     0.010 A 
ATOM     29  C   UNL A   1      35.016  24.289  25.660  1.00  0.00     0.001 A 
ENDBRANCH   9  23
ENDBRANCH   6   8
ENDBRANCH   5   6
ENDBRANCH   4   5
ENDBRANCH   3   4
ENDBRANCH   2   3
ENDBRANCH   1   2
BRANCH   1  30
ATOM     30  C   UNL A   1      33.458  34.861  29.846  1.00  0.00     0.261 C 
BRANCH  30  31
ATOM     31  O   UNL A   1      34.381  34.110  31.069  1.00  0.00    -0.460 OA
BRANCH  31  32
ATOM     32  C   UNL A   1      34.866  32.579  31.664  1.00  0.00     0.338 C 
ATOM     33  O   UNL A   1      34.199  32.554  32.723  1.00  0.00    -0.246 OA
BRANCH  32  34
ATOM     34  C   UNL A   1      36.238  31.263  30.644  1.00  0.00     0.060 A 
ATOM     35  C   UNL A   1      36.432  29.761  30.635  1.00  0.00     0.016 A 
ATOM     36  C   UNL A   1      37.383  31.624  29.734  1.00  0.00     0.016 A 
ATOM     37  C   UNL A   1      37.630  29.015  30.372  1.00  0.00     0.010 A 
ATOM     38  C   UNL A   1      38.601  30.955  29.595  1.00  0.00     0.010 A 
ATOM     39  C   UNL A   1      38.781  29.682  30.067  1.00  0.00    -0.014 A 
BRANCH  39  40
ATOM     40  C   UNL A   1      40.153  29.234  30.340  1.00  0.00     0.031 A 
ATOM     41  C   UNL A   1      40.667  28.019  29.653  1.00  0.00     0.074 A 
ATOM     42  C   UNL A   1      40.994  30.089  30.995  1.00  0.00     0.049 A 
ATOM     43  N   UNL A   1      41.620  27.292  30.131  1.00  0.00    -0.248 NA
ATOM     44  C   UNL A   1      40.097  27.415  28.434  1.00  0.00     0.031 C 
ATOM     45  C   UNL A   1      42.458  30.184  30.890  1.00  0.00     0.029 A 
ATOM     46  N   UNL A   1      40.676  31.190  31.823  1.00  0.00    -0.354 N 
ATOM     47  C   UNL A   1      42.026  26.485  29.090  1.00  0.00     0.074 A 
ATOM     48  C   UNL A   1      40.881  26.351  28.250  1.00  0.00     0.031 C 
ATOM     49  C   UNL A   1      42.922  31.090  31.773  1.00  0.00     0.029 A 
ATOM     50  C   UNL A   1      41.810  31.477  32.614  1.00  0.00     0.049 A 
ATOM     51  H   UNL A   1      39.817  31.670  31.844  1.00  0.00     0.167 HD
ATOM     52  C   UNL A   1      43.355  26.279  28.882  1.00  0.00     0.037 A 
ATOM     53  C   UNL A   1      41.746  31.296  33.967  1.00  0.00     0.037 A 
ATOM     54  C   UNL A   1      44.145  26.940  29.934  1.00  0.00     0.049 A 
ATOM     55  C   UNL A   1      42.539  30.127  34.438  1.00  0.00     0.074 A 
ATOM     56  C   UNL A   1      45.069  27.968  29.961  1.00  0.00     0.029 A 
ATOM     57  N   UNL A   1      43.784  26.743  31.263  1.00  0.00    -0.354 N 
ATOM     58  N   UNL A   1      43.204  29.365  33.624  1.00  0.00    -0.248 NA
ATOM     59  C   UNL A   1      42.560  29.650  35.808  1.00  0.00     0.031 C 
ATOM     60  C   UNL A   1      45.284  28.337  31.332  1.00  0.00     0.029 A 
ATOM     61  C   UNL A   1      44.524  27.507  32.142  1.00  0.00     0.049 A 
ATOM     62  H   UNL A   1      43.073  26.124  31.546  1.00  0.00     0.167 HD
ATOM     63  C   UNL A   1      43.652  28.264  34.272  1.00  0.00     0.074 A 
ATOM     64  C   UNL A   1      43.176  28.467  35.638  1.00  0.00     0.031 C 
ATOM     65  C   UNL A   1      44.324  27.292  33.580  1.00  0.00     0.037 A 
BRANCH  52  66
ATOM     66  C   UNL A   1      43.974  25.627  27.651  1.00  0.00     0.064 A 
ATOM     67  C   UNL A   1      44.518  26.454  26.646  1.00  0.00     0.173 A 
ATOM     68  C   UNL A   1      44.074  24.241  27.370  1.00  0.00     0.173 A 
ATOM     69  F   UNL A   1      44.470  27.789  26.753  1.00  0.00    -0.203 F 
ATOM     70  C   UNL A   1      45.139  25.948  25.497  1.00  0.00     0.198 A 
ATOM     71  C   UNL A   1      44.746  23.734  26.250  1.00  0.00     0.198 A 
ATOM     72  F   UNL A   1      43.485  23.307  28.124  1.00  0.00    -0.203 F 
ATOM     73  F   UNL A   1      45.613  26.794  24.572  1.00  0.00    -0.200 F 
ATOM     74  C   UNL A   1      45.279  24.589  25.312  1.00  0.00     0.200 A 
ATOM     75  F   UNL A   1      44.859  22.408  26.085  1.00  0.00    -0.200 F 
ATOM     76  F   UNL A   1      45.908  24.104  24.232  1.00  0.00    -0.200 F 
ENDBRANCH  52  66
BRANCH  53  77
ATOM     77  C   UNL A   1      40.456  31.762  34.519  1.00  0.00     0.064 A 
ATOM     78  C   UNL A   1      40.383  33.148  34.667  1.00  0.00     0.173 A 
ATOM     79  C   UNL A   1      39.262  31.051  34.297  1.00  0.00     0.173 A 
ATOM     80  F   UNL A   1      41.503  33.860  34.872  1.00  0.00    -0.203 F 
ATOM     81  C   UNL A   1      39.203  33.801  34.368  1.00  0.00     0.198 A 
ATOM     82  C   UNL A   1      38.059  31.730  34.108  1.00  0.00     0.198 A 
ATOM     83  F   UNL A   1      39.296  29.732  34.060  1.00  0.00    -0.203 F 
ATOM     84  F   UNL A   1      39.212  35.107  34.142  1.00  0.00    -0.200 F 
ATOM     85  C   UNL A   1      38.040  33.109  34.115  1.00  0.00     0.200 A 
ATOM     86  F   UNL A   1      36.948  31.068  33.757  1.00  0.00    -0.200 F 
ATOM     87  F   UNL A   1      36.922  33.782  33.816  1.00  0.00    -0.200 F 
ENDBRANCH  53  77
BRANCH  65  88
ATOM     88  C   UNL A   1      44.722  25.971  34.185  1.00  0.00     0.064 A 
ATOM     89  C   UNL A   1      43.804  24.977  34.531  1.00  0.00     0.173 A 
ATOM     90  C   UNL A   1      46.077  25.635  34.418  1.00  0.00     0.173 A 
ATOM     91  F   UNL A   1      42.508  25.260  34.710  1.00  0.00    -0.203 F 
ATOM     92  C   UNL A   1      44.201  23.670  34.793  1.00  0.00     0.198 A 
ATOM     93  C   UNL A   1      46.476  24.350  34.755  1.00  0.00     0.198 A 
ATOM     94  F   UNL A   1      47.069  26.530  34.348  1.00  0.00    -0.203 F 
ATOM     95  F   UNL A   1      43.270  22.722  34.963  1.00  0.00    -0.200 F 
ATOM     96  C   UNL A   1      45.540  23.352  34.884  1.00  0.00     0.200 A 
ATOM     97  F   UNL A   1      47.779  24.093  34.937  1.00  0.00    -0.200 F 
ATOM     98  F   UNL A   1      45.926  22.098  35.145  1.00  0.00    -0.200 F 
ENDBRANCH  65  88
ENDBRANCH  39  40
ENDBRANCH  32  34
ENDBRANCH  31  32
ENDBRANCH  30  31
ENDBRANCH   1  30
TORSDOF 15
ENDMDL
