MODEL 1
REMARK VINA RESULT:     -10.7      0.000      0.000
REMARK SMILES CC[C@H]([NH2+][C@@H](C)c1c(C)noc1C)C(=O)OCCOCCOC(=O)c1ccc(-c2c3nc(c(-c4c(F)c(F)c(F)c(F)c4F)c4ccc([nH]4)c(-c4c(F)c(F)c(F)c(F)c4F)c4nc(c(-c5c(F)c(F)c(F)c(F)c5F)c5ccc2[nH]5)C=C4)C=C3)cc1
REMARK SMILES IDX 18 1 17 2 16 3 14 4 15 5 3 6 2 7 1 8 4 9 5 12 6 13 7 14 8 15
REMARK SMILES IDX 12 16 9 17 10 18 11 19 13 20 19 21 20 22 21 23 22 24 23 25
REMARK SMILES IDX 24 26 25 27 26 28 87 29 27 30 86 31 28 32 29 33 30 34 80 35
REMARK SMILES IDX 31 36 85 37 79 38 81 39 32 40 84 41 78 42 77 43 33 45 65 46
REMARK SMILES IDX 45 47 64 48 46 49 49 50 63 51 82 52 47 53 48 54 62 56 83 57
REMARK SMILES IDX 50 58 34 59 35 60 43 61 36 62 37 63 41 64 44 65 38 66 39 67
REMARK SMILES IDX 42 68 40 69 66 70 67 71 75 72 68 73 69 74 73 75 76 76 70 77
REMARK SMILES IDX 71 78 74 79 72 80 51 81 52 82 60 83 53 84 54 85 58 86 61 87
REMARK SMILES IDX 55 88 56 89 59 90 57 91
REMARK H PARENT 4 10 4 11 81 44 49 55
REMARK Flexibility Score: inf
ROOT
ATOM      1  C   UNL A   1      32.200  29.510  27.096  1.00  0.00     0.202 C 
ENDROOT
BRANCH   1   2
ATOM      2  C   UNL A   1      31.906  28.743  25.808  1.00  0.00     0.261 C 
BRANCH   2   3
ATOM      3  O   UNL A   1      32.002  29.619  24.667  1.00  0.00    -0.459 OA
BRANCH   3   4
ATOM      4  C   UNL A   1      32.356  29.039  23.488  1.00  0.00     0.364 C 
ATOM      5  O   UNL A   1      33.508  28.902  23.094  1.00  0.00    -0.245 OA
BRANCH   4   6
ATOM      6  C   UNL A   1      31.130  28.603  22.656  1.00  0.00     0.293 C 
BRANCH   6   7
ATOM      7  C   UNL A   1      31.474  27.254  22.009  1.00  0.00     0.074 C 
ATOM      8  C   UNL A   1      31.479  26.065  22.959  1.00  0.00     0.011 C 
ENDBRANCH   6   7
BRANCH   6   9
ATOM      9  N   UNL A   1      30.551  29.718  21.878  1.00  0.00    -0.328 N 
ATOM     10  H   UNL A   1      30.913  29.620  20.931  1.00  0.00     0.347 HD
ATOM     11  H   UNL A   1      30.820  30.525  22.441  1.00  0.00     0.347 HD
BRANCH   9  12
ATOM     12  C   UNL A   1      29.114  29.915  21.743  1.00  0.00     0.216 C 
ATOM     13  C   UNL A   1      28.429  28.942  22.717  1.00  0.00     0.081 C 
BRANCH  12  14
ATOM     14  C   UNL A   1      28.701  31.330  21.994  1.00  0.00     0.074 A 
ATOM     15  C   UNL A   1      28.124  32.279  21.103  1.00  0.00     0.090 A 
ATOM     16  C   UNL A   1      28.879  32.072  23.148  1.00  0.00     0.143 A 
ATOM     17  C   UNL A   1      27.770  32.129  19.682  1.00  0.00     0.071 C 
ATOM     18  N   UNL A   1      27.921  33.463  21.690  1.00  0.00    -0.085 NA
ATOM     19  O   UNL A   1      28.394  33.327  22.973  1.00  0.00    -0.361 OA
ATOM     20  C   UNL A   1      29.473  31.806  24.472  1.00  0.00     0.091 C 
ENDBRANCH  12  14
ENDBRANCH   9  12
ENDBRANCH   6   9
ENDBRANCH   4   6
ENDBRANCH   3   4
ENDBRANCH   2   3
ENDBRANCH   1   2
BRANCH   1  21
ATOM     21  O   UNL A   1      32.011  30.922  26.977  1.00  0.00    -0.374 OA
BRANCH  21  22
ATOM     22  C   UNL A   1      33.014  31.733  27.586  1.00  0.00     0.202 C 
BRANCH  22  23
ATOM     23  C   UNL A   1      32.933  33.213  27.189  1.00  0.00     0.261 C 
BRANCH  23  24
ATOM     24  O   UNL A   1      32.241  33.978  28.195  1.00  0.00    -0.460 OA
BRANCH  24  25
ATOM     25  C   UNL A   1      32.960  34.976  28.768  1.00  0.00     0.338 C 
ATOM     26  O   UNL A   1      32.653  36.152  28.859  1.00  0.00    -0.246 OA
BRANCH  25  27
ATOM     27  C   UNL A   1      34.131  34.392  29.459  1.00  0.00     0.060 A 
ATOM     28  C   UNL A   1      35.397  34.628  28.912  1.00  0.00     0.016 A 
ATOM     29  C   UNL A   1      34.003  33.658  30.642  1.00  0.00     0.016 A 
ATOM     30  C   UNL A   1      36.537  34.111  29.530  1.00  0.00     0.010 A 
ATOM     31  C   UNL A   1      35.152  33.173  31.281  1.00  0.00     0.010 A 
ATOM     32  C   UNL A   1      36.424  33.359  30.709  1.00  0.00    -0.014 A 
BRANCH  32  33
ATOM     33  C   UNL A   1      37.601  32.603  31.222  1.00  0.00     0.031 A 
ATOM     34  C   UNL A   1      38.120  32.937  32.597  1.00  0.00     0.074 A 
ATOM     35  C   UNL A   1      38.179  31.611  30.519  1.00  0.00     0.049 A 
ATOM     36  N   UNL A   1      39.131  32.430  33.257  1.00  0.00    -0.248 NA
ATOM     37  C   UNL A   1      37.409  34.005  33.322  1.00  0.00     0.031 C 
ATOM     38  C   UNL A   1      37.787  31.173  29.182  1.00  0.00     0.029 A 
ATOM     39  N   UNL A   1      39.231  30.786  30.845  1.00  0.00    -0.354 N 
ATOM     40  C   UNL A   1      39.188  33.130  34.455  1.00  0.00     0.074 A 
ATOM     41  C   UNL A   1      38.145  34.130  34.414  1.00  0.00     0.031 C 
ATOM     42  C   UNL A   1      38.574  30.147  28.810  1.00  0.00     0.029 A 
ATOM     43  C   UNL A   1      39.545  29.873  29.868  1.00  0.00     0.049 A 
ATOM     44  H   UNL A   1      39.714  30.845  31.702  1.00  0.00     0.167 HD
ATOM     45  C   UNL A   1      40.015  32.945  35.510  1.00  0.00     0.037 A 
ATOM     46  C   UNL A   1      40.508  28.930  29.832  1.00  0.00     0.037 A 
ATOM     47  C   UNL A   1      41.026  31.928  35.583  1.00  0.00     0.049 A 
ATOM     48  C   UNL A   1      41.438  28.762  31.011  1.00  0.00     0.074 A 
ATOM     49  C   UNL A   1      41.880  31.636  36.633  1.00  0.00     0.029 A 
ATOM     50  N   UNL A   1      41.317  31.032  34.567  1.00  0.00    -0.354 N 
ATOM     51  N   UNL A   1      41.452  29.399  32.156  1.00  0.00    -0.248 NA
ATOM     52  C   UNL A   1      42.486  27.736  30.889  1.00  0.00     0.031 C 
ATOM     53  C   UNL A   1      42.716  30.589  36.237  1.00  0.00     0.029 A 
ATOM     54  C   UNL A   1      42.352  30.199  34.958  1.00  0.00     0.049 A 
ATOM     55  H   UNL A   1      40.857  30.994  33.698  1.00  0.00     0.167 HD
ATOM     56  C   UNL A   1      42.483  28.832  32.898  1.00  0.00     0.074 A 
ATOM     57  C   UNL A   1      43.063  27.790  32.081  1.00  0.00     0.031 C 
ATOM     58  C   UNL A   1      42.907  29.147  34.146  1.00  0.00     0.037 A 
BRANCH  45  59
ATOM     59  C   UNL A   1      39.858  33.876  36.675  1.00  0.00     0.064 A 
ATOM     60  C   UNL A   1      40.566  35.084  36.752  1.00  0.00     0.173 A 
ATOM     61  C   UNL A   1      38.978  33.560  37.720  1.00  0.00     0.173 A 
ATOM     62  F   UNL A   1      41.435  35.421  35.787  1.00  0.00    -0.203 F 
ATOM     63  C   UNL A   1      40.421  35.929  37.849  1.00  0.00     0.198 A 
ATOM     64  C   UNL A   1      38.812  34.421  38.800  1.00  0.00     0.198 A 
ATOM     65  F   UNL A   1      38.276  32.416  37.691  1.00  0.00    -0.203 F 
ATOM     66  F   UNL A   1      41.149  37.051  37.929  1.00  0.00    -0.200 F 
ATOM     67  C   UNL A   1      39.540  35.600  38.868  1.00  0.00     0.200 A 
ATOM     68  F   UNL A   1      37.953  34.107  39.780  1.00  0.00    -0.200 F 
ATOM     69  F   UNL A   1      39.399  36.414  39.923  1.00  0.00    -0.200 F 
ENDBRANCH  45  59
BRANCH  46  70
ATOM     70  C   UNL A   1      40.656  28.049  28.642  1.00  0.00     0.064 A 
ATOM     71  C   UNL A   1      41.427  28.449  27.541  1.00  0.00     0.173 A 
ATOM     72  C   UNL A   1      39.986  26.820  28.556  1.00  0.00     0.173 A 
ATOM     73  F   UNL A   1      42.058  29.633  27.560  1.00  0.00    -0.203 F 
ATOM     74  C   UNL A   1      41.501  27.666  26.390  1.00  0.00     0.198 A 
ATOM     75  C   UNL A   1      40.084  26.025  27.416  1.00  0.00     0.198 A 
ATOM     76  F   UNL A   1      39.224  26.397  29.576  1.00  0.00    -0.203 F 
ATOM     77  F   UNL A   1      42.196  28.102  25.330  1.00  0.00    -0.200 F 
ATOM     78  C   UNL A   1      40.834  26.453  26.330  1.00  0.00     0.200 A 
ATOM     79  F   UNL A   1      39.438  24.852  27.361  1.00  0.00    -0.200 F 
ATOM     80  F   UNL A   1      40.897  25.705  25.220  1.00  0.00    -0.200 F 
ENDBRANCH  46  70
BRANCH  58  81
ATOM     81  C   UNL A   1      44.025  28.334  34.733  1.00  0.00     0.064 A 
ATOM     82  C   UNL A   1      45.365  28.737  34.628  1.00  0.00     0.173 A 
ATOM     83  C   UNL A   1      43.745  27.169  35.464  1.00  0.00     0.173 A 
ATOM     84  F   UNL A   1      45.686  29.836  33.930  1.00  0.00    -0.203 F 
ATOM     85  C   UNL A   1      46.383  27.993  35.217  1.00  0.00     0.198 A 
ATOM     86  C   UNL A   1      44.764  26.444  36.076  1.00  0.00     0.198 A 
ATOM     87  F   UNL A   1      42.480  26.746  35.602  1.00  0.00    -0.203 F 
ATOM     88  F   UNL A   1      47.659  28.375  35.073  1.00  0.00    -0.200 F 
ATOM     89  C   UNL A   1      46.081  26.853  35.948  1.00  0.00     0.200 A 
ATOM     90  F   UNL A   1      44.468  25.352  36.794  1.00  0.00    -0.200 F 
ATOM     91  F   UNL A   1      47.063  26.146  36.525  1.00  0.00    -0.200 F 
ENDBRANCH  58  81
ENDBRANCH  32  33
ENDBRANCH  25  27
ENDBRANCH  24  25
ENDBRANCH  23  24
ENDBRANCH  22  23
ENDBRANCH  21  22
ENDBRANCH   1  21
TORSDOF 18
ENDMDL
MODEL 2
REMARK VINA RESULT:     -10.6      2.839      4.992
REMARK SMILES CC[C@H]([NH2+][C@@H](C)c1c(C)noc1C)C(=O)OCCOCCOC(=O)c1ccc(-c2c3nc(c(-c4c(F)c(F)c(F)c(F)c4F)c4ccc([nH]4)c(-c4c(F)c(F)c(F)c(F)c4F)c4nc(c(-c5c(F)c(F)c(F)c(F)c5F)c5ccc2[nH]5)C=C4)C=C3)cc1
REMARK SMILES IDX 18 1 17 2 16 3 14 4 15 5 3 6 2 7 1 8 4 9 5 12 6 13 7 14 8 15
REMARK SMILES IDX 12 16 9 17 10 18 11 19 13 20 19 21 20 22 21 23 22 24 23 25
REMARK SMILES IDX 24 26 25 27 26 28 87 29 27 30 86 31 28 32 29 33 30 34 80 35
REMARK SMILES IDX 31 36 85 37 79 38 81 39 32 40 84 41 78 42 77 43 33 45 65 46
REMARK SMILES IDX 45 47 64 48 46 49 49 50 63 51 82 52 47 53 48 54 62 56 83 57
REMARK SMILES IDX 50 58 34 59 35 60 43 61 36 62 37 63 41 64 44 65 38 66 39 67
REMARK SMILES IDX 42 68 40 69 66 70 67 71 75 72 68 73 69 74 73 75 76 76 70 77
REMARK SMILES IDX 71 78 74 79 72 80 51 81 52 82 60 83 53 84 54 85 58 86 61 87
REMARK SMILES IDX 55 88 56 89 59 90 57 91
REMARK H PARENT 4 10 4 11 81 44 49 55
REMARK Flexibility Score: inf
ROOT
ATOM      1  C   UNL A   1      33.176  28.845  23.698  1.00  0.00     0.202 C 
ENDROOT
BRANCH   1   2
ATOM      2  C   UNL A   1      33.417  28.095  22.390  1.00  0.00     0.261 C 
BRANCH   2   3
ATOM      3  O   UNL A   1      32.414  27.076  22.201  1.00  0.00    -0.459 OA
BRANCH   3   4
ATOM      4  C   UNL A   1      32.844  25.893  21.687  1.00  0.00     0.364 C 
ATOM      5  O   UNL A   1      33.279  25.739  20.551  1.00  0.00    -0.245 OA
BRANCH   4   6
ATOM      6  C   UNL A   1      32.682  24.725  22.685  1.00  0.00     0.293 C 
BRANCH   6   7
ATOM      7  C   UNL A   1      31.427  25.010  23.521  1.00  0.00     0.074 C 
ATOM      8  C   UNL A   1      31.638  24.993  25.027  1.00  0.00     0.011 C 
ENDBRANCH   6   7
BRANCH   6   9
ATOM      9  N   UNL A   1      33.963  24.333  23.307  1.00  0.00    -0.328 N 
ATOM     10  H   UNL A   1      33.888  24.582  24.292  1.00  0.00     0.347 HD
ATOM     11  H   UNL A   1      34.639  24.816  22.714  1.00  0.00     0.347 HD
BRANCH   9  12
ATOM     12  C   UNL A   1      34.464  22.966  23.274  1.00  0.00     0.216 C 
ATOM     13  C   UNL A   1      35.954  23.019  23.652  1.00  0.00     0.081 C 
BRANCH  12  14
ATOM     14  C   UNL A   1      33.698  22.050  24.174  1.00  0.00     0.074 A 
ATOM     15  C   UNL A   1      32.700  21.086  23.854  1.00  0.00     0.090 A 
ATOM     16  C   UNL A   1      33.726  22.004  25.557  1.00  0.00     0.143 A 
ATOM     17  C   UNL A   1      32.146  20.720  22.540  1.00  0.00     0.071 C 
ATOM     18  N   UNL A   1      32.220  20.477  24.942  1.00  0.00    -0.085 NA
ATOM     19  O   UNL A   1      32.867  21.055  26.008  1.00  0.00    -0.361 OA
ATOM     20  C   UNL A   1      34.451  22.746  26.606  1.00  0.00     0.091 C 
ENDBRANCH  12  14
ENDBRANCH   9  12
ENDBRANCH   6   9
ENDBRANCH   4   6
ENDBRANCH   3   4
ENDBRANCH   2   3
ENDBRANCH   1   2
BRANCH   1  21
ATOM     21  O   UNL A   1      31.904  28.572  24.288  1.00  0.00    -0.374 OA
BRANCH  21  22
ATOM     22  C   UNL A   1      31.751  28.983  25.646  1.00  0.00     0.202 C 
BRANCH  22  23
ATOM     23  C   UNL A   1      32.205  30.424  25.908  1.00  0.00     0.261 C 
BRANCH  23  24
ATOM     24  O   UNL A   1      32.689  30.575  27.257  1.00  0.00    -0.460 OA
BRANCH  24  25
ATOM     25  C   UNL A   1      33.461  31.668  27.483  1.00  0.00     0.338 C 
ATOM     26  O   UNL A   1      33.119  32.837  27.445  1.00  0.00    -0.246 OA
BRANCH  25  27
ATOM     27  C   UNL A   1      34.782  31.229  27.984  1.00  0.00     0.060 A 
ATOM     28  C   UNL A   1      34.965  29.865  28.237  1.00  0.00     0.016 A 
ATOM     29  C   UNL A   1      35.840  32.125  28.169  1.00  0.00     0.016 A 
ATOM     30  C   UNL A   1      36.196  29.394  28.699  1.00  0.00     0.010 A 
ATOM     31  C   UNL A   1      37.085  31.645  28.596  1.00  0.00     0.010 A 
ATOM     32  C   UNL A   1      37.262  30.282  28.904  1.00  0.00    -0.014 A 
BRANCH  32  33
ATOM     33  C   UNL A   1      38.480  29.825  29.629  1.00  0.00     0.031 A 
ATOM     34  C   UNL A   1      38.705  30.324  31.034  1.00  0.00     0.074 A 
ATOM     35  C   UNL A   1      39.353  28.954  29.088  1.00  0.00     0.049 A 
ATOM     36  N   UNL A   1      39.689  30.078  31.862  1.00  0.00    -0.248 NA
ATOM     37  C   UNL A   1      37.685  31.240  31.572  1.00  0.00     0.031 C 
ATOM     38  C   UNL A   1      39.267  28.383  27.746  1.00  0.00     0.029 A 
ATOM     39  N   UNL A   1      40.493  28.394  29.616  1.00  0.00    -0.354 N 
ATOM     40  C   UNL A   1      39.417  30.825  33.001  1.00  0.00     0.074 A 
ATOM     41  C   UNL A   1      38.205  31.570  32.743  1.00  0.00     0.031 C 
ATOM     42  C   UNL A   1      40.298  27.539  27.563  1.00  0.00     0.029 A 
ATOM     43  C   UNL A   1      41.136  27.530  28.762  1.00  0.00     0.049 A 
ATOM     44  H   UNL A   1      40.819  28.594  30.524  1.00  0.00     0.167 HD
ATOM     45  C   UNL A   1      40.096  30.872  34.170  1.00  0.00     0.037 A 
ATOM     46  C   UNL A   1      42.269  26.820  28.929  1.00  0.00     0.037 A 
ATOM     47  C   UNL A   1      41.276  30.104  34.458  1.00  0.00     0.049 A 
ATOM     48  C   UNL A   1      43.026  26.911  30.234  1.00  0.00     0.074 A 
ATOM     49  C   UNL A   1      42.004  30.052  35.634  1.00  0.00     0.029 A 
ATOM     50  N   UNL A   1      41.898  29.251  33.561  1.00  0.00    -0.354 N 
ATOM     51  N   UNL A   1      42.734  27.584  31.320  1.00  0.00    -0.248 NA
ATOM     52  C   UNL A   1      44.273  26.135  30.334  1.00  0.00     0.031 C 
ATOM     53  C   UNL A   1      43.092  29.197  35.435  1.00  0.00     0.029 A 
ATOM     54  C   UNL A   1      43.014  28.681  34.151  1.00  0.00     0.049 A 
ATOM     55  H   UNL A   1      41.592  29.075  32.642  1.00  0.00     0.167 HD
ATOM     56  C   UNL A   1      43.737  27.289  32.236  1.00  0.00     0.074 A 
ATOM     57  C   UNL A   1      44.640  26.365  31.586  1.00  0.00     0.031 C 
ATOM     58  C   UNL A   1      43.894  27.743  33.503  1.00  0.00     0.037 A 
BRANCH  45  59
ATOM     59  C   UNL A   1      39.574  31.794  35.230  1.00  0.00     0.064 A 
ATOM     60  C   UNL A   1      38.688  31.349  36.222  1.00  0.00     0.173 A 
ATOM     61  C   UNL A   1      39.978  33.137  35.261  1.00  0.00     0.173 A 
ATOM     62  F   UNL A   1      38.257  30.079  36.223  1.00  0.00    -0.203 F 
ATOM     63  C   UNL A   1      38.200  32.224  37.189  1.00  0.00     0.198 A 
ATOM     64  C   UNL A   1      39.512  34.001  36.248  1.00  0.00     0.198 A 
ATOM     65  F   UNL A   1      40.826  33.610  34.335  1.00  0.00    -0.203 F 
ATOM     66  F   UNL A   1      37.310  31.791  38.093  1.00  0.00    -0.200 F 
ATOM     67  C   UNL A   1      38.617  33.546  37.205  1.00  0.00     0.200 A 
ATOM     68  F   UNL A   1      39.923  35.276  36.268  1.00  0.00    -0.200 F 
ATOM     69  F   UNL A   1      38.149  34.387  38.137  1.00  0.00    -0.200 F 
ENDBRANCH  45  59
BRANCH  46  70
ATOM     70  C   UNL A   1      42.776  25.942  27.840  1.00  0.00     0.064 A 
ATOM     71  C   UNL A   1      42.397  24.594  27.766  1.00  0.00     0.173 A 
ATOM     72  C   UNL A   1      43.693  26.414  26.890  1.00  0.00     0.173 A 
ATOM     73  F   UNL A   1      41.550  24.086  28.674  1.00  0.00    -0.203 F 
ATOM     74  C   UNL A   1      42.934  23.746  26.799  1.00  0.00     0.198 A 
ATOM     75  C   UNL A   1      44.207  25.572  25.906  1.00  0.00     0.198 A 
ATOM     76  F   UNL A   1      44.100  27.691  26.925  1.00  0.00    -0.203 F 
ATOM     77  F   UNL A   1      42.599  22.448  26.789  1.00  0.00    -0.200 F 
ATOM     78  C   UNL A   1      43.835  24.236  25.867  1.00  0.00     0.200 A 
ATOM     79  F   UNL A   1      45.079  26.049  25.006  1.00  0.00    -0.200 F 
ATOM     80  F   UNL A   1      44.359  23.418  24.943  1.00  0.00    -0.200 F 
ENDBRANCH  46  70
BRANCH  58  81
ATOM     81  C   UNL A   1      45.056  27.220  34.297  1.00  0.00     0.064 A 
ATOM     82  C   UNL A   1      46.271  27.917  34.372  1.00  0.00     0.173 A 
ATOM     83  C   UNL A   1      44.930  26.038  35.043  1.00  0.00     0.173 A 
ATOM     84  F   UNL A   1      46.447  29.046  33.669  1.00  0.00    -0.203 F 
ATOM     85  C   UNL A   1      47.323  27.439  35.150  1.00  0.00     0.198 A 
ATOM     86  C   UNL A   1      45.974  25.579  35.842  1.00  0.00     0.198 A 
ATOM     87  F   UNL A   1      43.785  25.340  35.014  1.00  0.00    -0.203 F 
ATOM     88  F   UNL A   1      48.488  28.100  35.177  1.00  0.00    -0.200 F 
ATOM     89  C   UNL A   1      47.170  26.276  35.890  1.00  0.00     0.200 A 
ATOM     90  F   UNL A   1      45.818  24.463  36.569  1.00  0.00    -0.200 F 
ATOM     91  F   UNL A   1      48.179  25.825  36.648  1.00  0.00    -0.200 F 
ENDBRANCH  58  81
ENDBRANCH  32  33
ENDBRANCH  25  27
ENDBRANCH  24  25
ENDBRANCH  23  24
ENDBRANCH  22  23
ENDBRANCH  21  22
ENDBRANCH   1  21
TORSDOF 18
ENDMDL
MODEL 3
REMARK VINA RESULT:     -10.4      1.661      2.828
REMARK SMILES CC[C@H]([NH2+][C@@H](C)c1c(C)noc1C)C(=O)OCCOCCOC(=O)c1ccc(-c2c3nc(c(-c4c(F)c(F)c(F)c(F)c4F)c4ccc([nH]4)c(-c4c(F)c(F)c(F)c(F)c4F)c4nc(c(-c5c(F)c(F)c(F)c(F)c5F)c5ccc2[nH]5)C=C4)C=C3)cc1
REMARK SMILES IDX 18 1 17 2 16 3 14 4 15 5 3 6 2 7 1 8 4 9 5 12 6 13 7 14 8 15
REMARK SMILES IDX 12 16 9 17 10 18 11 19 13 20 19 21 20 22 21 23 22 24 23 25
REMARK SMILES IDX 24 26 25 27 26 28 87 29 27 30 86 31 28 32 29 33 30 34 80 35
REMARK SMILES IDX 31 36 85 37 79 38 81 39 32 40 84 41 78 42 77 43 33 45 65 46
REMARK SMILES IDX 45 47 64 48 46 49 49 50 63 51 82 52 47 53 48 54 62 56 83 57
REMARK SMILES IDX 50 58 34 59 35 60 43 61 36 62 37 63 41 64 44 65 38 66 39 67
REMARK SMILES IDX 42 68 40 69 66 70 67 71 75 72 68 73 69 74 73 75 76 76 70 77
REMARK SMILES IDX 71 78 74 79 72 80 51 81 52 82 60 83 53 84 54 85 58 86 61 87
REMARK SMILES IDX 55 88 56 89 59 90 57 91
REMARK H PARENT 4 10 4 11 81 44 49 55
REMARK Flexibility Score: inf
ROOT
ATOM      1  C   UNL A   1      32.317  30.319  25.853  1.00  0.00     0.202 C 
ENDROOT
BRANCH   1   2
ATOM      2  C   UNL A   1      33.144  29.037  25.770  1.00  0.00     0.261 C 
BRANCH   2   3
ATOM      3  O   UNL A   1      32.617  28.163  24.751  1.00  0.00    -0.459 OA
BRANCH   3   4
ATOM      4  C   UNL A   1      32.574  28.667  23.488  1.00  0.00     0.364 C 
ATOM      5  O   UNL A   1      33.510  29.217  22.921  1.00  0.00    -0.245 OA
BRANCH   4   6
ATOM      6  C   UNL A   1      31.179  28.513  22.841  1.00  0.00     0.293 C 
BRANCH   6   7
ATOM      7  C   UNL A   1      31.166  27.171  22.096  1.00  0.00     0.074 C 
ATOM      8  C   UNL A   1      31.321  25.942  22.980  1.00  0.00     0.011 C 
ENDBRANCH   6   7
BRANCH   6   9
ATOM      9  N   UNL A   1      30.711  29.763  22.208  1.00  0.00    -0.328 N 
ATOM     10  H   UNL A   1      31.295  29.899  21.383  1.00  0.00     0.347 HD
ATOM     11  H   UNL A   1      30.771  30.424  22.983  1.00  0.00     0.347 HD
BRANCH   9  12
ATOM     12  C   UNL A   1      29.337  29.949  21.763  1.00  0.00     0.216 C 
ATOM     13  C   UNL A   1      28.460  28.991  22.587  1.00  0.00     0.081 C 
BRANCH  12  14
ATOM     14  C   UNL A   1      28.877  31.366  21.891  1.00  0.00     0.074 A 
ATOM     15  C   UNL A   1      28.958  32.251  23.003  1.00  0.00     0.090 A 
ATOM     16  C   UNL A   1      28.173  32.115  20.964  1.00  0.00     0.143 A 
ATOM     17  C   UNL A   1      29.522  32.015  24.342  1.00  0.00     0.071 C 
ATOM     18  N   UNL A   1      28.406  33.440  22.743  1.00  0.00    -0.085 NA
ATOM     19  O   UNL A   1      27.917  33.350  21.462  1.00  0.00    -0.361 OA
ATOM     20  C   UNL A   1      27.650  31.862  19.607  1.00  0.00     0.091 C 
ENDBRANCH  12  14
ENDBRANCH   9  12
ENDBRANCH   6   9
ENDBRANCH   4   6
ENDBRANCH   3   4
ENDBRANCH   2   3
ENDBRANCH   1   2
BRANCH   1  21
ATOM     21  O   UNL A   1      32.540  31.066  27.051  1.00  0.00    -0.374 OA
BRANCH  21  22
ATOM     22  C   UNL A   1      31.713  32.216  27.225  1.00  0.00     0.202 C 
BRANCH  22  23
ATOM     23  C   UNL A   1      32.498  33.499  27.529  1.00  0.00     0.261 C 
BRANCH  23  24
ATOM     24  O   UNL A   1      33.908  33.304  27.307  1.00  0.00    -0.460 OA
BRANCH  24  25
ATOM     25  C   UNL A   1      34.731  34.098  28.038  1.00  0.00     0.338 C 
ATOM     26  O   UNL A   1      34.528  35.245  28.394  1.00  0.00    -0.246 OA
BRANCH  25  27
ATOM     27  C   UNL A   1      35.874  33.292  28.520  1.00  0.00     0.060 A 
ATOM     28  C   UNL A   1      35.666  31.925  28.734  1.00  0.00     0.016 A 
ATOM     29  C   UNL A   1      37.141  33.849  28.725  1.00  0.00     0.016 A 
ATOM     30  C   UNL A   1      36.713  31.115  29.177  1.00  0.00     0.010 A 
ATOM     31  C   UNL A   1      38.199  33.027  29.133  1.00  0.00     0.010 A 
ATOM     32  C   UNL A   1      37.985  31.662  29.402  1.00  0.00    -0.014 A 
BRANCH  32  33
ATOM     33  C   UNL A   1      39.023  30.861  30.109  1.00  0.00     0.031 A 
ATOM     34  C   UNL A   1      39.219  31.090  31.586  1.00  0.00     0.074 A 
ATOM     35  C   UNL A   1      39.752  29.918  29.482  1.00  0.00     0.049 A 
ATOM     36  N   UNL A   1      40.062  30.527  32.416  1.00  0.00    -0.248 NA
ATOM     37  C   UNL A   1      38.356  32.107  32.210  1.00  0.00     0.031 C 
ATOM     38  C   UNL A   1      39.672  29.582  28.063  1.00  0.00     0.029 A 
ATOM     39  N   UNL A   1      40.711  29.063  29.975  1.00  0.00    -0.354 N 
ATOM     40  C   UNL A   1      39.843  31.138  33.644  1.00  0.00     0.074 A 
ATOM     41  C   UNL A   1      38.827  32.146  33.445  1.00  0.00     0.031 C 
ATOM     42  C   UNL A   1      40.531  28.579  27.802  1.00  0.00     0.029 A 
ATOM     43  C   UNL A   1      41.244  28.221  29.028  1.00  0.00     0.049 A 
ATOM     44  H   UNL A   1      40.991  29.055  30.919  1.00  0.00     0.167 HD
ATOM     45  C   UNL A   1      40.415  30.869  34.841  1.00  0.00     0.037 A 
ATOM     46  C   UNL A   1      42.198  27.275  29.140  1.00  0.00     0.037 A 
ATOM     47  C   UNL A   1      41.393  29.841  35.064  1.00  0.00     0.049 A 
ATOM     48  C   UNL A   1      42.842  27.014  30.480  1.00  0.00     0.074 A 
ATOM     49  C   UNL A   1      41.993  29.466  36.254  1.00  0.00     0.029 A 
ATOM     50  N   UNL A   1      41.911  29.019  34.076  1.00  0.00    -0.354 N 
ATOM     51  N   UNL A   1      42.595  27.566  31.644  1.00  0.00    -0.248 NA
ATOM     52  C   UNL A   1      43.900  25.991  30.522  1.00  0.00     0.031 C 
ATOM     53  C   UNL A   1      42.906  28.444  35.979  1.00  0.00     0.029 A 
ATOM     54  C   UNL A   1      42.839  28.151  34.627  1.00  0.00     0.049 A 
ATOM     55  H   UNL A   1      41.658  29.048  33.125  1.00  0.00     0.167 HD
ATOM     56  C   UNL A   1      43.439  26.937  32.554  1.00  0.00     0.074 A 
ATOM     57  C   UNL A   1      44.196  25.954  31.813  1.00  0.00     0.031 C 
ATOM     58  C   UNL A   1      43.571  27.158  33.884  1.00  0.00     0.037 A 
BRANCH  45  59
ATOM     59  C   UNL A   1      39.994  31.713  36.007  1.00  0.00     0.064 A 
ATOM     60  C   UNL A   1      38.808  31.458  36.710  1.00  0.00     0.173 A 
ATOM     61  C   UNL A   1      40.796  32.782  36.433  1.00  0.00     0.173 A 
ATOM     62  F   UNL A   1      37.998  30.459  36.327  1.00  0.00    -0.203 F 
ATOM     63  C   UNL A   1      38.424  32.262  37.779  1.00  0.00     0.198 A 
ATOM     64  C   UNL A   1      40.425  33.565  37.522  1.00  0.00     0.198 A 
ATOM     65  F   UNL A   1      41.942  33.065  35.794  1.00  0.00    -0.203 F 
ATOM     66  F   UNL A   1      37.258  32.035  38.401  1.00  0.00    -0.200 F 
ATOM     67  C   UNL A   1      39.235  33.310  38.188  1.00  0.00     0.200 A 
ATOM     68  F   UNL A   1      41.214  34.571  37.922  1.00  0.00    -0.200 F 
ATOM     69  F   UNL A   1      38.866  34.082  39.219  1.00  0.00    -0.200 F 
ENDBRANCH  45  59
BRANCH  46  70
ATOM     70  C   UNL A   1      42.616  26.482  27.952  1.00  0.00     0.064 A 
ATOM     71  C   UNL A   1      43.560  26.986  27.045  1.00  0.00     0.173 A 
ATOM     72  C   UNL A   1      42.039  25.236  27.667  1.00  0.00     0.173 A 
ATOM     73  F   UNL A   1      44.114  28.189  27.255  1.00  0.00    -0.203 F 
ATOM     74  C   UNL A   1      43.893  26.285  25.887  1.00  0.00     0.198 A 
ATOM     75  C   UNL A   1      42.393  24.524  26.523  1.00  0.00     0.198 A 
ATOM     76  F   UNL A   1      41.120  24.717  28.493  1.00  0.00    -0.203 F 
ATOM     77  F   UNL A   1      44.753  26.817  25.009  1.00  0.00    -0.200 F 
ATOM     78  C   UNL A   1      43.313  25.053  25.629  1.00  0.00     0.200 A 
ATOM     79  F   UNL A   1      41.831  23.332  26.276  1.00  0.00    -0.200 F 
ATOM     80  F   UNL A   1      43.625  24.384  24.510  1.00  0.00    -0.200 F 
ENDBRANCH  46  70
BRANCH  58  81
ATOM     81  C   UNL A   1      44.536  26.294  34.645  1.00  0.00     0.064 A 
ATOM     82  C   UNL A   1      44.170  25.030  35.130  1.00  0.00     0.173 A 
ATOM     83  C   UNL A   1      45.862  26.712  34.836  1.00  0.00     0.173 A 
ATOM     84  F   UNL A   1      42.912  24.589  34.984  1.00  0.00    -0.203 F 
ATOM     85  C   UNL A   1      45.092  24.225  35.795  1.00  0.00     0.198 A 
ATOM     86  C   UNL A   1      46.788  25.892  35.475  1.00  0.00     0.198 A 
ATOM     87  F   UNL A   1      46.265  27.909  34.382  1.00  0.00    -0.203 F 
ATOM     88  F   UNL A   1      44.711  23.037  36.283  1.00  0.00    -0.200 F 
ATOM     89  C   UNL A   1      46.401  24.653  35.959  1.00  0.00     0.200 A 
ATOM     90  F   UNL A   1      48.056  26.302  35.618  1.00  0.00    -0.200 F 
ATOM     91  F   UNL A   1      47.290  23.871  36.587  1.00  0.00    -0.200 F 
ENDBRANCH  58  81
ENDBRANCH  32  33
ENDBRANCH  25  27
ENDBRANCH  24  25
ENDBRANCH  23  24
ENDBRANCH  22  23
ENDBRANCH  21  22
ENDBRANCH   1  21
TORSDOF 18
ENDMDL
