MODEL 1
REMARK VINA RESULT:     -11.5      0.000      0.000
REMARK SMILES O=C(OCCOCCOC(=O)c1ccc(-c2c3nc(c(-c4c(F)c(F)c(F)c(F)c4F)c4ccc([nH]4)c(-c4c(F)c(F)c(F)c(F)c4F)c4nc(c(-c5c(F)c(F)c(F)c(F)c5F)c5ccc2[nH]5)C=C4)C=C3)cc1)C1=Cc2c(ccc(Cl)c2Sc2ccccc2)O[C@H]1C(F)(F)F
REMARK SMILES IDX 6 1 5 2 4 3 3 4 2 5 1 6 75 7 76 8 92 9 77 10 91 11 78 12
REMARK SMILES IDX 83 13 79 14 81 15 80 16 82 17 93 18 94 19 95 20 96 21 84 22
REMARK SMILES IDX 85 23 86 24 90 25 87 26 89 27 88 28 7 29 8 30 9 31 10 32
REMARK SMILES IDX 11 33 12 34 13 35 74 36 14 37 73 38 15 39 16 40 17 41 67 42
REMARK SMILES IDX 18 43 72 44 66 45 68 46 19 47 71 48 65 49 64 50 20 52 52 53
REMARK SMILES IDX 32 54 51 55 33 56 36 57 50 58 69 59 34 60 35 61 49 63 70 64
REMARK SMILES IDX 37 65 21 66 22 67 30 68 23 69 24 70 28 71 31 72 25 73 26 74
REMARK SMILES IDX 29 75 27 76 53 77 54 78 62 79 55 80 56 81 60 82 63 83 57 84
REMARK SMILES IDX 58 85 61 86 59 87 38 88 39 89 47 90 40 91 41 92 45 93 48 94
REMARK SMILES IDX 42 95 43 96 46 97 44 98
REMARK H PARENT 68 51 36 62
REMARK Flexibility Score: inf
ROOT
ATOM      1  O   UNL A   1      35.113  20.698  25.346  1.00  0.00    -0.374 OA
ENDROOT
BRANCH   1   2
ATOM      2  C   UNL A   1      34.778  21.454  26.494  1.00  0.00     0.202 C 
BRANCH   2   3
ATOM      3  C   UNL A   1      33.275  21.494  26.839  1.00  0.00     0.261 C 
BRANCH   3   4
ATOM      4  O   UNL A   1      32.635  22.766  26.634  1.00  0.00    -0.460 OA
BRANCH   4   5
ATOM      5  C   UNL A   1      31.472  22.735  25.926  1.00  0.00     0.338 C 
ATOM      6  O   UNL A   1      30.617  21.894  26.019  1.00  0.00    -0.246 OA
BRANCH   5   7
ATOM      7  C   UNL A   1      31.426  23.778  24.884  1.00  0.00     0.087 C 
ATOM      8  C   UNL A   1      31.872  24.992  25.212  1.00  0.00     0.028 C 
ATOM      9  C   UNL A   1      31.393  23.367  23.435  1.00  0.00     0.316 C 
ATOM     10  C   UNL A   1      31.473  26.092  24.376  1.00  0.00     0.033 A 
ATOM     11  O   UNL A   1      31.706  24.490  22.532  1.00  0.00    -0.475 OA
ATOM     12  C   UNL A   1      31.483  25.767  23.001  1.00  0.00     0.129 A 
ATOM     13  C   UNL A   1      31.197  27.386  24.873  1.00  0.00     0.042 A 
ATOM     14  C   UNL A   1      31.357  26.773  22.062  1.00  0.00     0.049 A 
ATOM     15  C   UNL A   1      30.935  28.349  23.872  1.00  0.00     0.055 A 
ATOM     16  C   UNL A   1      31.075  28.063  22.500  1.00  0.00     0.025 A 
ATOM     17  Cl  UNL A   1      30.373  29.946  24.251  1.00  0.00    -0.083 Cl
BRANCH   9  18
ATOM     18  C   UNL A   1      32.407  22.224  23.172  1.00  0.00     0.430 C 
ATOM     19  F   UNL A   1      32.039  21.078  23.796  1.00  0.00    -0.167 F 
ATOM     20  F   UNL A   1      32.528  21.942  21.855  1.00  0.00    -0.167 F 
ATOM     21  F   UNL A   1      33.647  22.540  23.612  1.00  0.00    -0.167 F 
ENDBRANCH   9  18
BRANCH  13  22
ATOM     22  S   UNL A   1      31.403  28.041  26.553  1.00  0.00    -0.088 SA
BRANCH  22  23
ATOM     23  C   UNL A   1      32.818  29.039  26.940  1.00  0.00     0.012 A 
ATOM     24  C   UNL A   1      34.120  28.577  27.124  1.00  0.00     0.015 A 
ATOM     25  C   UNL A   1      32.572  30.395  27.251  1.00  0.00     0.015 A 
ATOM     26  C   UNL A   1      35.159  29.472  27.459  1.00  0.00     0.001 A 
ATOM     27  C   UNL A   1      33.606  31.297  27.543  1.00  0.00     0.001 A 
ATOM     28  C   UNL A   1      34.912  30.836  27.621  1.00  0.00     0.000 A 
ENDBRANCH  22  23
ENDBRANCH  13  22
ENDBRANCH   5   7
ENDBRANCH   4   5
ENDBRANCH   3   4
ENDBRANCH   2   3
ENDBRANCH   1   2
BRANCH   1  29
ATOM     29  C   UNL A   1      36.484  20.854  25.008  1.00  0.00     0.202 C 
BRANCH  29  30
ATOM     30  C   UNL A   1      37.309  21.990  25.671  1.00  0.00     0.261 C 
BRANCH  30  31
ATOM     31  O   UNL A   1      38.723  22.126  25.398  1.00  0.00    -0.460 OA
BRANCH  31  32
ATOM     32  C   UNL A   1      39.498  22.312  26.501  1.00  0.00     0.338 C 
ATOM     33  O   UNL A   1      40.028  21.411  27.136  1.00  0.00    -0.246 OA
BRANCH  32  34
ATOM     34  C   UNL A   1      39.580  23.738  26.968  1.00  0.00     0.060 A 
ATOM     35  C   UNL A   1      40.114  24.681  26.076  1.00  0.00     0.016 A 
ATOM     36  C   UNL A   1      39.328  24.146  28.286  1.00  0.00     0.016 A 
ATOM     37  C   UNL A   1      40.444  25.983  26.495  1.00  0.00     0.010 A 
ATOM     38  C   UNL A   1      39.659  25.459  28.706  1.00  0.00     0.010 A 
ATOM     39  C   UNL A   1      40.258  26.380  27.825  1.00  0.00    -0.014 A 
BRANCH  39  40
ATOM     40  C   UNL A   1      40.817  27.692  28.295  1.00  0.00     0.031 A 
ATOM     41  C   UNL A   1      42.305  27.933  28.250  1.00  0.00     0.074 A 
ATOM     42  C   UNL A   1      40.030  28.707  28.705  1.00  0.00     0.049 A 
ATOM     43  N   UNL A   1      42.981  29.023  28.523  1.00  0.00    -0.248 NA
ATOM     44  C   UNL A   1      43.137  26.801  27.821  1.00  0.00     0.031 C 
ATOM     45  C   UNL A   1      38.579  28.659  28.751  1.00  0.00     0.029 A 
ATOM     46  N   UNL A   1      40.331  29.972  29.162  1.00  0.00    -0.354 N 
ATOM     47  C   UNL A   1      44.312  28.720  28.268  1.00  0.00     0.074 A 
ATOM     48  C   UNL A   1      44.353  27.327  27.872  1.00  0.00     0.031 C 
ATOM     49  C   UNL A   1      38.105  29.811  29.254  1.00  0.00     0.029 A 
ATOM     50  C   UNL A   1      39.228  30.697  29.553  1.00  0.00     0.049 A 
ATOM     51  H   UNL A   1      41.249  30.325  29.205  1.00  0.00     0.167 HD
ATOM     52  C   UNL A   1      45.397  29.529  28.332  1.00  0.00     0.037 A 
ATOM     53  C   UNL A   1      39.124  31.933  30.088  1.00  0.00     0.037 A 
ATOM     54  C   UNL A   1      45.378  30.909  28.747  1.00  0.00     0.049 A 
ATOM     55  C   UNL A   1      40.360  32.779  30.254  1.00  0.00     0.074 A 
ATOM     56  C   UNL A   1      46.432  31.804  28.819  1.00  0.00     0.029 A 
ATOM     57  N   UNL A   1      44.251  31.588  29.183  1.00  0.00    -0.354 N 
ATOM     58  N   UNL A   1      41.600  32.502  29.937  1.00  0.00    -0.248 NA
ATOM     59  C   UNL A   1      40.177  34.124  30.825  1.00  0.00     0.031 C 
ATOM     60  C   UNL A   1      45.954  33.007  29.352  1.00  0.00     0.029 A 
ATOM     61  C   UNL A   1      44.591  32.879  29.560  1.00  0.00     0.049 A 
ATOM     62  H   UNL A   1      43.342  31.212  29.220  1.00  0.00     0.167 HD
ATOM     63  C   UNL A   1      42.336  33.643  30.230  1.00  0.00     0.074 A 
ATOM     64  C   UNL A   1      41.404  34.622  30.747  1.00  0.00     0.031 C 
ATOM     65  C   UNL A   1      43.665  33.858  30.070  1.00  0.00     0.037 A 
BRANCH  52  66
ATOM     66  C   UNL A   1      46.719  28.929  27.949  1.00  0.00     0.064 A 
ATOM     67  C   UNL A   1      47.133  28.864  26.610  1.00  0.00     0.173 A 
ATOM     68  C   UNL A   1      47.591  28.438  28.931  1.00  0.00     0.173 A 
ATOM     69  F   UNL A   1      46.331  29.313  25.632  1.00  0.00    -0.203 F 
ATOM     70  C   UNL A   1      48.359  28.300  26.265  1.00  0.00     0.198 A 
ATOM     71  C   UNL A   1      48.827  27.898  28.586  1.00  0.00     0.198 A 
ATOM     72  F   UNL A   1      47.246  28.484  30.227  1.00  0.00    -0.203 F 
ATOM     73  F   UNL A   1      48.712  28.203  24.976  1.00  0.00    -0.200 F 
ATOM     74  C   UNL A   1      49.206  27.821  27.253  1.00  0.00     0.200 A 
ATOM     75  F   UNL A   1      49.651  27.447  29.542  1.00  0.00    -0.200 F 
ATOM     76  F   UNL A   1      50.385  27.278  26.922  1.00  0.00    -0.200 F 
ENDBRANCH  52  66
BRANCH  53  77
ATOM     77  C   UNL A   1      37.793  32.460  30.496  1.00  0.00     0.064 A 
ATOM     78  C   UNL A   1      37.269  32.213  31.772  1.00  0.00     0.173 A 
ATOM     79  C   UNL A   1      37.005  33.199  29.599  1.00  0.00     0.173 A 
ATOM     80  F   UNL A   1      37.969  31.485  32.654  1.00  0.00    -0.203 F 
ATOM     81  C   UNL A   1      36.001  32.670  32.131  1.00  0.00     0.198 A 
ATOM     82  C   UNL A   1      35.749  33.676  29.968  1.00  0.00     0.198 A 
ATOM     83  F   UNL A   1      37.454  33.452  28.362  1.00  0.00    -0.203 F 
ATOM     84  F   UNL A   1      35.505  32.379  33.342  1.00  0.00    -0.200 F 
ATOM     85  C   UNL A   1      35.245  33.406  31.231  1.00  0.00     0.200 A 
ATOM     86  F   UNL A   1      35.022  34.390  29.098  1.00  0.00    -0.200 F 
ATOM     87  F   UNL A   1      34.027  33.844  31.578  1.00  0.00    -0.200 F 
ENDBRANCH  53  77
BRANCH  65  88
ATOM     88  C   UNL A   1      44.197  35.217  30.426  1.00  0.00     0.064 A 
ATOM     89  C   UNL A   1      44.219  36.270  29.499  1.00  0.00     0.173 A 
ATOM     90  C   UNL A   1      44.656  35.483  31.727  1.00  0.00     0.173 A 
ATOM     91  F   UNL A   1      43.807  36.066  28.238  1.00  0.00    -0.203 F 
ATOM     92  C   UNL A   1      44.699  37.528  29.853  1.00  0.00     0.198 A 
ATOM     93  C   UNL A   1      45.108  36.749  32.086  1.00  0.00     0.198 A 
ATOM     94  F   UNL A   1      44.653  34.514  32.655  1.00  0.00    -0.203 F 
ATOM     95  F   UNL A   1      44.751  38.506  28.937  1.00  0.00    -0.200 F 
ATOM     96  C   UNL A   1      45.135  37.769  31.146  1.00  0.00     0.200 A 
ATOM     97  F   UNL A   1      45.516  36.983  33.339  1.00  0.00    -0.200 F 
ATOM     98  F   UNL A   1      45.589  38.984  31.487  1.00  0.00    -0.200 F 
ENDBRANCH  65  88
ENDBRANCH  39  40
ENDBRANCH  32  34
ENDBRANCH  31  32
ENDBRANCH  30  31
ENDBRANCH  29  30
ENDBRANCH   1  29
TORSDOF 17
ENDMDL
MODEL 2
REMARK VINA RESULT:     -11.3      1.716      2.827
REMARK SMILES O=C(OCCOCCOC(=O)c1ccc(-c2c3nc(c(-c4c(F)c(F)c(F)c(F)c4F)c4ccc([nH]4)c(-c4c(F)c(F)c(F)c(F)c4F)c4nc(c(-c5c(F)c(F)c(F)c(F)c5F)c5ccc2[nH]5)C=C4)C=C3)cc1)C1=Cc2c(ccc(Cl)c2Sc2ccccc2)O[C@H]1C(F)(F)F
REMARK SMILES IDX 6 1 5 2 4 3 3 4 2 5 1 6 75 7 76 8 92 9 77 10 91 11 78 12
REMARK SMILES IDX 83 13 79 14 81 15 80 16 82 17 93 18 94 19 95 20 96 21 84 22
REMARK SMILES IDX 85 23 86 24 90 25 87 26 89 27 88 28 7 29 8 30 9 31 10 32
REMARK SMILES IDX 11 33 12 34 13 35 74 36 14 37 73 38 15 39 16 40 17 41 67 42
REMARK SMILES IDX 18 43 72 44 66 45 68 46 19 47 71 48 65 49 64 50 20 52 52 53
REMARK SMILES IDX 32 54 51 55 33 56 36 57 50 58 69 59 34 60 35 61 49 63 70 64
REMARK SMILES IDX 37 65 21 66 22 67 30 68 23 69 24 70 28 71 31 72 25 73 26 74
REMARK SMILES IDX 29 75 27 76 53 77 54 78 62 79 55 80 56 81 60 82 63 83 57 84
REMARK SMILES IDX 58 85 61 86 59 87 38 88 39 89 47 90 40 91 41 92 45 93 48 94
REMARK SMILES IDX 42 95 43 96 46 97 44 98
REMARK H PARENT 68 51 36 62
REMARK Flexibility Score: inf
ROOT
ATOM      1  O   UNL A   1      34.706  21.310  25.895  1.00  0.00    -0.374 OA
ENDROOT
BRANCH   1   2
ATOM      2  C   UNL A   1      34.269  21.312  27.241  1.00  0.00     0.202 C 
BRANCH   2   3
ATOM      3  C   UNL A   1      33.074  22.239  27.543  1.00  0.00     0.261 C 
BRANCH   3   4
ATOM      4  O   UNL A   1      32.816  23.246  26.549  1.00  0.00    -0.460 OA
BRANCH   4   5
ATOM      5  C   UNL A   1      31.737  23.022  25.748  1.00  0.00     0.338 C 
ATOM      6  O   UNL A   1      31.044  22.038  25.763  1.00  0.00    -0.246 OA
BRANCH   5   7
ATOM      7  C   UNL A   1      31.582  24.065  24.716  1.00  0.00     0.087 C 
ATOM      8  C   UNL A   1      31.955  25.305  25.038  1.00  0.00     0.028 C 
ATOM      9  C   UNL A   1      31.526  23.660  23.267  1.00  0.00     0.316 C 
ATOM     10  C   UNL A   1      31.453  26.379  24.225  1.00  0.00     0.033 A 
ATOM     11  O   UNL A   1      31.729  24.806  22.362  1.00  0.00    -0.475 OA
ATOM     12  C   UNL A   1      31.436  26.063  22.847  1.00  0.00     0.129 A 
ATOM     13  C   UNL A   1      31.106  27.649  24.741  1.00  0.00     0.042 A 
ATOM     14  C   UNL A   1      31.208  27.062  21.921  1.00  0.00     0.049 A 
ATOM     15  C   UNL A   1      30.743  28.596  23.757  1.00  0.00     0.055 A 
ATOM     16  C   UNL A   1      30.854  28.327  22.378  1.00  0.00     0.025 A 
ATOM     17  Cl  UNL A   1      30.087  30.149  24.167  1.00  0.00    -0.083 Cl
BRANCH   9  18
ATOM     18  C   UNL A   1      32.606  22.591  22.960  1.00  0.00     0.430 C 
ATOM     19  F   UNL A   1      32.184  21.347  23.293  1.00  0.00    -0.167 F 
ATOM     20  F   UNL A   1      32.939  22.563  21.649  1.00  0.00    -0.167 F 
ATOM     21  F   UNL A   1      33.752  22.821  23.642  1.00  0.00    -0.167 F 
ENDBRANCH   9  18
BRANCH  13  22
ATOM     22  S   UNL A   1      31.326  28.308  26.417  1.00  0.00    -0.088 SA
BRANCH  22  23
ATOM     23  C   UNL A   1      32.808  29.194  26.826  1.00  0.00     0.012 A 
ATOM     24  C   UNL A   1      34.081  28.643  26.960  1.00  0.00     0.015 A 
ATOM     25  C   UNL A   1      32.653  30.545  27.211  1.00  0.00     0.015 A 
ATOM     26  C   UNL A   1      35.180  29.452  27.319  1.00  0.00     0.001 A 
ATOM     27  C   UNL A   1      33.748  31.364  27.527  1.00  0.00     0.001 A 
ATOM     28  C   UNL A   1      35.023  30.819  27.555  1.00  0.00     0.000 A 
ENDBRANCH  22  23
ENDBRANCH  13  22
ENDBRANCH   5   7
ENDBRANCH   4   5
ENDBRANCH   3   4
ENDBRANCH   2   3
ENDBRANCH   1   2
BRANCH   1  29
ATOM     29  C   UNL A   1      36.033  21.805  25.783  1.00  0.00     0.202 C 
BRANCH  29  30
ATOM     30  C   UNL A   1      36.313  23.307  26.064  1.00  0.00     0.261 C 
BRANCH  30  31
ATOM     31  O   UNL A   1      37.492  23.948  25.522  1.00  0.00    -0.460 OA
BRANCH  31  32
ATOM     32  C   UNL A   1      38.669  23.488  26.024  1.00  0.00     0.338 C 
ATOM     33  O   UNL A   1      39.048  22.327  25.951  1.00  0.00    -0.246 OA
BRANCH  32  34
ATOM     34  C   UNL A   1      39.457  24.510  26.794  1.00  0.00     0.060 A 
ATOM     35  C   UNL A   1      39.233  24.592  28.177  1.00  0.00     0.016 A 
ATOM     36  C   UNL A   1      40.256  25.495  26.196  1.00  0.00     0.016 A 
ATOM     37  C   UNL A   1      39.742  25.658  28.942  1.00  0.00     0.010 A 
ATOM     38  C   UNL A   1      40.771  26.567  26.968  1.00  0.00     0.010 A 
ATOM     39  C   UNL A   1      40.487  26.682  28.343  1.00  0.00    -0.014 A 
BRANCH  39  40
ATOM     40  C   UNL A   1      40.831  27.912  29.133  1.00  0.00     0.031 A 
ATOM     41  C   UNL A   1      42.217  28.072  29.705  1.00  0.00     0.074 A 
ATOM     42  C   UNL A   1      39.960  28.927  29.304  1.00  0.00     0.049 A 
ATOM     43  N   UNL A   1      42.743  29.093  30.338  1.00  0.00    -0.248 NA
ATOM     44  C   UNL A   1      43.134  26.940  29.521  1.00  0.00     0.031 C 
ATOM     45  C   UNL A   1      38.610  28.956  28.768  1.00  0.00     0.029 A 
ATOM     46  N   UNL A   1      40.072  30.126  29.974  1.00  0.00    -0.354 N 
ATOM     47  C   UNL A   1      44.061  28.741  30.598  1.00  0.00     0.074 A 
ATOM     48  C   UNL A   1      44.236  27.390  30.105  1.00  0.00     0.031 C 
ATOM     49  C   UNL A   1      37.992  30.082  29.162  1.00  0.00     0.029 A 
ATOM     50  C   UNL A   1      38.916  30.873  29.973  1.00  0.00     0.049 A 
ATOM     51  H   UNL A   1      40.902  30.421  30.414  1.00  0.00     0.167 HD
ATOM     52  C   UNL A   1      45.042  29.479  31.171  1.00  0.00     0.037 A 
ATOM     53  C   UNL A   1      38.626  32.057  30.552  1.00  0.00     0.037 A 
ATOM     54  C   UNL A   1      44.879  30.813  31.690  1.00  0.00     0.049 A 
ATOM     55  C   UNL A   1      39.705  32.815  31.281  1.00  0.00     0.074 A 
ATOM     56  C   UNL A   1      45.830  31.639  32.267  1.00  0.00     0.029 A 
ATOM     57  N   UNL A   1      43.682  31.512  31.715  1.00  0.00    -0.354 N 
ATOM     58  N   UNL A   1      40.964  32.499  31.453  1.00  0.00    -0.248 NA
ATOM     59  C   UNL A   1      39.329  34.109  31.874  1.00  0.00     0.031 C 
ATOM     60  C   UNL A   1      45.197  32.812  32.693  1.00  0.00     0.029 A 
ATOM     61  C   UNL A   1      43.863  32.742  32.331  1.00  0.00     0.049 A 
ATOM     62  H   UNL A   1      42.828  31.185  31.349  1.00  0.00     0.167 HD
ATOM     63  C   UNL A   1      41.539  33.566  32.132  1.00  0.00     0.074 A 
ATOM     64  C   UNL A   1      40.492  34.543  32.341  1.00  0.00     0.031 C 
ATOM     65  C   UNL A   1      42.824  33.720  32.535  1.00  0.00     0.037 A 
BRANCH  52  66
ATOM     66  C   UNL A   1      46.399  28.844  31.280  1.00  0.00     0.064 A 
ATOM     67  C   UNL A   1      46.768  28.096  32.408  1.00  0.00     0.173 A 
ATOM     68  C   UNL A   1      47.328  28.962  30.237  1.00  0.00     0.173 A 
ATOM     69  F   UNL A   1      45.917  27.960  33.437  1.00  0.00    -0.203 F 
ATOM     70  C   UNL A   1      48.031  27.516  32.501  1.00  0.00     0.198 A 
ATOM     71  C   UNL A   1      48.580  28.359  30.322  1.00  0.00     0.198 A 
ATOM     72  F   UNL A   1      47.021  29.659  29.133  1.00  0.00    -0.203 F 
ATOM     73  F   UNL A   1      48.380  26.848  33.610  1.00  0.00    -0.200 F 
ATOM     74  C   UNL A   1      48.934  27.644  31.457  1.00  0.00     0.200 A 
ATOM     75  F   UNL A   1      49.448  28.473  29.307  1.00  0.00    -0.200 F 
ATOM     76  F   UNL A   1      50.148  27.087  31.547  1.00  0.00    -0.200 F 
ENDBRANCH  52  66
BRANCH  53  77
ATOM     77  C   UNL A   1      37.250  32.619  30.454  1.00  0.00     0.064 A 
ATOM     78  C   UNL A   1      36.868  33.433  29.380  1.00  0.00     0.173 A 
ATOM     79  C   UNL A   1      36.299  32.374  31.457  1.00  0.00     0.173 A 
ATOM     80  F   UNL A   1      37.750  33.723  28.412  1.00  0.00    -0.203 F 
ATOM     81  C   UNL A   1      35.593  33.994  29.318  1.00  0.00     0.198 A 
ATOM     82  C   UNL A   1      35.016  32.915  31.382  1.00  0.00     0.198 A 
ATOM     83  F   UNL A   1      36.616  31.613  32.513  1.00  0.00    -0.203 F 
ATOM     84  F   UNL A   1      35.269  34.808  28.303  1.00  0.00    -0.200 F 
ATOM     85  C   UNL A   1      34.667  33.731  30.316  1.00  0.00     0.200 A 
ATOM     86  F   UNL A   1      34.123  32.656  32.346  1.00  0.00    -0.200 F 
ATOM     87  F   UNL A   1      33.442  34.272  30.256  1.00  0.00    -0.200 F 
ENDBRANCH  53  77
BRANCH  65  88
ATOM     88  C   UNL A   1      43.190  35.009  33.214  1.00  0.00     0.064 A 
ATOM     89  C   UNL A   1      43.197  35.133  34.611  1.00  0.00     0.173 A 
ATOM     90  C   UNL A   1      43.579  36.125  32.456  1.00  0.00     0.173 A 
ATOM     91  F   UNL A   1      42.819  34.102  35.382  1.00  0.00    -0.203 F 
ATOM     92  C   UNL A   1      43.558  36.332  35.223  1.00  0.00     0.198 A 
ATOM     93  C   UNL A   1      43.967  37.313  33.071  1.00  0.00     0.198 A 
ATOM     94  F   UNL A   1      43.595  36.060  31.116  1.00  0.00    -0.203 F 
ATOM     95  F   UNL A   1      43.514  36.440  36.558  1.00  0.00    -0.200 F 
ATOM     96  C   UNL A   1      43.950  37.417  34.454  1.00  0.00     0.200 A 
ATOM     97  F   UNL A   1      44.358  38.355  32.327  1.00  0.00    -0.200 F 
ATOM     98  F   UNL A   1      44.305  38.566  35.045  1.00  0.00    -0.200 F 
ENDBRANCH  65  88
ENDBRANCH  39  40
ENDBRANCH  32  34
ENDBRANCH  31  32
ENDBRANCH  30  31
ENDBRANCH  29  30
ENDBRANCH   1  29
TORSDOF 17
ENDMDL
MODEL 3
REMARK VINA RESULT:     -11.3      4.902      9.570
REMARK SMILES O=C(OCCOCCOC(=O)c1ccc(-c2c3nc(c(-c4c(F)c(F)c(F)c(F)c4F)c4ccc([nH]4)c(-c4c(F)c(F)c(F)c(F)c4F)c4nc(c(-c5c(F)c(F)c(F)c(F)c5F)c5ccc2[nH]5)C=C4)C=C3)cc1)C1=Cc2c(ccc(Cl)c2Sc2ccccc2)O[C@H]1C(F)(F)F
REMARK SMILES IDX 6 1 5 2 4 3 3 4 2 5 1 6 75 7 76 8 92 9 77 10 91 11 78 12
REMARK SMILES IDX 83 13 79 14 81 15 80 16 82 17 93 18 94 19 95 20 96 21 84 22
REMARK SMILES IDX 85 23 86 24 90 25 87 26 89 27 88 28 7 29 8 30 9 31 10 32
REMARK SMILES IDX 11 33 12 34 13 35 74 36 14 37 73 38 15 39 16 40 17 41 67 42
REMARK SMILES IDX 18 43 72 44 66 45 68 46 19 47 71 48 65 49 64 50 20 52 52 53
REMARK SMILES IDX 32 54 51 55 33 56 36 57 50 58 69 59 34 60 35 61 49 63 70 64
REMARK SMILES IDX 37 65 21 66 22 67 30 68 23 69 24 70 28 71 31 72 25 73 26 74
REMARK SMILES IDX 29 75 27 76 53 77 54 78 62 79 55 80 56 81 60 82 63 83 57 84
REMARK SMILES IDX 58 85 61 86 59 87 38 88 39 89 47 90 40 91 41 92 45 93 48 94
REMARK SMILES IDX 42 95 43 96 46 97 44 98
REMARK H PARENT 68 51 36 62
REMARK Flexibility Score: inf
ROOT
ATOM      1  O   UNL A   1      34.481  31.286  28.064  1.00  0.00    -0.374 OA
ENDROOT
BRANCH   1   2
ATOM      2  C   UNL A   1      34.722  29.954  27.654  1.00  0.00     0.202 C 
BRANCH   2   3
ATOM      3  C   UNL A   1      33.459  29.108  27.391  1.00  0.00     0.261 C 
BRANCH   3   4
ATOM      4  O   UNL A   1      33.692  27.853  26.728  1.00  0.00    -0.460 OA
BRANCH   4   5
ATOM      5  C   UNL A   1      33.714  27.900  25.367  1.00  0.00     0.338 C 
ATOM      6  O   UNL A   1      34.241  28.755  24.703  1.00  0.00    -0.246 OA
BRANCH   5   7
ATOM      7  C   UNL A   1      32.871  26.853  24.760  1.00  0.00     0.087 C 
ATOM      8  C   UNL A   1      32.740  25.707  25.429  1.00  0.00     0.028 C 
ATOM      9  C   UNL A   1      31.822  27.249  23.754  1.00  0.00     0.316 C 
ATOM     10  C   UNL A   1      32.275  24.561  24.694  1.00  0.00     0.033 A 
ATOM     11  O   UNL A   1      30.846  26.170  23.516  1.00  0.00    -0.475 OA
ATOM     12  C   UNL A   1      31.247  24.877  23.777  1.00  0.00     0.129 A 
ATOM     13  C   UNL A   1      32.731  23.245  24.937  1.00  0.00     0.042 A 
ATOM     14  C   UNL A   1      30.537  23.859  23.172  1.00  0.00     0.049 A 
ATOM     15  C   UNL A   1      32.064  22.252  24.184  1.00  0.00     0.055 A 
ATOM     16  C   UNL A   1      30.952  22.546  23.371  1.00  0.00     0.025 A 
ATOM     17  Cl  UNL A   1      32.591  20.599  24.163  1.00  0.00    -0.083 Cl
BRANCH   9  18
ATOM     18  C   UNL A   1      31.057  28.509  24.235  1.00  0.00     0.430 C 
ATOM     19  F   UNL A   1      31.728  29.646  23.932  1.00  0.00    -0.167 F 
ATOM     20  F   UNL A   1      29.829  28.607  23.674  1.00  0.00    -0.167 F 
ATOM     21  F   UNL A   1      30.866  28.501  25.575  1.00  0.00    -0.167 F 
ENDBRANCH   9  18
BRANCH  13  22
ATOM     22  S   UNL A   1      33.826  22.630  26.246  1.00  0.00    -0.088 SA
BRANCH  22  23
ATOM     23  C   UNL A   1      35.537  22.323  25.890  1.00  0.00     0.012 A 
ATOM     24  C   UNL A   1      36.562  23.266  25.925  1.00  0.00     0.015 A 
ATOM     25  C   UNL A   1      35.857  21.051  25.365  1.00  0.00     0.015 A 
ATOM     26  C   UNL A   1      37.884  22.902  25.590  1.00  0.00     0.001 A 
ATOM     27  C   UNL A   1      37.175  20.671  25.072  1.00  0.00     0.001 A 
ATOM     28  C   UNL A   1      38.199  21.596  25.211  1.00  0.00     0.000 A 
ENDBRANCH  22  23
ENDBRANCH  13  22
ENDBRANCH   5   7
ENDBRANCH   4   5
ENDBRANCH   3   4
ENDBRANCH   2   3
ENDBRANCH   1   2
BRANCH   1  29
ATOM     29  C   UNL A   1      33.260  31.779  27.530  1.00  0.00     0.202 C 
BRANCH  29  30
ATOM     30  C   UNL A   1      33.036  33.312  27.428  1.00  0.00     0.261 C 
BRANCH  30  31
ATOM     31  O   UNL A   1      32.306  34.017  28.459  1.00  0.00    -0.460 OA
BRANCH  31  32
ATOM     32  C   UNL A   1      32.963  35.082  28.992  1.00  0.00     0.338 C 
ATOM     33  O   UNL A   1      32.654  36.251  28.806  1.00  0.00    -0.246 OA
BRANCH  32  34
ATOM     34  C   UNL A   1      34.201  34.724  29.766  1.00  0.00     0.060 A 
ATOM     35  C   UNL A   1      35.414  34.680  29.062  1.00  0.00     0.016 A 
ATOM     36  C   UNL A   1      34.189  34.260  31.089  1.00  0.00     0.016 A 
ATOM     37  C   UNL A   1      36.578  34.136  29.637  1.00  0.00     0.010 A 
ATOM     38  C   UNL A   1      35.362  33.715  31.669  1.00  0.00     0.010 A 
ATOM     39  C   UNL A   1      36.560  33.610  30.935  1.00  0.00    -0.014 A 
BRANCH  39  40
ATOM     40  C   UNL A   1      37.747  32.843  31.443  1.00  0.00     0.031 A 
ATOM     41  C   UNL A   1      38.436  33.281  32.711  1.00  0.00     0.074 A 
ATOM     42  C   UNL A   1      38.194  31.722  30.841  1.00  0.00     0.049 A 
ATOM     43  N   UNL A   1      39.417  32.708  33.365  1.00  0.00    -0.248 NA
ATOM     44  C   UNL A   1      37.941  34.516  33.330  1.00  0.00     0.031 C 
ATOM     45  C   UNL A   1      37.606  31.135  29.649  1.00  0.00     0.029 A 
ATOM     46  N   UNL A   1      39.242  30.879  31.139  1.00  0.00    -0.354 N 
ATOM     47  C   UNL A   1      39.634  33.492  34.490  1.00  0.00     0.074 A 
ATOM     48  C   UNL A   1      38.720  34.613  34.398  1.00  0.00     0.031 C 
ATOM     49  C   UNL A   1      38.319  30.058  29.278  1.00  0.00     0.029 A 
ATOM     50  C   UNL A   1      39.415  29.864  30.225  1.00  0.00     0.049 A 
ATOM     51  H   UNL A   1      39.815  30.991  31.933  1.00  0.00     0.167 HD
ATOM     52  C   UNL A   1      40.494  33.290  35.518  1.00  0.00     0.037 A 
ATOM     53  C   UNL A   1      40.344  28.887  30.152  1.00  0.00     0.037 A 
ATOM     54  C   UNL A   1      41.426  32.196  35.613  1.00  0.00     0.049 A 
ATOM     55  C   UNL A   1      41.364  28.744  31.251  1.00  0.00     0.074 A 
ATOM     56  C   UNL A   1      42.318  31.907  36.633  1.00  0.00     0.029 A 
ATOM     57  N   UNL A   1      41.605  31.221  34.643  1.00  0.00    -0.354 N 
ATOM     58  N   UNL A   1      41.506  29.451  32.344  1.00  0.00    -0.248 NA
ATOM     59  C   UNL A   1      42.337  27.646  31.121  1.00  0.00     0.031 C 
ATOM     60  C   UNL A   1      43.076  30.792  36.255  1.00  0.00     0.029 A 
ATOM     61  C   UNL A   1      42.618  30.352  35.025  1.00  0.00     0.049 A 
ATOM     62  H   UNL A   1      41.089  31.153  33.807  1.00  0.00     0.167 HD
ATOM     63  C   UNL A   1      42.549  28.865  33.049  1.00  0.00     0.074 A 
ATOM     64  C   UNL A   1      43.006  27.739  32.263  1.00  0.00     0.031 C 
ATOM     65  C   UNL A   1      43.071  29.227  34.247  1.00  0.00     0.037 A 
BRANCH  52  66
ATOM     66  C   UNL A   1      40.474  34.296  36.633  1.00  0.00     0.064 A 
ATOM     67  C   UNL A   1      39.593  34.168  37.718  1.00  0.00     0.173 A 
ATOM     68  C   UNL A   1      41.361  35.382  36.630  1.00  0.00     0.173 A 
ATOM     69  F   UNL A   1      38.720  33.151  37.763  1.00  0.00    -0.203 F 
ATOM     70  C   UNL A   1      39.579  35.110  38.744  1.00  0.00     0.198 A 
ATOM     71  C   UNL A   1      41.362  36.307  37.670  1.00  0.00     0.198 A 
ATOM     72  F   UNL A   1      42.229  35.544  35.621  1.00  0.00    -0.203 F 
ATOM     73  F   UNL A   1      38.695  34.996  39.744  1.00  0.00    -0.200 F 
ATOM     74  C   UNL A   1      40.466  36.176  38.721  1.00  0.00     0.200 A 
ATOM     75  F   UNL A   1      42.228  37.330  37.654  1.00  0.00    -0.200 F 
ATOM     76  F   UNL A   1      40.452  37.082  39.708  1.00  0.00    -0.200 F 
ENDBRANCH  52  66
BRANCH  53  77
ATOM     77  C   UNL A   1      40.348  27.946  28.998  1.00  0.00     0.064 A 
ATOM     78  C   UNL A   1      41.007  28.260  27.801  1.00  0.00     0.173 A 
ATOM     79  C   UNL A   1      39.661  26.724  29.062  1.00  0.00     0.173 A 
ATOM     80  F   UNL A   1      41.651  29.430  27.678  1.00  0.00    -0.203 F 
ATOM     81  C   UNL A   1      40.967  27.395  26.708  1.00  0.00     0.198 A 
ATOM     82  C   UNL A   1      39.643  25.849  27.977  1.00  0.00     0.198 A 
ATOM     83  F   UNL A   1      39.003  26.381  30.178  1.00  0.00    -0.203 F 
ATOM     84  F   UNL A   1      41.567  27.741  25.561  1.00  0.00    -0.200 F 
ATOM     85  C   UNL A   1      40.290  26.188  26.799  1.00  0.00     0.200 A 
ATOM     86  F   UNL A   1      38.990  24.682  28.069  1.00  0.00    -0.200 F 
ATOM     87  F   UNL A   1      40.252  25.359  25.747  1.00  0.00    -0.200 F 
ENDBRANCH  53  77
BRANCH  65  88
ATOM     88  C   UNL A   1      44.176  28.378  34.809  1.00  0.00     0.064 A 
ATOM     89  C   UNL A   1      43.914  27.253  35.605  1.00  0.00     0.173 A 
ATOM     90  C   UNL A   1      45.517  28.673  34.513  1.00  0.00     0.173 A 
ATOM     91  F   UNL A   1      42.651  26.938  35.931  1.00  0.00    -0.203 F 
ATOM     92  C   UNL A   1      44.952  26.469  36.101  1.00  0.00     0.198 A 
ATOM     93  C   UNL A   1      46.551  27.869  34.987  1.00  0.00     0.198 A 
ATOM     94  F   UNL A   1      45.824  29.734  33.752  1.00  0.00    -0.203 F 
ATOM     95  F   UNL A   1      44.680  25.425  36.897  1.00  0.00    -0.200 F 
ATOM     96  C   UNL A   1      46.268  26.772  35.786  1.00  0.00     0.200 A 
ATOM     97  F   UNL A   1      47.820  28.157  34.670  1.00  0.00    -0.200 F 
ATOM     98  F   UNL A   1      47.265  26.010  36.258  1.00  0.00    -0.200 F 
ENDBRANCH  65  88
ENDBRANCH  39  40
ENDBRANCH  32  34
ENDBRANCH  31  32
ENDBRANCH  30  31
ENDBRANCH  29  30
ENDBRANCH   1  29
TORSDOF 17
ENDMDL
