MODEL 1
REMARK VINA RESULT:     -10.6      0.000      0.000
REMARK SMILES COC(=O)c1ccc([C@H]([NH3+])CC(=O)OCCOCCOC(=O)c2ccc(-c3c4nc(c(-c5c(F)c(F)c(F)c(F)c5F)c5ccc([nH]5)c(-c5c(F)c(F)c(F)c(F)c5F)c5nc(c(-c6c(F)c(F)c(F)c(F)c6F)c6ccc3[nH]6)C=C5)C=C4)cc2)cc1
REMARK SMILES IDX 16 1 15 2 14 3 12 4 13 5 11 6 9 7 8 8 5 9 6 10 87 11 7 12
REMARK SMILES IDX 86 13 3 14 4 15 2 16 1 17 10 18 17 22 18 23 19 24 20 25
REMARK SMILES IDX 21 26 22 27 23 28 24 29 85 30 25 31 84 32 26 33 27 34 28 35
REMARK SMILES IDX 78 36 29 37 83 38 77 39 79 40 30 41 82 42 76 43 75 44 31 46
REMARK SMILES IDX 63 47 43 48 62 49 44 50 47 51 61 52 80 53 45 54 46 55 60 57
REMARK SMILES IDX 81 58 48 59 32 60 33 61 41 62 34 63 35 64 39 65 42 66 36 67
REMARK SMILES IDX 37 68 40 69 38 70 64 71 65 72 73 73 66 74 67 75 71 76 74 77
REMARK SMILES IDX 68 78 69 79 72 80 70 81 49 82 50 83 58 84 51 85 52 86 56 87
REMARK SMILES IDX 59 88 53 89 54 90 57 91 55 92
REMARK H PARENT 10 19 10 20 10 21 79 45 47 56
REMARK Flexibility Score: inf
ROOT
ATOM      1  C   UNL A   1      36.788  22.364  25.278  1.00  0.00     0.202 C 
ENDROOT
BRANCH   1   2
ATOM      2  C   UNL A   1      36.361  23.626  24.523  1.00  0.00     0.261 C 
BRANCH   2   3
ATOM      3  O   UNL A   1      35.644  23.325  23.310  1.00  0.00    -0.463 OA
BRANCH   3   4
ATOM      4  C   UNL A   1      34.427  23.918  23.203  1.00  0.00     0.312 C 
ATOM      5  O   UNL A   1      34.153  24.808  22.404  1.00  0.00    -0.252 OA
BRANCH   4   6
ATOM      6  C   UNL A   1      33.415  23.439  24.213  1.00  0.00     0.192 C 
BRANCH   6   7
ATOM      7  C   UNL A   1      32.219  22.584  23.743  1.00  0.00     0.223 C 
BRANCH   7   8
ATOM      8  C   UNL A   1      32.509  21.073  23.779  1.00  0.00     0.010 A 
ATOM      9  C   UNL A   1      33.073  18.288  23.859  1.00  0.00     0.060 A 
ATOM     10  C   UNL A   1      33.546  19.133  24.867  1.00  0.00     0.016 A 
ATOM     11  C   UNL A   1      32.345  18.833  22.801  1.00  0.00     0.016 A 
ATOM     12  C   UNL A   1      33.281  20.509  24.815  1.00  0.00     0.011 A 
ATOM     13  C   UNL A   1      32.078  20.205  22.760  1.00  0.00     0.011 A 
BRANCH   9  14
ATOM     14  C   UNL A   1      33.335  16.829  23.946  1.00  0.00     0.337 C 
ATOM     15  O   UNL A   1      34.078  16.226  23.184  1.00  0.00    -0.246 OA
BRANCH  14  16
ATOM     16  O   UNL A   1      32.630  16.294  24.972  1.00  0.00    -0.465 OA
ATOM     17  C   UNL A   1      32.982  14.953  25.314  1.00  0.00     0.282 C 
ENDBRANCH  14  16
ENDBRANCH   9  14
ENDBRANCH   7   8
BRANCH   7  18
ATOM     18  N   UNL A   1      31.785  22.991  22.398  1.00  0.00    -0.351 N 
ATOM     19  H   UNL A   1      32.012  22.255  21.729  1.00  0.00     0.345 HD
ATOM     20  H   UNL A   1      32.263  23.852  22.131  1.00  0.00     0.345 HD
ATOM     21  H   UNL A   1      30.777  23.150  22.399  1.00  0.00     0.345 HD
ENDBRANCH   7  18
ENDBRANCH   6   7
ENDBRANCH   4   6
ENDBRANCH   3   4
ENDBRANCH   2   3
ENDBRANCH   1   2
BRANCH   1  22
ATOM     22  O   UNL A   1      37.601  21.432  24.571  1.00  0.00    -0.374 OA
BRANCH  22  23
ATOM     23  C   UNL A   1      37.695  20.106  25.087  1.00  0.00     0.202 C 
BRANCH  23  24
ATOM     24  C   UNL A   1      39.104  19.552  25.335  1.00  0.00     0.261 C 
BRANCH  24  25
ATOM     25  O   UNL A   1      39.634  19.948  26.614  1.00  0.00    -0.460 OA
BRANCH  25  26
ATOM     26  C   UNL A   1      40.935  20.323  26.593  1.00  0.00     0.338 C 
ATOM     27  O   UNL A   1      41.870  19.729  26.076  1.00  0.00    -0.246 OA
BRANCH  26  28
ATOM     28  C   UNL A   1      41.088  21.685  27.135  1.00  0.00     0.060 A 
ATOM     29  C   UNL A   1      40.488  22.729  26.421  1.00  0.00     0.016 A 
ATOM     30  C   UNL A   1      41.889  21.953  28.247  1.00  0.00     0.016 A 
ATOM     31  C   UNL A   1      40.736  24.052  26.778  1.00  0.00     0.010 A 
ATOM     32  C   UNL A   1      42.145  23.284  28.600  1.00  0.00     0.010 A 
ATOM     33  C   UNL A   1      41.605  24.339  27.840  1.00  0.00    -0.014 A 
BRANCH  33  34
ATOM     34  C   UNL A   1      42.066  25.737  28.031  1.00  0.00     0.031 A 
ATOM     35  C   UNL A   1      43.390  26.155  27.453  1.00  0.00     0.074 A 
ATOM     36  C   UNL A   1      41.288  26.639  28.654  1.00  0.00     0.049 A 
ATOM     37  N   UNL A   1      43.975  27.326  27.473  1.00  0.00    -0.248 NA
ATOM     38  C   UNL A   1      44.158  25.112  26.754  1.00  0.00     0.031 C 
ATOM     39  C   UNL A   1      39.970  26.368  29.222  1.00  0.00     0.029 A 
ATOM     40  N   UNL A   1      41.497  27.973  28.907  1.00  0.00    -0.354 N 
ATOM     41  C   UNL A   1      45.175  27.161  26.793  1.00  0.00     0.074 A 
ATOM     42  C   UNL A   1      45.253  25.770  26.403  1.00  0.00     0.031 C 
ATOM     43  C   UNL A   1      39.487  27.500  29.762  1.00  0.00     0.029 A 
ATOM     44  C   UNL A   1      40.472  28.568  29.597  1.00  0.00     0.049 A 
ATOM     45  H   UNL A   1      42.307  28.454  28.620  1.00  0.00     0.167 HD
ATOM     46  C   UNL A   1      46.122  28.088  26.509  1.00  0.00     0.037 A 
ATOM     47  C   UNL A   1      40.349  29.829  30.055  1.00  0.00     0.037 A 
ATOM     48  C   UNL A   1      46.043  29.472  26.894  1.00  0.00     0.049 A 
ATOM     49  C   UNL A   1      41.446  30.827  29.779  1.00  0.00     0.074 A 
ATOM     50  C   UNL A   1      46.943  30.492  26.636  1.00  0.00     0.029 A 
ATOM     51  N   UNL A   1      45.006  30.030  27.625  1.00  0.00    -0.354 N 
ATOM     52  N   UNL A   1      42.562  30.669  29.110  1.00  0.00    -0.248 NA
ATOM     53  C   UNL A   1      41.259  32.182  30.318  1.00  0.00     0.031 C 
ATOM     54  C   UNL A   1      46.474  31.656  27.254  1.00  0.00     0.029 A 
ATOM     55  C   UNL A   1      45.255  31.374  27.850  1.00  0.00     0.049 A 
ATOM     56  H   UNL A   1      44.210  29.543  27.938  1.00  0.00     0.167 HD
ATOM     57  C   UNL A   1      43.194  31.906  29.122  1.00  0.00     0.074 A 
ATOM     58  C   UNL A   1      42.331  32.809  29.854  1.00  0.00     0.031 C 
ATOM     59  C   UNL A   1      44.382  32.263  28.575  1.00  0.00     0.037 A 
BRANCH  46  60
ATOM     60  C   UNL A   1      47.338  27.628  25.761  1.00  0.00     0.064 A 
ATOM     61  C   UNL A   1      47.411  27.690  24.361  1.00  0.00     0.173 A 
ATOM     62  C   UNL A   1      48.459  27.148  26.456  1.00  0.00     0.173 A 
ATOM     63  F   UNL A   1      46.361  28.128  23.650  1.00  0.00    -0.203 F 
ATOM     64  C   UNL A   1      48.551  27.267  23.684  1.00  0.00     0.198 A 
ATOM     65  C   UNL A   1      49.608  26.751  25.776  1.00  0.00     0.198 A 
ATOM     66  F   UNL A   1      48.442  27.071  27.795  1.00  0.00    -0.203 F 
ATOM     67  F   UNL A   1      48.582  27.294  22.344  1.00  0.00    -0.200 F 
ATOM     68  C   UNL A   1      49.651  26.805  24.392  1.00  0.00     0.200 A 
ATOM     69  F   UNL A   1      50.673  26.316  26.463  1.00  0.00    -0.200 F 
ATOM     70  F   UNL A   1      50.751  26.404  23.739  1.00  0.00    -0.200 F 
ENDBRANCH  46  60
BRANCH  47  71
ATOM     71  C   UNL A   1      39.143  30.225  30.825  1.00  0.00     0.064 A 
ATOM     72  C   UNL A   1      38.023  30.776  30.187  1.00  0.00     0.173 A 
ATOM     73  C   UNL A   1      39.093  30.079  32.219  1.00  0.00     0.173 A 
ATOM     74  F   UNL A   1      38.032  30.959  28.858  1.00  0.00    -0.203 F 
ATOM     75  C   UNL A   1      36.906  31.181  30.916  1.00  0.00     0.198 A 
ATOM     76  C   UNL A   1      37.965  30.458  32.944  1.00  0.00     0.198 A 
ATOM     77  F   UNL A   1      40.139  29.560  32.878  1.00  0.00    -0.203 F 
ATOM     78  F   UNL A   1      35.867  31.747  30.286  1.00  0.00    -0.200 F 
ATOM     79  C   UNL A   1      36.876  31.017  32.293  1.00  0.00     0.200 A 
ATOM     80  F   UNL A   1      37.936  30.287  34.272  1.00  0.00    -0.200 F 
ATOM     81  F   UNL A   1      35.800  31.404  32.992  1.00  0.00    -0.200 F 
ENDBRANCH  47  71
BRANCH  59  82
ATOM     82  C   UNL A   1      44.803  33.698  28.714  1.00  0.00     0.064 A 
ATOM     83  C   UNL A   1      44.413  34.673  27.783  1.00  0.00     0.173 A 
ATOM     84  C   UNL A   1      45.576  34.108  29.811  1.00  0.00     0.173 A 
ATOM     85  F   UNL A   1      43.685  34.330  26.710  1.00  0.00    -0.203 F 
ATOM     86  C   UNL A   1      44.805  36.001  27.933  1.00  0.00     0.198 A 
ATOM     87  C   UNL A   1      45.941  35.443  29.972  1.00  0.00     0.198 A 
ATOM     88  F   UNL A   1      45.969  33.217  30.733  1.00  0.00    -0.203 F 
ATOM     89  F   UNL A   1      44.463  36.907  27.006  1.00  0.00    -0.200 F 
ATOM     90  C   UNL A   1      45.562  36.386  29.030  1.00  0.00     0.200 A 
ATOM     91  F   UNL A   1      46.661  35.814  31.040  1.00  0.00    -0.200 F 
ATOM     92  F   UNL A   1      45.935  37.665  29.173  1.00  0.00    -0.200 F 
ENDBRANCH  59  82
ENDBRANCH  33  34
ENDBRANCH  26  28
ENDBRANCH  25  26
ENDBRANCH  24  25
ENDBRANCH  23  24
ENDBRANCH  22  23
ENDBRANCH   1  22
TORSDOF 19
ENDMDL
MODEL 2
REMARK VINA RESULT:     -10.5      0.373      2.006
REMARK SMILES COC(=O)c1ccc([C@H]([NH3+])CC(=O)OCCOCCOC(=O)c2ccc(-c3c4nc(c(-c5c(F)c(F)c(F)c(F)c5F)c5ccc([nH]5)c(-c5c(F)c(F)c(F)c(F)c5F)c5nc(c(-c6c(F)c(F)c(F)c(F)c6F)c6ccc3[nH]6)C=C5)C=C4)cc2)cc1
REMARK SMILES IDX 16 1 15 2 14 3 12 4 13 5 11 6 9 7 8 8 5 9 6 10 87 11 7 12
REMARK SMILES IDX 86 13 3 14 4 15 2 16 1 17 10 18 17 22 18 23 19 24 20 25
REMARK SMILES IDX 21 26 22 27 23 28 24 29 85 30 25 31 84 32 26 33 27 34 28 35
REMARK SMILES IDX 78 36 29 37 83 38 77 39 79 40 30 41 82 42 76 43 75 44 31 46
REMARK SMILES IDX 63 47 43 48 62 49 44 50 47 51 61 52 80 53 45 54 46 55 60 57
REMARK SMILES IDX 81 58 48 59 32 60 33 61 41 62 34 63 35 64 39 65 42 66 36 67
REMARK SMILES IDX 37 68 40 69 38 70 64 71 65 72 73 73 66 74 67 75 71 76 74 77
REMARK SMILES IDX 68 78 69 79 72 80 70 81 49 82 50 83 58 84 51 85 52 86 56 87
REMARK SMILES IDX 59 88 53 89 54 90 57 91 55 92
REMARK H PARENT 10 19 10 20 10 21 79 45 47 56
REMARK Flexibility Score: inf
ROOT
ATOM      1  C   UNL A   1      37.033  22.390  25.230  1.00  0.00     0.202 C 
ENDROOT
BRANCH   1   2
ATOM      2  C   UNL A   1      36.500  23.578  24.424  1.00  0.00     0.261 C 
BRANCH   2   3
ATOM      3  O   UNL A   1      36.005  23.186  23.129  1.00  0.00    -0.463 OA
BRANCH   3   4
ATOM      4  C   UNL A   1      34.653  23.204  23.003  1.00  0.00     0.312 C 
ATOM      5  O   UNL A   1      34.053  23.254  21.935  1.00  0.00    -0.252 OA
BRANCH   4   6
ATOM      6  C   UNL A   1      33.910  23.228  24.316  1.00  0.00     0.192 C 
BRANCH   6   7
ATOM      7  C   UNL A   1      32.650  22.356  24.491  1.00  0.00     0.223 C 
BRANCH   7   8
ATOM      8  C   UNL A   1      32.909  20.863  24.221  1.00  0.00     0.010 A 
ATOM      9  C   UNL A   1      33.418  18.111  23.726  1.00  0.00     0.060 A 
ATOM     10  C   UNL A   1      34.243  18.837  24.590  1.00  0.00     0.016 A 
ATOM     11  C   UNL A   1      32.360  18.761  23.090  1.00  0.00     0.016 A 
ATOM     12  C   UNL A   1      34.000  20.199  24.818  1.00  0.00     0.011 A 
ATOM     13  C   UNL A   1      32.119  20.117  23.328  1.00  0.00     0.011 A 
BRANCH   9  14
ATOM     14  C   UNL A   1      33.671  16.662  23.520  1.00  0.00     0.337 C 
ATOM     15  O   UNL A   1      34.491  16.222  22.727  1.00  0.00    -0.246 OA
BRANCH  14  16
ATOM     16  O   UNL A   1      32.862  15.933  24.326  1.00  0.00    -0.465 OA
ATOM     17  C   UNL A   1      33.456  15.500  25.550  1.00  0.00     0.282 C 
ENDBRANCH  14  16
ENDBRANCH   9  14
ENDBRANCH   7   8
BRANCH   7  18
ATOM     18  N   UNL A   1      31.554  22.848  23.641  1.00  0.00    -0.351 N 
ATOM     19  H   UNL A   1      31.135  23.674  24.068  1.00  0.00     0.345 HD
ATOM     20  H   UNL A   1      30.847  22.120  23.542  1.00  0.00     0.345 HD
ATOM     21  H   UNL A   1      31.922  23.092  22.720  1.00  0.00     0.345 HD
ENDBRANCH   7  18
ENDBRANCH   6   7
ENDBRANCH   4   6
ENDBRANCH   3   4
ENDBRANCH   2   3
ENDBRANCH   1   2
BRANCH   1  22
ATOM     22  O   UNL A   1      37.878  21.471  24.543  1.00  0.00    -0.374 OA
BRANCH  22  23
ATOM     23  C   UNL A   1      37.858  20.108  24.965  1.00  0.00     0.202 C 
BRANCH  23  24
ATOM     24  C   UNL A   1      39.194  19.495  25.404  1.00  0.00     0.261 C 
BRANCH  24  25
ATOM     25  O   UNL A   1      39.677  20.054  26.639  1.00  0.00    -0.460 OA
BRANCH  25  26
ATOM     26  C   UNL A   1      40.975  20.442  26.612  1.00  0.00     0.338 C 
ATOM     27  O   UNL A   1      41.913  19.858  26.092  1.00  0.00    -0.246 OA
BRANCH  26  28
ATOM     28  C   UNL A   1      41.116  21.807  27.152  1.00  0.00     0.060 A 
ATOM     29  C   UNL A   1      40.538  22.849  26.418  1.00  0.00     0.016 A 
ATOM     30  C   UNL A   1      41.888  22.077  28.285  1.00  0.00     0.016 A 
ATOM     31  C   UNL A   1      40.779  24.173  26.776  1.00  0.00     0.010 A 
ATOM     32  C   UNL A   1      42.137  23.410  28.639  1.00  0.00     0.010 A 
ATOM     33  C   UNL A   1      41.620  24.462  27.860  1.00  0.00    -0.014 A 
BRANCH  33  34
ATOM     34  C   UNL A   1      42.079  25.860  28.058  1.00  0.00     0.031 A 
ATOM     35  C   UNL A   1      43.414  26.276  27.503  1.00  0.00     0.074 A 
ATOM     36  C   UNL A   1      41.291  26.764  28.666  1.00  0.00     0.049 A 
ATOM     37  N   UNL A   1      43.999  27.447  27.532  1.00  0.00    -0.248 NA
ATOM     38  C   UNL A   1      44.193  25.231  26.819  1.00  0.00     0.031 C 
ATOM     39  C   UNL A   1      39.963  26.494  29.211  1.00  0.00     0.029 A 
ATOM     40  N   UNL A   1      41.497  28.098  28.921  1.00  0.00    -0.354 N 
ATOM     41  C   UNL A   1      45.211  27.280  26.873  1.00  0.00     0.074 A 
ATOM     42  C   UNL A   1      45.294  25.888  26.486  1.00  0.00     0.031 C 
ATOM     43  C   UNL A   1      39.472  27.627  29.740  1.00  0.00     0.029 A 
ATOM     44  C   UNL A   1      40.461  28.695  29.592  1.00  0.00     0.049 A 
ATOM     45  H   UNL A   1      42.312  28.578  28.648  1.00  0.00     0.167 HD
ATOM     46  C   UNL A   1      46.163  28.205  26.605  1.00  0.00     0.037 A 
ATOM     47  C   UNL A   1      40.331  29.957  30.046  1.00  0.00     0.037 A 
ATOM     48  C   UNL A   1      46.080  29.590  26.987  1.00  0.00     0.049 A 
ATOM     49  C   UNL A   1      41.433  30.953  29.788  1.00  0.00     0.074 A 
ATOM     50  C   UNL A   1      46.985  30.609  26.743  1.00  0.00     0.029 A 
ATOM     51  N   UNL A   1      45.030  30.150  27.698  1.00  0.00    -0.354 N 
ATOM     52  N   UNL A   1      42.561  30.793  29.139  1.00  0.00    -0.248 NA
ATOM     53  C   UNL A   1      41.238  32.309  30.322  1.00  0.00     0.031 C 
ATOM     54  C   UNL A   1      46.506  31.774  27.352  1.00  0.00     0.029 A 
ATOM     55  C   UNL A   1      45.277  31.494  27.927  1.00  0.00     0.049 A 
ATOM     56  H   UNL A   1      44.228  29.664  27.998  1.00  0.00     0.167 HD
ATOM     57  C   UNL A   1      43.193  32.029  29.161  1.00  0.00     0.074 A 
ATOM     58  C   UNL A   1      42.318  32.934  29.876  1.00  0.00     0.031 C 
ATOM     59  C   UNL A   1      44.392  32.385  28.635  1.00  0.00     0.037 A 
BRANCH  46  60
ATOM     60  C   UNL A   1      47.392  27.743  25.878  1.00  0.00     0.064 A 
ATOM     61  C   UNL A   1      48.554  27.359  26.563  1.00  0.00     0.173 A 
ATOM     62  C   UNL A   1      47.395  27.651  24.478  1.00  0.00     0.173 A 
ATOM     63  F   UNL A   1      48.607  27.441  27.901  1.00  0.00    -0.203 F 
ATOM     64  C   UNL A   1      49.682  26.924  25.873  1.00  0.00     0.198 A 
ATOM     65  C   UNL A   1      48.516  27.190  23.792  1.00  0.00     0.198 A 
ATOM     66  F   UNL A   1      46.308  28.003  23.774  1.00  0.00    -0.203 F 
ATOM     67  F   UNL A   1      50.797  26.605  26.546  1.00  0.00    -0.200 F 
ATOM     68  C   UNL A   1      49.660  26.833  24.489  1.00  0.00     0.200 A 
ATOM     69  F   UNL A   1      48.488  27.091  22.456  1.00  0.00    -0.200 F 
ATOM     70  F   UNL A   1      50.744  26.407  23.825  1.00  0.00    -0.200 F 
ENDBRANCH  46  60
BRANCH  47  71
ATOM     71  C   UNL A   1      39.111  30.354  30.794  1.00  0.00     0.064 A 
ATOM     72  C   UNL A   1      39.017  30.166  32.180  1.00  0.00     0.173 A 
ATOM     73  C   UNL A   1      38.007  30.913  30.134  1.00  0.00     0.173 A 
ATOM     74  F   UNL A   1      40.036  29.612  32.852  1.00  0.00    -0.203 F 
ATOM     75  C   UNL A   1      37.857  30.505  32.874  1.00  0.00     0.198 A 
ATOM     76  C   UNL A   1      36.859  31.278  30.834  1.00  0.00     0.198 A 
ATOM     77  F   UNL A   1      38.046  31.112  28.809  1.00  0.00    -0.203 F 
ATOM     78  F   UNL A   1      37.775  30.272  34.191  1.00  0.00    -0.200 F 
ATOM     79  C   UNL A   1      36.781  31.067  32.202  1.00  0.00     0.200 A 
ATOM     80  F   UNL A   1      35.827  31.831  30.182  1.00  0.00    -0.200 F 
ATOM     81  F   UNL A   1      35.668  31.395  32.871  1.00  0.00    -0.200 F 
ENDBRANCH  47  71
BRANCH  59  82
ATOM     82  C   UNL A   1      44.811  33.819  28.779  1.00  0.00     0.064 A 
ATOM     83  C   UNL A   1      45.598  34.252  29.857  1.00  0.00     0.173 A 
ATOM     84  C   UNL A   1      44.452  34.765  27.806  1.00  0.00     0.173 A 
ATOM     85  F   UNL A   1      45.957  33.391  30.820  1.00  0.00    -0.203 F 
ATOM     86  C   UNL A   1      45.986  35.585  29.969  1.00  0.00     0.198 A 
ATOM     87  C   UNL A   1      44.866  36.091  27.907  1.00  0.00     0.198 A 
ATOM     88  F   UNL A   1      43.707  34.402  26.752  1.00  0.00    -0.203 F 
ATOM     89  F   UNL A   1      46.695  35.987  31.033  1.00  0.00    -0.200 F 
ATOM     90  C   UNL A   1      45.625  36.501  28.992  1.00  0.00     0.200 A 
ATOM     91  F   UNL A   1      44.528  36.970  26.954  1.00  0.00    -0.200 F 
ATOM     92  F   UNL A   1      46.003  37.783  29.100  1.00  0.00    -0.200 F 
ENDBRANCH  59  82
ENDBRANCH  33  34
ENDBRANCH  26  28
ENDBRANCH  25  26
ENDBRANCH  24  25
ENDBRANCH  23  24
ENDBRANCH  22  23
ENDBRANCH   1  22
TORSDOF 19
ENDMDL
MODEL 3
REMARK VINA RESULT:     -10.3      5.864      9.775
REMARK SMILES COC(=O)c1ccc([C@H]([NH3+])CC(=O)OCCOCCOC(=O)c2ccc(-c3c4nc(c(-c5c(F)c(F)c(F)c(F)c5F)c5ccc([nH]5)c(-c5c(F)c(F)c(F)c(F)c5F)c5nc(c(-c6c(F)c(F)c(F)c(F)c6F)c6ccc3[nH]6)C=C5)C=C4)cc2)cc1
REMARK SMILES IDX 16 1 15 2 14 3 12 4 13 5 11 6 9 7 8 8 5 9 6 10 87 11 7 12
REMARK SMILES IDX 86 13 3 14 4 15 2 16 1 17 10 18 17 22 18 23 19 24 20 25
REMARK SMILES IDX 21 26 22 27 23 28 24 29 85 30 25 31 84 32 26 33 27 34 28 35
REMARK SMILES IDX 78 36 29 37 83 38 77 39 79 40 30 41 82 42 76 43 75 44 31 46
REMARK SMILES IDX 63 47 43 48 62 49 44 50 47 51 61 52 80 53 45 54 46 55 60 57
REMARK SMILES IDX 81 58 48 59 32 60 33 61 41 62 34 63 35 64 39 65 42 66 36 67
REMARK SMILES IDX 37 68 40 69 38 70 64 71 65 72 73 73 66 74 67 75 71 76 74 77
REMARK SMILES IDX 68 78 69 79 72 80 70 81 49 82 50 83 58 84 51 85 52 86 56 87
REMARK SMILES IDX 59 88 53 89 54 90 57 91 55 92
REMARK H PARENT 10 19 10 20 10 21 79 45 47 56
REMARK Flexibility Score: inf
ROOT
ATOM      1  C   UNL A   1      32.461  28.946  27.364  1.00  0.00     0.202 C 
ENDROOT
BRANCH   1   2
ATOM      2  C   UNL A   1      32.265  27.742  26.440  1.00  0.00     0.261 C 
BRANCH   2   3
ATOM      3  O   UNL A   1      31.406  26.739  27.017  1.00  0.00    -0.463 OA
BRANCH   3   4
ATOM      4  C   UNL A   1      31.602  25.480  26.548  1.00  0.00     0.312 C 
ATOM      5  O   UNL A   1      31.400  24.457  27.194  1.00  0.00    -0.252 OA
BRANCH   4   6
ATOM      6  C   UNL A   1      32.167  25.420  25.151  1.00  0.00     0.192 C 
BRANCH   6   7
ATOM      7  C   UNL A   1      31.231  25.105  23.966  1.00  0.00     0.223 C 
BRANCH   7   8
ATOM      8  C   UNL A   1      30.378  26.312  23.536  1.00  0.00     0.010 A 
ATOM      9  C   UNL A   1      28.828  28.560  22.743  1.00  0.00     0.060 A 
ATOM     10  C   UNL A   1      30.181  28.480  22.403  1.00  0.00     0.016 A 
ATOM     11  C   UNL A   1      28.256  27.536  23.500  1.00  0.00     0.016 A 
ATOM     12  C   UNL A   1      30.947  27.379  22.810  1.00  0.00     0.011 A 
ATOM     13  C   UNL A   1      29.024  26.437  23.896  1.00  0.00     0.011 A 
BRANCH   9  14
ATOM     14  C   UNL A   1      28.024  29.717  22.277  1.00  0.00     0.337 C 
ATOM     15  O   UNL A   1      28.027  30.126  21.124  1.00  0.00    -0.246 OA
BRANCH  14  16
ATOM     16  O   UNL A   1      27.316  30.233  23.310  1.00  0.00    -0.465 OA
ATOM     17  C   UNL A   1      27.649  31.576  23.664  1.00  0.00     0.282 C 
ENDBRANCH  14  16
ENDBRANCH   9  14
ENDBRANCH   7   8
BRANCH   7  18
ATOM     18  N   UNL A   1      30.370  23.953  24.275  1.00  0.00    -0.351 N 
ATOM     19  H   UNL A   1      29.879  23.659  23.431  1.00  0.00     0.345 HD
ATOM     20  H   UNL A   1      29.691  24.217  24.989  1.00  0.00     0.345 HD
ATOM     21  H   UNL A   1      30.944  23.183  24.620  1.00  0.00     0.345 HD
ENDBRANCH   7  18
ENDBRANCH   6   7
ENDBRANCH   4   6
ENDBRANCH   3   4
ENDBRANCH   2   3
ENDBRANCH   1   2
BRANCH   1  22
ATOM     22  O   UNL A   1      32.208  30.234  26.810  1.00  0.00    -0.374 OA
BRANCH  22  23
ATOM     23  C   UNL A   1      33.099  31.293  27.155  1.00  0.00     0.202 C 
BRANCH  23  24
ATOM     24  C   UNL A   1      32.485  32.686  27.351  1.00  0.00     0.261 C 
BRANCH  24  25
ATOM     25  O   UNL A   1      33.481  33.724  27.402  1.00  0.00    -0.460 OA
BRANCH  25  26
ATOM     26  C   UNL A   1      33.399  34.530  28.488  1.00  0.00     0.338 C 
ATOM     27  O   UNL A   1      32.524  35.345  28.743  1.00  0.00    -0.246 OA
BRANCH  26  28
ATOM     28  C   UNL A   1      34.438  34.177  29.472  1.00  0.00     0.060 A 
ATOM     29  C   UNL A   1      35.771  34.394  29.102  1.00  0.00     0.016 A 
ATOM     30  C   UNL A   1      34.130  33.548  30.680  1.00  0.00     0.016 A 
ATOM     31  C   UNL A   1      36.805  33.926  29.908  1.00  0.00     0.010 A 
ATOM     32  C   UNL A   1      35.170  33.069  31.486  1.00  0.00     0.010 A 
ATOM     33  C   UNL A   1      36.511  33.218  31.082  1.00  0.00    -0.014 A 
BRANCH  33  34
ATOM     34  C   UNL A   1      37.606  32.499  31.779  1.00  0.00     0.031 A 
ATOM     35  C   UNL A   1      38.271  31.337  31.093  1.00  0.00     0.074 A 
ATOM     36  C   UNL A   1      38.048  32.915  32.979  1.00  0.00     0.049 A 
ATOM     37  N   UNL A   1      39.263  30.586  31.500  1.00  0.00    -0.248 NA
ATOM     38  C   UNL A   1      37.748  30.975  29.765  1.00  0.00     0.031 C 
ATOM     39  C   UNL A   1      37.514  34.050  33.728  1.00  0.00     0.029 A 
ATOM     40  N   UNL A   1      39.055  32.428  33.775  1.00  0.00    -0.354 N 
ATOM     41  C   UNL A   1      39.482  29.666  30.483  1.00  0.00     0.074 A 
ATOM     42  C   UNL A   1      38.499  29.928  29.455  1.00  0.00     0.031 C 
ATOM     43  C   UNL A   1      38.196  34.172  34.879  1.00  0.00     0.029 A 
ATOM     44  C   UNL A   1      39.199  33.110  34.957  1.00  0.00     0.049 A 
ATOM     45  H   UNL A   1      39.620  31.663  33.521  1.00  0.00     0.167 HD
ATOM     46  C   UNL A   1      40.426  28.697  30.408  1.00  0.00     0.037 A 
ATOM     47  C   UNL A   1      40.036  32.892  35.990  1.00  0.00     0.037 A 
ATOM     48  C   UNL A   1      41.407  28.437  31.428  1.00  0.00     0.049 A 
ATOM     49  C   UNL A   1      41.037  31.768  35.908  1.00  0.00     0.074 A 
ATOM     50  C   UNL A   1      42.416  27.489  31.435  1.00  0.00     0.029 A 
ATOM     51  N   UNL A   1      41.497  29.125  32.628  1.00  0.00    -0.354 N 
ATOM     52  N   UNL A   1      41.256  30.923  34.930  1.00  0.00    -0.248 NA
ATOM     53  C   UNL A   1      41.912  31.573  37.073  1.00  0.00     0.031 C 
ATOM     54  C   UNL A   1      43.085  27.572  32.661  1.00  0.00     0.029 A 
ATOM     55  C   UNL A   1      42.528  28.607  33.395  1.00  0.00     0.049 A 
ATOM     56  H   UNL A   1      40.914  29.872  32.896  1.00  0.00     0.167 HD
ATOM     57  C   UNL A   1      42.309  30.118  35.348  1.00  0.00     0.074 A 
ATOM     58  C   UNL A   1      42.694  30.585  36.663  1.00  0.00     0.031 C 
ATOM     59  C   UNL A   1      42.905  29.086  34.701  1.00  0.00     0.037 A 
BRANCH  46  60
ATOM     60  C   UNL A   1      40.429  27.828  29.184  1.00  0.00     0.064 A 
ATOM     61  C   UNL A   1      39.649  26.665  29.101  1.00  0.00     0.173 A 
ATOM     62  C   UNL A   1      41.199  28.183  28.065  1.00  0.00     0.173 A 
ATOM     63  F   UNL A   1      38.907  26.276  30.149  1.00  0.00    -0.203 F 
ATOM     64  C   UNL A   1      39.658  25.876  27.954  1.00  0.00     0.198 A 
ATOM     65  C   UNL A   1      41.184  27.406  26.909  1.00  0.00     0.198 A 
ATOM     66  F   UNL A   1      41.960  29.288  28.090  1.00  0.00    -0.203 F 
ATOM     67  F   UNL A   1      38.939  24.746  27.914  1.00  0.00    -0.200 F 
ATOM     68  C   UNL A   1      40.420  26.251  26.857  1.00  0.00     0.200 A 
ATOM     69  F   UNL A   1      41.911  27.776  25.846  1.00  0.00    -0.200 F 
ATOM     70  F   UNL A   1      40.422  25.494  25.750  1.00  0.00    -0.200 F 
ENDBRANCH  46  60
BRANCH  47  71
ATOM     71  C   UNL A   1      39.967  33.757  37.196  1.00  0.00     0.064 A 
ATOM     72  C   UNL A   1      40.794  34.880  37.332  1.00  0.00     0.173 A 
ATOM     73  C   UNL A   1      39.084  33.464  38.247  1.00  0.00     0.173 A 
ATOM     74  F   UNL A   1      41.672  35.186  36.366  1.00  0.00    -0.203 F 
ATOM     75  C   UNL A   1      40.753  35.668  38.482  1.00  0.00     0.198 A 
ATOM     76  C   UNL A   1      39.025  34.269  39.382  1.00  0.00     0.198 A 
ATOM     77  F   UNL A   1      38.274  32.400  38.166  1.00  0.00    -0.203 F 
ATOM     78  F   UNL A   1      41.587  36.709  38.606  1.00  0.00    -0.200 F 
ATOM     79  C   UNL A   1      39.865  35.365  39.503  1.00  0.00     0.200 A 
ATOM     80  F   UNL A   1      38.157  33.979  40.361  1.00  0.00    -0.200 F 
ATOM     81  F   UNL A   1      39.825  36.125  40.606  1.00  0.00    -0.200 F 
ENDBRANCH  47  71
BRANCH  59  82
ATOM     82  C   UNL A   1      44.059  28.415  35.387  1.00  0.00     0.064 A 
ATOM     83  C   UNL A   1      43.875  27.299  36.217  1.00  0.00     0.173 A 
ATOM     84  C   UNL A   1      45.370  28.872  35.181  1.00  0.00     0.173 A 
ATOM     85  F   UNL A   1      42.641  26.830  36.456  1.00  0.00    -0.203 F 
ATOM     86  C   UNL A   1      44.959  26.683  36.837  1.00  0.00     0.198 A 
ATOM     87  C   UNL A   1      46.454  28.236  35.781  1.00  0.00     0.198 A 
ATOM     88  F   UNL A   1      45.601  29.930  34.392  1.00  0.00    -0.203 F 
ATOM     89  F   UNL A   1      44.755  25.649  37.666  1.00  0.00    -0.200 F 
ATOM     90  C   UNL A   1      46.247  27.147  36.614  1.00  0.00     0.200 A 
ATOM     91  F   UNL A   1      47.698  28.677  35.552  1.00  0.00    -0.200 F 
ATOM     92  F   UNL A   1      47.289  26.550  37.209  1.00  0.00    -0.200 F 
ENDBRANCH  59  82
ENDBRANCH  33  34
ENDBRANCH  26  28
ENDBRANCH  25  26
ENDBRANCH  24  25
ENDBRANCH  23  24
ENDBRANCH  22  23
ENDBRANCH   1  22
TORSDOF 19
ENDMDL
