MODEL 1
REMARK VINA RESULT:     -11.9      0.000      0.000
REMARK SMILES Cc1ccc(S(=O)(=O)N2CCN(C(=O)[C@H]3CCCC[C@@H]3C(=O)OCCOCCOC(=O)c3ccc(-c4c5nc(c(-c6c(F)c(F)c(F)c(F)c6F)c6ccc([nH]6)c(-c6c(F)c(F)c(F)c(F)c6F)c6nc(c(-c7c(F)c(F)c(F)c(F)c7F)c7ccc4[nH]7)C=C6)C=C5)cc3)CC2)cc1C
REMARK SMILES IDX 25 1 24 2 23 3 21 4 22 5 20 6 15 7 16 8 17 9 19 10 18 11
REMARK SMILES IDX 13 12 9 13 10 14 96 15 11 16 95 17 12 18 14 19 6 20 7 21
REMARK SMILES IDX 8 22 5 23 1 24 2 25 3 26 98 27 4 28 97 29 99 30 26 31 27 32
REMARK SMILES IDX 28 33 29 34 30 35 31 36 32 37 33 38 94 39 34 40 93 41 35 42
REMARK SMILES IDX 36 43 37 44 87 45 38 46 92 47 86 48 88 49 39 50 91 51 85 52
REMARK SMILES IDX 84 53 40 55 72 56 52 57 71 58 53 59 56 60 70 61 89 62 54 63
REMARK SMILES IDX 55 64 69 66 90 67 57 68 41 69 42 70 50 71 43 72 44 73 48 74
REMARK SMILES IDX 51 75 45 76 46 77 49 78 47 79 73 80 74 81 82 82 75 83 76 84
REMARK SMILES IDX 80 85 83 86 77 87 78 88 81 89 79 90 58 91 59 92 67 93 60 94
REMARK SMILES IDX 61 95 65 96 68 97 62 98 63 99 66 100 64 101
REMARK H PARENT 88 54 56 65
REMARK Flexibility Score: inf
ROOT
ATOM      1  C   UNL A   1      38.263  23.689  26.450  1.00  0.00     0.202 C 
ENDROOT
BRANCH   1   2
ATOM      2  C   UNL A   1      37.088  23.746  25.471  1.00  0.00     0.261 C 
BRANCH   2   3
ATOM      3  O   UNL A   1      35.933  23.051  25.939  1.00  0.00    -0.463 OA
BRANCH   3   4
ATOM      4  C   UNL A   1      35.413  22.206  25.010  1.00  0.00     0.309 C 
ATOM      5  O   UNL A   1      35.883  21.108  24.735  1.00  0.00    -0.252 OA
BRANCH   4   6
ATOM      6  C   UNL A   1      34.109  22.740  24.444  1.00  0.00     0.111 C 
ATOM      7  C   UNL A   1      33.134  22.956  25.622  1.00  0.00     0.093 C 
ATOM      8  C   UNL A   1      32.643  21.598  26.170  1.00  0.00     0.014 C 
ATOM      9  C   UNL A   1      32.102  20.670  25.093  1.00  0.00     0.001 C 
ATOM     10  C   UNL A   1      33.527  21.822  23.364  1.00  0.00     0.016 C 
ATOM     11  C   UNL A   1      33.073  20.487  23.937  1.00  0.00     0.001 C 
BRANCH   7  12
ATOM     12  C   UNL A   1      31.992  23.877  25.208  1.00  0.00     0.226 C 
ATOM     13  N   UNL A   1      32.283  27.971  26.213  1.00  0.00    -0.194 NA
ATOM     14  C   UNL A   1      31.020  27.220  26.335  1.00  0.00     0.124 C 
ATOM     15  C   UNL A   1      33.514  27.158  26.310  1.00  0.00     0.124 C 
ATOM     16  C   UNL A   1      30.976  26.085  25.314  1.00  0.00     0.136 C 
ATOM     17  C   UNL A   1      33.475  25.913  25.410  1.00  0.00     0.136 C 
ATOM     18  N   UNL A   1      32.167  25.233  25.403  1.00  0.00    -0.340 N 
ATOM     19  O   UNL A   1      30.950  23.434  24.725  1.00  0.00    -0.275 OA
BRANCH  13  20
ATOM     20  S   UNL A   1      32.295  29.579  25.735  1.00  0.00     0.243 S 
ATOM     21  O   UNL A   1      33.585  29.860  25.138  1.00  0.00    -0.207 OA
ATOM     22  O   UNL A   1      31.791  30.354  26.846  1.00  0.00    -0.207 OA
BRANCH  20  23
ATOM     23  C   UNL A   1      31.094  29.727  24.429  1.00  0.00     0.082 A 
ATOM     24  C   UNL A   1      28.191  30.081  21.252  1.00  0.00     0.044 C 
ATOM     25  C   UNL A   1      29.173  29.985  22.387  1.00  0.00    -0.048 A 
ATOM     26  C   UNL A   1      30.192  29.035  22.294  1.00  0.00     0.005 A 
ATOM     27  C   UNL A   1      29.122  30.825  23.518  1.00  0.00    -0.047 A 
ATOM     28  C   UNL A   1      31.145  28.927  23.298  1.00  0.00     0.022 A 
ATOM     29  C   UNL A   1      30.077  30.674  24.544  1.00  0.00     0.025 A 
ATOM     30  C   UNL A   1      28.091  31.908  23.680  1.00  0.00     0.044 C 
ENDBRANCH  20  23
ENDBRANCH  13  20
ENDBRANCH   7  12
ENDBRANCH   4   6
ENDBRANCH   3   4
ENDBRANCH   2   3
ENDBRANCH   1   2
BRANCH   1  31
ATOM     31  O   UNL A   1      38.966  22.468  26.644  1.00  0.00    -0.374 OA
BRANCH  31  32
ATOM     32  C   UNL A   1      39.099  21.550  25.560  1.00  0.00     0.202 C 
BRANCH  32  33
ATOM     33  C   UNL A   1      39.292  20.054  25.844  1.00  0.00     0.261 C 
BRANCH  33  34
ATOM     34  O   UNL A   1      40.279  19.783  26.853  1.00  0.00    -0.460 OA
BRANCH  34  35
ATOM     35  C   UNL A   1      41.522  19.565  26.359  1.00  0.00     0.338 C 
ATOM     36  O   UNL A   1      41.918  18.584  25.752  1.00  0.00    -0.246 OA
BRANCH  35  37
ATOM     37  C   UNL A   1      42.331  20.791  26.461  1.00  0.00     0.060 A 
ATOM     38  C   UNL A   1      42.488  21.345  27.738  1.00  0.00     0.016 A 
ATOM     39  C   UNL A   1      42.835  21.439  25.332  1.00  0.00     0.016 A 
ATOM     40  C   UNL A   1      43.096  22.584  27.885  1.00  0.00     0.010 A 
ATOM     41  C   UNL A   1      43.439  22.692  25.483  1.00  0.00     0.010 A 
ATOM     42  C   UNL A   1      43.531  23.287  26.755  1.00  0.00    -0.014 A 
BRANCH  42  43
ATOM     43  C   UNL A   1      43.943  24.700  26.927  1.00  0.00     0.031 A 
ATOM     44  C   UNL A   1      42.932  25.710  27.395  1.00  0.00     0.074 A 
ATOM     45  C   UNL A   1      45.230  25.051  26.766  1.00  0.00     0.049 A 
ATOM     46  N   UNL A   1      43.100  26.972  27.702  1.00  0.00    -0.248 NA
ATOM     47  C   UNL A   1      41.547  25.235  27.542  1.00  0.00     0.031 C 
ATOM     48  C   UNL A   1      46.300  24.148  26.346  1.00  0.00     0.029 A 
ATOM     49  N   UNL A   1      45.857  26.256  26.954  1.00  0.00    -0.354 N 
ATOM     50  C   UNL A   1      41.846  27.440  28.076  1.00  0.00     0.074 A 
ATOM     51  C   UNL A   1      40.920  26.340  27.919  1.00  0.00     0.031 C 
ATOM     52  C   UNL A   1      47.459  24.829  26.320  1.00  0.00     0.029 A 
ATOM     53  C   UNL A   1      47.204  26.219  26.694  1.00  0.00     0.049 A 
ATOM     54  H   UNL A   1      45.387  27.069  27.248  1.00  0.00     0.167 HD
ATOM     55  C   UNL A   1      41.504  28.672  28.524  1.00  0.00     0.037 A 
ATOM     56  C   UNL A   1      48.125  27.199  26.747  1.00  0.00     0.037 A 
ATOM     57  C   UNL A   1      42.432  29.763  28.675  1.00  0.00     0.049 A 
ATOM     58  C   UNL A   1      47.707  28.575  27.198  1.00  0.00     0.074 A 
ATOM     59  C   UNL A   1      42.190  31.046  29.134  1.00  0.00     0.029 A 
ATOM     60  N   UNL A   1      43.784  29.702  28.360  1.00  0.00    -0.354 N 
ATOM     61  N   UNL A   1      46.527  29.000  27.582  1.00  0.00    -0.248 NA
ATOM     62  C   UNL A   1      48.755  29.602  27.236  1.00  0.00     0.031 C 
ATOM     63  C   UNL A   1      43.379  31.778  29.036  1.00  0.00     0.029 A 
ATOM     64  C   UNL A   1      44.380  30.932  28.590  1.00  0.00     0.049 A 
ATOM     65  H   UNL A   1      44.249  28.902  28.024  1.00  0.00     0.167 HD
ATOM     66  C   UNL A   1      46.698  30.331  27.941  1.00  0.00     0.074 A 
ATOM     67  C   UNL A   1      48.101  30.634  27.745  1.00  0.00     0.031 C 
ATOM     68  C   UNL A   1      45.779  31.221  28.393  1.00  0.00     0.037 A 
BRANCH  55  69
ATOM     69  C   UNL A   1      40.059  28.916  28.854  1.00  0.00     0.064 A 
ATOM     70  C   UNL A   1      39.126  29.290  27.875  1.00  0.00     0.173 A 
ATOM     71  C   UNL A   1      39.591  28.737  30.166  1.00  0.00     0.173 A 
ATOM     72  F   UNL A   1      39.519  29.488  26.608  1.00  0.00    -0.203 F 
ATOM     73  C   UNL A   1      37.788  29.502  28.201  1.00  0.00     0.198 A 
ATOM     74  C   UNL A   1      38.247  28.916  30.482  1.00  0.00     0.198 A 
ATOM     75  F   UNL A   1      40.438  28.376  31.142  1.00  0.00    -0.203 F 
ATOM     76  F   UNL A   1      36.925  29.908  27.259  1.00  0.00    -0.200 F 
ATOM     77  C   UNL A   1      37.348  29.307  29.502  1.00  0.00     0.200 A 
ATOM     78  F   UNL A   1      37.823  28.712  31.737  1.00  0.00    -0.200 F 
ATOM     79  F   UNL A   1      36.059  29.500  29.812  1.00  0.00    -0.200 F 
ENDBRANCH  55  69
BRANCH  56  80
ATOM     80  C   UNL A   1      49.534  26.915  26.366  1.00  0.00     0.064 A 
ATOM     81  C   UNL A   1      49.962  27.008  25.035  1.00  0.00     0.173 A 
ATOM     82  C   UNL A   1      50.479  26.529  27.330  1.00  0.00     0.173 A 
ATOM     83  F   UNL A   1      49.093  27.353  24.074  1.00  0.00    -0.203 F 
ATOM     84  C   UNL A   1      51.274  26.700  24.677  1.00  0.00     0.198 A 
ATOM     85  C   UNL A   1      51.798  26.256  26.976  1.00  0.00     0.198 A 
ATOM     86  F   UNL A   1      50.122  26.427  28.617  1.00  0.00    -0.203 F 
ATOM     87  F   UNL A   1      51.643  26.745  23.390  1.00  0.00    -0.200 F 
ATOM     88  C   UNL A   1      52.192  26.331  25.649  1.00  0.00     0.200 A 
ATOM     89  F   UNL A   1      52.686  25.916  27.921  1.00  0.00    -0.200 F 
ATOM     90  F   UNL A   1      53.454  26.041  25.305  1.00  0.00    -0.200 F 
ENDBRANCH  56  80
BRANCH  68  91
ATOM     91  C   UNL A   1      46.275  32.594  28.757  1.00  0.00     0.064 A 
ATOM     92  C   UNL A   1      46.289  33.649  27.833  1.00  0.00     0.173 A 
ATOM     93  C   UNL A   1      46.738  32.857  30.056  1.00  0.00     0.173 A 
ATOM     94  F   UNL A   1      45.867  33.451  26.574  1.00  0.00    -0.203 F 
ATOM     95  C   UNL A   1      46.794  34.900  28.180  1.00  0.00     0.198 A 
ATOM     96  C   UNL A   1      47.204  34.120  30.411  1.00  0.00     0.198 A 
ATOM     97  F   UNL A   1      46.736  31.889  30.985  1.00  0.00    -0.203 F 
ATOM     98  F   UNL A   1      46.867  35.870  27.257  1.00  0.00    -0.200 F 
ATOM     99  C   UNL A   1      47.248  35.135  29.469  1.00  0.00     0.200 A 
ATOM    100  F   UNL A   1      47.623  34.349  31.663  1.00  0.00    -0.200 F 
ATOM    101  F   UNL A   1      47.736  36.338  29.800  1.00  0.00    -0.200 F 
ENDBRANCH  68  91
ENDBRANCH  42  43
ENDBRANCH  35  37
ENDBRANCH  34  35
ENDBRANCH  33  34
ENDBRANCH  32  33
ENDBRANCH  31  32
ENDBRANCH   1  31
TORSDOF 17
ENDMDL
MODEL 2
REMARK VINA RESULT:     -11.9      0.821      7.044
REMARK SMILES Cc1ccc(S(=O)(=O)N2CCN(C(=O)[C@H]3CCCC[C@@H]3C(=O)OCCOCCOC(=O)c3ccc(-c4c5nc(c(-c6c(F)c(F)c(F)c(F)c6F)c6ccc([nH]6)c(-c6c(F)c(F)c(F)c(F)c6F)c6nc(c(-c7c(F)c(F)c(F)c(F)c7F)c7ccc4[nH]7)C=C6)C=C5)cc3)CC2)cc1C
REMARK SMILES IDX 25 1 24 2 23 3 21 4 22 5 20 6 15 7 16 8 17 9 19 10 18 11
REMARK SMILES IDX 13 12 9 13 10 14 96 15 11 16 95 17 12 18 14 19 6 20 7 21
REMARK SMILES IDX 8 22 5 23 1 24 2 25 3 26 98 27 4 28 97 29 99 30 26 31 27 32
REMARK SMILES IDX 28 33 29 34 30 35 31 36 32 37 33 38 94 39 34 40 93 41 35 42
REMARK SMILES IDX 36 43 37 44 87 45 38 46 92 47 86 48 88 49 39 50 91 51 85 52
REMARK SMILES IDX 84 53 40 55 72 56 52 57 71 58 53 59 56 60 70 61 89 62 54 63
REMARK SMILES IDX 55 64 69 66 90 67 57 68 41 69 42 70 50 71 43 72 44 73 48 74
REMARK SMILES IDX 51 75 45 76 46 77 49 78 47 79 73 80 74 81 82 82 75 83 76 84
REMARK SMILES IDX 80 85 83 86 77 87 78 88 81 89 79 90 58 91 59 92 67 93 60 94
REMARK SMILES IDX 61 95 65 96 68 97 62 98 63 99 66 100 64 101
REMARK H PARENT 88 54 56 65
REMARK Flexibility Score: inf
ROOT
ATOM      1  C   UNL A   1      38.202  23.549  26.391  1.00  0.00     0.202 C 
ENDROOT
BRANCH   1   2
ATOM      2  C   UNL A   1      37.036  23.668  25.406  1.00  0.00     0.261 C 
BRANCH   2   3
ATOM      3  O   UNL A   1      35.845  23.028  25.866  1.00  0.00    -0.463 OA
BRANCH   3   4
ATOM      4  C   UNL A   1      35.304  22.192  24.940  1.00  0.00     0.309 C 
ATOM      5  O   UNL A   1      35.781  21.108  24.626  1.00  0.00    -0.252 OA
BRANCH   4   6
ATOM      6  C   UNL A   1      33.971  22.716  24.435  1.00  0.00     0.111 C 
ATOM      7  C   UNL A   1      33.092  23.038  25.662  1.00  0.00     0.093 C 
ATOM      8  C   UNL A   1      32.618  21.734  26.342  1.00  0.00     0.014 C 
ATOM      9  C   UNL A   1      31.982  20.745  25.377  1.00  0.00     0.001 C 
ATOM     10  C   UNL A   1      33.294  21.737  23.469  1.00  0.00     0.016 C 
ATOM     11  C   UNL A   1      32.860  20.457  24.170  1.00  0.00     0.001 C 
BRANCH   7  12
ATOM     12  C   UNL A   1      31.939  23.954  25.268  1.00  0.00     0.226 C 
ATOM     13  N   UNL A   1      32.267  28.063  26.192  1.00  0.00    -0.194 NA
ATOM     14  C   UNL A   1      31.007  27.317  26.366  1.00  0.00     0.124 C 
ATOM     15  C   UNL A   1      33.499  27.250  26.266  1.00  0.00     0.124 C 
ATOM     16  C   UNL A   1      30.930  26.165  25.367  1.00  0.00     0.136 C 
ATOM     17  C   UNL A   1      33.430  25.990  25.389  1.00  0.00     0.136 C 
ATOM     18  N   UNL A   1      32.122  25.313  25.434  1.00  0.00    -0.340 N 
ATOM     19  O   UNL A   1      30.882  23.504  24.824  1.00  0.00    -0.275 OA
BRANCH  13  20
ATOM     20  S   UNL A   1      32.266  29.663  25.687  1.00  0.00     0.243 S 
ATOM     21  O   UNL A   1      33.545  29.937  25.064  1.00  0.00    -0.207 OA
ATOM     22  O   UNL A   1      31.778  30.456  26.793  1.00  0.00    -0.207 OA
BRANCH  20  23
ATOM     23  C   UNL A   1      31.044  29.786  24.398  1.00  0.00     0.082 A 
ATOM     24  C   UNL A   1      28.088  30.077  21.264  1.00  0.00     0.044 C 
ATOM     25  C   UNL A   1      29.088  30.004  22.384  1.00  0.00    -0.048 A 
ATOM     26  C   UNL A   1      30.106  29.052  22.293  1.00  0.00     0.005 A 
ATOM     27  C   UNL A   1      29.056  30.867  23.499  1.00  0.00    -0.047 A 
ATOM     28  C   UNL A   1      31.076  28.964  23.284  1.00  0.00     0.022 A 
ATOM     29  C   UNL A   1      30.029  30.736  24.513  1.00  0.00     0.025 A 
ATOM     30  C   UNL A   1      28.028  31.952  23.657  1.00  0.00     0.044 C 
ENDBRANCH  20  23
ENDBRANCH  13  20
ENDBRANCH   7  12
ENDBRANCH   4   6
ENDBRANCH   3   4
ENDBRANCH   2   3
ENDBRANCH   1   2
BRANCH   1  31
ATOM     31  O   UNL A   1      38.920  22.326  26.497  1.00  0.00    -0.374 OA
BRANCH  31  32
ATOM     32  C   UNL A   1      38.885  21.391  25.421  1.00  0.00     0.202 C 
BRANCH  32  33
ATOM     33  C   UNL A   1      39.191  19.910  25.682  1.00  0.00     0.261 C 
BRANCH  33  34
ATOM     34  O   UNL A   1      40.115  19.697  26.761  1.00  0.00    -0.460 OA
BRANCH  34  35
ATOM     35  C   UNL A   1      41.405  19.573  26.361  1.00  0.00     0.338 C 
ATOM     36  O   UNL A   1      41.906  18.644  25.751  1.00  0.00    -0.246 OA
BRANCH  35  37
ATOM     37  C   UNL A   1      42.127  20.838  26.578  1.00  0.00     0.060 A 
ATOM     38  C   UNL A   1      42.310  21.247  27.905  1.00  0.00     0.016 A 
ATOM     39  C   UNL A   1      42.522  21.653  25.516  1.00  0.00     0.016 A 
ATOM     40  C   UNL A   1      42.832  22.503  28.176  1.00  0.00     0.010 A 
ATOM     41  C   UNL A   1      43.041  22.923  25.793  1.00  0.00     0.010 A 
ATOM     42  C   UNL A   1      43.155  23.368  27.123  1.00  0.00    -0.014 A 
BRANCH  42  43
ATOM     43  C   UNL A   1      43.472  24.778  27.449  1.00  0.00     0.031 A 
ATOM     44  C   UNL A   1      44.831  25.325  27.107  1.00  0.00     0.074 A 
ATOM     45  C   UNL A   1      42.521  25.585  27.949  1.00  0.00     0.049 A 
ATOM     46  N   UNL A   1      45.286  26.547  27.217  1.00  0.00    -0.248 NA
ATOM     47  C   UNL A   1      45.809  24.367  26.566  1.00  0.00     0.031 C 
ATOM     48  C   UNL A   1      41.161  25.171  28.287  1.00  0.00     0.029 A 
ATOM     49  N   UNL A   1      42.550  26.925  28.242  1.00  0.00    -0.354 N 
ATOM     50  C   UNL A   1      46.598  26.506  26.760  1.00  0.00     0.074 A 
ATOM     51  C   UNL A   1      46.880  25.130  26.411  1.00  0.00     0.031 C 
ATOM     52  C   UNL A   1      40.478  26.239  28.731  1.00  0.00     0.029 A 
ATOM     53  C   UNL A   1      41.362  27.404  28.734  1.00  0.00     0.049 A 
ATOM     54  H   UNL A   1      43.347  27.488  28.111  1.00  0.00     0.167 HD
ATOM     55  C   UNL A   1      47.480  27.525  26.630  1.00  0.00     0.037 A 
ATOM     56  C   UNL A   1      41.030  28.642  29.145  1.00  0.00     0.037 A 
ATOM     57  C   UNL A   1      47.191  28.892  26.983  1.00  0.00     0.049 A 
ATOM     58  C   UNL A   1      42.048  29.748  29.039  1.00  0.00     0.074 A 
ATOM     59  C   UNL A   1      48.010  30.003  26.877  1.00  0.00     0.029 A 
ATOM     60  N   UNL A   1      45.989  29.334  27.520  1.00  0.00    -0.354 N 
ATOM     61  N   UNL A   1      43.274  29.706  28.574  1.00  0.00    -0.248 NA
ATOM     62  C   UNL A   1      41.627  31.076  29.501  1.00  0.00     0.031 C 
ATOM     63  C   UNL A   1      47.328  31.103  27.409  1.00  0.00     0.029 A 
ATOM     64  C   UNL A   1      46.056  30.695  27.775  1.00  0.00     0.049 A 
ATOM     65  H   UNL A   1      45.205  28.764  27.693  1.00  0.00     0.167 HD
ATOM     66  C   UNL A   1      43.758  31.007  28.656  1.00  0.00     0.074 A 
ATOM     67  C   UNL A   1      42.684  31.814  29.196  1.00  0.00     0.031 C 
ATOM     68  C   UNL A   1      44.978  31.489  28.312  1.00  0.00     0.037 A 
BRANCH  55  69
ATOM     69  C   UNL A   1      48.852  27.198  26.113  1.00  0.00     0.064 A 
ATOM     70  C   UNL A   1      49.890  26.793  26.966  1.00  0.00     0.173 A 
ATOM     71  C   UNL A   1      49.123  27.254  24.737  1.00  0.00     0.173 A 
ATOM     72  F   UNL A   1      49.692  26.734  28.291  1.00  0.00    -0.203 F 
ATOM     73  C   UNL A   1      51.153  26.485  26.464  1.00  0.00     0.198 A 
ATOM     74  C   UNL A   1      50.376  26.913  24.235  1.00  0.00     0.198 A 
ATOM     75  F   UNL A   1      48.166  27.631  23.875  1.00  0.00    -0.203 F 
ATOM     76  F   UNL A   1      52.143  26.150  27.304  1.00  0.00    -0.200 F 
ATOM     77  C   UNL A   1      51.392  26.537  25.100  1.00  0.00     0.200 A 
ATOM     78  F   UNL A   1      50.599  26.949  22.914  1.00  0.00    -0.200 F 
ATOM     79  F   UNL A   1      52.604  26.229  24.617  1.00  0.00    -0.200 F 
ENDBRANCH  55  69
BRANCH  56  80
ATOM     80  C   UNL A   1      39.671  28.903  29.690  1.00  0.00     0.064 A 
ATOM     81  C   UNL A   1      38.643  29.400  28.877  1.00  0.00     0.173 A 
ATOM     82  C   UNL A   1      39.380  28.672  31.043  1.00  0.00     0.173 A 
ATOM     83  F   UNL A   1      38.877  29.656  27.582  1.00  0.00    -0.203 F 
ATOM     84  C   UNL A   1      37.383  29.682  29.403  1.00  0.00     0.198 A 
ATOM     85  C   UNL A   1      38.110  28.921  31.559  1.00  0.00     0.198 A 
ATOM     86  F   UNL A   1      40.326  28.194  31.863  1.00  0.00    -0.203 F 
ATOM     87  F   UNL A   1      36.435  30.208  28.616  1.00  0.00    -0.200 F 
ATOM     88  C   UNL A   1      37.116  29.435  30.741  1.00  0.00     0.200 A 
ATOM     89  F   UNL A   1      37.851  28.665  32.849  1.00  0.00    -0.200 F 
ATOM     90  F   UNL A   1      35.903  29.702  31.244  1.00  0.00    -0.200 F 
ENDBRANCH  56  80
BRANCH  68  91
ATOM     91  C   UNL A   1      45.198  32.969  28.462  1.00  0.00     0.064 A 
ATOM     92  C   UNL A   1      45.775  33.522  29.616  1.00  0.00     0.173 A 
ATOM     93  C   UNL A   1      44.830  33.848  27.431  1.00  0.00     0.173 A 
ATOM     94  F   UNL A   1      46.136  32.730  30.637  1.00  0.00    -0.203 F 
ATOM     95  C   UNL A   1      45.927  34.900  29.752  1.00  0.00     0.198 A 
ATOM     96  C   UNL A   1      45.022  35.221  27.553  1.00  0.00     0.198 A 
ATOM     97  F   UNL A   1      44.286  33.373  26.300  1.00  0.00    -0.203 F 
ATOM     98  F   UNL A   1      46.411  35.409  30.894  1.00  0.00    -0.200 F 
ATOM     99  C   UNL A   1      45.555  35.748  28.719  1.00  0.00     0.200 A 
ATOM    100  F   UNL A   1      44.678  36.036  26.546  1.00  0.00    -0.200 F 
ATOM    101  F   UNL A   1      45.700  37.073  28.852  1.00  0.00    -0.200 F 
ENDBRANCH  68  91
ENDBRANCH  42  43
ENDBRANCH  35  37
ENDBRANCH  34  35
ENDBRANCH  33  34
ENDBRANCH  32  33
ENDBRANCH  31  32
ENDBRANCH   1  31
TORSDOF 17
ENDMDL
MODEL 3
REMARK VINA RESULT:     -11.8      5.371     11.107
REMARK SMILES Cc1ccc(S(=O)(=O)N2CCN(C(=O)[C@H]3CCCC[C@@H]3C(=O)OCCOCCOC(=O)c3ccc(-c4c5nc(c(-c6c(F)c(F)c(F)c(F)c6F)c6ccc([nH]6)c(-c6c(F)c(F)c(F)c(F)c6F)c6nc(c(-c7c(F)c(F)c(F)c(F)c7F)c7ccc4[nH]7)C=C6)C=C5)cc3)CC2)cc1C
REMARK SMILES IDX 25 1 24 2 23 3 21 4 22 5 20 6 15 7 16 8 17 9 19 10 18 11
REMARK SMILES IDX 13 12 9 13 10 14 96 15 11 16 95 17 12 18 14 19 6 20 7 21
REMARK SMILES IDX 8 22 5 23 1 24 2 25 3 26 98 27 4 28 97 29 99 30 26 31 27 32
REMARK SMILES IDX 28 33 29 34 30 35 31 36 32 37 33 38 94 39 34 40 93 41 35 42
REMARK SMILES IDX 36 43 37 44 87 45 38 46 92 47 86 48 88 49 39 50 91 51 85 52
REMARK SMILES IDX 84 53 40 55 72 56 52 57 71 58 53 59 56 60 70 61 89 62 54 63
REMARK SMILES IDX 55 64 69 66 90 67 57 68 41 69 42 70 50 71 43 72 44 73 48 74
REMARK SMILES IDX 51 75 45 76 46 77 49 78 47 79 73 80 74 81 82 82 75 83 76 84
REMARK SMILES IDX 80 85 83 86 77 87 78 88 81 89 79 90 58 91 59 92 67 93 60 94
REMARK SMILES IDX 61 95 65 96 68 97 62 98 63 99 66 100 64 101
REMARK H PARENT 88 54 56 65
REMARK Flexibility Score: inf
ROOT
ATOM      1  C   UNL A   1      34.999  29.842  27.496  1.00  0.00     0.202 C 
ENDROOT
BRANCH   1   2
ATOM      2  C   UNL A   1      34.123  28.662  27.070  1.00  0.00     0.261 C 
BRANCH   2   3
ATOM      3  O   UNL A   1      33.656  28.765  25.725  1.00  0.00    -0.463 OA
BRANCH   3   4
ATOM      4  C   UNL A   1      32.325  28.518  25.608  1.00  0.00     0.309 C 
ATOM      5  O   UNL A   1      31.445  29.277  25.997  1.00  0.00    -0.252 OA
BRANCH   4   6
ATOM      6  C   UNL A   1      32.066  27.243  24.825  1.00  0.00     0.111 C 
ATOM      7  C   UNL A   1      32.957  27.270  23.565  1.00  0.00     0.093 C 
ATOM      8  C   UNL A   1      32.426  28.309  22.553  1.00  0.00     0.014 C 
ATOM      9  C   UNL A   1      30.944  28.155  22.248  1.00  0.00     0.001 C 
ATOM     10  C   UNL A   1      30.582  27.062  24.489  1.00  0.00     0.016 C 
ATOM     11  C   UNL A   1      30.089  28.115  23.505  1.00  0.00     0.001 C 
BRANCH   7  12
ATOM     12  C   UNL A   1      33.084  25.872  22.970  1.00  0.00     0.226 C 
ATOM     13  N   UNL A   1      35.305  22.994  25.123  1.00  0.00    -0.194 NA
ATOM     14  C   UNL A   1      35.401  23.126  23.658  1.00  0.00     0.124 C 
ATOM     15  C   UNL A   1      34.904  24.222  25.844  1.00  0.00     0.124 C 
ATOM     16  C   UNL A   1      34.091  23.661  23.084  1.00  0.00     0.136 C 
ATOM     17  C   UNL A   1      33.668  24.894  25.225  1.00  0.00     0.136 C 
ATOM     18  N   UNL A   1      33.678  24.900  23.751  1.00  0.00    -0.340 N 
ATOM     19  O   UNL A   1      32.680  25.616  21.835  1.00  0.00    -0.275 OA
BRANCH  13  20
ATOM     20  S   UNL A   1      35.387  21.493  25.868  1.00  0.00     0.243 S 
ATOM     21  O   UNL A   1      34.756  21.602  27.167  1.00  0.00    -0.207 OA
ATOM     22  O   UNL A   1      36.747  21.025  25.725  1.00  0.00    -0.207 OA
BRANCH  20  23
ATOM     23  C   UNL A   1      34.370  20.395  24.905  1.00  0.00     0.082 A 
ATOM     24  C   UNL A   1      31.891  17.738  22.572  1.00  0.00     0.044 C 
ATOM     25  C   UNL A   1      32.791  18.629  23.382  1.00  0.00    -0.048 A 
ATOM     26  C   UNL A   1      32.405  19.959  23.563  1.00  0.00     0.005 A 
ATOM     27  C   UNL A   1      33.983  18.175  23.982  1.00  0.00    -0.047 A 
ATOM     28  C   UNL A   1      33.182  20.818  24.330  1.00  0.00     0.022 A 
ATOM     29  C   UNL A   1      34.777  19.073  24.727  1.00  0.00     0.025 A 
ATOM     30  C   UNL A   1      34.451  16.750  23.882  1.00  0.00     0.044 C 
ENDBRANCH  20  23
ENDBRANCH  13  20
ENDBRANCH   7  12
ENDBRANCH   4   6
ENDBRANCH   3   4
ENDBRANCH   2   3
ENDBRANCH   1   2
BRANCH   1  31
ATOM     31  O   UNL A   1      34.537  31.174  27.303  1.00  0.00    -0.374 OA
BRANCH  31  32
ATOM     32  C   UNL A   1      33.309  31.588  27.898  1.00  0.00     0.202 C 
BRANCH  32  33
ATOM     33  C   UNL A   1      32.646  32.899  27.452  1.00  0.00     0.261 C 
BRANCH  33  34
ATOM     34  O   UNL A   1      33.525  34.034  27.504  1.00  0.00    -0.460 OA
BRANCH  34  35
ATOM     35  C   UNL A   1      33.420  34.756  28.646  1.00  0.00     0.338 C 
ATOM     36  O   UNL A   1      32.518  35.513  28.964  1.00  0.00    -0.246 OA
BRANCH  35  37
ATOM     37  C   UNL A   1      34.466  34.352  29.601  1.00  0.00     0.060 A 
ATOM     38  C   UNL A   1      35.792  34.420  29.157  1.00  0.00     0.016 A 
ATOM     39  C   UNL A   1      34.156  33.824  30.855  1.00  0.00     0.016 A 
ATOM     40  C   UNL A   1      36.812  33.901  29.941  1.00  0.00     0.010 A 
ATOM     41  C   UNL A   1      35.186  33.293  31.640  1.00  0.00     0.010 A 
ATOM     42  C   UNL A   1      36.510  33.290  31.165  1.00  0.00    -0.014 A 
BRANCH  42  43
ATOM     43  C   UNL A   1      37.583  32.533  31.852  1.00  0.00     0.031 A 
ATOM     44  C   UNL A   1      38.242  31.382  31.143  1.00  0.00     0.074 A 
ATOM     45  C   UNL A   1      38.031  32.938  33.052  1.00  0.00     0.049 A 
ATOM     46  N   UNL A   1      39.258  30.648  31.518  1.00  0.00    -0.248 NA
ATOM     47  C   UNL A   1      37.682  31.010  29.833  1.00  0.00     0.031 C 
ATOM     48  C   UNL A   1      37.489  34.060  33.816  1.00  0.00     0.029 A 
ATOM     49  N   UNL A   1      39.056  32.462  33.830  1.00  0.00    -0.354 N 
ATOM     50  C   UNL A   1      39.460  29.730  30.494  1.00  0.00     0.074 A 
ATOM     51  C   UNL A   1      38.435  29.971  29.502  1.00  0.00     0.031 C 
ATOM     52  C   UNL A   1      38.196  34.195  34.951  1.00  0.00     0.029 A 
ATOM     53  C   UNL A   1      39.219  33.152  35.004  1.00  0.00     0.049 A 
ATOM     54  H   UNL A   1      39.620  31.698  33.570  1.00  0.00     0.167 HD
ATOM     55  C   UNL A   1      40.422  28.782  30.387  1.00  0.00     0.037 A 
ATOM     56  C   UNL A   1      40.093  32.960  36.009  1.00  0.00     0.037 A 
ATOM     57  C   UNL A   1      41.438  28.547  31.381  1.00  0.00     0.049 A 
ATOM     58  C   UNL A   1      41.120  31.864  35.888  1.00  0.00     0.074 A 
ATOM     59  C   UNL A   1      42.467  27.622  31.363  1.00  0.00     0.029 A 
ATOM     60  N   UNL A   1      41.547  29.239  32.581  1.00  0.00    -0.354 N 
ATOM     61  N   UNL A   1      41.325  31.023  34.903  1.00  0.00    -0.248 NA
ATOM     62  C   UNL A   1      42.047  31.704  37.015  1.00  0.00     0.031 C 
ATOM     63  C   UNL A   1      43.158  27.710  32.577  1.00  0.00     0.029 A 
ATOM     64  C   UNL A   1      42.609  28.742  33.320  1.00  0.00     0.049 A 
ATOM     65  H   UNL A   1      40.957  29.975  32.863  1.00  0.00     0.167 HD
ATOM     66  C   UNL A   1      42.424  30.258  35.275  1.00  0.00     0.074 A 
ATOM     67  C   UNL A   1      42.851  30.751  36.568  1.00  0.00     0.031 C 
ATOM     68  C   UNL A   1      43.026  29.243  34.606  1.00  0.00     0.037 A 
BRANCH  55  69
ATOM     69  C   UNL A   1      40.405  27.907  29.166  1.00  0.00     0.064 A 
ATOM     70  C   UNL A   1      39.635  26.736  29.102  1.00  0.00     0.173 A 
ATOM     71  C   UNL A   1      41.143  28.266  28.026  1.00  0.00     0.173 A 
ATOM     72  F   UNL A   1      38.921  26.338  30.166  1.00  0.00    -0.203 F 
ATOM     73  C   UNL A   1      39.626  25.944  27.956  1.00  0.00     0.198 A 
ATOM     74  C   UNL A   1      41.105  27.491  26.871  1.00  0.00     0.198 A 
ATOM     75  F   UNL A   1      41.895  29.378  28.030  1.00  0.00    -0.203 F 
ATOM     76  F   UNL A   1      38.923  24.803  27.937  1.00  0.00    -0.200 F 
ATOM     77  C   UNL A   1      40.354  26.326  26.839  1.00  0.00     0.200 A 
ATOM     78  F   UNL A   1      41.798  27.871  25.788  1.00  0.00    -0.200 F 
ATOM     79  F   UNL A   1      40.336  25.569  25.733  1.00  0.00    -0.200 F 
ENDBRANCH  55  69
BRANCH  56  80
ATOM     80  C   UNL A   1      40.038  33.827  37.216  1.00  0.00     0.064 A 
ATOM     81  C   UNL A   1      39.239  33.492  38.318  1.00  0.00     0.173 A 
ATOM     82  C   UNL A   1      40.776  35.018  37.284  1.00  0.00     0.173 A 
ATOM     83  F   UNL A   1      38.498  32.374  38.293  1.00  0.00    -0.203 F 
ATOM     84  C   UNL A   1      39.159  34.329  39.430  1.00  0.00     0.198 A 
ATOM     85  C   UNL A   1      40.723  35.835  38.411  1.00  0.00     0.198 A 
ATOM     86  F   UNL A   1      41.559  35.383  36.259  1.00  0.00    -0.203 F 
ATOM     87  F   UNL A   1      38.345  34.012  40.446  1.00  0.00    -0.200 F 
ATOM     88  C   UNL A   1      39.907  35.495  39.478  1.00  0.00     0.200 A 
ATOM     89  F   UNL A   1      41.460  36.954  38.460  1.00  0.00    -0.200 F 
ATOM     90  F   UNL A   1      39.833  36.296  40.550  1.00  0.00    -0.200 F 
ENDBRANCH  56  80
BRANCH  68  91
ATOM     91  C   UNL A   1      44.245  28.631  35.241  1.00  0.00     0.064 A 
ATOM     92  C   UNL A   1      45.540  29.096  34.965  1.00  0.00     0.173 A 
ATOM     93  C   UNL A   1      44.113  27.566  36.145  1.00  0.00     0.173 A 
ATOM     94  F   UNL A   1      45.726  30.106  34.100  1.00  0.00    -0.203 F 
ATOM     95  C   UNL A   1      46.657  28.484  35.530  1.00  0.00     0.198 A 
ATOM     96  C   UNL A   1      45.230  26.983  36.739  1.00  0.00     0.198 A 
ATOM     97  F   UNL A   1      42.898  27.089  36.456  1.00  0.00    -0.203 F 
ATOM     98  F   UNL A   1      47.887  28.897  35.191  1.00  0.00    -0.200 F 
ATOM     99  C   UNL A   1      46.501  27.432  36.419  1.00  0.00     0.200 A 
ATOM    100  F   UNL A   1      45.074  25.980  37.613  1.00  0.00    -0.200 F 
ATOM    101  F   UNL A   1      47.576  26.844  36.959  1.00  0.00    -0.200 F 
ENDBRANCH  68  91
ENDBRANCH  42  43
ENDBRANCH  35  37
ENDBRANCH  34  35
ENDBRANCH  33  34
ENDBRANCH  32  33
ENDBRANCH  31  32
ENDBRANCH   1  31
TORSDOF 17
ENDMDL
