MODEL 1
REMARK VINA RESULT:     -12.1      0.000      0.000
REMARK SMILES COc1ccc(CCNC(=O)[C@@]2(C)CC[C@@H](C(=O)OCCOCCOC(=O)c3ccc(-c4c5nc(c(-c6c(F)c(F)c(F)c(F)c6F)c6ccc([nH]6)c(-c6c(F)c(F)c(F)c(F)c6F)c6nc(c(-c7c(F)c(F)c(F)c(F)c7F)c7ccc4[nH]7)C=C6)C=C5)cc3)C2(C)C)cc1OC
REMARK SMILES IDX 20 1 19 2 17 3 18 4 16 5 12 6 13 7 14 8 91 9 15 10 92 11
REMARK SMILES IDX 93 12 10 13 9 14 11 16 8 17 7 18 6 19 3 20 4 21 95 22 5 23
REMARK SMILES IDX 94 24 2 25 1 26 96 27 97 28 21 29 22 30 23 31 24 32 25 33
REMARK SMILES IDX 26 34 27 35 28 36 29 37 90 38 30 39 89 40 31 41 32 42 33 43
REMARK SMILES IDX 83 44 34 45 88 46 82 47 84 48 35 49 87 50 81 51 80 52 36 54
REMARK SMILES IDX 68 55 48 56 67 57 49 58 52 59 66 60 85 61 50 62 51 63 65 65
REMARK SMILES IDX 86 66 53 67 37 68 38 69 46 70 39 71 40 72 44 73 47 74 41 75
REMARK SMILES IDX 42 76 45 77 43 78 69 79 70 80 78 81 71 82 72 83 76 84 79 85
REMARK SMILES IDX 73 86 74 87 77 88 75 89 54 90 55 91 63 92 56 93 57 94 61 95
REMARK SMILES IDX 64 96 58 97 59 98 62 99 60 100
REMARK H PARENT 9 15 84 53 52 64
REMARK Flexibility Score: inf
ROOT
ATOM      1  C   UNL A   1      38.626  22.185  26.126  1.00  0.00     0.261 C 
ENDROOT
BRANCH   1   2
ATOM      2  O   UNL A   1      37.935  22.080  24.866  1.00  0.00    -0.463 OA
BRANCH   2   3
ATOM      3  C   UNL A   1      36.999  21.104  24.779  1.00  0.00     0.309 C 
ATOM      4  O   UNL A   1      37.211  19.917  24.999  1.00  0.00    -0.252 OA
BRANCH   3   5
ATOM      5  C   UNL A   1      35.649  21.605  24.286  1.00  0.00     0.106 C 
ATOM      6  C   UNL A   1      33.698  23.065  24.834  1.00  0.00     0.052 C 
ATOM      7  C   UNL A   1      32.783  23.003  23.593  1.00  0.00     0.022 C 
ATOM      8  C   UNL A   1      34.951  23.905  24.431  1.00  0.00     0.018 C 
ATOM      9  C   UNL A   1      34.392  21.699  25.239  1.00  0.00    -0.008 C 
ATOM     10  C   UNL A   1      35.833  22.971  23.628  1.00  0.00     0.017 C 
ATOM     11  C   UNL A   1      34.728  21.720  26.745  1.00  0.00     0.013 C 
ATOM     12  C   UNL A   1      33.543  20.434  24.996  1.00  0.00     0.013 C 
BRANCH   6  13
ATOM     13  C   UNL A   1      32.991  23.830  25.992  1.00  0.00     0.226 C 
ATOM     14  N   UNL A   1      33.100  25.165  26.208  1.00  0.00    -0.355 N 
ATOM     15  H   UNL A   1      32.535  25.481  26.949  1.00  0.00     0.163 HD
ATOM     16  O   UNL A   1      32.236  23.239  26.774  1.00  0.00    -0.274 OA
BRANCH  14  17
ATOM     17  C   UNL A   1      33.864  26.233  25.585  1.00  0.00     0.120 C 
BRANCH  17  18
ATOM     18  C   UNL A   1      33.253  27.625  25.798  1.00  0.00     0.057 C 
BRANCH  18  19
ATOM     19  C   UNL A   1      32.223  27.993  24.758  1.00  0.00    -0.042 A 
ATOM     20  C   UNL A   1      30.405  28.695  22.730  1.00  0.00     0.160 A 
ATOM     21  C   UNL A   1      30.524  29.484  23.883  1.00  0.00     0.051 A 
ATOM     22  C   UNL A   1      31.182  27.540  22.589  1.00  0.00     0.160 A 
ATOM     23  C   UNL A   1      31.420  29.130  24.897  1.00  0.00     0.008 A 
ATOM     24  C   UNL A   1      32.088  27.206  23.604  1.00  0.00     0.054 A 
BRANCH  20  25
ATOM     25  O   UNL A   1      29.638  29.155  21.693  1.00  0.00    -0.493 OA
ATOM     26  C   UNL A   1      28.374  29.657  22.123  1.00  0.00     0.278 C 
ENDBRANCH  20  25
BRANCH  22  27
ATOM     27  O   UNL A   1      31.217  26.671  21.531  1.00  0.00    -0.493 OA
ATOM     28  C   UNL A   1      32.429  25.965  21.308  1.00  0.00     0.278 C 
ENDBRANCH  22  27
ENDBRANCH  18  19
ENDBRANCH  17  18
ENDBRANCH  14  17
ENDBRANCH   6  13
ENDBRANCH   3   5
ENDBRANCH   2   3
ENDBRANCH   1   2
BRANCH   1  29
ATOM     29  C   UNL A   1      39.929  21.382  26.144  1.00  0.00     0.202 C 
BRANCH  29  30
ATOM     30  O   UNL A   1      41.143  22.126  26.210  1.00  0.00    -0.374 OA
BRANCH  30  31
ATOM     31  C   UNL A   1      42.358  21.415  25.981  1.00  0.00     0.202 C 
BRANCH  31  32
ATOM     32  C   UNL A   1      43.492  22.212  25.312  1.00  0.00     0.261 C 
BRANCH  32  33
ATOM     33  O   UNL A   1      43.026  23.434  24.701  1.00  0.00    -0.460 OA
BRANCH  33  34
ATOM     34  C   UNL A   1      43.744  24.539  25.010  1.00  0.00     0.338 C 
ATOM     35  O   UNL A   1      44.815  24.880  24.523  1.00  0.00    -0.246 OA
BRANCH  34  36
ATOM     36  C   UNL A   1      42.978  25.435  25.902  1.00  0.00     0.060 A 
ATOM     37  C   UNL A   1      43.616  26.614  26.312  1.00  0.00     0.016 A 
ATOM     38  C   UNL A   1      41.710  25.117  26.396  1.00  0.00     0.016 A 
ATOM     39  C   UNL A   1      43.030  27.434  27.273  1.00  0.00     0.010 A 
ATOM     40  C   UNL A   1      41.123  25.945  27.367  1.00  0.00     0.010 A 
ATOM     41  C   UNL A   1      41.801  27.082  27.847  1.00  0.00    -0.014 A 
BRANCH  41  42
ATOM     42  C   UNL A   1      41.332  27.820  29.051  1.00  0.00     0.031 A 
ATOM     43  C   UNL A   1      42.098  27.683  30.342  1.00  0.00     0.074 A 
ATOM     44  C   UNL A   1      40.291  28.670  28.986  1.00  0.00     0.049 A 
ATOM     45  N   UNL A   1      41.886  28.252  31.503  1.00  0.00    -0.248 NA
ATOM     46  C   UNL A   1      43.266  26.787  30.320  1.00  0.00     0.031 C 
ATOM     47  C   UNL A   1      39.494  28.939  27.792  1.00  0.00     0.029 A 
ATOM     48  N   UNL A   1      39.731  29.472  29.952  1.00  0.00    -0.354 N 
ATOM     49  C   UNL A   1      42.884  27.780  32.347  1.00  0.00     0.074 A 
ATOM     50  C   UNL A   1      43.684  26.853  31.576  1.00  0.00     0.031 C 
ATOM     51  C   UNL A   1      38.545  29.842  28.095  1.00  0.00     0.029 A 
ATOM     52  C   UNL A   1      38.646  30.191  29.511  1.00  0.00     0.049 A 
ATOM     53  H   UNL A   1      40.074  29.526  30.873  1.00  0.00     0.167 HD
ATOM     54  C   UNL A   1      43.121  28.099  33.642  1.00  0.00     0.037 A 
ATOM     55  C   UNL A   1      37.817  31.020  30.179  1.00  0.00     0.037 A 
ATOM     56  C   UNL A   1      42.336  29.029  34.411  1.00  0.00     0.049 A 
ATOM     57  C   UNL A   1      38.056  31.294  31.643  1.00  0.00     0.074 A 
ATOM     58  C   UNL A   1      42.519  29.432  35.723  1.00  0.00     0.029 A 
ATOM     59  N   UNL A   1      41.216  29.697  33.942  1.00  0.00    -0.354 N 
ATOM     60  N   UNL A   1      39.020  30.866  32.422  1.00  0.00    -0.248 NA
ATOM     61  C   UNL A   1      37.090  32.172  32.320  1.00  0.00     0.031 C 
ATOM     62  C   UNL A   1      41.473  30.292  36.068  1.00  0.00     0.029 A 
ATOM     63  C   UNL A   1      40.677  30.482  34.951  1.00  0.00     0.049 A 
ATOM     64  H   UNL A   1      40.855  29.624  33.029  1.00  0.00     0.167 HD
ATOM     65  C   UNL A   1      38.797  31.449  33.664  1.00  0.00     0.074 A 
ATOM     66  C   UNL A   1      37.615  32.273  33.533  1.00  0.00     0.031 C 
ATOM     67  C   UNL A   1      39.509  31.313  34.810  1.00  0.00     0.037 A 
BRANCH  54  68
ATOM     68  C   UNL A   1      44.268  27.415  34.331  1.00  0.00     0.064 A 
ATOM     69  C   UNL A   1      45.555  27.971  34.358  1.00  0.00     0.173 A 
ATOM     70  C   UNL A   1      44.058  26.214  35.026  1.00  0.00     0.173 A 
ATOM     71  F   UNL A   1      45.812  29.111  33.701  1.00  0.00    -0.203 F 
ATOM     72  C   UNL A   1      46.594  27.340  35.037  1.00  0.00     0.198 A 
ATOM     73  C   UNL A   1      45.090  25.602  35.731  1.00  0.00     0.198 A 
ATOM     74  F   UNL A   1      42.844  25.642  35.038  1.00  0.00    -0.203 F 
ATOM     75  F   UNL A   1      47.826  27.868  35.015  1.00  0.00    -0.200 F 
ATOM     76  C   UNL A   1      46.359  26.162  35.731  1.00  0.00     0.200 A 
ATOM     77  F   UNL A   1      44.857  24.472  36.413  1.00  0.00    -0.200 F 
ATOM     78  F   UNL A   1      47.357  25.563  36.395  1.00  0.00    -0.200 F 
ENDBRANCH  54  68
BRANCH  55  79
ATOM     79  C   UNL A   1      36.662  31.644  29.479  1.00  0.00     0.064 A 
ATOM     80  C   UNL A   1      35.576  30.874  29.037  1.00  0.00     0.173 A 
ATOM     81  C   UNL A   1      36.644  33.018  29.192  1.00  0.00     0.173 A 
ATOM     82  F   UNL A   1      35.559  29.550  29.258  1.00  0.00    -0.203 F 
ATOM     83  C   UNL A   1      34.531  31.449  28.314  1.00  0.00     0.198 A 
ATOM     84  C   UNL A   1      35.583  33.596  28.500  1.00  0.00     0.198 A 
ATOM     85  F   UNL A   1      37.661  33.799  29.585  1.00  0.00    -0.203 F 
ATOM     86  F   UNL A   1      33.538  30.679  27.851  1.00  0.00    -0.200 F 
ATOM     87  C   UNL A   1      34.533  32.810  28.052  1.00  0.00     0.200 A 
ATOM     88  F   UNL A   1      35.583  34.914  28.259  1.00  0.00    -0.200 F 
ATOM     89  F   UNL A   1      33.531  33.361  27.355  1.00  0.00    -0.200 F 
ENDBRANCH  55  79
BRANCH  67  90
ATOM     90  C   UNL A   1      39.065  32.109  36.006  1.00  0.00     0.064 A 
ATOM     91  C   UNL A   1      39.461  33.440  36.202  1.00  0.00     0.173 A 
ATOM     92  C   UNL A   1      38.192  31.541  36.950  1.00  0.00     0.173 A 
ATOM     93  F   UNL A   1      40.302  34.028  35.338  1.00  0.00    -0.203 F 
ATOM     94  C   UNL A   1      39.026  34.163  37.311  1.00  0.00     0.198 A 
ATOM     95  C   UNL A   1      37.732  32.277  38.038  1.00  0.00     0.198 A 
ATOM     96  F   UNL A   1      37.773  30.275  36.807  1.00  0.00    -0.203 F 
ATOM     97  F   UNL A   1      39.460  35.416  37.504  1.00  0.00    -0.200 F 
ATOM     98  C   UNL A   1      38.156  33.584  38.223  1.00  0.00     0.200 A 
ATOM     99  F   UNL A   1      36.877  31.722  38.907  1.00  0.00    -0.200 F 
ATOM    100  F   UNL A   1      37.731  34.284  39.284  1.00  0.00    -0.200 F 
ENDBRANCH  67  90
ENDBRANCH  41  42
ENDBRANCH  34  36
ENDBRANCH  33  34
ENDBRANCH  32  33
ENDBRANCH  31  32
ENDBRANCH  30  31
ENDBRANCH  29  30
ENDBRANCH   1  29
TORSDOF 20
ENDMDL
MODEL 2
REMARK VINA RESULT:     -11.8      2.790      8.814
REMARK SMILES COc1ccc(CCNC(=O)[C@@]2(C)CC[C@@H](C(=O)OCCOCCOC(=O)c3ccc(-c4c5nc(c(-c6c(F)c(F)c(F)c(F)c6F)c6ccc([nH]6)c(-c6c(F)c(F)c(F)c(F)c6F)c6nc(c(-c7c(F)c(F)c(F)c(F)c7F)c7ccc4[nH]7)C=C6)C=C5)cc3)C2(C)C)cc1OC
REMARK SMILES IDX 20 1 19 2 17 3 18 4 16 5 12 6 13 7 14 8 91 9 15 10 92 11
REMARK SMILES IDX 93 12 10 13 9 14 11 16 8 17 7 18 6 19 3 20 4 21 95 22 5 23
REMARK SMILES IDX 94 24 2 25 1 26 96 27 97 28 21 29 22 30 23 31 24 32 25 33
REMARK SMILES IDX 26 34 27 35 28 36 29 37 90 38 30 39 89 40 31 41 32 42 33 43
REMARK SMILES IDX 83 44 34 45 88 46 82 47 84 48 35 49 87 50 81 51 80 52 36 54
REMARK SMILES IDX 68 55 48 56 67 57 49 58 52 59 66 60 85 61 50 62 51 63 65 65
REMARK SMILES IDX 86 66 53 67 37 68 38 69 46 70 39 71 40 72 44 73 47 74 41 75
REMARK SMILES IDX 42 76 45 77 43 78 69 79 70 80 78 81 71 82 72 83 76 84 79 85
REMARK SMILES IDX 73 86 74 87 77 88 75 89 54 90 55 91 63 92 56 93 57 94 61 95
REMARK SMILES IDX 64 96 58 97 59 98 62 99 60 100
REMARK H PARENT 9 15 84 53 52 64
REMARK Flexibility Score: inf
ROOT
ATOM      1  C   UNL A   1      31.631  26.416  25.895  1.00  0.00     0.261 C 
ENDROOT
BRANCH   1   2
ATOM      2  O   UNL A   1      30.758  25.624  26.723  1.00  0.00    -0.463 OA
BRANCH   2   3
ATOM      3  C   UNL A   1      30.900  24.280  26.624  1.00  0.00     0.309 C 
ATOM      4  O   UNL A   1      30.352  23.467  27.362  1.00  0.00    -0.252 OA
BRANCH   3   5
ATOM      5  C   UNL A   1      31.891  23.855  25.549  1.00  0.00     0.106 C 
ATOM      6  C   UNL A   1      33.401  22.017  24.788  1.00  0.00     0.052 C 
ATOM      7  C   UNL A   1      33.978  22.498  23.441  1.00  0.00     0.022 C 
ATOM      8  C   UNL A   1      31.899  21.669  24.539  1.00  0.00     0.018 C 
ATOM      9  C   UNL A   1      33.251  23.132  25.904  1.00  0.00    -0.008 C 
ATOM     10  C   UNL A   1      31.167  22.995  24.515  1.00  0.00     0.017 C 
ATOM     11  C   UNL A   1      33.284  22.474  27.298  1.00  0.00     0.013 C 
ATOM     12  C   UNL A   1      34.351  24.214  25.902  1.00  0.00     0.013 C 
BRANCH   6  13
ATOM     13  C   UNL A   1      34.103  20.703  25.241  1.00  0.00     0.226 C 
ATOM     14  N   UNL A   1      35.431  20.459  25.113  1.00  0.00    -0.355 N 
ATOM     15  H   UNL A   1      35.705  19.601  25.509  1.00  0.00     0.163 HD
ATOM     16  O   UNL A   1      33.463  19.802  25.797  1.00  0.00    -0.274 OA
BRANCH  14  17
ATOM     17  C   UNL A   1      36.542  21.186  24.521  1.00  0.00     0.120 C 
BRANCH  17  18
ATOM     18  C   UNL A   1      37.900  20.844  25.150  1.00  0.00     0.057 C 
BRANCH  18  19
ATOM     19  C   UNL A   1      38.520  21.995  25.903  1.00  0.00    -0.042 A 
ATOM     20  C   UNL A   1      39.655  24.072  27.423  1.00  0.00     0.160 A 
ATOM     21  C   UNL A   1      38.492  24.294  26.671  1.00  0.00     0.051 A 
ATOM     22  C   UNL A   1      40.269  22.815  27.408  1.00  0.00     0.160 A 
ATOM     23  C   UNL A   1      37.933  23.265  25.907  1.00  0.00     0.008 A 
ATOM     24  C   UNL A   1      39.688  21.788  26.652  1.00  0.00     0.054 A 
BRANCH  20  25
ATOM     25  O   UNL A   1      40.082  25.051  28.280  1.00  0.00    -0.493 OA
ATOM     26  C   UNL A   1      39.005  25.711  28.942  1.00  0.00     0.278 C 
ENDBRANCH  20  25
BRANCH  22  27
ATOM     27  O   UNL A   1      41.383  22.413  28.094  1.00  0.00    -0.493 OA
ATOM     28  C   UNL A   1      42.066  21.265  27.611  1.00  0.00     0.278 C 
ENDBRANCH  22  27
ENDBRANCH  18  19
ENDBRANCH  17  18
ENDBRANCH  14  17
ENDBRANCH   6  13
ENDBRANCH   3   5
ENDBRANCH   2   3
ENDBRANCH   1   2
BRANCH   1  29
ATOM     29  C   UNL A   1      32.293  27.557  26.670  1.00  0.00     0.202 C 
BRANCH  29  30
ATOM     30  O   UNL A   1      33.283  28.316  25.980  1.00  0.00    -0.374 OA
BRANCH  30  31
ATOM     31  C   UNL A   1      32.863  29.530  25.361  1.00  0.00     0.202 C 
BRANCH  31  32
ATOM     32  C   UNL A   1      32.183  30.558  26.282  1.00  0.00     0.261 C 
BRANCH  32  33
ATOM     33  O   UNL A   1      32.879  30.726  27.536  1.00  0.00    -0.460 OA
BRANCH  33  34
ATOM     34  C   UNL A   1      33.619  31.856  27.634  1.00  0.00     0.338 C 
ATOM     35  O   UNL A   1      33.206  33.008  27.610  1.00  0.00    -0.246 OA
BRANCH  34  36
ATOM     36  C   UNL A   1      35.022  31.541  27.978  1.00  0.00     0.060 A 
ATOM     37  C   UNL A   1      35.314  30.203  28.274  1.00  0.00     0.016 A 
ATOM     38  C   UNL A   1      36.016  32.516  28.092  1.00  0.00     0.016 A 
ATOM     39  C   UNL A   1      36.570  29.846  28.759  1.00  0.00     0.010 A 
ATOM     40  C   UNL A   1      37.281  32.154  28.583  1.00  0.00     0.010 A 
ATOM     41  C   UNL A   1      37.550  30.826  28.966  1.00  0.00    -0.014 A 
BRANCH  41  42
ATOM     42  C   UNL A   1      38.775  30.467  29.731  1.00  0.00     0.031 A 
ATOM     43  C   UNL A   1      38.900  30.908  31.167  1.00  0.00     0.074 A 
ATOM     44  C   UNL A   1      39.730  29.686  29.193  1.00  0.00     0.049 A 
ATOM     45  N   UNL A   1      39.863  30.687  32.028  1.00  0.00    -0.248 NA
ATOM     46  C   UNL A   1      37.785  31.703  31.709  1.00  0.00     0.031 C 
ATOM     47  C   UNL A   1      39.713  29.146  27.836  1.00  0.00     0.029 A 
ATOM     48  N   UNL A   1      40.900  29.207  29.732  1.00  0.00    -0.354 N 
ATOM     49  C   UNL A   1      39.475  31.317  33.204  1.00  0.00     0.074 A 
ATOM     50  C   UNL A   1      38.205  31.957  32.940  1.00  0.00     0.031 C 
ATOM     51  C   UNL A   1      40.821  28.409  27.646  1.00  0.00     0.029 A 
ATOM     52  C   UNL A   1      41.642  28.453  28.856  1.00  0.00     0.049 A 
ATOM     53  H   UNL A   1      41.180  29.386  30.659  1.00  0.00     0.167 HD
ATOM     54  C   UNL A   1      40.112  31.349  34.399  1.00  0.00     0.037 A 
ATOM     55  C   UNL A   1      42.854  27.880  29.005  1.00  0.00     0.037 A 
ATOM     56  C   UNL A   1      41.370  30.704  34.672  1.00  0.00     0.049 A 
ATOM     57  C   UNL A   1      43.579  28.000  30.322  1.00  0.00     0.074 A 
ATOM     58  C   UNL A   1      42.077  30.662  35.862  1.00  0.00     0.029 A 
ATOM     59  N   UNL A   1      42.113  29.993  33.742  1.00  0.00    -0.354 N 
ATOM     60  N   UNL A   1      43.190  28.573  31.436  1.00  0.00    -0.248 NA
ATOM     61  C   UNL A   1      44.915  27.390  30.403  1.00  0.00     0.031 C 
ATOM     62  C   UNL A   1      43.278  29.983  35.636  1.00  0.00     0.029 A 
ATOM     63  C   UNL A   1      43.288  29.540  34.324  1.00  0.00     0.049 A 
ATOM     64  H   UNL A   1      41.848  29.835  32.808  1.00  0.00     0.167 HD
ATOM     65  C   UNL A   1      44.211  28.360  32.355  1.00  0.00     0.074 A 
ATOM     66  C   UNL A   1      45.233  27.594  31.673  1.00  0.00     0.031 C 
ATOM     67  C   UNL A   1      44.294  28.764  33.646  1.00  0.00     0.037 A 
BRANCH  54  68
ATOM     68  C   UNL A   1      39.474  32.133  35.510  1.00  0.00     0.064 A 
ATOM     69  C   UNL A   1      38.594  31.539  36.428  1.00  0.00     0.173 A 
ATOM     70  C   UNL A   1      39.796  33.487  35.694  1.00  0.00     0.173 A 
ATOM     71  F   UNL A   1      38.245  30.252  36.291  1.00  0.00    -0.203 F 
ATOM     72  C   UNL A   1      38.045  32.276  37.474  1.00  0.00     0.198 A 
ATOM     73  C   UNL A   1      39.271  34.212  36.759  1.00  0.00     0.198 A 
ATOM     74  F   UNL A   1      40.637  34.103  34.849  1.00  0.00    -0.203 F 
ATOM     75  F   UNL A   1      37.175  31.698  38.315  1.00  0.00    -0.200 F 
ATOM     76  C   UNL A   1      38.391  33.608  37.645  1.00  0.00     0.200 A 
ATOM     77  F   UNL A   1      39.619  35.495  36.932  1.00  0.00    -0.200 F 
ATOM     78  F   UNL A   1      37.873  34.311  38.661  1.00  0.00    -0.200 F 
ENDBRANCH  54  68
BRANCH  55  79
ATOM     79  C   UNL A   1      43.481  27.151  27.869  1.00  0.00     0.064 A 
ATOM     80  C   UNL A   1      44.108  27.838  26.820  1.00  0.00     0.173 A 
ATOM     81  C   UNL A   1      43.420  25.751  27.785  1.00  0.00     0.173 A 
ATOM     82  F   UNL A   1      44.166  29.178  26.837  1.00  0.00    -0.203 F 
ATOM     83  C   UNL A   1      44.627  27.156  25.720  1.00  0.00     0.198 A 
ATOM     84  C   UNL A   1      43.969  25.069  26.701  1.00  0.00     0.198 A 
ATOM     85  F   UNL A   1      42.824  25.045  28.757  1.00  0.00    -0.203 F 
ATOM     86  F   UNL A   1      45.166  27.842  24.703  1.00  0.00    -0.200 F 
ATOM     87  C   UNL A   1      44.562  25.773  25.665  1.00  0.00     0.200 A 
ATOM     88  F   UNL A   1      43.914  23.731  26.657  1.00  0.00    -0.200 F 
ATOM     89  F   UNL A   1      45.058  25.118  24.606  1.00  0.00    -0.200 F 
ENDBRANCH  55  79
BRANCH  67  90
ATOM     90  C   UNL A   1      45.507  28.346  34.431  1.00  0.00     0.064 A 
ATOM     91  C   UNL A   1      46.645  29.158  34.528  1.00  0.00     0.173 A 
ATOM     92  C   UNL A   1      45.511  27.129  35.133  1.00  0.00     0.173 A 
ATOM     93  F   UNL A   1      46.700  30.326  33.869  1.00  0.00    -0.203 F 
ATOM     94  C   UNL A   1      47.753  28.757  35.272  1.00  0.00     0.198 A 
ATOM     95  C   UNL A   1      46.605  26.746  35.904  1.00  0.00     0.198 A 
ATOM     96  F   UNL A   1      44.444  26.316  35.084  1.00  0.00    -0.203 F 
ATOM     97  F   UNL A   1      48.850  29.526  35.307  1.00  0.00    -0.200 F 
ATOM     98  C   UNL A   1      47.729  27.555  35.966  1.00  0.00     0.200 A 
ATOM     99  F   UNL A   1      46.572  25.595  36.588  1.00  0.00    -0.200 F 
ATOM    100  F   UNL A   1      48.792  27.175  36.689  1.00  0.00    -0.200 F 
ENDBRANCH  67  90
ENDBRANCH  41  42
ENDBRANCH  34  36
ENDBRANCH  33  34
ENDBRANCH  32  33
ENDBRANCH  31  32
ENDBRANCH  30  31
ENDBRANCH  29  30
ENDBRANCH   1  29
TORSDOF 20
ENDMDL
MODEL 3
REMARK VINA RESULT:     -11.5      0.977      7.056
REMARK SMILES COc1ccc(CCNC(=O)[C@@]2(C)CC[C@@H](C(=O)OCCOCCOC(=O)c3ccc(-c4c5nc(c(-c6c(F)c(F)c(F)c(F)c6F)c6ccc([nH]6)c(-c6c(F)c(F)c(F)c(F)c6F)c6nc(c(-c7c(F)c(F)c(F)c(F)c7F)c7ccc4[nH]7)C=C6)C=C5)cc3)C2(C)C)cc1OC
REMARK SMILES IDX 20 1 19 2 17 3 18 4 16 5 12 6 13 7 14 8 91 9 15 10 92 11
REMARK SMILES IDX 93 12 10 13 9 14 11 16 8 17 7 18 6 19 3 20 4 21 95 22 5 23
REMARK SMILES IDX 94 24 2 25 1 26 96 27 97 28 21 29 22 30 23 31 24 32 25 33
REMARK SMILES IDX 26 34 27 35 28 36 29 37 90 38 30 39 89 40 31 41 32 42 33 43
REMARK SMILES IDX 83 44 34 45 88 46 82 47 84 48 35 49 87 50 81 51 80 52 36 54
REMARK SMILES IDX 68 55 48 56 67 57 49 58 52 59 66 60 85 61 50 62 51 63 65 65
REMARK SMILES IDX 86 66 53 67 37 68 38 69 46 70 39 71 40 72 44 73 47 74 41 75
REMARK SMILES IDX 42 76 45 77 43 78 69 79 70 80 78 81 71 82 72 83 76 84 79 85
REMARK SMILES IDX 73 86 74 87 77 88 75 89 54 90 55 91 63 92 56 93 57 94 61 95
REMARK SMILES IDX 64 96 58 97 59 98 62 99 60 100
REMARK H PARENT 9 15 84 53 52 64
REMARK Flexibility Score: inf
ROOT
ATOM      1  C   UNL A   1      38.332  21.043  25.766  1.00  0.00     0.261 C 
ENDROOT
BRANCH   1   2
ATOM      2  O   UNL A   1      37.859  21.539  24.498  1.00  0.00    -0.463 OA
BRANCH   2   3
ATOM      3  C   UNL A   1      36.972  22.563  24.552  1.00  0.00     0.309 C 
ATOM      4  O   UNL A   1      37.209  23.663  25.038  1.00  0.00    -0.252 OA
BRANCH   3   5
ATOM      5  C   UNL A   1      35.592  22.193  24.025  1.00  0.00     0.106 C 
ATOM      6  C   UNL A   1      33.136  22.464  24.389  1.00  0.00     0.052 C 
ATOM      7  C   UNL A   1      32.467  21.742  23.202  1.00  0.00     0.022 C 
ATOM      8  C   UNL A   1      33.782  23.767  23.821  1.00  0.00     0.018 C 
ATOM      9  C   UNL A   1      34.419  21.751  24.988  1.00  0.00    -0.008 C 
ATOM     10  C   UNL A   1      35.069  23.332  23.152  1.00  0.00     0.017 C 
ATOM     11  C   UNL A   1      34.603  22.173  26.460  1.00  0.00     0.013 C 
ATOM     12  C   UNL A   1      34.379  20.209  24.974  1.00  0.00     0.013 C 
BRANCH   6  13
ATOM     13  C   UNL A   1      32.065  22.904  25.430  1.00  0.00     0.226 C 
ATOM     14  N   UNL A   1      32.023  24.126  26.018  1.00  0.00    -0.355 N 
ATOM     15  H   UNL A   1      31.240  24.244  26.604  1.00  0.00     0.163 HD
ATOM     16  O   UNL A   1      31.143  22.144  25.751  1.00  0.00    -0.274 OA
BRANCH  14  17
ATOM     17  C   UNL A   1      32.877  25.301  25.974  1.00  0.00     0.120 C 
BRANCH  17  18
ATOM     18  C   UNL A   1      32.161  26.592  26.397  1.00  0.00     0.057 C 
BRANCH  18  19
ATOM     19  C   UNL A   1      31.666  27.412  25.231  1.00  0.00    -0.042 A 
ATOM     20  C   UNL A   1      30.860  28.915  22.994  1.00  0.00     0.160 A 
ATOM     21  C   UNL A   1      31.008  29.527  24.247  1.00  0.00     0.051 A 
ATOM     22  C   UNL A   1      31.097  27.544  22.853  1.00  0.00     0.160 A 
ATOM     23  C   UNL A   1      31.398  28.779  25.362  1.00  0.00     0.008 A 
ATOM     24  C   UNL A   1      31.505  26.809  23.975  1.00  0.00     0.054 A 
BRANCH  20  25
ATOM     25  O   UNL A   1      30.632  29.704  21.898  1.00  0.00    -0.493 OA
ATOM     26  C   UNL A   1      29.287  30.173  21.827  1.00  0.00     0.278 C 
ENDBRANCH  20  25
BRANCH  22  27
ATOM     27  O   UNL A   1      31.029  26.789  21.713  1.00  0.00    -0.493 OA
ATOM     28  C   UNL A   1      32.136  25.950  21.419  1.00  0.00     0.278 C 
ENDBRANCH  22  27
ENDBRANCH  18  19
ENDBRANCH  17  18
ENDBRANCH  14  17
ENDBRANCH   6  13
ENDBRANCH   3   5
ENDBRANCH   2   3
ENDBRANCH   1   2
BRANCH   1  29
ATOM     29  C   UNL A   1      39.716  21.587  26.125  1.00  0.00     0.202 C 
BRANCH  29  30
ATOM     30  O   UNL A   1      40.366  21.002  27.251  1.00  0.00    -0.374 OA
BRANCH  30  31
ATOM     31  C   UNL A   1      41.762  20.740  27.136  1.00  0.00     0.202 C 
BRANCH  31  32
ATOM     32  C   UNL A   1      42.500  21.483  26.009  1.00  0.00     0.261 C 
BRANCH  32  33
ATOM     33  O   UNL A   1      43.307  22.576  26.500  1.00  0.00    -0.460 OA
BRANCH  33  34
ATOM     34  C   UNL A   1      43.169  23.739  25.822  1.00  0.00     0.338 C 
ATOM     35  O   UNL A   1      43.367  23.921  24.627  1.00  0.00    -0.246 OA
BRANCH  34  36
ATOM     36  C   UNL A   1      42.543  24.775  26.671  1.00  0.00     0.060 A 
ATOM     37  C   UNL A   1      43.172  26.027  26.706  1.00  0.00     0.016 A 
ATOM     38  C   UNL A   1      41.427  24.530  27.475  1.00  0.00     0.016 A 
ATOM     39  C   UNL A   1      42.742  27.007  27.598  1.00  0.00     0.010 A 
ATOM     40  C   UNL A   1      40.997  25.519  28.374  1.00  0.00     0.010 A 
ATOM     41  C   UNL A   1      41.682  26.746  28.475  1.00  0.00    -0.014 A 
BRANCH  41  42
ATOM     42  C   UNL A   1      41.421  27.696  29.591  1.00  0.00     0.031 A 
ATOM     43  C   UNL A   1      40.235  28.622  29.505  1.00  0.00     0.074 A 
ATOM     44  C   UNL A   1      42.171  27.682  30.708  1.00  0.00     0.049 A 
ATOM     45  N   UNL A   1      39.804  29.509  30.368  1.00  0.00    -0.248 NA
ATOM     46  C   UNL A   1      39.420  28.534  28.282  1.00  0.00     0.031 C 
ATOM     47  C   UNL A   1      43.314  26.804  30.947  1.00  0.00     0.029 A 
ATOM     48  N   UNL A   1      42.076  28.431  31.857  1.00  0.00    -0.354 N 
ATOM     49  C   UNL A   1      38.678  30.085  29.793  1.00  0.00     0.074 A 
ATOM     50  C   UNL A   1      38.509  29.473  28.493  1.00  0.00     0.031 C 
ATOM     51  C   UNL A   1      43.816  27.064  32.167  1.00  0.00     0.029 A 
ATOM     52  C   UNL A   1      43.052  28.149  32.781  1.00  0.00     0.049 A 
ATOM     53  H   UNL A   1      41.374  29.106  32.004  1.00  0.00     0.167 HD
ATOM     54  C   UNL A   1      37.853  31.030  30.305  1.00  0.00     0.037 A 
ATOM     55  C   UNL A   1      43.312  28.715  33.978  1.00  0.00     0.037 A 
ATOM     56  C   UNL A   1      38.009  31.635  31.602  1.00  0.00     0.049 A 
ATOM     57  C   UNL A   1      42.424  29.822  34.488  1.00  0.00     0.074 A 
ATOM     58  C   UNL A   1      37.205  32.582  32.213  1.00  0.00     0.029 A 
ATOM     59  N   UNL A   1      39.041  31.358  32.486  1.00  0.00    -0.354 N 
ATOM     60  N   UNL A   1      41.346  30.338  33.949  1.00  0.00    -0.248 NA
ATOM     61  C   UNL A   1      42.790  30.424  35.779  1.00  0.00     0.031 C 
ATOM     62  C   UNL A   1      37.785  32.926  33.438  1.00  0.00     0.029 A 
ATOM     63  C   UNL A   1      38.912  32.143  33.622  1.00  0.00     0.049 A 
ATOM     64  H   UNL A   1      39.758  30.702  32.330  1.00  0.00     0.167 HD
ATOM     65  C   UNL A   1      40.887  31.294  34.848  1.00  0.00     0.074 A 
ATOM     66  C   UNL A   1      41.796  31.278  35.975  1.00  0.00     0.031 C 
ATOM     67  C   UNL A   1      39.810  32.111  34.748  1.00  0.00     0.037 A 
BRANCH  54  68
ATOM     68  C   UNL A   1      36.710  31.497  29.449  1.00  0.00     0.064 A 
ATOM     69  C   UNL A   1      35.641  30.653  29.115  1.00  0.00     0.173 A 
ATOM     70  C   UNL A   1      36.656  32.828  29.008  1.00  0.00     0.173 A 
ATOM     71  F   UNL A   1      35.648  29.369  29.501  1.00  0.00    -0.203 F 
ATOM     72  C   UNL A   1      34.571  31.118  28.354  1.00  0.00     0.198 A 
ATOM     73  C   UNL A   1      35.571  33.299  28.276  1.00  0.00     0.198 A 
ATOM     74  F   UNL A   1      37.649  33.680  29.305  1.00  0.00    -0.203 F 
ATOM     75  F   UNL A   1      33.580  30.283  28.011  1.00  0.00    -0.200 F 
ATOM     76  C   UNL A   1      34.532  32.442  27.943  1.00  0.00     0.200 A 
ATOM     77  F   UNL A   1      35.528  34.583  27.893  1.00  0.00    -0.200 F 
ATOM     78  F   UNL A   1      33.496  32.892  27.223  1.00  0.00    -0.200 F 
ENDBRANCH  54  68
BRANCH  55  79
ATOM     79  C   UNL A   1      44.481  28.262  34.779  1.00  0.00     0.064 A 
ATOM     80  C   UNL A   1      44.351  27.264  35.756  1.00  0.00     0.173 A 
ATOM     81  C   UNL A   1      45.743  28.855  34.620  1.00  0.00     0.173 A 
ATOM     82  F   UNL A   1      43.159  26.686  35.969  1.00  0.00    -0.203 F 
ATOM     83  C   UNL A   1      45.431  26.895  36.558  1.00  0.00     0.198 A 
ATOM     84  C   UNL A   1      46.829  28.462  35.399  1.00  0.00     0.198 A 
ATOM     85  F   UNL A   1      45.921  29.821  33.706  1.00  0.00    -0.203 F 
ATOM     86  F   UNL A   1      45.263  25.982  37.524  1.00  0.00    -0.200 F 
ATOM     87  C   UNL A   1      46.670  27.490  36.374  1.00  0.00     0.200 A 
ATOM     88  F   UNL A   1      48.027  29.032  35.210  1.00  0.00    -0.200 F 
ATOM     89  F   UNL A   1      47.706  27.138  37.147  1.00  0.00    -0.200 F 
ENDBRANCH  55  79
BRANCH  67  90
ATOM     90  C   UNL A   1      39.517  33.026  35.906  1.00  0.00     0.064 A 
ATOM     91  C   UNL A   1      40.019  34.333  35.965  1.00  0.00     0.173 A 
ATOM     92  C   UNL A   1      38.685  32.597  36.953  1.00  0.00     0.173 A 
ATOM     93  F   UNL A   1      40.829  34.790  34.998  1.00  0.00    -0.203 F 
ATOM     94  C   UNL A   1      39.724  35.168  37.042  1.00  0.00     0.198 A 
ATOM     95  C   UNL A   1      38.363  33.444  38.010  1.00  0.00     0.198 A 
ATOM     96  F   UNL A   1      38.168  31.359  36.943  1.00  0.00    -0.203 F 
ATOM     97  F   UNL A   1      40.259  36.395  37.102  1.00  0.00    -0.200 F 
ATOM     98  C   UNL A   1      38.891  34.725  38.059  1.00  0.00     0.200 A 
ATOM     99  F   UNL A   1      37.543  33.022  38.981  1.00  0.00    -0.200 F 
ATOM    100  F   UNL A   1      38.601  35.533  39.088  1.00  0.00    -0.200 F 
ENDBRANCH  67  90
ENDBRANCH  41  42
ENDBRANCH  34  36
ENDBRANCH  33  34
ENDBRANCH  32  33
ENDBRANCH  31  32
ENDBRANCH  30  31
ENDBRANCH  29  30
ENDBRANCH   1  29
TORSDOF 20
ENDMDL
