MODEL 1
REMARK VINA RESULT:     -11.8      0.000      0.000
REMARK SMILES O=C(OCCOCCOC(=O)c1ccc2c(c1)[C@@H](C1CCOCC1)C(=O)N2)c1ccc(-c2c3nc(c(-c4c(F)c(F)c(F)c(F)c4F)c4ccc([nH]4)c(-c4c(F)c(F)c(F)c(F)c4F)c4nc(c(-c5c(F)c(F)c(F)c(F)c5F)c5ccc2[nH]5)C=C4)C=C3)cc1
REMARK SMILES IDX 5 1 4 2 3 3 2 4 1 5 28 6 29 7 90 8 30 9 89 10 31 11 32 12
REMARK SMILES IDX 33 13 83 14 34 15 88 16 82 17 84 18 35 19 87 20 81 21 80 22
REMARK SMILES IDX 36 24 68 25 48 26 67 27 49 28 52 29 66 30 85 31 50 32 51 33
REMARK SMILES IDX 65 35 86 36 53 37 37 38 38 39 46 40 39 41 40 42 44 43 47 44
REMARK SMILES IDX 41 45 42 46 45 47 43 48 69 49 70 50 78 51 71 52 72 53 76 54
REMARK SMILES IDX 79 55 73 56 74 57 77 58 75 59 54 60 55 61 63 62 56 63 57 64
REMARK SMILES IDX 61 65 64 66 58 67 59 68 62 69 60 70 6 71 7 72 8 73 9 74
REMARK SMILES IDX 10 75 11 76 12 77 13 78 17 79 14 80 16 81 15 82 18 83 27 84
REMARK SMILES IDX 25 85 26 87 19 88 20 89 24 90 21 91 23 92 22 93
REMARK H PARENT 84 23 52 34 27 86
REMARK Flexibility Score: inf
ROOT
ATOM      1  C   UNL A   1      38.319  19.457  25.005  1.00  0.00     0.202 C 
ENDROOT
BRANCH   1   2
ATOM      2  C   UNL A   1      39.369  19.596  26.108  1.00  0.00     0.261 C 
BRANCH   2   3
ATOM      3  O   UNL A   1      40.619  19.034  25.675  1.00  0.00    -0.460 OA
BRANCH   3   4
ATOM      4  C   UNL A   1      41.872  19.428  25.993  1.00  0.00     0.338 C 
ATOM      5  O   UNL A   1      42.767  18.585  26.010  1.00  0.00    -0.246 OA
BRANCH   4   6
ATOM      6  C   UNL A   1      42.246  20.839  26.312  1.00  0.00     0.060 A 
ATOM      7  C   UNL A   1      42.302  21.882  25.388  1.00  0.00     0.016 A 
ATOM      8  C   UNL A   1      42.458  21.151  27.666  1.00  0.00     0.016 A 
ATOM      9  C   UNL A   1      42.602  23.180  25.769  1.00  0.00     0.010 A 
ATOM     10  C   UNL A   1      42.724  22.463  28.070  1.00  0.00     0.010 A 
ATOM     11  C   UNL A   1      42.806  23.479  27.112  1.00  0.00    -0.014 A 
BRANCH  11  12
ATOM     12  C   UNL A   1      43.180  24.859  27.456  1.00  0.00     0.031 A 
ATOM     13  C   UNL A   1      44.557  25.331  27.118  1.00  0.00     0.074 A 
ATOM     14  C   UNL A   1      42.241  25.696  27.932  1.00  0.00     0.049 A 
ATOM     15  N   UNL A   1      45.112  26.492  27.335  1.00  0.00    -0.248 NA
ATOM     16  C   UNL A   1      45.425  24.365  26.423  1.00  0.00     0.031 C 
ATOM     17  C   UNL A   1      40.841  25.336  28.172  1.00  0.00     0.029 A 
ATOM     18  N   UNL A   1      42.307  27.020  28.268  1.00  0.00    -0.354 N 
ATOM     19  C   UNL A   1      46.399  26.390  26.827  1.00  0.00     0.074 A 
ATOM     20  C   UNL A   1      46.546  25.055  26.291  1.00  0.00     0.031 C 
ATOM     21  C   UNL A   1      40.176  26.423  28.597  1.00  0.00     0.029 A 
ATOM     22  C   UNL A   1      41.116  27.531  28.721  1.00  0.00     0.049 A 
ATOM     23  H   UNL A   1      43.130  27.555  28.190  1.00  0.00     0.167 HD
ATOM     24  C   UNL A   1      47.368  27.333  26.827  1.00  0.00     0.037 A 
ATOM     25  C   UNL A   1      40.838  28.752  29.215  1.00  0.00     0.037 A 
ATOM     26  C   UNL A   1      47.186  28.649  27.375  1.00  0.00     0.049 A 
ATOM     27  C   UNL A   1      41.959  29.754  29.283  1.00  0.00     0.074 A 
ATOM     28  C   UNL A   1      48.105  29.674  27.499  1.00  0.00     0.029 A 
ATOM     29  N   UNL A   1      45.986  29.119  27.897  1.00  0.00    -0.354 N 
ATOM     30  N   UNL A   1      43.198  29.636  28.866  1.00  0.00    -0.248 NA
ATOM     31  C   UNL A   1      41.654  31.049  29.902  1.00  0.00     0.031 C 
ATOM     32  C   UNL A   1      47.471  30.747  28.134  1.00  0.00     0.029 A 
ATOM     33  C   UNL A   1      46.144  30.411  28.362  1.00  0.00     0.049 A 
ATOM     34  H   UNL A   1      45.146  28.605  27.931  1.00  0.00     0.167 HD
ATOM     35  C   UNL A   1      43.819  30.839  29.162  1.00  0.00     0.074 A 
ATOM     36  C   UNL A   1      42.810  31.684  29.773  1.00  0.00     0.031 C 
ATOM     37  C   UNL A   1      45.107  31.215  28.960  1.00  0.00     0.037 A 
BRANCH  24  38
ATOM     38  C   UNL A   1      48.709  26.929  26.292  1.00  0.00     0.064 A 
ATOM     39  C   UNL A   1      49.065  27.123  24.949  1.00  0.00     0.173 A 
ATOM     40  C   UNL A   1      49.634  26.288  27.130  1.00  0.00     0.173 A 
ATOM     41  F   UNL A   1      48.203  27.701  24.099  1.00  0.00    -0.203 F 
ATOM     42  C   UNL A   1      50.285  26.662  24.458  1.00  0.00     0.198 A 
ATOM     43  C   UNL A   1      50.863  25.852  26.642  1.00  0.00     0.198 A 
ATOM     44  F   UNL A   1      49.339  26.069  28.421  1.00  0.00    -0.203 F 
ATOM     45  F   UNL A   1      50.577  26.799  23.157  1.00  0.00    -0.200 F 
ATOM     46  C   UNL A   1      51.182  26.029  25.304  1.00  0.00     0.200 A 
ATOM     47  F   UNL A   1      51.728  25.241  27.462  1.00  0.00    -0.200 F 
ATOM     48  F   UNL A   1      52.349  25.573  24.828  1.00  0.00    -0.200 F 
ENDBRANCH  24  38
BRANCH  25  49
ATOM     49  C   UNL A   1      39.475  29.062  29.723  1.00  0.00     0.064 A 
ATOM     50  C   UNL A   1      39.140  28.886  31.073  1.00  0.00     0.173 A 
ATOM     51  C   UNL A   1      38.472  29.541  28.864  1.00  0.00     0.173 A 
ATOM     52  F   UNL A   1      40.052  28.410  31.932  1.00  0.00    -0.203 F 
ATOM     53  C   UNL A   1      37.854  29.164  31.539  1.00  0.00     0.198 A 
ATOM     54  C   UNL A   1      37.199  29.848  29.336  1.00  0.00     0.198 A 
ATOM     55  F   UNL A   1      38.735  29.724  27.561  1.00  0.00    -0.203 F 
ATOM     56  F   UNL A   1      37.550  28.946  32.826  1.00  0.00    -0.200 F 
ATOM     57  C   UNL A   1      36.888  29.652  30.672  1.00  0.00     0.200 A 
ATOM     58  F   UNL A   1      36.274  30.333  28.497  1.00  0.00    -0.200 F 
ATOM     59  F   UNL A   1      35.655  29.925  31.123  1.00  0.00    -0.200 F 
ENDBRANCH  25  49
BRANCH  37  60
ATOM     60  C   UNL A   1      45.478  32.603  29.383  1.00  0.00     0.064 A 
ATOM     61  C   UNL A   1      46.029  32.859  30.646  1.00  0.00     0.173 A 
ATOM     62  C   UNL A   1      45.328  33.677  28.495  1.00  0.00     0.173 A 
ATOM     63  F   UNL A   1      46.176  31.863  31.534  1.00  0.00    -0.203 F 
ATOM     64  C   UNL A   1      46.400  34.149  31.013  1.00  0.00     0.198 A 
ATOM     65  C   UNL A   1      45.726  34.960  28.855  1.00  0.00     0.198 A 
ATOM     66  F   UNL A   1      44.810  33.478  27.274  1.00  0.00    -0.203 F 
ATOM     67  F   UNL A   1      46.887  34.380  32.240  1.00  0.00    -0.200 F 
ATOM     68  C   UNL A   1      46.256  35.196  30.114  1.00  0.00     0.200 A 
ATOM     69  F   UNL A   1      45.599  35.969  27.982  1.00  0.00    -0.200 F 
ATOM     70  F   UNL A   1      46.624  36.435  30.465  1.00  0.00    -0.200 F 
ENDBRANCH  37  60
ENDBRANCH  11  12
ENDBRANCH   4   6
ENDBRANCH   3   4
ENDBRANCH   2   3
ENDBRANCH   1   2
BRANCH   1  71
ATOM     71  O   UNL A   1      37.764  20.703  24.586  1.00  0.00    -0.374 OA
BRANCH  71  72
ATOM     72  C   UNL A   1      38.101  21.841  25.386  1.00  0.00     0.202 C 
BRANCH  72  73
ATOM     73  C   UNL A   1      36.811  22.516  25.860  1.00  0.00     0.261 C 
BRANCH  73  74
ATOM     74  O   UNL A   1      36.504  23.585  24.954  1.00  0.00    -0.460 OA
BRANCH  74  75
ATOM     75  C   UNL A   1      35.733  23.237  23.890  1.00  0.00     0.338 C 
ATOM     76  O   UNL A   1      36.087  23.070  22.735  1.00  0.00    -0.246 OA
BRANCH  75  77
ATOM     77  C   UNL A   1      34.395  22.876  24.409  1.00  0.00     0.060 A 
ATOM     78  C   UNL A   1      33.781  21.674  24.003  1.00  0.00     0.018 A 
ATOM     79  C   UNL A   1      33.740  23.778  25.271  1.00  0.00     0.022 A 
ATOM     80  C   UNL A   1      32.516  21.336  24.479  1.00  0.00     0.027 A 
ATOM     81  C   UNL A   1      32.464  23.455  25.703  1.00  0.00    -0.011 A 
ATOM     82  C   UNL A   1      31.901  22.231  25.331  1.00  0.00     0.045 A 
ATOM     83  C   UNL A   1      31.514  24.176  26.638  1.00  0.00     0.114 C 
ATOM     84  N   UNL A   1      30.708  22.038  25.996  1.00  0.00    -0.325 N 
ATOM     85  C   UNL A   1      30.434  23.086  26.860  1.00  0.00     0.232 C 
ATOM     86  H   UNL A   1      30.125  21.254  25.873  1.00  0.00     0.169 HD
ATOM     87  O   UNL A   1      29.510  23.105  27.655  1.00  0.00    -0.274 OA
BRANCH  83  88
ATOM     88  C   UNL A   1      30.921  25.513  26.109  1.00  0.00     0.010 C 
ATOM     89  C   UNL A   1      30.451  25.380  24.643  1.00  0.00     0.033 C 
ATOM     90  C   UNL A   1      31.865  26.725  26.234  1.00  0.00     0.033 C 
ATOM     91  C   UNL A   1      29.963  26.702  24.064  1.00  0.00     0.160 C 
ATOM     92  C   UNL A   1      31.275  27.967  25.568  1.00  0.00     0.160 C 
ATOM     93  O   UNL A   1      30.959  27.711  24.204  1.00  0.00    -0.381 OA
ENDBRANCH  83  88
ENDBRANCH  75  77
ENDBRANCH  74  75
ENDBRANCH  73  74
ENDBRANCH  72  73
ENDBRANCH  71  72
ENDBRANCH   1  71
TORSDOF 15
ENDMDL
MODEL 2
REMARK VINA RESULT:     -11.7      4.475      6.620
REMARK SMILES O=C(OCCOCCOC(=O)c1ccc2c(c1)[C@@H](C1CCOCC1)C(=O)N2)c1ccc(-c2c3nc(c(-c4c(F)c(F)c(F)c(F)c4F)c4ccc([nH]4)c(-c4c(F)c(F)c(F)c(F)c4F)c4nc(c(-c5c(F)c(F)c(F)c(F)c5F)c5ccc2[nH]5)C=C4)C=C3)cc1
REMARK SMILES IDX 5 1 4 2 3 3 2 4 1 5 28 6 29 7 90 8 30 9 89 10 31 11 32 12
REMARK SMILES IDX 33 13 83 14 34 15 88 16 82 17 84 18 35 19 87 20 81 21 80 22
REMARK SMILES IDX 36 24 68 25 48 26 67 27 49 28 52 29 66 30 85 31 50 32 51 33
REMARK SMILES IDX 65 35 86 36 53 37 37 38 38 39 46 40 39 41 40 42 44 43 47 44
REMARK SMILES IDX 41 45 42 46 45 47 43 48 69 49 70 50 78 51 71 52 72 53 76 54
REMARK SMILES IDX 79 55 73 56 74 57 77 58 75 59 54 60 55 61 63 62 56 63 57 64
REMARK SMILES IDX 61 65 64 66 58 67 59 68 62 69 60 70 6 71 7 72 8 73 9 74
REMARK SMILES IDX 10 75 11 76 12 77 13 78 17 79 14 80 16 81 15 82 18 83 27 84
REMARK SMILES IDX 25 85 26 87 19 88 20 89 24 90 21 91 23 92 22 93
REMARK H PARENT 84 23 52 34 27 86
REMARK Flexibility Score: inf
ROOT
ATOM      1  C   UNL A   1      41.847  20.846  26.273  1.00  0.00     0.202 C 
ENDROOT
BRANCH   1   2
ATOM      2  C   UNL A   1      43.163  21.391  25.718  1.00  0.00     0.261 C 
BRANCH   2   3
ATOM      3  O   UNL A   1      42.927  22.603  24.984  1.00  0.00    -0.460 OA
BRANCH   3   4
ATOM      4  C   UNL A   1      43.406  23.842  25.233  1.00  0.00     0.338 C 
ATOM      5  O   UNL A   1      44.281  24.295  24.497  1.00  0.00    -0.246 OA
BRANCH   4   6
ATOM      6  C   UNL A   1      42.923  24.713  26.348  1.00  0.00     0.060 A 
ATOM      7  C   UNL A   1      42.152  24.279  27.427  1.00  0.00     0.016 A 
ATOM      8  C   UNL A   1      43.368  26.046  26.354  1.00  0.00     0.016 A 
ATOM      9  C   UNL A   1      41.788  25.136  28.454  1.00  0.00     0.010 A 
ATOM     10  C   UNL A   1      43.041  26.910  27.404  1.00  0.00     0.010 A 
ATOM     11  C   UNL A   1      42.238  26.452  28.453  1.00  0.00    -0.014 A 
BRANCH  11  12
ATOM     12  C   UNL A   1      41.775  27.333  29.536  1.00  0.00     0.031 A 
ATOM     13  C   UNL A   1      42.601  27.432  30.777  1.00  0.00     0.074 A 
ATOM     14  C   UNL A   1      40.709  28.125  29.328  1.00  0.00     0.049 A 
ATOM     15  N   UNL A   1      42.388  28.127  31.861  1.00  0.00    -0.248 NA
ATOM     16  C   UNL A   1      43.849  26.651  30.794  1.00  0.00     0.031 C 
ATOM     17  C   UNL A   1      39.925  28.171  28.091  1.00  0.00     0.029 A 
ATOM     18  N   UNL A   1      40.119  29.063  30.132  1.00  0.00    -0.354 N 
ATOM     19  C   UNL A   1      43.460  27.850  32.697  1.00  0.00     0.074 A 
ATOM     20  C   UNL A   1      44.323  26.924  31.999  1.00  0.00     0.031 C 
ATOM     21  C   UNL A   1      38.970  29.107  28.212  1.00  0.00     0.029 A 
ATOM     22  C   UNL A   1      39.034  29.674  29.554  1.00  0.00     0.049 A 
ATOM     23  H   UNL A   1      40.443  29.278  31.036  1.00  0.00     0.167 HD
ATOM     24  C   UNL A   1      43.685  28.325  33.942  1.00  0.00     0.037 A 
ATOM     25  C   UNL A   1      38.172  30.566  30.077  1.00  0.00     0.037 A 
ATOM     26  C   UNL A   1      42.800  29.242  34.608  1.00  0.00     0.049 A 
ATOM     27  C   UNL A   1      38.398  31.012  31.496  1.00  0.00     0.074 A 
ATOM     28  C   UNL A   1      42.876  29.747  35.892  1.00  0.00     0.029 A 
ATOM     29  N   UNL A   1      41.663  29.792  34.024  1.00  0.00    -0.354 N 
ATOM     30  N   UNL A   1      39.375  30.697  32.315  1.00  0.00    -0.248 NA
ATOM     31  C   UNL A   1      37.400  31.919  32.073  1.00  0.00     0.031 C 
ATOM     32  C   UNL A   1      41.762  30.569  36.099  1.00  0.00     0.029 A 
ATOM     33  C   UNL A   1      41.018  30.616  34.928  1.00  0.00     0.049 A 
ATOM     34  H   UNL A   1      41.362  29.619  33.103  1.00  0.00     0.167 HD
ATOM     35  C   UNL A   1      39.117  31.372  33.498  1.00  0.00     0.074 A 
ATOM     36  C   UNL A   1      37.902  32.134  33.282  1.00  0.00     0.031 C 
ATOM     37  C   UNL A   1      39.811  31.359  34.664  1.00  0.00     0.037 A 
BRANCH  24  38
ATOM     38  C   UNL A   1      44.883  27.791  34.668  1.00  0.00     0.064 A 
ATOM     39  C   UNL A   1      44.824  26.628  35.450  1.00  0.00     0.173 A 
ATOM     40  C   UNL A   1      46.101  28.487  34.620  1.00  0.00     0.173 A 
ATOM     41  F   UNL A   1      43.675  25.944  35.555  1.00  0.00    -0.203 F 
ATOM     42  C   UNL A   1      45.929  26.200  36.182  1.00  0.00     0.198 A 
ATOM     43  C   UNL A   1      47.211  28.042  35.333  1.00  0.00     0.198 A 
ATOM     44  F   UNL A   1      46.209  29.611  33.895  1.00  0.00    -0.203 F 
ATOM     45  F   UNL A   1      45.830  25.123  36.974  1.00  0.00    -0.200 F 
ATOM     46  C   UNL A   1      47.121  26.906  36.122  1.00  0.00     0.200 A 
ATOM     47  F   UNL A   1      48.361  28.726  35.272  1.00  0.00    -0.200 F 
ATOM     48  F   UNL A   1      48.179  26.502  36.838  1.00  0.00    -0.200 F 
ENDBRANCH  24  38
BRANCH  25  49
ATOM     49  C   UNL A   1      37.010  31.041  29.280  1.00  0.00     0.064 A 
ATOM     50  C   UNL A   1      35.909  30.212  29.027  1.00  0.00     0.173 A 
ATOM     51  C   UNL A   1      36.977  32.342  28.750  1.00  0.00     0.173 A 
ATOM     52  F   UNL A   1      35.898  28.954  29.489  1.00  0.00    -0.203 F 
ATOM     53  C   UNL A   1      34.829  30.660  28.264  1.00  0.00     0.198 A 
ATOM     54  C   UNL A   1      35.885  32.798  28.016  1.00  0.00     0.198 A 
ATOM     55  F   UNL A   1      38.006  33.178  28.957  1.00  0.00    -0.203 F 
ATOM     56  F   UNL A   1      33.809  29.831  28.001  1.00  0.00    -0.200 F 
ATOM     57  C   UNL A   1      34.814  31.955  27.767  1.00  0.00     0.200 A 
ATOM     58  F   UNL A   1      35.871  34.055  27.551  1.00  0.00    -0.200 F 
ATOM     59  F   UNL A   1      33.774  32.385  27.040  1.00  0.00    -0.200 F 
ENDBRANCH  25  49
BRANCH  37  60
ATOM     60  C   UNL A   1      39.278  32.212  35.774  1.00  0.00     0.064 A 
ATOM     61  C   UNL A   1      38.372  31.704  36.716  1.00  0.00     0.173 A 
ATOM     62  C   UNL A   1      39.720  33.533  35.925  1.00  0.00     0.173 A 
ATOM     63  F   UNL A   1      37.910  30.450  36.601  1.00  0.00    -0.203 F 
ATOM     64  C   UNL A   1      37.911  32.499  37.761  1.00  0.00     0.198 A 
ATOM     65  C   UNL A   1      39.280  34.315  36.987  1.00  0.00     0.198 A 
ATOM     66  F   UNL A   1      40.591  34.059  35.051  1.00  0.00    -0.203 F 
ATOM     67  F   UNL A   1      37.015  32.009  38.628  1.00  0.00    -0.200 F 
ATOM     68  C   UNL A   1      38.372  33.800  37.901  1.00  0.00     0.200 A 
ATOM     69  F   UNL A   1      39.735  35.568  37.129  1.00  0.00    -0.200 F 
ATOM     70  F   UNL A   1      37.936  34.560  38.914  1.00  0.00    -0.200 F 
ENDBRANCH  37  60
ENDBRANCH  11  12
ENDBRANCH   4   6
ENDBRANCH   3   4
ENDBRANCH   2   3
ENDBRANCH   1   2
BRANCH   1  71
ATOM     71  O   UNL A   1      40.691  21.428  25.673  1.00  0.00    -0.374 OA
BRANCH  71  72
ATOM     72  C   UNL A   1      39.640  21.806  26.568  1.00  0.00     0.202 C 
BRANCH  72  73
ATOM     73  C   UNL A   1      38.578  22.586  25.790  1.00  0.00     0.261 C 
BRANCH  73  74
ATOM     74  O   UNL A   1      37.291  22.046  26.119  1.00  0.00    -0.460 OA
BRANCH  74  75
ATOM     75  C   UNL A   1      36.673  21.370  25.114  1.00  0.00     0.338 C 
ATOM     76  O   UNL A   1      37.188  20.663  24.264  1.00  0.00    -0.246 OA
BRANCH  75  77
ATOM     77  C   UNL A   1      35.214  21.460  25.347  1.00  0.00     0.060 A 
ATOM     78  C   UNL A   1      34.376  20.382  25.000  1.00  0.00     0.018 A 
ATOM     79  C   UNL A   1      34.688  22.656  25.876  1.00  0.00     0.022 A 
ATOM     80  C   UNL A   1      33.001  20.467  25.206  1.00  0.00     0.027 A 
ATOM     81  C   UNL A   1      33.316  22.748  26.035  1.00  0.00    -0.011 A 
ATOM     82  C   UNL A   1      32.513  21.644  25.734  1.00  0.00     0.045 A 
ATOM     83  C   UNL A   1      32.448  23.859  26.590  1.00  0.00     0.114 C 
ATOM     84  N   UNL A   1      31.210  21.890  26.116  1.00  0.00    -0.325 N 
ATOM     85  C   UNL A   1      31.083  23.134  26.714  1.00  0.00     0.232 C 
ATOM     86  H   UNL A   1      30.465  21.261  25.981  1.00  0.00     0.169 HD
ATOM     87  O   UNL A   1      30.068  23.543  27.252  1.00  0.00    -0.274 OA
BRANCH  83  88
ATOM     88  C   UNL A   1      32.365  25.154  25.732  1.00  0.00     0.010 C 
ATOM     89  C   UNL A   1      32.334  24.828  24.222  1.00  0.00     0.033 C 
ATOM     90  C   UNL A   1      33.485  26.177  26.010  1.00  0.00     0.033 C 
ATOM     91  C   UNL A   1      32.360  26.080  23.354  1.00  0.00     0.160 C 
ATOM     92  C   UNL A   1      33.424  27.353  25.036  1.00  0.00     0.160 C 
ATOM     93  O   UNL A   1      33.476  26.900  23.688  1.00  0.00    -0.381 OA
ENDBRANCH  83  88
ENDBRANCH  75  77
ENDBRANCH  74  75
ENDBRANCH  73  74
ENDBRANCH  72  73
ENDBRANCH  71  72
ENDBRANCH   1  71
TORSDOF 15
ENDMDL
MODEL 3
REMARK VINA RESULT:     -11.7      4.456      6.622
REMARK SMILES O=C(OCCOCCOC(=O)c1ccc2c(c1)[C@@H](C1CCOCC1)C(=O)N2)c1ccc(-c2c3nc(c(-c4c(F)c(F)c(F)c(F)c4F)c4ccc([nH]4)c(-c4c(F)c(F)c(F)c(F)c4F)c4nc(c(-c5c(F)c(F)c(F)c(F)c5F)c5ccc2[nH]5)C=C4)C=C3)cc1
REMARK SMILES IDX 5 1 4 2 3 3 2 4 1 5 28 6 29 7 90 8 30 9 89 10 31 11 32 12
REMARK SMILES IDX 33 13 83 14 34 15 88 16 82 17 84 18 35 19 87 20 81 21 80 22
REMARK SMILES IDX 36 24 68 25 48 26 67 27 49 28 52 29 66 30 85 31 50 32 51 33
REMARK SMILES IDX 65 35 86 36 53 37 37 38 38 39 46 40 39 41 40 42 44 43 47 44
REMARK SMILES IDX 41 45 42 46 45 47 43 48 69 49 70 50 78 51 71 52 72 53 76 54
REMARK SMILES IDX 79 55 73 56 74 57 77 58 75 59 54 60 55 61 63 62 56 63 57 64
REMARK SMILES IDX 61 65 64 66 58 67 59 68 62 69 60 70 6 71 7 72 8 73 9 74
REMARK SMILES IDX 10 75 11 76 12 77 13 78 17 79 14 80 16 81 15 82 18 83 27 84
REMARK SMILES IDX 25 85 26 87 19 88 20 89 24 90 21 91 23 92 22 93
REMARK H PARENT 84 23 52 34 27 86
REMARK Flexibility Score: inf
ROOT
ATOM      1  C   UNL A   1      41.984  20.838  25.914  1.00  0.00     0.202 C 
ENDROOT
BRANCH   1   2
ATOM      2  C   UNL A   1      43.296  21.448  25.417  1.00  0.00     0.261 C 
BRANCH   2   3
ATOM      3  O   UNL A   1      43.050  22.733  24.823  1.00  0.00    -0.460 OA
BRANCH   3   4
ATOM      4  C   UNL A   1      43.594  23.927  25.148  1.00  0.00     0.338 C 
ATOM      5  O   UNL A   1      44.531  24.351  24.473  1.00  0.00    -0.246 OA
BRANCH   4   6
ATOM      6  C   UNL A   1      43.114  24.780  26.277  1.00  0.00     0.060 A 
ATOM      7  C   UNL A   1      42.458  24.309  27.415  1.00  0.00     0.016 A 
ATOM      8  C   UNL A   1      43.442  26.146  26.228  1.00  0.00     0.016 A 
ATOM      9  C   UNL A   1      42.093  25.157  28.450  1.00  0.00     0.010 A 
ATOM     10  C   UNL A   1      43.113  27.005  27.282  1.00  0.00     0.010 A 
ATOM     11  C   UNL A   1      42.426  26.506  28.393  1.00  0.00    -0.014 A 
BRANCH  11  12
ATOM     12  C   UNL A   1      41.963  27.371  29.488  1.00  0.00     0.031 A 
ATOM     13  C   UNL A   1      42.794  27.459  30.727  1.00  0.00     0.074 A 
ATOM     14  C   UNL A   1      40.891  28.159  29.296  1.00  0.00     0.049 A 
ATOM     15  N   UNL A   1      42.583  28.140  31.820  1.00  0.00    -0.248 NA
ATOM     16  C   UNL A   1      44.048  26.686  30.728  1.00  0.00     0.031 C 
ATOM     17  C   UNL A   1      40.101  28.216  28.063  1.00  0.00     0.029 A 
ATOM     18  N   UNL A   1      40.300  29.083  30.114  1.00  0.00    -0.354 N 
ATOM     19  C   UNL A   1      43.660  27.859  32.647  1.00  0.00     0.074 A 
ATOM     20  C   UNL A   1      44.526  26.947  31.934  1.00  0.00     0.031 C 
ATOM     21  C   UNL A   1      39.141  29.144  28.201  1.00  0.00     0.029 A 
ATOM     22  C   UNL A   1      39.208  29.695  29.549  1.00  0.00     0.049 A 
ATOM     23  H   UNL A   1      40.627  29.289  31.019  1.00  0.00     0.167 HD
ATOM     24  C   UNL A   1      43.889  28.320  33.897  1.00  0.00     0.037 A 
ATOM     25  C   UNL A   1      38.343  30.576  30.087  1.00  0.00     0.037 A 
ATOM     26  C   UNL A   1      43.001  29.223  34.579  1.00  0.00     0.049 A 
ATOM     27  C   UNL A   1      38.574  31.005  31.511  1.00  0.00     0.074 A 
ATOM     28  C   UNL A   1      43.080  29.713  35.868  1.00  0.00     0.029 A 
ATOM     29  N   UNL A   1      41.859  29.774  34.007  1.00  0.00    -0.354 N 
ATOM     30  N   UNL A   1      39.557  30.686  32.321  1.00  0.00    -0.248 NA
ATOM     31  C   UNL A   1      37.573  31.899  32.104  1.00  0.00     0.031 C 
ATOM     32  C   UNL A   1      41.963  30.525  36.091  1.00  0.00     0.029 A 
ATOM     33  C   UNL A   1      41.213  30.582  34.925  1.00  0.00     0.049 A 
ATOM     34  H   UNL A   1      41.554  29.611  33.086  1.00  0.00     0.167 HD
ATOM     35  C   UNL A   1      39.300  31.344  33.513  1.00  0.00     0.074 A 
ATOM     36  C   UNL A   1      38.080  32.102  33.312  1.00  0.00     0.031 C 
ATOM     37  C   UNL A   1      40.000  31.321  34.676  1.00  0.00     0.037 A 
BRANCH  24  38
ATOM     38  C   UNL A   1      45.094  27.784  34.610  1.00  0.00     0.064 A 
ATOM     39  C   UNL A   1      46.340  28.427  34.557  1.00  0.00     0.173 A 
ATOM     40  C   UNL A   1      45.010  26.575  35.318  1.00  0.00     0.173 A 
ATOM     41  F   UNL A   1      46.481  29.568  33.866  1.00  0.00    -0.203 F 
ATOM     42  C   UNL A   1      47.463  27.863  35.158  1.00  0.00     0.198 A 
ATOM     43  C   UNL A   1      46.129  26.027  35.939  1.00  0.00     0.198 A 
ATOM     44  F   UNL A   1      43.844  25.914  35.392  1.00  0.00    -0.203 F 
ATOM     45  F   UNL A   1      48.656  28.461  35.038  1.00  0.00    -0.200 F 
ATOM     46  C   UNL A   1      47.357  26.666  35.849  1.00  0.00     0.200 A 
ATOM     47  F   UNL A   1      46.023  24.871  36.607  1.00  0.00    -0.200 F 
ATOM     48  F   UNL A   1      48.441  26.117  36.414  1.00  0.00    -0.200 F 
ENDBRANCH  24  38
BRANCH  25  49
ATOM     49  C   UNL A   1      37.175  31.053  29.302  1.00  0.00     0.064 A 
ATOM     50  C   UNL A   1      37.118  32.359  28.795  1.00  0.00     0.173 A 
ATOM     51  C   UNL A   1      36.081  30.210  29.043  1.00  0.00     0.173 A 
ATOM     52  F   UNL A   1      38.123  33.213  29.033  1.00  0.00    -0.203 F 
ATOM     53  C   UNL A   1      36.010  32.805  28.073  1.00  0.00     0.198 A 
ATOM     54  C   UNL A   1      34.990  30.646  28.295  1.00  0.00     0.198 A 
ATOM     55  F   UNL A   1      36.079  28.951  29.506  1.00  0.00    -0.203 F 
ATOM     56  F   UNL A   1      35.964  34.071  27.638  1.00  0.00    -0.200 F 
ATOM     57  C   UNL A   1      34.952  31.946  27.817  1.00  0.00     0.200 A 
ATOM     58  F   UNL A   1      33.978  29.807  28.038  1.00  0.00    -0.200 F 
ATOM     59  F   UNL A   1      33.891  32.374  27.118  1.00  0.00    -0.200 F 
ENDBRANCH  25  49
BRANCH  37  60
ATOM     60  C   UNL A   1      39.467  32.157  35.799  1.00  0.00     0.064 A 
ATOM     61  C   UNL A   1      39.860  33.493  35.966  1.00  0.00     0.173 A 
ATOM     62  C   UNL A   1      38.515  31.630  36.682  1.00  0.00     0.173 A 
ATOM     63  F   UNL A   1      40.780  34.033  35.153  1.00  0.00    -0.203 F 
ATOM     64  C   UNL A   1      39.331  34.266  36.994  1.00  0.00     0.198 A 
ATOM     65  C   UNL A   1      37.968  32.416  37.691  1.00  0.00     0.198 A 
ATOM     66  F   UNL A   1      38.106  30.359  36.557  1.00  0.00    -0.203 F 
ATOM     67  F   UNL A   1      39.749  35.529  37.162  1.00  0.00    -0.200 F 
ATOM     68  C   UNL A   1      38.380  33.731  37.849  1.00  0.00     0.200 A 
ATOM     69  F   UNL A   1      37.040  31.901  38.509  1.00  0.00    -0.200 F 
ATOM     70  F   UNL A   1      37.863  34.481  38.832  1.00  0.00    -0.200 F 
ENDBRANCH  37  60
ENDBRANCH  11  12
ENDBRANCH   4   6
ENDBRANCH   3   4
ENDBRANCH   2   3
ENDBRANCH   1   2
BRANCH   1  71
ATOM     71  O   UNL A   1      40.949  21.799  26.113  1.00  0.00    -0.374 OA
BRANCH  71  72
ATOM     72  C   UNL A   1      39.692  21.283  26.567  1.00  0.00     0.202 C 
BRANCH  72  73
ATOM     73  C   UNL A   1      38.668  21.399  25.435  1.00  0.00     0.261 C 
BRANCH  73  74
ATOM     74  O   UNL A   1      37.419  21.823  26.001  1.00  0.00    -0.460 OA
BRANCH  74  75
ATOM     75  C   UNL A   1      37.151  23.150  25.882  1.00  0.00     0.338 C 
ATOM     76  O   UNL A   1      37.904  24.032  25.504  1.00  0.00    -0.246 OA
BRANCH  75  77
ATOM     77  C   UNL A   1      35.697  23.332  26.089  1.00  0.00     0.060 A 
ATOM     78  C   UNL A   1      34.915  22.265  26.576  1.00  0.00     0.018 A 
ATOM     79  C   UNL A   1      35.116  24.569  25.746  1.00  0.00     0.022 A 
ATOM     80  C   UNL A   1      33.543  22.427  26.761  1.00  0.00     0.027 A 
ATOM     81  C   UNL A   1      33.746  24.706  25.889  1.00  0.00    -0.011 A 
ATOM     82  C   UNL A   1      33.002  23.652  26.427  1.00  0.00     0.045 A 
ATOM     83  C   UNL A   1      32.829  25.887  25.642  1.00  0.00     0.114 C 
ATOM     84  N   UNL A   1      31.698  24.052  26.636  1.00  0.00    -0.325 N 
ATOM     85  C   UNL A   1      31.514  25.382  26.290  1.00  0.00     0.232 C 
ATOM     86  H   UNL A   1      30.988  23.468  26.987  1.00  0.00     0.169 HD
ATOM     87  O   UNL A   1      30.493  26.016  26.494  1.00  0.00    -0.274 OA
BRANCH  83  88
ATOM     88  C   UNL A   1      32.644  26.308  24.156  1.00  0.00     0.010 C 
ATOM     89  C   UNL A   1      32.597  25.077  23.223  1.00  0.00     0.033 C 
ATOM     90  C   UNL A   1      33.704  27.300  23.637  1.00  0.00     0.033 C 
ATOM     91  C   UNL A   1      32.523  25.462  21.751  1.00  0.00     0.160 C 
ATOM     92  C   UNL A   1      33.546  27.556  22.139  1.00  0.00     0.160 C 
ATOM     93  O   UNL A   1      33.593  26.337  21.406  1.00  0.00    -0.381 OA
ENDBRANCH  83  88
ENDBRANCH  75  77
ENDBRANCH  74  75
ENDBRANCH  73  74
ENDBRANCH  72  73
ENDBRANCH  71  72
ENDBRANCH   1  71
TORSDOF 15
ENDMDL
