MODEL 1
REMARK VINA RESULT:     -12.5      0.000      0.000
REMARK SMILES COc1ccc2[nH]c(C(=O)c3cc(C)ccn3)c(CC(=O)OCCOCCOC(=O)c3ccc(-c4c5nc(c(-c6c(F)c(F)c(F)c(F)c6F)c6ccc([nH]6)c(-c6c(F)c(F)c(F)c(F)c6F)c6nc(c(-c7c(F)c(F)c(F)c(F)c7F)c7ccc4[nH]7)C=C6)C=C5)cc3)c2c1
REMARK SMILES IDX 24 1 23 2 22 3 20 4 21 5 19 6 18 7 3 8 4 9 95 10 5 11 94 12
REMARK SMILES IDX 6 13 7 14 8 15 2 17 1 18 9 19 10 20 11 21 12 22 17 23 13 24
REMARK SMILES IDX 16 25 14 26 15 27 25 28 26 29 27 30 28 31 29 32 30 33 31 34
REMARK SMILES IDX 32 35 93 36 33 37 92 38 34 39 35 40 36 41 86 42 37 43 91 44
REMARK SMILES IDX 85 45 87 46 38 47 90 48 84 49 83 50 39 52 71 53 51 54 70 55
REMARK SMILES IDX 52 56 55 57 69 58 88 59 53 60 54 61 68 63 89 64 56 65 40 66
REMARK SMILES IDX 41 67 49 68 42 69 43 70 47 71 50 72 44 73 45 74 48 75 46 76
REMARK SMILES IDX 72 77 73 78 81 79 74 80 75 81 79 82 82 83 76 84 77 85 80 86
REMARK SMILES IDX 78 87 57 88 58 89 66 90 59 91 60 92 64 93 67 94 61 95 62 96
REMARK SMILES IDX 65 97 63 98
REMARK H PARENT 7 16 87 51 55 62
REMARK Flexibility Score: inf
ROOT
ATOM      1  C   UNL A   1      35.986  22.874  23.593  1.00  0.00     0.202 C 
ENDROOT
BRANCH   1   2
ATOM      2  C   UNL A   1      35.121  24.120  23.837  1.00  0.00     0.261 C 
BRANCH   2   3
ATOM      3  O   UNL A   1      34.287  24.479  22.715  1.00  0.00    -0.463 OA
BRANCH   3   4
ATOM      4  C   UNL A   1      33.829  25.763  22.733  1.00  0.00     0.310 C 
ATOM      5  O   UNL A   1      33.745  26.470  21.730  1.00  0.00    -0.252 OA
BRANCH   4   6
ATOM      6  C   UNL A   1      33.307  26.247  24.072  1.00  0.00     0.161 C 
BRANCH   6   7
ATOM      7  C   UNL A   1      31.854  26.018  24.393  1.00  0.00     0.000 A 
ATOM      8  C   UNL A   1      29.480  28.432  22.599  1.00  0.00     0.119 A 
ATOM      9  C   UNL A   1      28.302  27.850  23.060  1.00  0.00     0.048 A 
ATOM     10  C   UNL A   1      30.721  27.926  23.001  1.00  0.00     0.057 A 
ATOM     11  C   UNL A   1      28.334  26.766  23.948  1.00  0.00     0.030 A 
ATOM     12  C   UNL A   1      30.782  26.817  23.872  1.00  0.00     0.008 A 
ATOM     13  C   UNL A   1      29.588  26.267  24.324  1.00  0.00     0.046 A 
ATOM     14  N   UNL A   1      29.919  25.201  25.128  1.00  0.00    -0.352 N 
ATOM     15  C   UNL A   1      31.273  24.934  25.067  1.00  0.00     0.093 A 
ATOM     16  H   UNL A   1      29.275  24.696  25.674  1.00  0.00     0.167 HD
BRANCH   8  17
ATOM     17  O   UNL A   1      29.538  29.447  21.681  1.00  0.00    -0.497 OA
ATOM     18  C   UNL A   1      28.390  30.285  21.632  1.00  0.00     0.278 C 
ENDBRANCH   8  17
BRANCH  15  19
ATOM     19  C   UNL A   1      31.916  23.735  25.609  1.00  0.00     0.227 C 
ATOM     20  O   UNL A   1      32.344  23.663  26.760  1.00  0.00    -0.285 OA
BRANCH  19  21
ATOM     21  C   UNL A   1      32.025  22.503  24.767  1.00  0.00     0.113 A 
ATOM     22  C   UNL A   1      32.318  21.263  25.316  1.00  0.00     0.036 A 
ATOM     23  N   UNL A   1      31.820  22.701  23.440  1.00  0.00    -0.253 NA
ATOM     24  C   UNL A   1      32.431  20.171  24.445  1.00  0.00    -0.047 A 
ATOM     25  C   UNL A   1      31.945  21.642  22.620  1.00  0.00     0.112 A 
ATOM     26  C   UNL A   1      32.711  18.787  24.948  1.00  0.00     0.044 C 
ATOM     27  C   UNL A   1      32.250  20.373  23.072  1.00  0.00     0.023 A 
ENDBRANCH  19  21
ENDBRANCH  15  19
ENDBRANCH   6   7
ENDBRANCH   4   6
ENDBRANCH   3   4
ENDBRANCH   2   3
ENDBRANCH   1   2
BRANCH   1  28
ATOM     28  O   UNL A   1      35.569  21.654  24.203  1.00  0.00    -0.374 OA
BRANCH  28  29
ATOM     29  C   UNL A   1      36.244  21.258  25.394  1.00  0.00     0.202 C 
BRANCH  29  30
ATOM     30  C   UNL A   1      37.621  20.613  25.225  1.00  0.00     0.261 C 
BRANCH  30  31
ATOM     31  O   UNL A   1      38.722  21.521  25.274  1.00  0.00    -0.460 OA
BRANCH  31  32
ATOM     32  C   UNL A   1      39.633  21.241  26.225  1.00  0.00     0.338 C 
ATOM     33  O   UNL A   1      40.144  20.165  26.506  1.00  0.00    -0.246 OA
BRANCH  32  34
ATOM     34  C   UNL A   1      40.013  22.493  26.874  1.00  0.00     0.060 A 
ATOM     35  C   UNL A   1      39.409  23.671  26.432  1.00  0.00     0.016 A 
ATOM     36  C   UNL A   1      41.027  22.504  27.834  1.00  0.00     0.016 A 
ATOM     37  C   UNL A   1      39.870  24.889  26.914  1.00  0.00     0.010 A 
ATOM     38  C   UNL A   1      41.482  23.728  28.322  1.00  0.00     0.010 A 
ATOM     39  C   UNL A   1      40.934  24.924  27.829  1.00  0.00    -0.014 A 
BRANCH  39  40
ATOM     40  C   UNL A   1      41.537  26.232  28.165  1.00  0.00     0.031 A 
ATOM     41  C   UNL A   1      42.916  26.551  27.666  1.00  0.00     0.074 A 
ATOM     42  C   UNL A   1      40.820  27.140  28.846  1.00  0.00     0.049 A 
ATOM     43  N   UNL A   1      43.586  27.672  27.741  1.00  0.00    -0.248 NA
ATOM     44  C   UNL A   1      43.641  25.461  26.992  1.00  0.00     0.031 C 
ATOM     45  C   UNL A   1      39.474  26.922  29.372  1.00  0.00     0.029 A 
ATOM     46  N   UNL A   1      41.119  28.429  29.198  1.00  0.00    -0.354 N 
ATOM     47  C   UNL A   1      44.802  27.427  27.118  1.00  0.00     0.074 A 
ATOM     48  C   UNL A   1      44.799  26.039  26.708  1.00  0.00     0.031 C 
ATOM     49  C   UNL A   1      39.053  28.050  29.968  1.00  0.00     0.029 A 
ATOM     50  C   UNL A   1      40.106  29.060  29.875  1.00  0.00     0.049 A 
ATOM     51  H   UNL A   1      41.978  28.862  28.986  1.00  0.00     0.167 HD
ATOM     52  C   UNL A   1      45.821  28.291  26.894  1.00  0.00     0.037 A 
ATOM     53  C   UNL A   1      40.037  30.315  30.354  1.00  0.00     0.037 A 
ATOM     54  C   UNL A   1      45.810  29.668  27.311  1.00  0.00     0.049 A 
ATOM     55  C   UNL A   1      41.189  31.251  30.107  1.00  0.00     0.074 A 
ATOM     56  C   UNL A   1      46.778  30.638  27.121  1.00  0.00     0.029 A 
ATOM     57  N   UNL A   1      44.773  30.270  28.011  1.00  0.00    -0.354 N 
ATOM     58  N   UNL A   1      42.314  31.028  29.470  1.00  0.00    -0.248 NA
ATOM     59  C   UNL A   1      41.054  32.618  30.628  1.00  0.00     0.031 C 
ATOM     60  C   UNL A   1      46.347  31.814  27.747  1.00  0.00     0.029 A 
ATOM     61  C   UNL A   1      45.087  31.591  28.281  1.00  0.00     0.049 A 
ATOM     62  H   UNL A   1      43.938  29.822  28.276  1.00  0.00     0.167 HD
ATOM     63  C   UNL A   1      43.012  32.228  29.493  1.00  0.00     0.074 A 
ATOM     64  C   UNL A   1      42.173  33.181  30.193  1.00  0.00     0.031 C 
ATOM     65  C   UNL A   1      44.233  32.518  28.980  1.00  0.00     0.037 A 
BRANCH  52  66
ATOM     66  C   UNL A   1      47.034  27.761  26.188  1.00  0.00     0.064 A 
ATOM     67  C   UNL A   1      47.104  27.698  24.788  1.00  0.00     0.173 A 
ATOM     68  C   UNL A   1      48.149  27.325  26.919  1.00  0.00     0.173 A 
ATOM     69  F   UNL A   1      46.059  28.087  24.041  1.00  0.00    -0.203 F 
ATOM     70  C   UNL A   1      48.233  27.194  24.147  1.00  0.00     0.198 A 
ATOM     71  C   UNL A   1      49.287  26.847  26.275  1.00  0.00     0.198 A 
ATOM     72  F   UNL A   1      48.136  27.364  28.260  1.00  0.00    -0.203 F 
ATOM     73  F   UNL A   1      48.259  27.099  22.811  1.00  0.00    -0.200 F 
ATOM     74  C   UNL A   1      49.326  26.774  24.891  1.00  0.00     0.200 A 
ATOM     75  F   UNL A   1      50.346  26.449  26.995  1.00  0.00    -0.200 F 
ATOM     76  F   UNL A   1      50.413  26.291  24.274  1.00  0.00    -0.200 F 
ENDBRANCH  52  66
BRANCH  53  77
ATOM     77  C   UNL A   1      38.822  30.758  31.083  1.00  0.00     0.064 A 
ATOM     78  C   UNL A   1      38.732  30.660  32.477  1.00  0.00     0.173 A 
ATOM     79  C   UNL A   1      37.731  31.313  30.395  1.00  0.00     0.173 A 
ATOM     80  F   UNL A   1      39.741  30.120  33.176  1.00  0.00    -0.203 F 
ATOM     81  C   UNL A   1      37.594  31.088  33.157  1.00  0.00     0.198 A 
ATOM     82  C   UNL A   1      36.604  31.765  31.078  1.00  0.00     0.198 A 
ATOM     83  F   UNL A   1      37.769  31.433  29.060  1.00  0.00    -0.203 F 
ATOM     84  F   UNL A   1      37.519  30.951  34.488  1.00  0.00    -0.200 F 
ATOM     85  C   UNL A   1      36.534  31.647  32.457  1.00  0.00     0.200 A 
ATOM     86  F   UNL A   1      35.589  32.316  30.400  1.00  0.00    -0.200 F 
ATOM     87  F   UNL A   1      35.444  32.069  33.114  1.00  0.00    -0.200 F 
ENDBRANCH  53  77
BRANCH  65  88
ATOM     88  C   UNL A   1      44.722  33.927  29.139  1.00  0.00     0.064 A 
ATOM     89  C   UNL A   1      44.424  34.920  28.195  1.00  0.00     0.173 A 
ATOM     90  C   UNL A   1      45.468  34.295  30.270  1.00  0.00     0.173 A 
ATOM     91  F   UNL A   1      43.726  34.614  27.091  1.00  0.00    -0.203 F 
ATOM     92  C   UNL A   1      44.881  36.224  28.361  1.00  0.00     0.198 A 
ATOM     93  C   UNL A   1      45.898  35.607  30.446  1.00  0.00     0.198 A 
ATOM     94  F   UNL A   1      45.771  33.384  31.207  1.00  0.00    -0.203 F 
ATOM     95  F   UNL A   1      44.629  37.146  27.421  1.00  0.00    -0.200 F 
ATOM     96  C   UNL A   1      45.613  36.567  29.489  1.00  0.00     0.200 A 
ATOM     97  F   UNL A   1      46.593  35.940  31.543  1.00  0.00    -0.200 F 
ATOM     98  F   UNL A   1      46.048  37.825  29.648  1.00  0.00    -0.200 F 
ENDBRANCH  65  88
ENDBRANCH  39  40
ENDBRANCH  32  34
ENDBRANCH  31  32
ENDBRANCH  30  31
ENDBRANCH  29  30
ENDBRANCH  28  29
ENDBRANCH   1  28
TORSDOF 18
ENDMDL
MODEL 2
REMARK VINA RESULT:     -12.1      0.937      3.929
REMARK SMILES COc1ccc2[nH]c(C(=O)c3cc(C)ccn3)c(CC(=O)OCCOCCOC(=O)c3ccc(-c4c5nc(c(-c6c(F)c(F)c(F)c(F)c6F)c6ccc([nH]6)c(-c6c(F)c(F)c(F)c(F)c6F)c6nc(c(-c7c(F)c(F)c(F)c(F)c7F)c7ccc4[nH]7)C=C6)C=C5)cc3)c2c1
REMARK SMILES IDX 24 1 23 2 22 3 20 4 21 5 19 6 18 7 3 8 4 9 95 10 5 11 94 12
REMARK SMILES IDX 6 13 7 14 8 15 2 17 1 18 9 19 10 20 11 21 12 22 17 23 13 24
REMARK SMILES IDX 16 25 14 26 15 27 25 28 26 29 27 30 28 31 29 32 30 33 31 34
REMARK SMILES IDX 32 35 93 36 33 37 92 38 34 39 35 40 36 41 86 42 37 43 91 44
REMARK SMILES IDX 85 45 87 46 38 47 90 48 84 49 83 50 39 52 71 53 51 54 70 55
REMARK SMILES IDX 52 56 55 57 69 58 88 59 53 60 54 61 68 63 89 64 56 65 40 66
REMARK SMILES IDX 41 67 49 68 42 69 43 70 47 71 50 72 44 73 45 74 48 75 46 76
REMARK SMILES IDX 72 77 73 78 81 79 74 80 75 81 79 82 82 83 76 84 77 85 80 86
REMARK SMILES IDX 78 87 57 88 58 89 66 90 59 91 60 92 64 93 67 94 61 95 62 96
REMARK SMILES IDX 65 97 63 98
REMARK H PARENT 7 16 87 51 55 62
REMARK Flexibility Score: inf
ROOT
ATOM      1  C   UNL A   1      34.951  23.367  24.428  1.00  0.00     0.202 C 
ENDROOT
BRANCH   1   2
ATOM      2  C   UNL A   1      34.713  24.580  23.515  1.00  0.00     0.261 C 
BRANCH   2   3
ATOM      3  O   UNL A   1      33.859  24.301  22.386  1.00  0.00    -0.463 OA
BRANCH   3   4
ATOM      4  C   UNL A   1      33.182  25.382  21.902  1.00  0.00     0.310 C 
ATOM      5  O   UNL A   1      33.718  26.300  21.284  1.00  0.00    -0.252 OA
BRANCH   4   6
ATOM      6  C   UNL A   1      31.676  25.332  22.070  1.00  0.00     0.161 C 
BRANCH   6   7
ATOM      7  C   UNL A   1      31.112  25.421  23.463  1.00  0.00     0.000 A 
ATOM      8  C   UNL A   1      31.254  22.115  25.396  1.00  0.00     0.119 A 
ATOM      9  C   UNL A   1      30.762  22.624  26.595  1.00  0.00     0.048 A 
ATOM     10  C   UNL A   1      31.384  22.946  24.277  1.00  0.00     0.057 A 
ATOM     11  C   UNL A   1      30.369  23.966  26.700  1.00  0.00     0.030 A 
ATOM     12  C   UNL A   1      31.023  24.308  24.365  1.00  0.00     0.008 A 
ATOM     13  C   UNL A   1      30.524  24.782  25.572  1.00  0.00     0.046 A 
ATOM     14  N   UNL A   1      30.273  26.123  25.401  1.00  0.00    -0.352 N 
ATOM     15  C   UNL A   1      30.760  26.569  24.188  1.00  0.00     0.093 A 
ATOM     16  H   UNL A   1      29.809  26.691  26.058  1.00  0.00     0.167 HD
BRANCH   8  17
ATOM     17  O   UNL A   1      31.721  20.838  25.227  1.00  0.00    -0.497 OA
ATOM     18  C   UNL A   1      32.293  20.568  23.953  1.00  0.00     0.278 C 
ENDBRANCH   8  17
BRANCH  15  19
ATOM     19  C   UNL A   1      30.871  27.976  23.794  1.00  0.00     0.227 C 
ATOM     20  O   UNL A   1      31.927  28.604  23.834  1.00  0.00    -0.285 OA
BRANCH  19  21
ATOM     21  C   UNL A   1      29.673  28.697  23.261  1.00  0.00     0.113 A 
ATOM     22  C   UNL A   1      29.777  29.935  22.643  1.00  0.00     0.036 A 
ATOM     23  N   UNL A   1      28.493  28.048  23.436  1.00  0.00    -0.253 NA
ATOM     24  C   UNL A   1      28.597  30.549  22.203  1.00  0.00    -0.047 A 
ATOM     25  C   UNL A   1      27.372  28.660  23.018  1.00  0.00     0.112 A 
ATOM     26  C   UNL A   1      28.612  31.870  21.495  1.00  0.00     0.044 C 
ATOM     27  C   UNL A   1      27.374  29.899  22.407  1.00  0.00     0.023 A 
ENDBRANCH  19  21
ENDBRANCH  15  19
ENDBRANCH   6   7
ENDBRANCH   4   6
ENDBRANCH   3   4
ENDBRANCH   2   3
ENDBRANCH   1   2
BRANCH   1  28
ATOM     28  O   UNL A   1      35.572  22.221  23.849  1.00  0.00    -0.374 OA
BRANCH  28  29
ATOM     29  C   UNL A   1      35.853  21.126  24.718  1.00  0.00     0.202 C 
BRANCH  29  30
ATOM     30  C   UNL A   1      37.327  20.796  24.960  1.00  0.00     0.261 C 
BRANCH  30  31
ATOM     31  O   UNL A   1      38.143  21.911  25.321  1.00  0.00    -0.460 OA
BRANCH  31  32
ATOM     32  C   UNL A   1      39.224  21.594  26.057  1.00  0.00     0.338 C 
ATOM     33  O   UNL A   1      39.819  20.527  26.127  1.00  0.00    -0.246 OA
BRANCH  32  34
ATOM     34  C   UNL A   1      39.671  22.797  26.753  1.00  0.00     0.060 A 
ATOM     35  C   UNL A   1      39.069  24.012  26.415  1.00  0.00     0.016 A 
ATOM     36  C   UNL A   1      40.738  22.733  27.651  1.00  0.00     0.016 A 
ATOM     37  C   UNL A   1      39.586  25.190  26.938  1.00  0.00     0.010 A 
ATOM     38  C   UNL A   1      41.249  23.917  28.180  1.00  0.00     0.010 A 
ATOM     39  C   UNL A   1      40.702  25.150  27.790  1.00  0.00    -0.014 A 
BRANCH  39  40
ATOM     40  C   UNL A   1      41.353  26.423  28.164  1.00  0.00     0.031 A 
ATOM     41  C   UNL A   1      42.751  26.696  27.690  1.00  0.00     0.074 A 
ATOM     42  C   UNL A   1      40.665  27.345  28.857  1.00  0.00     0.049 A 
ATOM     43  N   UNL A   1      43.466  27.786  27.800  1.00  0.00    -0.248 NA
ATOM     44  C   UNL A   1      43.440  25.593  27.001  1.00  0.00     0.031 C 
ATOM     45  C   UNL A   1      39.304  27.172  29.359  1.00  0.00     0.029 A 
ATOM     46  N   UNL A   1      41.012  28.613  29.243  1.00  0.00    -0.354 N 
ATOM     47  C   UNL A   1      44.679  27.505  27.188  1.00  0.00     0.074 A 
ATOM     48  C   UNL A   1      44.625  26.129  26.746  1.00  0.00     0.031 C 
ATOM     49  C   UNL A   1      38.922  28.303  29.976  1.00  0.00     0.029 A 
ATOM     50  C   UNL A   1      40.016  29.269  29.920  1.00  0.00     0.049 A 
ATOM     51  H   UNL A   1      41.891  29.014  29.052  1.00  0.00     0.167 HD
ATOM     52  C   UNL A   1      45.736  28.331  26.998  1.00  0.00     0.037 A 
ATOM     53  C   UNL A   1      39.993  30.515  30.428  1.00  0.00     0.037 A 
ATOM     54  C   UNL A   1      45.776  29.698  27.446  1.00  0.00     0.049 A 
ATOM     55  C   UNL A   1      41.186  31.408  30.217  1.00  0.00     0.074 A 
ATOM     56  C   UNL A   1      46.787  30.630  27.291  1.00  0.00     0.029 A 
ATOM     57  N   UNL A   1      44.755  30.326  28.146  1.00  0.00    -0.354 N 
ATOM     58  N   UNL A   1      42.310  31.152  29.591  1.00  0.00    -0.248 NA
ATOM     59  C   UNL A   1      41.101  32.766  30.769  1.00  0.00     0.031 C 
ATOM     60  C   UNL A   1      46.395  31.808  27.939  1.00  0.00     0.029 A 
ATOM     61  C   UNL A   1      45.120  31.626  28.451  1.00  0.00     0.049 A 
ATOM     62  H   UNL A   1      43.898  29.907  28.390  1.00  0.00     0.167 HD
ATOM     63  C   UNL A   1      43.056  32.321  29.650  1.00  0.00     0.074 A 
ATOM     64  C   UNL A   1      42.247  33.292  30.361  1.00  0.00     0.031 C 
ATOM     65  C   UNL A   1      44.295  32.572  29.160  1.00  0.00     0.037 A 
BRANCH  52  66
ATOM     66  C   UNL A   1      46.936  27.767  26.295  1.00  0.00     0.064 A 
ATOM     67  C   UNL A   1      48.008  27.202  27.002  1.00  0.00     0.173 A 
ATOM     68  C   UNL A   1      47.008  27.774  24.894  1.00  0.00     0.173 A 
ATOM     69  F   UNL A   1      47.997  27.184  28.344  1.00  0.00    -0.203 F 
ATOM     70  C   UNL A   1      49.119  26.692  26.335  1.00  0.00     0.198 A 
ATOM     71  C   UNL A   1      48.107  27.239  24.229  1.00  0.00     0.198 A 
ATOM     72  F   UNL A   1      46.010  28.301  24.168  1.00  0.00    -0.203 F 
ATOM     73  F   UNL A   1      50.152  26.201  27.033  1.00  0.00    -0.200 F 
ATOM     74  C   UNL A   1      49.166  26.705  24.949  1.00  0.00     0.200 A 
ATOM     75  F   UNL A   1      48.147  27.245  22.889  1.00  0.00    -0.200 F 
ATOM     76  F   UNL A   1      50.235  26.213  24.308  1.00  0.00    -0.200 F 
ENDBRANCH  52  66
BRANCH  53  77
ATOM     77  C   UNL A   1      38.787  30.991  31.150  1.00  0.00     0.064 A 
ATOM     78  C   UNL A   1      37.699  31.544  30.463  1.00  0.00     0.173 A 
ATOM     79  C   UNL A   1      38.690  30.878  32.546  1.00  0.00     0.173 A 
ATOM     80  F   UNL A   1      37.752  31.690  29.132  1.00  0.00    -0.203 F 
ATOM     81  C   UNL A   1      36.563  31.979  31.144  1.00  0.00     0.198 A 
ATOM     82  C   UNL A   1      37.544  31.289  33.224  1.00  0.00     0.198 A 
ATOM     83  F   UNL A   1      39.702  30.351  33.249  1.00  0.00    -0.203 F 
ATOM     84  F   UNL A   1      35.551  32.537  30.467  1.00  0.00    -0.200 F 
ATOM     85  C   UNL A   1      36.484  31.844  32.523  1.00  0.00     0.200 A 
ATOM     86  F   UNL A   1      37.466  31.144  34.553  1.00  0.00    -0.200 F 
ATOM     87  F   UNL A   1      35.387  32.252  33.176  1.00  0.00    -0.200 F 
ENDBRANCH  53  77
BRANCH  65  88
ATOM     88  C   UNL A   1      44.839  33.956  29.359  1.00  0.00     0.064 A 
ATOM     89  C   UNL A   1      45.620  34.286  30.476  1.00  0.00     0.173 A 
ATOM     90  C   UNL A   1      44.604  34.954  28.401  1.00  0.00     0.173 A 
ATOM     91  F   UNL A   1      45.862  33.369  31.425  1.00  0.00    -0.203 F 
ATOM     92  C   UNL A   1      46.122  35.573  30.641  1.00  0.00     0.198 A 
ATOM     93  C   UNL A   1      45.131  36.232  28.557  1.00  0.00     0.198 A 
ATOM     94  F   UNL A   1      43.870  34.685  27.310  1.00  0.00    -0.203 F 
ATOM     95  F   UNL A   1      46.823  35.881  31.742  1.00  0.00    -0.200 F 
ATOM     96  C   UNL A   1      45.881  36.544  29.680  1.00  0.00     0.200 A 
ATOM     97  F   UNL A   1      44.909  37.165  27.619  1.00  0.00    -0.200 F 
ATOM     98  F   UNL A   1      46.368  37.782  29.840  1.00  0.00    -0.200 F 
ENDBRANCH  65  88
ENDBRANCH  39  40
ENDBRANCH  32  34
ENDBRANCH  31  32
ENDBRANCH  30  31
ENDBRANCH  29  30
ENDBRANCH  28  29
ENDBRANCH   1  28
TORSDOF 18
ENDMDL
MODEL 3
REMARK VINA RESULT:     -12.0      4.052      9.236
REMARK SMILES COc1ccc2[nH]c(C(=O)c3cc(C)ccn3)c(CC(=O)OCCOCCOC(=O)c3ccc(-c4c5nc(c(-c6c(F)c(F)c(F)c(F)c6F)c6ccc([nH]6)c(-c6c(F)c(F)c(F)c(F)c6F)c6nc(c(-c7c(F)c(F)c(F)c(F)c7F)c7ccc4[nH]7)C=C6)C=C5)cc3)c2c1
REMARK SMILES IDX 24 1 23 2 22 3 20 4 21 5 19 6 18 7 3 8 4 9 95 10 5 11 94 12
REMARK SMILES IDX 6 13 7 14 8 15 2 17 1 18 9 19 10 20 11 21 12 22 17 23 13 24
REMARK SMILES IDX 16 25 14 26 15 27 25 28 26 29 27 30 28 31 29 32 30 33 31 34
REMARK SMILES IDX 32 35 93 36 33 37 92 38 34 39 35 40 36 41 86 42 37 43 91 44
REMARK SMILES IDX 85 45 87 46 38 47 90 48 84 49 83 50 39 52 71 53 51 54 70 55
REMARK SMILES IDX 52 56 55 57 69 58 88 59 53 60 54 61 68 63 89 64 56 65 40 66
REMARK SMILES IDX 41 67 49 68 42 69 43 70 47 71 50 72 44 73 45 74 48 75 46 76
REMARK SMILES IDX 72 77 73 78 81 79 74 80 75 81 79 82 82 83 76 84 77 85 80 86
REMARK SMILES IDX 78 87 57 88 58 89 66 90 59 91 60 92 64 93 67 94 61 95 62 96
REMARK SMILES IDX 65 97 63 98
REMARK H PARENT 7 16 87 51 55 62
REMARK Flexibility Score: inf
ROOT
ATOM      1  C   UNL A   1      33.145  26.485  25.793  1.00  0.00     0.202 C 
ENDROOT
BRANCH   1   2
ATOM      2  C   UNL A   1      32.069  26.309  26.875  1.00  0.00     0.261 C 
BRANCH   2   3
ATOM      3  O   UNL A   1      31.003  25.414  26.497  1.00  0.00    -0.463 OA
BRANCH   3   4
ATOM      4  C   UNL A   1      31.320  24.089  26.562  1.00  0.00     0.310 C 
ATOM      5  O   UNL A   1      31.768  23.545  27.570  1.00  0.00    -0.252 OA
BRANCH   4   6
ATOM      6  C   UNL A   1      30.971  23.276  25.330  1.00  0.00     0.161 C 
BRANCH   6   7
ATOM      7  C   UNL A   1      31.819  23.452  24.099  1.00  0.00     0.000 A 
ATOM      8  C   UNL A   1      31.081  26.679  22.169  1.00  0.00     0.119 A 
ATOM      9  C   UNL A   1      32.088  26.517  21.220  1.00  0.00     0.048 A 
ATOM     10  C   UNL A   1      30.879  25.708  23.156  1.00  0.00     0.057 A 
ATOM     11  C   UNL A   1      32.900  25.375  21.221  1.00  0.00     0.030 A 
ATOM     12  C   UNL A   1      31.702  24.562  23.196  1.00  0.00     0.008 A 
ATOM     13  C   UNL A   1      32.689  24.424  22.228  1.00  0.00     0.046 A 
ATOM     14  N   UNL A   1      33.354  23.252  22.500  1.00  0.00    -0.352 N 
ATOM     15  C   UNL A   1      32.951  22.721  23.710  1.00  0.00     0.093 A 
ATOM     16  H   UNL A   1      34.029  22.845  21.910  1.00  0.00     0.167 HD
BRANCH   8  17
ATOM     17  O   UNL A   1      30.290  27.792  22.280  1.00  0.00    -0.497 OA
ATOM     18  C   UNL A   1      29.206  27.674  23.193  1.00  0.00     0.278 C 
ENDBRANCH   8  17
BRANCH  15  19
ATOM     19  C   UNL A   1      33.618  21.617  24.407  1.00  0.00     0.227 C 
ATOM     20  O   UNL A   1      33.030  20.602  24.774  1.00  0.00    -0.285 OA
BRANCH  19  21
ATOM     21  C   UNL A   1      35.093  21.674  24.649  1.00  0.00     0.113 A 
ATOM     22  C   UNL A   1      35.867  20.525  24.731  1.00  0.00     0.036 A 
ATOM     23  N   UNL A   1      35.601  22.926  24.784  1.00  0.00    -0.253 NA
ATOM     24  C   UNL A   1      37.235  20.674  24.992  1.00  0.00    -0.047 A 
ATOM     25  C   UNL A   1      36.914  23.046  25.047  1.00  0.00     0.112 A 
ATOM     26  C   UNL A   1      38.157  19.495  25.065  1.00  0.00     0.044 C 
ATOM     27  C   UNL A   1      37.760  21.960  25.163  1.00  0.00     0.023 A 
ENDBRANCH  19  21
ENDBRANCH  15  19
ENDBRANCH   6   7
ENDBRANCH   4   6
ENDBRANCH   3   4
ENDBRANCH   2   3
ENDBRANCH   1   2
BRANCH   1  28
ATOM     28  O   UNL A   1      33.186  27.734  25.104  1.00  0.00    -0.374 OA
BRANCH  28  29
ATOM     29  C   UNL A   1      32.149  28.669  25.392  1.00  0.00     0.202 C 
BRANCH  29  30
ATOM     30  C   UNL A   1      32.582  30.092  25.749  1.00  0.00     0.261 C 
BRANCH  30  31
ATOM     31  O   UNL A   1      32.661  30.364  27.148  1.00  0.00    -0.460 OA
BRANCH  31  32
ATOM     32  C   UNL A   1      33.347  31.480  27.460  1.00  0.00     0.338 C 
ATOM     33  O   UNL A   1      32.949  32.635  27.518  1.00  0.00    -0.246 OA
BRANCH  32  34
ATOM     34  C   UNL A   1      34.709  31.093  27.818  1.00  0.00     0.060 A 
ATOM     35  C   UNL A   1      34.963  29.742  28.068  1.00  0.00     0.016 A 
ATOM     36  C   UNL A   1      35.690  32.069  28.001  1.00  0.00     0.016 A 
ATOM     37  C   UNL A   1      36.204  29.369  28.569  1.00  0.00     0.010 A 
ATOM     38  C   UNL A   1      36.937  31.691  28.496  1.00  0.00     0.010 A 
ATOM     39  C   UNL A   1      37.180  30.346  28.823  1.00  0.00    -0.014 A 
BRANCH  39  40
ATOM     40  C   UNL A   1      38.408  29.949  29.545  1.00  0.00     0.031 A 
ATOM     41  C   UNL A   1      38.632  30.456  30.940  1.00  0.00     0.074 A 
ATOM     42  C   UNL A   1      39.266  29.088  28.975  1.00  0.00     0.049 A 
ATOM     43  N   UNL A   1      39.572  30.144  31.794  1.00  0.00    -0.248 NA
ATOM     44  C   UNL A   1      37.669  31.449  31.442  1.00  0.00     0.031 C 
ATOM     45  C   UNL A   1      39.134  28.541  27.626  1.00  0.00     0.029 A 
ATOM     46  N   UNL A   1      40.408  28.512  29.465  1.00  0.00    -0.354 N 
ATOM     47  C   UNL A   1      39.309  30.891  32.934  1.00  0.00     0.074 A 
ATOM     48  C   UNL A   1      38.148  31.707  32.650  1.00  0.00     0.031 C 
ATOM     49  C   UNL A   1      40.150  27.693  27.400  1.00  0.00     0.029 A 
ATOM     50  C   UNL A   1      41.006  27.649  28.584  1.00  0.00     0.049 A 
ATOM     51  H   UNL A   1      40.765  28.700  30.364  1.00  0.00     0.167 HD
ATOM     52  C   UNL A   1      39.971  30.883  34.116  1.00  0.00     0.037 A 
ATOM     53  C   UNL A   1      42.116  26.902  28.725  1.00  0.00     0.037 A 
ATOM     54  C   UNL A   1      41.127  30.068  34.382  1.00  0.00     0.049 A 
ATOM     55  C   UNL A   1      42.843  26.921  30.043  1.00  0.00     0.074 A 
ATOM     56  C   UNL A   1      41.864  29.965  35.548  1.00  0.00     0.029 A 
ATOM     57  N   UNL A   1      41.717  29.217  33.458  1.00  0.00    -0.354 N 
ATOM     58  N   UNL A   1      42.558  27.591  31.134  1.00  0.00    -0.248 NA
ATOM     59  C   UNL A   1      44.034  26.068  30.154  1.00  0.00     0.031 C 
ATOM     60  C   UNL A   1      42.928  29.086  35.315  1.00  0.00     0.029 A 
ATOM     61  C   UNL A   1      42.823  28.602  34.020  1.00  0.00     0.049 A 
ATOM     62  H   UNL A   1      41.397  29.072  32.539  1.00  0.00     0.167 HD
ATOM     63  C   UNL A   1      43.516  27.225  32.069  1.00  0.00     0.074 A 
ATOM     64  C   UNL A   1      44.382  26.260  31.419  1.00  0.00     0.031 C 
ATOM     65  C   UNL A   1      43.668  27.645  33.349  1.00  0.00     0.037 A 
BRANCH  52  66
ATOM     66  C   UNL A   1      39.469  31.797  35.195  1.00  0.00     0.064 A 
ATOM     67  C   UNL A   1      38.591  31.348  36.193  1.00  0.00     0.173 A 
ATOM     68  C   UNL A   1      39.885  33.136  35.243  1.00  0.00     0.173 A 
ATOM     69  F   UNL A   1      38.150  30.080  36.185  1.00  0.00    -0.203 F 
ATOM     70  C   UNL A   1      38.126  32.211  37.183  1.00  0.00     0.198 A 
ATOM     71  C   UNL A   1      39.441  33.990  36.249  1.00  0.00     0.198 A 
ATOM     72  F   UNL A   1      40.725  33.617  34.314  1.00  0.00    -0.203 F 
ATOM     73  F   UNL A   1      37.251  31.773  38.097  1.00  0.00    -0.200 F 
ATOM     74  C   UNL A   1      38.556  33.530  37.214  1.00  0.00     0.200 A 
ATOM     75  F   UNL A   1      39.863  35.261  36.282  1.00  0.00    -0.200 F 
ATOM     76  F   UNL A   1      38.110  34.360  38.166  1.00  0.00    -0.200 F 
ENDBRANCH  52  66
BRANCH  53  77
ATOM     77  C   UNL A   1      42.579  26.053  27.597  1.00  0.00     0.064 A 
ATOM     78  C   UNL A   1      42.045  24.776  27.382  1.00  0.00     0.173 A 
ATOM     79  C   UNL A   1      43.550  26.517  26.696  1.00  0.00     0.173 A 
ATOM     80  F   UNL A   1      41.129  24.283  28.227  1.00  0.00    -0.203 F 
ATOM     81  C   UNL A   1      42.474  23.988  26.315  1.00  0.00     0.198 A 
ATOM     82  C   UNL A   1      43.958  25.739  25.615  1.00  0.00     0.198 A 
ATOM     83  F   UNL A   1      44.088  27.734  26.856  1.00  0.00    -0.203 F 
ATOM     84  F   UNL A   1      41.973  22.756  26.152  1.00  0.00    -0.200 F 
ATOM     85  C   UNL A   1      43.425  24.473  25.429  1.00  0.00     0.200 A 
ATOM     86  F   UNL A   1      44.866  26.217  24.754  1.00  0.00    -0.200 F 
ATOM     87  F   UNL A   1      43.828  23.719  24.397  1.00  0.00    -0.200 F 
ENDBRANCH  53  77
BRANCH  65  88
ATOM     88  C   UNL A   1      44.797  27.046  34.134  1.00  0.00     0.064 A 
ATOM     89  C   UNL A   1      46.063  27.648  34.179  1.00  0.00     0.173 A 
ATOM     90  C   UNL A   1      44.599  25.872  34.878  1.00  0.00     0.173 A 
ATOM     91  F   UNL A   1      46.304  28.764  33.474  1.00  0.00    -0.203 F 
ATOM     92  C   UNL A   1      47.098  27.081  34.917  1.00  0.00     0.198 A 
ATOM     93  C   UNL A   1      45.629  25.324  35.636  1.00  0.00     0.198 A 
ATOM     94  F   UNL A   1      43.404  25.262  34.874  1.00  0.00    -0.203 F 
ATOM     95  F   UNL A   1      48.314  27.646  34.905  1.00  0.00    -0.200 F 
ATOM     96  C   UNL A   1      46.879  25.923  35.648  1.00  0.00     0.200 A 
ATOM     97  F   UNL A   1      45.412  24.213  36.354  1.00  0.00    -0.200 F 
ATOM     98  F   UNL A   1      47.876  25.382  36.361  1.00  0.00    -0.200 F 
ENDBRANCH  65  88
ENDBRANCH  39  40
ENDBRANCH  32  34
ENDBRANCH  31  32
ENDBRANCH  30  31
ENDBRANCH  29  30
ENDBRANCH  28  29
ENDBRANCH   1  28
TORSDOF 18
ENDMDL
