MODEL 1
REMARK VINA RESULT:     -12.3      0.000      0.000
REMARK SMILES COc1cc(C(=O)NC2(C(=O)OCCOCCOC(=O)c3ccc(-c4c5nc(c(-c6c(F)c(F)c(F)c(F)c6F)c6ccc([nH]6)c(-c6c(F)c(F)c(F)c(F)c6F)c6nc(c(-c7c(F)c(F)c(F)c(F)c7F)c7ccc4[nH]7)C=C6)C=C5)cc3)CCCCC2)cc2c1OCCO2
REMARK SMILES IDX 14 1 13 2 12 3 10 4 11 5 9 6 84 7 88 8 85 9 87 10 86 11 8 12
REMARK SMILES IDX 6 13 7 14 5 16 3 17 4 18 91 19 90 20 92 21 89 22 95 23 93 24
REMARK SMILES IDX 94 25 2 26 1 27 15 28 16 29 17 30 18 31 19 32 20 33 21 34
REMARK SMILES IDX 22 35 83 36 23 37 82 38 24 39 25 40 26 41 76 42 27 43 81 44
REMARK SMILES IDX 75 45 77 46 28 47 80 48 74 49 73 50 29 52 61 53 41 54 60 55
REMARK SMILES IDX 42 56 45 57 59 58 78 59 43 60 44 61 58 63 79 64 46 65 30 66
REMARK SMILES IDX 31 67 39 68 32 69 33 70 37 71 40 72 34 73 35 74 38 75 36 76
REMARK SMILES IDX 62 77 63 78 71 79 64 80 65 81 69 82 72 83 66 84 67 85 70 86
REMARK SMILES IDX 68 87 47 88 48 89 56 90 49 91 50 92 54 93 57 94 51 95 52 96
REMARK SMILES IDX 55 97 53 98
REMARK H PARENT 8 15 77 51 45 62
REMARK Flexibility Score: inf
ROOT
ATOM      1  C   UNL A   1      36.085  22.244  24.406  1.00  0.00     0.202 C 
ENDROOT
BRANCH   1   2
ATOM      2  C   UNL A   1      35.509  23.511  25.043  1.00  0.00     0.261 C 
BRANCH   2   3
ATOM      3  O   UNL A   1      34.082  23.550  24.844  1.00  0.00    -0.461 OA
BRANCH   3   4
ATOM      4  C   UNL A   1      33.303  22.991  25.807  1.00  0.00     0.331 C 
ATOM      5  O   UNL A   1      33.583  22.967  27.002  1.00  0.00    -0.249 OA
BRANCH   4   6
ATOM      6  C   UNL A   1      32.004  22.352  25.218  1.00  0.00     0.138 C 
ATOM      7  C   UNL A   1      32.201  20.830  25.374  1.00  0.00     0.040 C 
ATOM      8  C   UNL A   1      31.770  22.884  23.782  1.00  0.00     0.040 C 
ATOM      9  C   UNL A   1      32.959  20.185  24.217  1.00  0.00     0.003 C 
ATOM     10  C   UNL A   1      32.431  22.085  22.657  1.00  0.00     0.003 C 
ATOM     11  C   UNL A   1      32.397  20.579  22.861  1.00  0.00     0.000 C 
BRANCH   6  12
ATOM     12  N   UNL A   1      30.938  22.830  26.159  1.00  0.00    -0.336 N 
ATOM     13  C   UNL A   1      30.282  23.989  26.483  1.00  0.00     0.252 C 
ATOM     14  O   UNL A   1      29.396  23.891  27.335  1.00  0.00    -0.269 OA
ATOM     15  H   UNL A   1      30.610  22.084  26.712  1.00  0.00     0.165 HD
BRANCH  13  16
ATOM     16  C   UNL A   1      30.579  25.348  25.946  1.00  0.00     0.047 A 
ATOM     17  C   UNL A   1      31.657  27.524  26.026  1.00  0.00     0.165 A 
ATOM     18  C   UNL A   1      31.541  26.206  26.465  1.00  0.00     0.064 A 
ATOM     19  C   UNL A   1      30.925  27.969  24.933  1.00  0.00     0.203 A 
ATOM     20  C   UNL A   1      30.047  27.078  24.310  1.00  0.00     0.166 A 
ATOM     21  O   UNL A   1      31.128  29.253  24.500  1.00  0.00    -0.483 OA
ATOM     22  C   UNL A   1      29.840  25.798  24.838  1.00  0.00     0.064 A 
ATOM     23  O   UNL A   1      29.346  27.401  23.175  1.00  0.00    -0.486 OA
ATOM     24  C   UNL A   1      30.191  29.643  23.494  1.00  0.00     0.271 C 
ATOM     25  C   UNL A   1      29.959  28.512  22.507  1.00  0.00     0.271 C 
BRANCH  17  26
ATOM     26  O   UNL A   1      32.526  28.322  26.724  1.00  0.00    -0.493 OA
ATOM     27  C   UNL A   1      33.872  28.075  26.307  1.00  0.00     0.278 C 
ENDBRANCH  17  26
ENDBRANCH  13  16
ENDBRANCH   6  12
ENDBRANCH   4   6
ENDBRANCH   3   4
ENDBRANCH   2   3
ENDBRANCH   1   2
BRANCH   1  28
ATOM     28  O   UNL A   1      36.234  21.130  25.287  1.00  0.00    -0.374 OA
BRANCH  28  29
ATOM     29  C   UNL A   1      36.850  19.955  24.767  1.00  0.00     0.202 C 
BRANCH  29  30
ATOM     30  C   UNL A   1      38.287  19.701  25.236  1.00  0.00     0.261 C 
BRANCH  30  31
ATOM     31  O   UNL A   1      39.015  20.924  25.459  1.00  0.00    -0.460 OA
BRANCH  31  32
ATOM     32  C   UNL A   1      40.065  20.800  26.303  1.00  0.00     0.338 C 
ATOM     33  O   UNL A   1      40.838  19.853  26.390  1.00  0.00    -0.246 OA
BRANCH  32  34
ATOM     34  C   UNL A   1      40.287  22.041  27.065  1.00  0.00     0.060 A 
ATOM     35  C   UNL A   1      39.601  23.181  26.627  1.00  0.00     0.016 A 
ATOM     36  C   UNL A   1      41.244  22.135  28.077  1.00  0.00     0.016 A 
ATOM     37  C   UNL A   1      39.935  24.433  27.133  1.00  0.00     0.010 A 
ATOM     38  C   UNL A   1      41.580  23.397  28.587  1.00  0.00     0.010 A 
ATOM     39  C   UNL A   1      40.969  24.556  28.071  1.00  0.00    -0.014 A 
BRANCH  39  40
ATOM     40  C   UNL A   1      41.530  25.908  28.324  1.00  0.00     0.031 A 
ATOM     41  C   UNL A   1      42.895  26.241  27.784  1.00  0.00     0.074 A 
ATOM     42  C   UNL A   1      40.801  26.861  28.932  1.00  0.00     0.049 A 
ATOM     43  N   UNL A   1      43.546  27.377  27.804  1.00  0.00    -0.248 NA
ATOM     44  C   UNL A   1      43.624  25.143  27.129  1.00  0.00     0.031 C 
ATOM     45  C   UNL A   1      39.456  26.678  29.470  1.00  0.00     0.029 A 
ATOM     46  N   UNL A   1      41.093  28.178  29.184  1.00  0.00    -0.354 N 
ATOM     47  C   UNL A   1      44.753  27.132  27.161  1.00  0.00     0.074 A 
ATOM     48  C   UNL A   1      44.765  25.730  26.803  1.00  0.00     0.031 C 
ATOM     49  C   UNL A   1      39.036  27.844  29.990  1.00  0.00     0.029 A 
ATOM     50  C   UNL A   1      40.087  28.849  29.832  1.00  0.00     0.049 A 
ATOM     51  H   UNL A   1      41.944  28.600  28.925  1.00  0.00     0.167 HD
ATOM     52  C   UNL A   1      45.755  27.998  26.876  1.00  0.00     0.037 A 
ATOM     53  C   UNL A   1      40.022  30.128  30.248  1.00  0.00     0.037 A 
ATOM     54  C   UNL A   1      45.751  29.392  27.229  1.00  0.00     0.049 A 
ATOM     55  C   UNL A   1      41.164  31.066  29.956  1.00  0.00     0.074 A 
ATOM     56  C   UNL A   1      46.721  30.350  26.989  1.00  0.00     0.029 A 
ATOM     57  N   UNL A   1      44.720  30.029  27.905  1.00  0.00    -0.354 N 
ATOM     58  N   UNL A   1      42.290  30.830  29.328  1.00  0.00    -0.248 NA
ATOM     59  C   UNL A   1      41.017  32.454  30.417  1.00  0.00     0.031 C 
ATOM     60  C   UNL A   1      46.295  31.557  27.553  1.00  0.00     0.029 A 
ATOM     61  C   UNL A   1      45.037  31.364  28.102  1.00  0.00     0.049 A 
ATOM     62  H   UNL A   1      43.887  29.597  28.201  1.00  0.00     0.167 HD
ATOM     63  C   UNL A   1      42.970  32.042  29.291  1.00  0.00     0.074 A 
ATOM     64  C   UNL A   1      42.125  33.014  29.953  1.00  0.00     0.031 C 
ATOM     65  C   UNL A   1      44.183  32.324  28.755  1.00  0.00     0.037 A 
BRANCH  52  66
ATOM     66  C   UNL A   1      46.953  27.445  26.160  1.00  0.00     0.064 A 
ATOM     67  C   UNL A   1      48.002  26.823  26.854  1.00  0.00     0.173 A 
ATOM     68  C   UNL A   1      47.051  27.536  24.764  1.00  0.00     0.173 A 
ATOM     69  F   UNL A   1      47.963  26.725  28.191  1.00  0.00    -0.203 F 
ATOM     70  C   UNL A   1      49.122  26.343  26.179  1.00  0.00     0.198 A 
ATOM     71  C   UNL A   1      48.159  27.029  24.090  1.00  0.00     0.198 A 
ATOM     72  F   UNL A   1      46.075  28.118  24.053  1.00  0.00    -0.203 F 
ATOM     73  F   UNL A   1      50.138  25.803  26.867  1.00  0.00    -0.200 F 
ATOM     74  C   UNL A   1      49.197  26.442  24.798  1.00  0.00     0.200 A 
ATOM     75  F   UNL A   1      48.227  27.118  22.754  1.00  0.00    -0.200 F 
ATOM     76  F   UNL A   1      50.277  25.982  24.150  1.00  0.00    -0.200 F 
ENDBRANCH  52  66
BRANCH  53  77
ATOM     77  C   UNL A   1      38.819  30.601  30.978  1.00  0.00     0.064 A 
ATOM     78  C   UNL A   1      38.769  30.596  32.380  1.00  0.00     0.173 A 
ATOM     79  C   UNL A   1      37.694  31.071  30.286  1.00  0.00     0.173 A 
ATOM     80  F   UNL A   1      39.811  30.133  33.084  1.00  0.00    -0.203 F 
ATOM     81  C   UNL A   1      37.633  31.031  33.059  1.00  0.00     0.198 A 
ATOM     82  C   UNL A   1      36.569  31.529  30.966  1.00  0.00     0.198 A 
ATOM     83  F   UNL A   1      37.694  31.095  28.944  1.00  0.00    -0.203 F 
ATOM     84  F   UNL A   1      37.596  30.982  34.397  1.00  0.00    -0.200 F 
ATOM     85  C   UNL A   1      36.537  31.504  32.352  1.00  0.00     0.200 A 
ATOM     86  F   UNL A   1      35.517  31.994  30.280  1.00  0.00    -0.200 F 
ATOM     87  F   UNL A   1      35.448  31.929  33.007  1.00  0.00    -0.200 F 
ENDBRANCH  53  77
BRANCH  65  88
ATOM     88  C   UNL A   1      44.655  33.747  28.823  1.00  0.00     0.064 A 
ATOM     89  C   UNL A   1      44.337  34.679  27.824  1.00  0.00     0.173 A 
ATOM     90  C   UNL A   1      45.406  34.193  29.922  1.00  0.00     0.173 A 
ATOM     91  F   UNL A   1      43.631  34.301  26.748  1.00  0.00    -0.203 F 
ATOM     92  C   UNL A   1      44.780  35.997  27.908  1.00  0.00     0.198 A 
ATOM     93  C   UNL A   1      45.823  35.518  30.016  1.00  0.00     0.198 A 
ATOM     94  F   UNL A   1      45.730  33.344  30.908  1.00  0.00    -0.203 F 
ATOM     95  F   UNL A   1      44.505  36.858  26.919  1.00  0.00    -0.200 F 
ATOM     96  C   UNL A   1      45.516  36.417  29.005  1.00  0.00     0.200 A 
ATOM     97  F   UNL A   1      46.525  35.925  31.083  1.00  0.00    -0.200 F 
ATOM     98  F   UNL A   1      45.939  37.687  29.086  1.00  0.00    -0.200 F 
ENDBRANCH  65  88
ENDBRANCH  39  40
ENDBRANCH  32  34
ENDBRANCH  31  32
ENDBRANCH  30  31
ENDBRANCH  29  30
ENDBRANCH  28  29
ENDBRANCH   1  28
TORSDOF 17
ENDMDL
MODEL 2
REMARK VINA RESULT:     -12.3      1.208      2.703
REMARK SMILES COc1cc(C(=O)NC2(C(=O)OCCOCCOC(=O)c3ccc(-c4c5nc(c(-c6c(F)c(F)c(F)c(F)c6F)c6ccc([nH]6)c(-c6c(F)c(F)c(F)c(F)c6F)c6nc(c(-c7c(F)c(F)c(F)c(F)c7F)c7ccc4[nH]7)C=C6)C=C5)cc3)CCCCC2)cc2c1OCCO2
REMARK SMILES IDX 14 1 13 2 12 3 10 4 11 5 9 6 84 7 88 8 85 9 87 10 86 11 8 12
REMARK SMILES IDX 6 13 7 14 5 16 3 17 4 18 91 19 90 20 92 21 89 22 95 23 93 24
REMARK SMILES IDX 94 25 2 26 1 27 15 28 16 29 17 30 18 31 19 32 20 33 21 34
REMARK SMILES IDX 22 35 83 36 23 37 82 38 24 39 25 40 26 41 76 42 27 43 81 44
REMARK SMILES IDX 75 45 77 46 28 47 80 48 74 49 73 50 29 52 61 53 41 54 60 55
REMARK SMILES IDX 42 56 45 57 59 58 78 59 43 60 44 61 58 63 79 64 46 65 30 66
REMARK SMILES IDX 31 67 39 68 32 69 33 70 37 71 40 72 34 73 35 74 38 75 36 76
REMARK SMILES IDX 62 77 63 78 71 79 64 80 65 81 69 82 72 83 66 84 67 85 70 86
REMARK SMILES IDX 68 87 47 88 48 89 56 90 49 91 50 92 54 93 57 94 51 95 52 96
REMARK SMILES IDX 55 97 53 98
REMARK H PARENT 8 15 77 51 45 62
REMARK Flexibility Score: inf
ROOT
ATOM      1  C   UNL A   1      33.678  20.393  25.618  1.00  0.00     0.202 C 
ENDROOT
BRANCH   1   2
ATOM      2  C   UNL A   1      32.462  20.366  24.689  1.00  0.00     0.261 C 
BRANCH   2   3
ATOM      3  O   UNL A   1      31.960  21.704  24.506  1.00  0.00    -0.461 OA
BRANCH   3   4
ATOM      4  C   UNL A   1      32.640  22.514  23.652  1.00  0.00     0.331 C 
ATOM      5  O   UNL A   1      33.288  22.120  22.686  1.00  0.00    -0.249 OA
BRANCH   4   6
ATOM      6  C   UNL A   1      32.527  24.021  24.050  1.00  0.00     0.138 C 
ATOM      7  C   UNL A   1      33.527  24.204  25.210  1.00  0.00     0.040 C 
ATOM      8  C   UNL A   1      31.045  24.368  24.343  1.00  0.00     0.040 C 
ATOM      9  C   UNL A   1      32.949  23.870  26.582  1.00  0.00     0.003 C 
ATOM     10  C   UNL A   1      30.581  24.160  25.786  1.00  0.00     0.003 C 
ATOM     11  C   UNL A   1      31.613  24.550  26.833  1.00  0.00     0.000 C 
BRANCH   6  12
ATOM     12  N   UNL A   1      33.024  24.730  22.826  1.00  0.00    -0.336 N 
ATOM     13  C   UNL A   1      32.997  25.982  22.268  1.00  0.00     0.252 C 
ATOM     14  O   UNL A   1      33.618  26.119  21.212  1.00  0.00    -0.269 OA
ATOM     15  H   UNL A   1      33.520  24.108  22.248  1.00  0.00     0.165 HD
BRANCH  13  16
ATOM     16  C   UNL A   1      32.247  27.162  22.789  1.00  0.00     0.047 A 
ATOM     17  C   UNL A   1      31.633  28.748  24.523  1.00  0.00     0.165 A 
ATOM     18  C   UNL A   1      32.476  27.757  24.023  1.00  0.00     0.064 A 
ATOM     19  C   UNL A   1      30.636  29.293  23.725  1.00  0.00     0.203 A 
ATOM     20  C   UNL A   1      30.475  28.799  22.428  1.00  0.00     0.166 A 
ATOM     21  O   UNL A   1      29.881  30.313  24.241  1.00  0.00    -0.483 OA
ATOM     22  C   UNL A   1      31.239  27.714  21.980  1.00  0.00     0.064 A 
ATOM     23  O   UNL A   1      29.573  29.330  21.539  1.00  0.00    -0.486 OA
ATOM     24  C   UNL A   1      28.780  30.657  23.397  1.00  0.00     0.271 C 
ATOM     25  C   UNL A   1      29.200  30.656  21.938  1.00  0.00     0.271 C 
BRANCH  17  26
ATOM     26  O   UNL A   1      31.859  29.143  25.816  1.00  0.00    -0.493 OA
ATOM     27  C   UNL A   1      33.009  29.992  25.883  1.00  0.00     0.278 C 
ENDBRANCH  17  26
ENDBRANCH  13  16
ENDBRANCH   6  12
ENDBRANCH   4   6
ENDBRANCH   3   4
ENDBRANCH   2   3
ENDBRANCH   1   2
BRANCH   1  28
ATOM     28  O   UNL A   1      34.937  20.166  24.984  1.00  0.00    -0.374 OA
BRANCH  28  29
ATOM     29  C   UNL A   1      35.999  21.068  25.286  1.00  0.00     0.202 C 
BRANCH  29  30
ATOM     30  C   UNL A   1      37.407  20.567  24.942  1.00  0.00     0.261 C 
BRANCH  30  31
ATOM     31  O   UNL A   1      38.408  21.590  25.107  1.00  0.00    -0.460 OA
BRANCH  31  32
ATOM     32  C   UNL A   1      39.382  21.276  25.991  1.00  0.00     0.338 C 
ATOM     33  O   UNL A   1      40.015  20.229  26.056  1.00  0.00    -0.246 OA
BRANCH  32  34
ATOM     34  C   UNL A   1      39.723  22.430  26.841  1.00  0.00     0.060 A 
ATOM     35  C   UNL A   1      39.025  23.620  26.599  1.00  0.00     0.016 A 
ATOM     36  C   UNL A   1      40.791  22.405  27.740  1.00  0.00     0.016 A 
ATOM     37  C   UNL A   1      39.448  24.808  27.184  1.00  0.00     0.010 A 
ATOM     38  C   UNL A   1      41.217  23.604  28.330  1.00  0.00     0.010 A 
ATOM     39  C   UNL A   1      40.585  24.819  28.004  1.00  0.00    -0.014 A 
BRANCH  39  40
ATOM     40  C   UNL A   1      41.208  26.129  28.323  1.00  0.00     0.031 A 
ATOM     41  C   UNL A   1      42.600  26.412  27.822  1.00  0.00     0.074 A 
ATOM     42  C   UNL A   1      40.517  27.093  28.955  1.00  0.00     0.049 A 
ATOM     43  N   UNL A   1      43.308  27.510  27.901  1.00  0.00    -0.248 NA
ATOM     44  C   UNL A   1      43.286  25.305  27.137  1.00  0.00     0.031 C 
ATOM     45  C   UNL A   1      39.153  26.959  29.460  1.00  0.00     0.029 A 
ATOM     46  N   UNL A   1      40.870  28.382  29.267  1.00  0.00    -0.354 N 
ATOM     47  C   UNL A   1      44.514  27.229  27.272  1.00  0.00     0.074 A 
ATOM     48  C   UNL A   1      44.461  25.844  26.857  1.00  0.00     0.031 C 
ATOM     49  C   UNL A   1      38.782  28.124  30.019  1.00  0.00     0.029 A 
ATOM     50  C   UNL A   1      39.886  29.078  29.922  1.00  0.00     0.049 A 
ATOM     51  H   UNL A   1      41.746  28.770  29.041  1.00  0.00     0.167 HD
ATOM     52  C   UNL A   1      45.565  28.053  27.041  1.00  0.00     0.037 A 
ATOM     53  C   UNL A   1      39.878  30.341  30.389  1.00  0.00     0.037 A 
ATOM     54  C   UNL A   1      45.624  29.430  27.451  1.00  0.00     0.049 A 
ATOM     55  C   UNL A   1      41.073  31.229  30.157  1.00  0.00     0.074 A 
ATOM     56  C   UNL A   1      46.646  30.345  27.269  1.00  0.00     0.029 A 
ATOM     57  N   UNL A   1      44.613  30.093  28.133  1.00  0.00    -0.354 N 
ATOM     58  N   UNL A   1      42.198  30.961  29.541  1.00  0.00    -0.248 NA
ATOM     59  C   UNL A   1      40.986  32.605  30.672  1.00  0.00     0.031 C 
ATOM     60  C   UNL A   1      46.271  31.550  27.873  1.00  0.00     0.029 A 
ATOM     61  C   UNL A   1      44.993  31.400  28.390  1.00  0.00     0.049 A 
ATOM     62  H   UNL A   1      43.753  29.693  28.395  1.00  0.00     0.167 HD
ATOM     63  C   UNL A   1      42.939  32.136  29.566  1.00  0.00     0.074 A 
ATOM     64  C   UNL A   1      42.131  33.124  30.251  1.00  0.00     0.031 C 
ATOM     65  C   UNL A   1      44.176  32.376  29.066  1.00  0.00     0.037 A 
BRANCH  52  66
ATOM     66  C   UNL A   1      46.747  27.467  26.327  1.00  0.00     0.064 A 
ATOM     67  C   UNL A   1      46.912  27.606  24.940  1.00  0.00     0.173 A 
ATOM     68  C   UNL A   1      47.728  26.760  27.036  1.00  0.00     0.173 A 
ATOM     69  F   UNL A   1      45.992  28.260  24.213  1.00  0.00    -0.203 F 
ATOM     70  C   UNL A   1      47.997  27.030  24.285  1.00  0.00     0.198 A 
ATOM     71  C   UNL A   1      48.828  26.210  26.383  1.00  0.00     0.198 A 
ATOM     72  F   UNL A   1      47.621  26.601  28.364  1.00  0.00    -0.203 F 
ATOM     73  F   UNL A   1      48.105  27.127  22.953  1.00  0.00    -0.200 F 
ATOM     74  C   UNL A   1      48.957  26.337  25.008  1.00  0.00     0.200 A 
ATOM     75  F   UNL A   1      49.759  25.547  27.083  1.00  0.00    -0.200 F 
ATOM     76  F   UNL A   1      50.000  25.779  24.377  1.00  0.00    -0.200 F 
ENDBRANCH  52  66
BRANCH  53  77
ATOM     77  C   UNL A   1      38.686  30.847  31.115  1.00  0.00     0.064 A 
ATOM     78  C   UNL A   1      37.596  31.402  30.429  1.00  0.00     0.173 A 
ATOM     79  C   UNL A   1      38.612  30.781  32.514  1.00  0.00     0.173 A 
ATOM     80  F   UNL A   1      37.632  31.508  29.093  1.00  0.00    -0.203 F 
ATOM     81  C   UNL A   1      36.485  31.884  31.117  1.00  0.00     0.198 A 
ATOM     82  C   UNL A   1      37.491  31.240  33.199  1.00  0.00     0.198 A 
ATOM     83  F   UNL A   1      39.630  30.258  33.215  1.00  0.00    -0.203 F 
ATOM     84  F   UNL A   1      35.473  32.444  30.441  1.00  0.00    -0.200 F 
ATOM     85  C   UNL A   1      36.429  31.796  32.500  1.00  0.00     0.200 A 
ATOM     86  F   UNL A   1      37.436  31.144  34.534  1.00  0.00    -0.200 F 
ATOM     87  F   UNL A   1      35.356  32.254  33.160  1.00  0.00    -0.200 F 
ENDBRANCH  53  77
BRANCH  65  88
ATOM     88  C   UNL A   1      44.718  33.770  29.201  1.00  0.00     0.064 A 
ATOM     89  C   UNL A   1      45.497  34.155  30.302  1.00  0.00     0.173 A 
ATOM     90  C   UNL A   1      44.484  34.721  28.197  1.00  0.00     0.173 A 
ATOM     91  F   UNL A   1      45.741  33.285  31.295  1.00  0.00    -0.203 F 
ATOM     92  C   UNL A   1      45.996  35.451  30.408  1.00  0.00     0.198 A 
ATOM     93  C   UNL A   1      45.008  36.009  28.292  1.00  0.00     0.198 A 
ATOM     94  F   UNL A   1      43.753  34.402  27.120  1.00  0.00    -0.203 F 
ATOM     95  F   UNL A   1      46.697  35.811  31.492  1.00  0.00    -0.200 F 
ATOM     96  C   UNL A   1      45.756  36.374  29.401  1.00  0.00     0.200 A 
ATOM     97  F   UNL A   1      44.785  36.896  27.313  1.00  0.00    -0.200 F 
ATOM     98  F   UNL A   1      46.239  37.621  29.503  1.00  0.00    -0.200 F 
ENDBRANCH  65  88
ENDBRANCH  39  40
ENDBRANCH  32  34
ENDBRANCH  31  32
ENDBRANCH  30  31
ENDBRANCH  29  30
ENDBRANCH  28  29
ENDBRANCH   1  28
TORSDOF 17
ENDMDL
MODEL 3
REMARK VINA RESULT:     -12.3      4.052      7.652
REMARK SMILES COc1cc(C(=O)NC2(C(=O)OCCOCCOC(=O)c3ccc(-c4c5nc(c(-c6c(F)c(F)c(F)c(F)c6F)c6ccc([nH]6)c(-c6c(F)c(F)c(F)c(F)c6F)c6nc(c(-c7c(F)c(F)c(F)c(F)c7F)c7ccc4[nH]7)C=C6)C=C5)cc3)CCCCC2)cc2c1OCCO2
REMARK SMILES IDX 14 1 13 2 12 3 10 4 11 5 9 6 84 7 88 8 85 9 87 10 86 11 8 12
REMARK SMILES IDX 6 13 7 14 5 16 3 17 4 18 91 19 90 20 92 21 89 22 95 23 93 24
REMARK SMILES IDX 94 25 2 26 1 27 15 28 16 29 17 30 18 31 19 32 20 33 21 34
REMARK SMILES IDX 22 35 83 36 23 37 82 38 24 39 25 40 26 41 76 42 27 43 81 44
REMARK SMILES IDX 75 45 77 46 28 47 80 48 74 49 73 50 29 52 61 53 41 54 60 55
REMARK SMILES IDX 42 56 45 57 59 58 78 59 43 60 44 61 58 63 79 64 46 65 30 66
REMARK SMILES IDX 31 67 39 68 32 69 33 70 37 71 40 72 34 73 35 74 38 75 36 76
REMARK SMILES IDX 62 77 63 78 71 79 64 80 65 81 69 82 72 83 66 84 67 85 70 86
REMARK SMILES IDX 68 87 47 88 48 89 56 90 49 91 50 92 54 93 57 94 51 95 52 96
REMARK SMILES IDX 55 97 53 98
REMARK H PARENT 8 15 77 51 45 62
REMARK Flexibility Score: inf
ROOT
ATOM      1  C   UNL A   1      29.389  29.948  23.351  1.00  0.00     0.202 C 
ENDROOT
BRANCH   1   2
ATOM      2  C   UNL A   1      30.298  29.642  22.158  1.00  0.00     0.261 C 
BRANCH   2   3
ATOM      3  O   UNL A   1      30.860  28.323  22.301  1.00  0.00    -0.461 OA
BRANCH   3   4
ATOM      4  C   UNL A   1      32.130  28.235  22.776  1.00  0.00     0.331 C 
ATOM      5  O   UNL A   1      32.943  29.154  22.766  1.00  0.00    -0.249 OA
BRANCH   4   6
ATOM      6  C   UNL A   1      32.457  26.809  23.327  1.00  0.00     0.138 C 
ATOM      7  C   UNL A   1      31.147  26.323  23.982  1.00  0.00     0.040 C 
ATOM      8  C   UNL A   1      33.710  26.879  24.235  1.00  0.00     0.040 C 
ATOM      9  C   UNL A   1      30.981  26.769  25.432  1.00  0.00     0.003 C 
ATOM     10  C   UNL A   1      33.448  27.170  25.715  1.00  0.00     0.003 C 
ATOM     11  C   UNL A   1      32.213  26.481  26.275  1.00  0.00     0.000 C 
BRANCH   6  12
ATOM     12  N   UNL A   1      32.729  26.021  22.080  1.00  0.00    -0.336 N 
ATOM     13  C   UNL A   1      33.140  24.766  21.713  1.00  0.00     0.252 C 
ATOM     14  O   UNL A   1      33.175  24.539  20.501  1.00  0.00    -0.269 OA
ATOM     15  H   UNL A   1      32.560  26.574  21.283  1.00  0.00     0.165 HD
BRANCH  13  16
ATOM     16  C   UNL A   1      33.598  23.685  22.634  1.00  0.00     0.047 A 
ATOM     17  C   UNL A   1      35.281  22.513  23.935  1.00  0.00     0.165 A 
ATOM     18  C   UNL A   1      34.857  23.631  23.218  1.00  0.00     0.064 A 
ATOM     19  C   UNL A   1      34.393  21.488  24.230  1.00  0.00     0.203 A 
ATOM     20  C   UNL A   1      33.080  21.586  23.763  1.00  0.00     0.166 A 
ATOM     21  O   UNL A   1      34.843  20.445  24.996  1.00  0.00    -0.483 OA
ATOM     22  C   UNL A   1      32.698  22.648  22.934  1.00  0.00     0.064 A 
ATOM     23  O   UNL A   1      32.112  20.665  24.075  1.00  0.00    -0.486 OA
ATOM     24  C   UNL A   1      33.896  19.377  25.073  1.00  0.00     0.271 C 
ATOM     25  C   UNL A   1      32.487  19.918  25.240  1.00  0.00     0.271 C 
BRANCH  17  26
ATOM     26  O   UNL A   1      36.596  22.504  24.323  1.00  0.00    -0.493 OA
ATOM     27  C   UNL A   1      36.731  23.067  25.631  1.00  0.00     0.278 C 
ENDBRANCH  17  26
ENDBRANCH  13  16
ENDBRANCH   6  12
ENDBRANCH   4   6
ENDBRANCH   3   4
ENDBRANCH   2   3
ENDBRANCH   1   2
BRANCH   1  28
ATOM     28  O   UNL A   1      29.895  30.913  24.274  1.00  0.00    -0.374 OA
BRANCH  28  29
ATOM     29  C   UNL A   1      30.958  30.510  25.133  1.00  0.00     0.202 C 
BRANCH  29  30
ATOM     30  C   UNL A   1      31.349  31.521  26.217  1.00  0.00     0.261 C 
BRANCH  30  31
ATOM     31  O   UNL A   1      32.489  31.087  26.985  1.00  0.00    -0.460 OA
BRANCH  31  32
ATOM     32  C   UNL A   1      33.258  32.096  27.454  1.00  0.00     0.338 C 
ATOM     33  O   UNL A   1      32.908  33.245  27.694  1.00  0.00    -0.246 OA
BRANCH  32  34
ATOM     34  C   UNL A   1      34.611  31.621  27.794  1.00  0.00     0.060 A 
ATOM     35  C   UNL A   1      34.749  30.256  28.070  1.00  0.00     0.016 A 
ATOM     36  C   UNL A   1      35.682  32.496  27.988  1.00  0.00     0.016 A 
ATOM     37  C   UNL A   1      35.928  29.773  28.628  1.00  0.00     0.010 A 
ATOM     38  C   UNL A   1      36.870  32.008  28.550  1.00  0.00     0.010 A 
ATOM     39  C   UNL A   1      36.973  30.656  28.929  1.00  0.00    -0.014 A 
BRANCH  39  40
ATOM     40  C   UNL A   1      38.056  30.182  29.829  1.00  0.00     0.031 A 
ATOM     41  C   UNL A   1      39.068  29.203  29.294  1.00  0.00     0.074 A 
ATOM     42  C   UNL A   1      38.204  30.686  31.066  1.00  0.00     0.049 A 
ATOM     43  N   UNL A   1      40.143  28.720  29.863  1.00  0.00    -0.248 NA
ATOM     44  C   UNL A   1      38.835  28.702  27.930  1.00  0.00     0.031 C 
ATOM     45  C   UNL A   1      37.315  31.662  31.690  1.00  0.00     0.029 A 
ATOM     46  N   UNL A   1      39.169  30.451  32.013  1.00  0.00    -0.354 N 
ATOM     47  C   UNL A   1      40.717  27.869  28.927  1.00  0.00     0.074 A 
ATOM     48  C   UNL A   1      39.847  27.865  27.771  1.00  0.00     0.031 C 
ATOM     49  C   UNL A   1      37.778  31.946  32.919  1.00  0.00     0.029 A 
ATOM     50  C   UNL A   1      38.986  31.162  33.172  1.00  0.00     0.049 A 
ATOM     51  H   UNL A   1      39.921  29.831  31.873  1.00  0.00     0.167 HD
ATOM     52  C   UNL A   1      41.873  27.168  29.011  1.00  0.00     0.037 A 
ATOM     53  C   UNL A   1      39.713  31.178  34.306  1.00  0.00     0.037 A 
ATOM     54  C   UNL A   1      42.742  27.167  30.158  1.00  0.00     0.049 A 
ATOM     55  C   UNL A   1      40.975  30.360  34.394  1.00  0.00     0.074 A 
ATOM     56  C   UNL A   1      43.933  26.486  30.341  1.00  0.00     0.029 A 
ATOM     57  N   UNL A   1      42.510  27.885  31.322  1.00  0.00    -0.354 N 
ATOM     58  N   UNL A   1      41.520  29.577  33.496  1.00  0.00    -0.248 NA
ATOM     59  C   UNL A   1      41.732  30.444  35.653  1.00  0.00     0.031 C 
ATOM     60  C   UNL A   1      44.401  26.761  31.630  1.00  0.00     0.029 A 
ATOM     61  C   UNL A   1      43.528  27.652  32.233  1.00  0.00     0.049 A 
ATOM     62  H   UNL A   1      41.736  28.473  31.478  1.00  0.00     0.167 HD
ATOM     63  C   UNL A   1      42.694  29.100  34.065  1.00  0.00     0.074 A 
ATOM     64  C   UNL A   1      42.788  29.690  35.384  1.00  0.00     0.031 C 
ATOM     65  C   UNL A   1      43.614  28.252  33.540  1.00  0.00     0.037 A 
BRANCH  52  66
ATOM     66  C   UNL A   1      42.248  26.324  27.828  1.00  0.00     0.064 A 
ATOM     67  C   UNL A   1      41.700  25.047  27.632  1.00  0.00     0.173 A 
ATOM     68  C   UNL A   1      43.164  26.799  26.878  1.00  0.00     0.173 A 
ATOM     69  F   UNL A   1      40.832  24.541  28.521  1.00  0.00    -0.203 F 
ATOM     70  C   UNL A   1      42.082  24.262  26.547  1.00  0.00     0.198 A 
ATOM     71  C   UNL A   1      43.521  26.023  25.779  1.00  0.00     0.198 A 
ATOM     72  F   UNL A   1      43.714  28.014  27.017  1.00  0.00    -0.203 F 
ATOM     73  F   UNL A   1      41.589  23.024  26.410  1.00  0.00    -0.200 F 
ATOM     74  C   UNL A   1      42.988  24.753  25.619  1.00  0.00     0.200 A 
ATOM     75  F   UNL A   1      44.391  26.501  24.878  1.00  0.00    -0.200 F 
ATOM     76  F   UNL A   1      43.357  23.996  24.576  1.00  0.00    -0.200 F 
ENDBRANCH  52  66
BRANCH  53  77
ATOM     77  C   UNL A   1      39.267  32.012  35.450  1.00  0.00     0.064 A 
ATOM     78  C   UNL A   1      38.467  31.481  36.472  1.00  0.00     0.173 A 
ATOM     79  C   UNL A   1      39.635  33.363  35.544  1.00  0.00     0.173 A 
ATOM     80  F   UNL A   1      38.070  30.202  36.412  1.00  0.00    -0.203 F 
ATOM     81  C   UNL A   1      38.043  32.272  37.537  1.00  0.00     0.198 A 
ATOM     82  C   UNL A   1      39.232  34.145  36.622  1.00  0.00     0.198 A 
ATOM     83  F   UNL A   1      40.399  33.917  34.591  1.00  0.00    -0.203 F 
ATOM     84  F   UNL A   1      37.249  31.750  38.481  1.00  0.00    -0.200 F 
ATOM     85  C   UNL A   1      38.431  33.601  37.616  1.00  0.00     0.200 A 
ATOM     86  F   UNL A   1      39.618  35.426  36.700  1.00  0.00    -0.200 F 
ATOM     87  F   UNL A   1      38.029  34.359  38.645  1.00  0.00    -0.200 F 
ENDBRANCH  53  77
BRANCH  65  88
ATOM     88  C   UNL A   1      44.823  27.941  34.375  1.00  0.00     0.064 A 
ATOM     89  C   UNL A   1      44.858  26.837  35.239  1.00  0.00     0.173 A 
ATOM     90  C   UNL A   1      45.972  28.740  34.281  1.00  0.00     0.173 A 
ATOM     91  F   UNL A   1      43.781  26.048  35.373  1.00  0.00    -0.203 F 
ATOM     92  C   UNL A   1      45.992  26.561  36.001  1.00  0.00     0.198 A 
ATOM     93  C   UNL A   1      47.113  28.446  35.024  1.00  0.00     0.198 A 
ATOM     94  F   UNL A   1      45.992  29.803  33.463  1.00  0.00    -0.203 F 
ATOM     95  F   UNL A   1      45.987  25.529  36.856  1.00  0.00    -0.200 F 
ATOM     96  C   UNL A   1      47.118  27.361  35.889  1.00  0.00     0.200 A 
ATOM     97  F   UNL A   1      48.205  29.212  34.905  1.00  0.00    -0.200 F 
ATOM     98  F   UNL A   1      48.209  27.093  36.621  1.00  0.00    -0.200 F 
ENDBRANCH  65  88
ENDBRANCH  39  40
ENDBRANCH  32  34
ENDBRANCH  31  32
ENDBRANCH  30  31
ENDBRANCH  29  30
ENDBRANCH  28  29
ENDBRANCH   1  28
TORSDOF 17
ENDMDL
