MODEL 1
REMARK VINA RESULT:     -13.2      0.000      0.000
REMARK SMILES CS(=O)(=O)Nc1ccc(-c2cc(Cl)cc3c2O[C@@H](C(F)(F)F)C(C(=O)OCCOCCOC(=O)c2ccc(-c4c5nc(c(-c6c(F)c(F)c(F)c(F)c6F)c6ccc([nH]6)c(-c6c(F)c(F)c(F)c(F)c6F)c6nc(c(-c7c(F)c(F)c(F)c(F)c7F)c7ccc4[nH]7)C=C6)C=C5)cc2)=C3)cc1
REMARK SMILES IDX 28 1 27 2 26 3 24 4 25 5 23 6 10 7 11 8 16 9 12 10 15 11
REMARK SMILES IDX 17 12 13 13 14 14 98 15 18 16 9 17 6 18 7 19 100 20 8 21
REMARK SMILES IDX 99 22 5 23 2 25 1 26 3 27 4 28 19 29 20 30 21 31 22 32 29 33
REMARK SMILES IDX 30 34 31 35 32 36 33 37 34 38 35 39 36 40 97 41 37 42 96 43
REMARK SMILES IDX 38 44 39 45 40 46 90 47 41 48 95 49 89 50 91 51 42 52 94 53
REMARK SMILES IDX 88 54 87 55 43 57 75 58 55 59 74 60 56 61 59 62 73 63 92 64
REMARK SMILES IDX 57 65 58 66 72 68 93 69 60 70 44 71 45 72 53 73 46 74 47 75
REMARK SMILES IDX 51 76 54 77 48 78 49 79 52 80 50 81 76 82 77 83 85 84 78 85
REMARK SMILES IDX 79 86 83 87 86 88 80 89 81 90 84 91 82 92 61 93 62 94 70 95
REMARK SMILES IDX 63 96 64 97 68 98 71 99 65 100 66 101 69 102 67 103
REMARK H PARENT 5 24 91 56 59 67
REMARK Flexibility Score: inf
ROOT
ATOM      1  C   UNL A   1      32.001  30.885  26.752  1.00  0.00     0.202 C 
ENDROOT
BRANCH   1   2
ATOM      2  C   UNL A   1      31.788  29.833  25.653  1.00  0.00     0.261 C 
BRANCH   2   3
ATOM      3  O   UNL A   1      32.687  28.718  25.751  1.00  0.00    -0.460 OA
BRANCH   3   4
ATOM      4  C   UNL A   1      32.193  27.528  25.355  1.00  0.00     0.338 C 
ATOM      5  O   UNL A   1      31.004  27.257  25.258  1.00  0.00    -0.246 OA
BRANCH   4   6
ATOM      6  C   UNL A   1      33.249  26.602  24.880  1.00  0.00     0.087 C 
ATOM      7  C   UNL A   1      32.192  22.604  24.434  1.00  0.00     0.026 A 
ATOM      8  C   UNL A   1      31.055  22.464  25.265  1.00  0.00     0.033 A 
ATOM      9  C   UNL A   1      32.823  23.866  24.508  1.00  0.00     0.135 A 
ATOM     10  C   UNL A   1      30.825  23.334  26.330  1.00  0.00     0.042 A 
ATOM     11  C   UNL A   1      32.762  24.587  25.714  1.00  0.00     0.019 A 
ATOM     12  O   UNL A   1      32.953  24.636  23.327  1.00  0.00    -0.475 OA
ATOM     13  Cl  UNL A   1      29.467  23.090  27.352  1.00  0.00    -0.084 Cl
ATOM     14  C   UNL A   1      31.738  24.336  26.620  1.00  0.00     0.032 A 
ATOM     15  C   UNL A   1      33.622  25.779  25.875  1.00  0.00     0.027 C 
ATOM     16  C   UNL A   1      33.441  26.035  23.489  1.00  0.00     0.316 C 
BRANCH   7  17
ATOM     17  C   UNL A   1      32.919  21.289  24.211  1.00  0.00    -0.014 A 
ATOM     18  C   UNL A   1      34.035  18.692  24.783  1.00  0.00     0.048 A 
ATOM     19  C   UNL A   1      32.732  18.834  24.300  1.00  0.00     0.027 A 
ATOM     20  C   UNL A   1      34.818  19.840  24.873  1.00  0.00     0.027 A 
ATOM     21  C   UNL A   1      32.196  20.099  23.992  1.00  0.00     0.011 A 
ATOM     22  C   UNL A   1      34.270  21.117  24.586  1.00  0.00     0.011 A 
BRANCH  18  23
ATOM     23  N   UNL A   1      34.367  17.416  25.332  1.00  0.00    -0.284 N 
ATOM     24  H   UNL A   1      34.692  17.417  26.262  1.00  0.00     0.180 HD
BRANCH  23  25
ATOM     25  S   UNL A   1      34.273  15.929  24.594  1.00  0.00     0.229 S 
ATOM     26  C   UNL A   1      32.735  15.251  25.193  1.00  0.00     0.183 C 
ATOM     27  O   UNL A   1      35.366  15.092  25.031  1.00  0.00    -0.207 OA
ATOM     28  O   UNL A   1      34.078  16.228  23.188  1.00  0.00    -0.207 OA
ENDBRANCH  23  25
ENDBRANCH  18  23
ENDBRANCH   7  17
BRANCH  16  29
ATOM     29  C   UNL A   1      33.126  27.020  22.340  1.00  0.00     0.430 C 
ATOM     30  F   UNL A   1      33.876  28.146  22.501  1.00  0.00    -0.167 F 
ATOM     31  F   UNL A   1      33.460  26.511  21.132  1.00  0.00    -0.167 F 
ATOM     32  F   UNL A   1      31.844  27.419  22.261  1.00  0.00    -0.167 F 
ENDBRANCH  16  29
ENDBRANCH   4   6
ENDBRANCH   3   4
ENDBRANCH   2   3
ENDBRANCH   1   2
BRANCH   1  33
ATOM     33  O   UNL A   1      33.175  30.811  27.549  1.00  0.00    -0.374 OA
BRANCH  33  34
ATOM     34  C   UNL A   1      33.813  32.027  27.932  1.00  0.00     0.202 C 
BRANCH  34  35
ATOM     35  C   UNL A   1      33.167  33.356  27.531  1.00  0.00     0.261 C 
BRANCH  35  36
ATOM     36  O   UNL A   1      32.446  33.993  28.597  1.00  0.00    -0.460 OA
BRANCH  36  37
ATOM     37  C   UNL A   1      33.086  35.042  29.160  1.00  0.00     0.338 C 
ATOM     38  O   UNL A   1      32.735  36.219  29.167  1.00  0.00    -0.246 OA
BRANCH  37  39
ATOM     39  C   UNL A   1      34.242  34.575  29.934  1.00  0.00     0.060 A 
ATOM     40  C   UNL A   1      35.516  34.737  29.376  1.00  0.00     0.016 A 
ATOM     41  C   UNL A   1      34.067  33.880  31.131  1.00  0.00     0.016 A 
ATOM     42  C   UNL A   1      36.622  34.162  29.995  1.00  0.00     0.010 A 
ATOM     43  C   UNL A   1      35.177  33.299  31.747  1.00  0.00     0.010 A 
ATOM     44  C   UNL A   1      36.453  33.406  31.163  1.00  0.00    -0.014 A 
BRANCH  44  45
ATOM     45  C   UNL A   1      37.586  32.608  31.686  1.00  0.00     0.031 A 
ATOM     46  C   UNL A   1      38.162  32.953  33.030  1.00  0.00     0.074 A 
ATOM     47  C   UNL A   1      38.075  31.575  30.979  1.00  0.00     0.049 A 
ATOM     48  N   UNL A   1      39.177  32.421  33.662  1.00  0.00    -0.248 NA
ATOM     49  C   UNL A   1      37.509  34.050  33.760  1.00  0.00     0.031 C 
ATOM     50  C   UNL A   1      37.572  31.128  29.682  1.00  0.00     0.029 A 
ATOM     51  N   UNL A   1      39.112  30.720  31.252  1.00  0.00    -0.354 N 
ATOM     52  C   UNL A   1      39.290  33.124  34.854  1.00  0.00     0.074 A 
ATOM     53  C   UNL A   1      38.263  34.143  34.845  1.00  0.00     0.031 C 
ATOM     54  C   UNL A   1      38.308  30.084  29.266  1.00  0.00     0.029 A 
ATOM     55  C   UNL A   1      39.355  29.816  30.249  1.00  0.00     0.049 A 
ATOM     56  H   UNL A   1      39.633  30.752  32.088  1.00  0.00     0.167 HD
ATOM     57  C   UNL A   1      40.168  32.930  35.868  1.00  0.00     0.037 A 
ATOM     58  C   UNL A   1      40.330  28.893  30.131  1.00  0.00     0.037 A 
ATOM     59  C   UNL A   1      41.186  31.911  35.868  1.00  0.00     0.049 A 
ATOM     60  C   UNL A   1      41.333  28.739  31.245  1.00  0.00     0.074 A 
ATOM     61  C   UNL A   1      42.110  31.614  36.853  1.00  0.00     0.029 A 
ATOM     62  N   UNL A   1      41.417  31.027  34.823  1.00  0.00    -0.354 N 
ATOM     63  N   UNL A   1      41.417  29.388  32.382  1.00  0.00    -0.248 NA
ATOM     64  C   UNL A   1      42.371  27.716  31.062  1.00  0.00     0.031 C 
ATOM     65  C   UNL A   1      42.940  30.593  36.380  1.00  0.00     0.029 A 
ATOM     66  C   UNL A   1      42.489  30.203  35.130  1.00  0.00     0.049 A 
ATOM     67  H   UNL A   1      40.897  30.989  33.989  1.00  0.00     0.167 HD
ATOM     68  C   UNL A   1      42.493  28.831  33.062  1.00  0.00     0.074 A 
ATOM     69  C   UNL A   1      43.020  27.781  32.215  1.00  0.00     0.031 C 
ATOM     70  C   UNL A   1      42.997  29.157  34.279  1.00  0.00     0.037 A 
BRANCH  57  71
ATOM     71  C   UNL A   1      40.089  33.859  37.046  1.00  0.00     0.064 A 
ATOM     72  C   UNL A   1      40.806  35.064  37.090  1.00  0.00     0.173 A 
ATOM     73  C   UNL A   1      39.258  33.553  38.135  1.00  0.00     0.173 A 
ATOM     74  F   UNL A   1      41.626  35.400  36.082  1.00  0.00    -0.203 F 
ATOM     75  C   UNL A   1      40.714  35.914  38.190  1.00  0.00     0.198 A 
ATOM     76  C   UNL A   1      39.143  34.420  39.218  1.00  0.00     0.198 A 
ATOM     77  F   UNL A   1      38.547  32.416  38.144  1.00  0.00    -0.203 F 
ATOM     78  F   UNL A   1      41.447  37.035  38.232  1.00  0.00    -0.200 F 
ATOM     79  C   UNL A   1      39.878  35.595  39.249  1.00  0.00     0.200 A 
ATOM     80  F   UNL A   1      38.322  34.117  40.233  1.00  0.00    -0.200 F 
ATOM     81  F   UNL A   1      39.783  36.417  40.303  1.00  0.00    -0.200 F 
ENDBRANCH  57  71
BRANCH  58  82
ATOM     82  C   UNL A   1      40.409  28.050  28.908  1.00  0.00     0.064 A 
ATOM     83  C   UNL A   1      39.754  26.814  28.837  1.00  0.00     0.173 A 
ATOM     84  C   UNL A   1      41.154  28.458  27.792  1.00  0.00     0.173 A 
ATOM     85  F   UNL A   1      39.049  26.367  29.887  1.00  0.00    -0.203 F 
ATOM     86  C   UNL A   1      39.859  26.008  27.705  1.00  0.00     0.198 A 
ATOM     87  C   UNL A   1      41.231  27.667  26.648  1.00  0.00     0.198 A 
ATOM     88  F   UNL A   1      41.800  29.634  27.807  1.00  0.00    -0.203 F 
ATOM     89  F   UNL A   1      39.266  24.806  27.684  1.00  0.00    -0.200 F 
ATOM     90  C   UNL A   1      40.592  26.437  26.609  1.00  0.00     0.200 A 
ATOM     91  F   UNL A   1      41.929  28.093  25.586  1.00  0.00    -0.200 F 
ATOM     92  F   UNL A   1      40.689  25.664  25.520  1.00  0.00    -0.200 F 
ENDBRANCH  58  82
BRANCH  70  93
ATOM     93  C   UNL A   1      44.148  28.336  34.791  1.00  0.00     0.064 A 
ATOM     94  C   UNL A   1      43.952  27.156  35.522  1.00  0.00     0.173 A 
ATOM     95  C   UNL A   1      45.469  28.724  34.514  1.00  0.00     0.173 A 
ATOM     96  F   UNL A   1      42.711  26.747  35.825  1.00  0.00    -0.203 F 
ATOM     97  C   UNL A   1      45.034  26.413  35.987  1.00  0.00     0.198 A 
ATOM     98  C   UNL A   1      46.548  27.958  34.948  1.00  0.00     0.198 A 
ATOM     99  F   UNL A   1      45.715  29.838  33.810  1.00  0.00    -0.203 F 
ATOM    100  F   UNL A   1      44.823  25.320  36.734  1.00  0.00    -0.200 F 
ATOM    101  C   UNL A   1      46.330  26.810  35.693  1.00  0.00     0.200 A 
ATOM    102  F   UNL A   1      47.799  28.334  34.647  1.00  0.00    -0.200 F 
ATOM    103  F   UNL A   1      47.371  26.089  36.135  1.00  0.00    -0.200 F 
ENDBRANCH  70  93
ENDBRANCH  44  45
ENDBRANCH  37  39
ENDBRANCH  36  37
ENDBRANCH  35  36
ENDBRANCH  34  35
ENDBRANCH  33  34
ENDBRANCH   1  33
TORSDOF 18
ENDMDL
MODEL 2
REMARK VINA RESULT:     -13.0      6.019     10.747
REMARK SMILES CS(=O)(=O)Nc1ccc(-c2cc(Cl)cc3c2O[C@@H](C(F)(F)F)C(C(=O)OCCOCCOC(=O)c2ccc(-c4c5nc(c(-c6c(F)c(F)c(F)c(F)c6F)c6ccc([nH]6)c(-c6c(F)c(F)c(F)c(F)c6F)c6nc(c(-c7c(F)c(F)c(F)c(F)c7F)c7ccc4[nH]7)C=C6)C=C5)cc2)=C3)cc1
REMARK SMILES IDX 28 1 27 2 26 3 24 4 25 5 23 6 10 7 11 8 16 9 12 10 15 11
REMARK SMILES IDX 17 12 13 13 14 14 98 15 18 16 9 17 6 18 7 19 100 20 8 21
REMARK SMILES IDX 99 22 5 23 2 25 1 26 3 27 4 28 19 29 20 30 21 31 22 32 29 33
REMARK SMILES IDX 30 34 31 35 32 36 33 37 34 38 35 39 36 40 97 41 37 42 96 43
REMARK SMILES IDX 38 44 39 45 40 46 90 47 41 48 95 49 89 50 91 51 42 52 94 53
REMARK SMILES IDX 88 54 87 55 43 57 75 58 55 59 74 60 56 61 59 62 73 63 92 64
REMARK SMILES IDX 57 65 58 66 72 68 93 69 60 70 44 71 45 72 53 73 46 74 47 75
REMARK SMILES IDX 51 76 54 77 48 78 49 79 52 80 50 81 76 82 77 83 85 84 78 85
REMARK SMILES IDX 79 86 83 87 86 88 80 89 81 90 84 91 82 92 61 93 62 94 70 95
REMARK SMILES IDX 63 96 64 97 68 98 71 99 65 100 66 101 69 102 67 103
REMARK H PARENT 5 24 91 56 59 67
REMARK Flexibility Score: inf
ROOT
ATOM      1  C   UNL A   1      37.929  22.698  25.733  1.00  0.00     0.202 C 
ENDROOT
BRANCH   1   2
ATOM      2  C   UNL A   1      36.457  22.285  25.582  1.00  0.00     0.261 C 
BRANCH   2   3
ATOM      3  O   UNL A   1      35.934  22.513  24.265  1.00  0.00    -0.460 OA
BRANCH   3   4
ATOM      4  C   UNL A   1      34.599  22.673  24.183  1.00  0.00     0.338 C 
ATOM      5  O   UNL A   1      33.838  21.936  23.570  1.00  0.00    -0.246 OA
BRANCH   4   6
ATOM      6  C   UNL A   1      34.100  23.761  25.057  1.00  0.00     0.087 C 
ATOM      7  C   UNL A   1      31.126  26.221  23.505  1.00  0.00     0.026 A 
ATOM      8  C   UNL A   1      31.256  26.059  22.105  1.00  0.00     0.033 A 
ATOM      9  C   UNL A   1      32.122  25.569  24.267  1.00  0.00     0.135 A 
ATOM     10  C   UNL A   1      32.457  25.641  21.533  1.00  0.00     0.042 A 
ATOM     11  C   UNL A   1      33.403  25.403  23.712  1.00  0.00     0.019 A 
ATOM     12  O   UNL A   1      31.728  24.604  25.226  1.00  0.00    -0.475 OA
ATOM     13  Cl  UNL A   1      32.590  25.519  19.825  1.00  0.00    -0.084 Cl
ATOM     14  C   UNL A   1      33.566  25.414  22.331  1.00  0.00     0.032 A 
ATOM     15  C   UNL A   1      34.506  24.953  24.588  1.00  0.00     0.027 C 
ATOM     16  C   UNL A   1      32.816  23.805  25.858  1.00  0.00     0.316 C 
BRANCH   7  17
ATOM     17  C   UNL A   1      30.477  27.540  23.885  1.00  0.00    -0.014 A 
ATOM     18  C   UNL A   1      29.813  30.345  23.793  1.00  0.00     0.048 A 
ATOM     19  C   UNL A   1      29.059  29.395  23.100  1.00  0.00     0.027 A 
ATOM     20  C   UNL A   1      30.830  29.880  24.623  1.00  0.00     0.027 A 
ATOM     21  C   UNL A   1      29.363  28.022  23.167  1.00  0.00     0.011 A 
ATOM     22  C   UNL A   1      31.153  28.499  24.672  1.00  0.00     0.011 A 
BRANCH  18  23
ATOM     23  N   UNL A   1      29.601  31.708  23.424  1.00  0.00    -0.284 N 
ATOM     24  H   UNL A   1      30.358  32.319  23.576  1.00  0.00     0.180 HD
BRANCH  23  25
ATOM     25  S   UNL A   1      28.233  32.391  22.770  1.00  0.00     0.229 S 
ATOM     26  C   UNL A   1      28.181  31.737  21.111  1.00  0.00     0.183 C 
ATOM     27  O   UNL A   1      28.377  33.827  22.714  1.00  0.00    -0.207 OA
ATOM     28  O   UNL A   1      27.135  31.780  23.495  1.00  0.00    -0.207 OA
ENDBRANCH  23  25
ENDBRANCH  18  23
ENDBRANCH   7  17
BRANCH  16  29
ATOM     29  C   UNL A   1      32.408  22.460  26.500  1.00  0.00     0.430 C 
ATOM     30  F   UNL A   1      31.641  22.706  27.600  1.00  0.00    -0.167 F 
ATOM     31  F   UNL A   1      31.650  21.711  25.668  1.00  0.00    -0.167 F 
ATOM     32  F   UNL A   1      33.429  21.685  26.910  1.00  0.00    -0.167 F 
ENDBRANCH  16  29
ENDBRANCH   4   6
ENDBRANCH   3   4
ENDBRANCH   2   3
ENDBRANCH   1   2
BRANCH   1  33
ATOM     33  O   UNL A   1      38.910  21.682  25.888  1.00  0.00    -0.374 OA
BRANCH  33  34
ATOM     34  C   UNL A   1      38.640  20.391  25.347  1.00  0.00     0.202 C 
BRANCH  34  35
ATOM     35  C   UNL A   1      39.548  19.223  25.739  1.00  0.00     0.261 C 
BRANCH  35  36
ATOM     36  O   UNL A   1      40.575  19.578  26.678  1.00  0.00    -0.460 OA
BRANCH  36  37
ATOM     37  C   UNL A   1      41.835  19.459  26.204  1.00  0.00     0.338 C 
ATOM     38  O   UNL A   1      42.298  18.548  25.525  1.00  0.00    -0.246 OA
BRANCH  37  39
ATOM     39  C   UNL A   1      42.599  20.682  26.483  1.00  0.00     0.060 A 
ATOM     40  C   UNL A   1      42.515  21.232  27.767  1.00  0.00     0.016 A 
ATOM     41  C   UNL A   1      43.288  21.341  25.464  1.00  0.00     0.016 A 
ATOM     42  C   UNL A   1      43.086  22.474  28.028  1.00  0.00     0.010 A 
ATOM     43  C   UNL A   1      43.855  22.590  25.726  1.00  0.00     0.010 A 
ATOM     44  C   UNL A   1      43.724  23.178  26.998  1.00  0.00    -0.014 A 
BRANCH  44  45
ATOM     45  C   UNL A   1      44.122  24.588  27.216  1.00  0.00     0.031 A 
ATOM     46  C   UNL A   1      43.093  25.571  27.698  1.00  0.00     0.074 A 
ATOM     47  C   UNL A   1      45.391  24.977  27.007  1.00  0.00     0.049 A 
ATOM     48  N   UNL A   1      43.206  26.857  27.915  1.00  0.00    -0.248 NA
ATOM     49  C   UNL A   1      41.751  25.033  27.971  1.00  0.00     0.031 C 
ATOM     50  C   UNL A   1      46.480  24.104  26.574  1.00  0.00     0.029 A 
ATOM     51  N   UNL A   1      45.975  26.212  27.126  1.00  0.00    -0.354 N 
ATOM     52  C   UNL A   1      41.952  27.281  28.335  1.00  0.00     0.074 A 
ATOM     53  C   UNL A   1      41.083  26.124  28.314  1.00  0.00     0.031 C 
ATOM     54  C   UNL A   1      47.601  24.834  26.454  1.00  0.00     0.029 A 
ATOM     55  C   UNL A   1      47.299  26.229  26.766  1.00  0.00     0.049 A 
ATOM     56  H   UNL A   1      45.491  27.011  27.440  1.00  0.00     0.167 HD
ATOM     57  C   UNL A   1      41.566  28.523  28.714  1.00  0.00     0.037 A 
ATOM     58  C   UNL A   1      48.160  27.261  26.675  1.00  0.00     0.037 A 
ATOM     59  C   UNL A   1      42.440  29.668  28.734  1.00  0.00     0.049 A 
ATOM     60  C   UNL A   1      47.688  28.644  27.042  1.00  0.00     0.074 A 
ATOM     61  C   UNL A   1      42.155  30.965  29.122  1.00  0.00     0.029 A 
ATOM     62  N   UNL A   1      43.771  29.651  28.340  1.00  0.00    -0.354 N 
ATOM     63  N   UNL A   1      46.510  29.034  27.466  1.00  0.00    -0.248 NA
ATOM     64  C   UNL A   1      48.671  29.730  26.926  1.00  0.00     0.031 C 
ATOM     65  C   UNL A   1      43.294  31.746  28.904  1.00  0.00     0.029 A 
ATOM     66  C   UNL A   1      44.311  30.923  28.449  1.00  0.00     0.049 A 
ATOM     67  H   UNL A   1      44.259  28.855  28.030  1.00  0.00     0.167 HD
ATOM     68  C   UNL A   1      46.618  30.400  27.698  1.00  0.00     0.074 A 
ATOM     69  C   UNL A   1      47.983  30.767  27.382  1.00  0.00     0.031 C 
ATOM     70  C   UNL A   1      45.675  31.271  28.137  1.00  0.00     0.037 A 
BRANCH  57  71
ATOM     71  C   UNL A   1      40.128  28.717  29.104  1.00  0.00     0.064 A 
ATOM     72  C   UNL A   1      39.690  28.555  30.427  1.00  0.00     0.173 A 
ATOM     73  C   UNL A   1      39.180  29.104  28.144  1.00  0.00     0.173 A 
ATOM     74  F   UNL A   1      40.551  28.174  31.383  1.00  0.00    -0.203 F 
ATOM     75  C   UNL A   1      38.352  28.746  30.768  1.00  0.00     0.198 A 
ATOM     76  C   UNL A   1      37.851  29.326  28.494  1.00  0.00     0.198 A 
ATOM     77  F   UNL A   1      39.545  29.277  26.865  1.00  0.00    -0.203 F 
ATOM     78  F   UNL A   1      37.947  28.536  32.028  1.00  0.00    -0.200 F 
ATOM     79  C   UNL A   1      37.436  29.138  29.804  1.00  0.00     0.200 A 
ATOM     80  F   UNL A   1      36.971  29.720  27.564  1.00  0.00    -0.200 F 
ATOM     81  F   UNL A   1      36.152  29.330  30.135  1.00  0.00    -0.200 F 
ENDBRANCH  57  71
BRANCH  58  82
ATOM     82  C   UNL A   1      49.553  27.027  26.209  1.00  0.00     0.064 A 
ATOM     83  C   UNL A   1      50.583  26.749  27.118  1.00  0.00     0.173 A 
ATOM     84  C   UNL A   1      49.884  27.090  24.848  1.00  0.00     0.173 A 
ATOM     85  F   UNL A   1      50.323  26.701  28.433  1.00  0.00    -0.203 F 
ATOM     86  C   UNL A   1      51.895  26.566  26.685  1.00  0.00     0.198 A 
ATOM     87  C   UNL A   1      51.190  26.874  24.412  1.00  0.00     0.198 A 
ATOM     88  F   UNL A   1      48.936  27.352  23.937  1.00  0.00    -0.203 F 
ATOM     89  F   UNL A   1      52.870  26.354  27.579  1.00  0.00    -0.200 F 
ATOM     90  C   UNL A   1      52.197  26.622  25.332  1.00  0.00     0.200 A 
ATOM     91  F   UNL A   1      51.473  26.915  23.104  1.00  0.00    -0.200 F 
ATOM     92  F   UNL A   1      53.457  26.442  24.916  1.00  0.00    -0.200 F 
ENDBRANCH  58  82
BRANCH  70  93
ATOM     93  C   UNL A   1      46.099  32.697  28.349  1.00  0.00     0.064 A 
ATOM     94  C   UNL A   1      45.960  33.671  27.349  1.00  0.00     0.173 A 
ATOM     95  C   UNL A   1      46.622  33.101  29.588  1.00  0.00     0.173 A 
ATOM     96  F   UNL A   1      45.478  33.335  26.142  1.00  0.00    -0.203 F 
ATOM     97  C   UNL A   1      46.361  34.986  27.568  1.00  0.00     0.198 A 
ATOM     98  C   UNL A   1      46.986  34.425  29.817  1.00  0.00     0.198 A 
ATOM     99  F   UNL A   1      46.767  32.215  30.584  1.00  0.00    -0.203 F 
ATOM    100  F   UNL A   1      46.273  35.885  26.578  1.00  0.00    -0.200 F 
ATOM    101  C   UNL A   1      46.865  35.364  28.803  1.00  0.00     0.200 A 
ATOM    102  F   UNL A   1      47.456  34.792  31.017  1.00  0.00    -0.200 F 
ATOM    103  F   UNL A   1      47.243  36.633  29.016  1.00  0.00    -0.200 F 
ENDBRANCH  70  93
ENDBRANCH  44  45
ENDBRANCH  37  39
ENDBRANCH  36  37
ENDBRANCH  35  36
ENDBRANCH  34  35
ENDBRANCH  33  34
ENDBRANCH   1  33
TORSDOF 18
ENDMDL
MODEL 3
REMARK VINA RESULT:     -13.0      5.849     11.386
REMARK SMILES CS(=O)(=O)Nc1ccc(-c2cc(Cl)cc3c2O[C@@H](C(F)(F)F)C(C(=O)OCCOCCOC(=O)c2ccc(-c4c5nc(c(-c6c(F)c(F)c(F)c(F)c6F)c6ccc([nH]6)c(-c6c(F)c(F)c(F)c(F)c6F)c6nc(c(-c7c(F)c(F)c(F)c(F)c7F)c7ccc4[nH]7)C=C6)C=C5)cc2)=C3)cc1
REMARK SMILES IDX 28 1 27 2 26 3 24 4 25 5 23 6 10 7 11 8 16 9 12 10 15 11
REMARK SMILES IDX 17 12 13 13 14 14 98 15 18 16 9 17 6 18 7 19 100 20 8 21
REMARK SMILES IDX 99 22 5 23 2 25 1 26 3 27 4 28 19 29 20 30 21 31 22 32 29 33
REMARK SMILES IDX 30 34 31 35 32 36 33 37 34 38 35 39 36 40 97 41 37 42 96 43
REMARK SMILES IDX 38 44 39 45 40 46 90 47 41 48 95 49 89 50 91 51 42 52 94 53
REMARK SMILES IDX 88 54 87 55 43 57 75 58 55 59 74 60 56 61 59 62 73 63 92 64
REMARK SMILES IDX 57 65 58 66 72 68 93 69 60 70 44 71 45 72 53 73 46 74 47 75
REMARK SMILES IDX 51 76 54 77 48 78 49 79 52 80 50 81 76 82 77 83 85 84 78 85
REMARK SMILES IDX 79 86 83 87 86 88 80 89 81 90 84 91 82 92 61 93 62 94 70 95
REMARK SMILES IDX 63 96 64 97 68 98 71 99 65 100 66 101 69 102 67 103
REMARK H PARENT 5 24 91 56 59 67
REMARK Flexibility Score: inf
ROOT
ATOM      1  C   UNL A   1      38.032  22.729  25.752  1.00  0.00     0.202 C 
ENDROOT
BRANCH   1   2
ATOM      2  C   UNL A   1      36.526  22.438  25.667  1.00  0.00     0.261 C 
BRANCH   2   3
ATOM      3  O   UNL A   1      35.987  22.605  24.347  1.00  0.00    -0.460 OA
BRANCH   3   4
ATOM      4  C   UNL A   1      34.646  22.705  24.268  1.00  0.00     0.338 C 
ATOM      5  O   UNL A   1      33.914  21.916  23.686  1.00  0.00    -0.246 OA
BRANCH   4   6
ATOM      6  C   UNL A   1      34.106  23.801  25.109  1.00  0.00     0.087 C 
ATOM      7  C   UNL A   1      31.124  26.170  23.437  1.00  0.00     0.026 A 
ATOM      8  C   UNL A   1      31.290  25.983  22.044  1.00  0.00     0.033 A 
ATOM      9  C   UNL A   1      32.113  25.553  24.236  1.00  0.00     0.135 A 
ATOM     10  C   UNL A   1      32.512  25.577  21.508  1.00  0.00     0.042 A 
ATOM     11  C   UNL A   1      33.410  25.401  23.714  1.00  0.00     0.019 A 
ATOM     12  O   UNL A   1      31.715  24.600  25.204  1.00  0.00    -0.475 OA
ATOM     13  Cl  UNL A   1      32.688  25.424  19.807  1.00  0.00    -0.084 Cl
ATOM     14  C   UNL A   1      33.606  25.387  22.338  1.00  0.00     0.032 A 
ATOM     15  C   UNL A   1      34.500  24.991  24.625  1.00  0.00     0.027 C 
ATOM     16  C   UNL A   1      32.803  23.835  25.878  1.00  0.00     0.316 C 
BRANCH   7  17
ATOM     17  C   UNL A   1      30.440  27.484  23.774  1.00  0.00    -0.014 A 
ATOM     18  C   UNL A   1      29.759  30.282  23.639  1.00  0.00     0.048 A 
ATOM     19  C   UNL A   1      29.058  29.326  22.901  1.00  0.00     0.027 A 
ATOM     20  C   UNL A   1      30.726  29.827  24.530  1.00  0.00     0.027 A 
ATOM     21  C   UNL A   1      29.369  27.955  22.988  1.00  0.00     0.011 A 
ATOM     22  C   UNL A   1      31.058  28.449  24.600  1.00  0.00     0.011 A 
BRANCH  18  23
ATOM     23  N   UNL A   1      29.558  31.644  23.255  1.00  0.00    -0.284 N 
ATOM     24  H   UNL A   1      30.349  32.228  23.305  1.00  0.00     0.180 HD
BRANCH  23  25
ATOM     25  S   UNL A   1      28.152  32.365  22.736  1.00  0.00     0.229 S 
ATOM     26  C   UNL A   1      27.979  31.799  21.054  1.00  0.00     0.183 C 
ATOM     27  O   UNL A   1      28.303  33.801  22.745  1.00  0.00    -0.207 OA
ATOM     28  O   UNL A   1      27.104  31.720  23.505  1.00  0.00    -0.207 OA
ENDBRANCH  23  25
ENDBRANCH  18  23
ENDBRANCH   7  17
BRANCH  16  29
ATOM     29  C   UNL A   1      32.404  22.495  26.538  1.00  0.00     0.430 C 
ATOM     30  F   UNL A   1      31.814  22.749  27.739  1.00  0.00    -0.167 F 
ATOM     31  F   UNL A   1      31.493  21.819  25.801  1.00  0.00    -0.167 F 
ATOM     32  F   UNL A   1      33.423  21.649  26.781  1.00  0.00    -0.167 F 
ENDBRANCH  16  29
ENDBRANCH   4   6
ENDBRANCH   3   4
ENDBRANCH   2   3
ENDBRANCH   1   2
BRANCH   1  33
ATOM     33  O   UNL A   1      38.926  21.644  25.956  1.00  0.00    -0.374 OA
BRANCH  33  34
ATOM     34  C   UNL A   1      38.578  20.370  25.420  1.00  0.00     0.202 C 
BRANCH  34  35
ATOM     35  C   UNL A   1      39.461  19.164  25.754  1.00  0.00     0.261 C 
BRANCH  35  36
ATOM     36  O   UNL A   1      40.514  19.458  26.686  1.00  0.00    -0.460 OA
BRANCH  36  37
ATOM     37  C   UNL A   1      41.754  19.455  26.151  1.00  0.00     0.338 C 
ATOM     38  O   UNL A   1      42.265  18.588  25.447  1.00  0.00    -0.246 OA
BRANCH  37  39
ATOM     39  C   UNL A   1      42.416  20.742  26.396  1.00  0.00     0.060 A 
ATOM     40  C   UNL A   1      42.531  21.181  27.720  1.00  0.00     0.016 A 
ATOM     41  C   UNL A   1      42.807  21.558  25.334  1.00  0.00     0.016 A 
ATOM     42  C   UNL A   1      42.999  22.465  27.987  1.00  0.00     0.010 A 
ATOM     43  C   UNL A   1      43.270  22.847  25.603  1.00  0.00     0.010 A 
ATOM     44  C   UNL A   1      43.333  23.319  26.928  1.00  0.00    -0.014 A 
BRANCH  44  45
ATOM     45  C   UNL A   1      43.605  24.749  27.201  1.00  0.00     0.031 A 
ATOM     46  C   UNL A   1      44.979  25.294  26.933  1.00  0.00     0.074 A 
ATOM     47  C   UNL A   1      42.631  25.552  27.662  1.00  0.00     0.049 A 
ATOM     48  N   UNL A   1      45.452  26.497  27.137  1.00  0.00    -0.248 NA
ATOM     49  C   UNL A   1      45.955  24.355  26.358  1.00  0.00     0.031 C 
ATOM     50  C   UNL A   1      41.254  25.140  27.924  1.00  0.00     0.029 A 
ATOM     51  N   UNL A   1      42.656  26.881  27.996  1.00  0.00    -0.354 N 
ATOM     52  C   UNL A   1      46.779  26.456  26.729  1.00  0.00     0.074 A 
ATOM     53  C   UNL A   1      47.048  25.102  26.296  1.00  0.00     0.031 C 
ATOM     54  C   UNL A   1      40.565  26.196  28.389  1.00  0.00     0.029 A 
ATOM     55  C   UNL A   1      41.463  27.344  28.491  1.00  0.00     0.049 A 
ATOM     56  H   UNL A   1      43.453  27.450  27.891  1.00  0.00     0.167 HD
ATOM     57  C   UNL A   1      47.687  27.461  26.711  1.00  0.00     0.037 A 
ATOM     58  C   UNL A   1      41.142  28.553  28.992  1.00  0.00     0.037 A 
ATOM     59  C   UNL A   1      47.409  28.806  27.144  1.00  0.00     0.049 A 
ATOM     60  C   UNL A   1      42.188  29.637  29.018  1.00  0.00     0.074 A 
ATOM     61  C   UNL A   1      48.250  29.904  27.145  1.00  0.00     0.029 A 
ATOM     62  N   UNL A   1      46.194  29.233  27.661  1.00  0.00    -0.354 N 
ATOM     63  N   UNL A   1      43.433  29.600  28.605  1.00  0.00    -0.248 NA
ATOM     64  C   UNL A   1      41.781  30.935  29.574  1.00  0.00     0.031 C 
ATOM     65  C   UNL A   1      47.565  30.979  27.720  1.00  0.00     0.029 A 
ATOM     66  C   UNL A   1      46.274  30.572  28.011  1.00  0.00     0.049 A 
ATOM     67  H   UNL A   1      45.393  28.670  27.763  1.00  0.00     0.167 HD
ATOM     68  C   UNL A   1      43.946  30.873  28.819  1.00  0.00     0.074 A 
ATOM     69  C   UNL A   1      42.872  31.663  29.385  1.00  0.00     0.031 C 
ATOM     70  C   UNL A   1      45.192  31.347  28.567  1.00  0.00     0.037 A 
BRANCH  57  71
ATOM     71  C   UNL A   1      49.077  27.137  26.241  1.00  0.00     0.064 A 
ATOM     72  C   UNL A   1      50.079  26.711  27.125  1.00  0.00     0.173 A 
ATOM     73  C   UNL A   1      49.401  27.223  24.878  1.00  0.00     0.173 A 
ATOM     74  F   UNL A   1      49.828  26.623  28.441  1.00  0.00    -0.203 F 
ATOM     75  C   UNL A   1      51.360  26.410  26.667  1.00  0.00     0.198 A 
ATOM     76  C   UNL A   1      50.672  26.890  24.419  1.00  0.00     0.198 A 
ATOM     77  F   UNL A   1      48.480  27.621  23.988  1.00  0.00    -0.203 F 
ATOM     78  F   UNL A   1      52.315  26.054  27.537  1.00  0.00    -0.200 F 
ATOM     79  C   UNL A   1      51.654  26.492  25.314  1.00  0.00     0.200 A 
ATOM     80  F   UNL A   1      50.949  26.955  23.109  1.00  0.00    -0.200 F 
ATOM     81  F   UNL A   1      52.883  26.194  24.873  1.00  0.00    -0.200 F 
ENDBRANCH  57  71
BRANCH  58  82
ATOM     82  C   UNL A   1      39.773  28.799  29.517  1.00  0.00     0.064 A 
ATOM     83  C   UNL A   1      38.773  29.349  28.703  1.00  0.00     0.173 A 
ATOM     84  C   UNL A   1      39.440  28.503  30.846  1.00  0.00     0.173 A 
ATOM     85  F   UNL A   1      39.047  29.673  27.430  1.00  0.00    -0.203 F 
ATOM     86  C   UNL A   1      37.501  29.614  29.205  1.00  0.00     0.198 A 
ATOM     87  C   UNL A   1      38.158  28.737  31.339  1.00  0.00     0.198 A 
ATOM     88  F   UNL A   1      40.359  27.975  31.667  1.00  0.00    -0.203 F 
ATOM     89  F   UNL A   1      36.579  30.190  28.420  1.00  0.00    -0.200 F 
ATOM     90  C   UNL A   1      37.191  29.303  30.520  1.00  0.00     0.200 A 
ATOM     91  F   UNL A   1      37.860  28.421  32.606  1.00  0.00    -0.200 F 
ATOM     92  F   UNL A   1      35.967  29.554  31.001  1.00  0.00    -0.200 F 
ENDBRANCH  58  82
BRANCH  70  93
ATOM     93  C   UNL A   1      45.449  32.800  28.854  1.00  0.00     0.064 A 
ATOM     94  C   UNL A   1      45.107  33.809  27.942  1.00  0.00     0.173 A 
ATOM     95  C   UNL A   1      46.017  33.188  30.078  1.00  0.00     0.173 A 
ATOM     96  F   UNL A   1      44.573  33.492  26.752  1.00  0.00    -0.203 F 
ATOM     97  C   UNL A   1      45.355  35.149  28.230  1.00  0.00     0.198 A 
ATOM     98  C   UNL A   1      46.229  34.531  30.378  1.00  0.00     0.198 A 
ATOM     99  F   UNL A   1      46.354  32.265  30.991  1.00  0.00    -0.203 F 
ATOM    100  F   UNL A   1      45.074  36.091  27.319  1.00  0.00    -0.200 F 
ATOM    101  C   UNL A   1      45.908  35.509  29.449  1.00  0.00     0.200 A 
ATOM    102  F   UNL A   1      46.746  34.877  31.564  1.00  0.00    -0.200 F 
ATOM    103  F   UNL A   1      46.140  36.800  29.727  1.00  0.00    -0.200 F 
ENDBRANCH  70  93
ENDBRANCH  44  45
ENDBRANCH  37  39
ENDBRANCH  36  37
ENDBRANCH  35  36
ENDBRANCH  34  35
ENDBRANCH  33  34
ENDBRANCH   1  33
TORSDOF 18
ENDMDL
