MODEL 1
REMARK VINA RESULT:     -10.6      0.000      0.000
REMARK SMILES C[C@H](CCc1ccco1)NC(=O)c1cccn1CC(=O)OCCOCCOC(=O)c1ccc(-c2c3nc(c(-c4c(F)c(F)c(F)c(F)c4F)c4ccc([nH]4)c(-c4c(F)c(F)c(F)c(F)c4F)c4nc(c(-c5c(F)c(F)c(F)c(F)c5F)c5ccc2[nH]5)C=C4)C=C3)cc1
REMARK SMILES IDX 22 1 21 2 19 3 20 4 18 5 17 6 13 7 14 8 15 9 16 10 11 11
REMARK SMILES IDX 10 12 12 14 2 15 1 16 3 17 4 18 5 19 6 20 9 21 7 22 8 23
REMARK SMILES IDX 23 24 24 25 25 26 26 27 27 28 28 29 29 30 30 31 31 32 92 33
REMARK SMILES IDX 32 34 91 35 33 36 34 37 35 38 85 39 36 40 90 41 84 42 86 43
REMARK SMILES IDX 37 44 89 45 83 46 82 47 38 49 70 50 50 51 69 52 51 53 54 54
REMARK SMILES IDX 68 55 87 56 52 57 53 58 67 60 88 61 55 62 39 63 40 64 48 65
REMARK SMILES IDX 41 66 42 67 46 68 49 69 43 70 44 71 47 72 45 73 71 74 72 75
REMARK SMILES IDX 80 76 73 77 74 78 78 79 81 80 75 81 76 82 79 83 77 84 56 85
REMARK SMILES IDX 57 86 65 87 58 88 59 89 63 90 66 91 60 92 61 93 64 94 62 95
REMARK H PARENT 10 13 86 48 54 59
REMARK Flexibility Score: inf
ROOT
ATOM      1  C   UNL A   1      34.446  23.244  23.391  1.00  0.00     0.261 C 
ENDROOT
BRANCH   1   2
ATOM      2  O   UNL A   1      33.694  24.449  23.142  1.00  0.00    -0.462 OA
BRANCH   2   3
ATOM      3  C   UNL A   1      33.096  24.511  21.920  1.00  0.00     0.326 C 
ATOM      4  O   UNL A   1      33.265  23.679  21.031  1.00  0.00    -0.250 OA
BRANCH   3   5
ATOM      5  C   UNL A   1      32.134  25.653  21.728  1.00  0.00     0.244 C 
BRANCH   5   6
ATOM      6  N   UNL A   1      32.495  26.955  22.287  1.00  0.00    -0.332 N 
ATOM      7  C   UNL A   1      31.794  27.658  23.256  1.00  0.00     0.107 A 
ATOM      8  C   UNL A   1      32.604  28.740  23.595  1.00  0.00     0.033 A 
ATOM      9  C   UNL A   1      33.771  28.710  22.805  1.00  0.00     0.020 A 
ATOM     10  C   UNL A   1      33.700  27.573  22.042  1.00  0.00     0.087 A 
BRANCH   7  11
ATOM     11  C   UNL A   1      30.514  27.226  23.795  1.00  0.00     0.268 C 
ATOM     12  N   UNL A   1      30.454  26.325  24.822  1.00  0.00    -0.348 N 
ATOM     13  H   UNL A   1      29.566  26.217  25.233  1.00  0.00     0.164 HD
ATOM     14  O   UNL A   1      29.439  27.671  23.395  1.00  0.00    -0.268 OA
BRANCH  12  15
ATOM     15  C   UNL A   1      31.507  25.500  25.403  1.00  0.00     0.079 C 
ATOM     16  C   UNL A   1      30.879  24.138  25.689  1.00  0.00     0.031 C 
BRANCH  15  17
ATOM     17  C   UNL A   1      32.210  26.253  26.559  1.00  0.00     0.032 C 
BRANCH  17  18
ATOM     18  C   UNL A   1      31.526  27.470  27.187  1.00  0.00     0.077 C 
BRANCH  18  19
ATOM     19  C   UNL A   1      32.368  28.692  27.198  1.00  0.00     0.103 A 
ATOM     20  C   UNL A   1      33.729  28.884  27.326  1.00  0.00     0.045 A 
ATOM     21  O   UNL A   1      31.747  29.882  26.959  1.00  0.00    -0.469 OA
ATOM     22  C   UNL A   1      33.960  30.258  27.081  1.00  0.00     0.042 A 
ATOM     23  C   UNL A   1      32.723  30.826  26.890  1.00  0.00     0.195 A 
ENDBRANCH  18  19
ENDBRANCH  17  18
ENDBRANCH  15  17
ENDBRANCH  12  15
ENDBRANCH   7  11
ENDBRANCH   5   6
ENDBRANCH   3   5
ENDBRANCH   2   3
ENDBRANCH   1   2
BRANCH   1  24
ATOM     24  C   UNL A   1      34.184  22.649  24.778  1.00  0.00     0.202 C 
BRANCH  24  25
ATOM     25  O   UNL A   1      35.015  23.078  25.853  1.00  0.00    -0.374 OA
BRANCH  25  26
ATOM     26  C   UNL A   1      36.013  24.057  25.598  1.00  0.00     0.202 C 
BRANCH  26  27
ATOM     27  C   UNL A   1      37.471  23.709  25.882  1.00  0.00     0.261 C 
BRANCH  27  28
ATOM     28  O   UNL A   1      38.069  24.436  26.948  1.00  0.00    -0.460 OA
BRANCH  28  29
ATOM     29  C   UNL A   1      39.410  24.533  26.795  1.00  0.00     0.338 C 
ATOM     30  O   UNL A   1      40.162  23.676  26.367  1.00  0.00    -0.246 OA
BRANCH  29  31
ATOM     31  C   UNL A   1      39.912  25.756  27.427  1.00  0.00     0.060 A 
ATOM     32  C   UNL A   1      39.596  25.907  28.778  1.00  0.00     0.016 A 
ATOM     33  C   UNL A   1      40.406  26.820  26.658  1.00  0.00     0.016 A 
ATOM     34  C   UNL A   1      39.645  27.165  29.334  1.00  0.00     0.010 A 
ATOM     35  C   UNL A   1      40.436  28.089  27.210  1.00  0.00     0.010 A 
ATOM     36  C   UNL A   1      40.025  28.254  28.536  1.00  0.00    -0.014 A 
BRANCH  36  37
ATOM     37  C   UNL A   1      40.222  29.526  29.247  1.00  0.00     0.031 A 
ATOM     38  C   UNL A   1      38.848  30.232  29.366  1.00  0.00     0.074 A 
ATOM     39  C   UNL A   1      41.523  29.881  29.506  1.00  0.00     0.049 A 
ATOM     40  N   UNL A   1      38.564  31.493  29.327  1.00  0.00    -0.248 NA
ATOM     41  C   UNL A   1      37.594  29.419  29.436  1.00  0.00     0.031 C 
ATOM     42  C   UNL A   1      42.704  28.990  29.371  1.00  0.00     0.029 A 
ATOM     43  N   UNL A   1      42.137  31.052  29.916  1.00  0.00    -0.354 N 
ATOM     44  C   UNL A   1      37.178  31.635  29.568  1.00  0.00     0.074 A 
ATOM     45  C   UNL A   1      36.616  30.326  29.496  1.00  0.00     0.031 C 
ATOM     46  C   UNL A   1      43.861  29.660  29.597  1.00  0.00     0.029 A 
ATOM     47  C   UNL A   1      43.569  31.049  29.899  1.00  0.00     0.049 A 
ATOM     48  H   UNL A   1      41.620  31.839  30.202  1.00  0.00     0.167 HD
ATOM     49  C   UNL A   1      36.628  32.821  29.964  1.00  0.00     0.037 A 
ATOM     50  C   UNL A   1      44.437  32.106  30.064  1.00  0.00     0.037 A 
ATOM     51  C   UNL A   1      37.636  33.823  29.959  1.00  0.00     0.049 A 
ATOM     52  C   UNL A   1      43.555  33.216  30.430  1.00  0.00     0.074 A 
ATOM     53  C   UNL A   1      38.287  34.440  28.924  1.00  0.00     0.029 A 
ATOM     54  N   UNL A   1      38.374  33.947  31.110  1.00  0.00    -0.354 N 
ATOM     55  N   UNL A   1      43.011  33.367  31.599  1.00  0.00    -0.248 NA
ATOM     56  C   UNL A   1      43.171  34.173  29.384  1.00  0.00     0.031 C 
ATOM     57  C   UNL A   1      39.622  34.450  29.368  1.00  0.00     0.029 A 
ATOM     58  C   UNL A   1      39.674  34.160  30.738  1.00  0.00     0.049 A 
ATOM     59  H   UNL A   1      38.032  33.894  32.033  1.00  0.00     0.167 HD
ATOM     60  C   UNL A   1      41.975  34.217  31.307  1.00  0.00     0.074 A 
ATOM     61  C   UNL A   1      42.338  34.923  30.097  1.00  0.00     0.031 C 
ATOM     62  C   UNL A   1      40.716  33.879  31.688  1.00  0.00     0.037 A 
BRANCH  49  63
ATOM     63  C   UNL A   1      35.328  33.174  30.627  1.00  0.00     0.064 A 
ATOM     64  C   UNL A   1      34.535  34.188  30.026  1.00  0.00     0.173 A 
ATOM     65  C   UNL A   1      35.041  32.878  31.965  1.00  0.00     0.173 A 
ATOM     66  F   UNL A   1      34.690  34.509  28.731  1.00  0.00    -0.203 F 
ATOM     67  C   UNL A   1      33.647  34.964  30.764  1.00  0.00     0.198 A 
ATOM     68  C   UNL A   1      34.106  33.624  32.687  1.00  0.00     0.198 A 
ATOM     69  F   UNL A   1      35.731  31.945  32.632  1.00  0.00    -0.203 F 
ATOM     70  F   UNL A   1      33.051  36.022  30.195  1.00  0.00    -0.200 F 
ATOM     71  C   UNL A   1      33.449  34.695  32.103  1.00  0.00     0.200 A 
ATOM     72  F   UNL A   1      33.909  33.357  33.985  1.00  0.00    -0.200 F 
ATOM     73  F   UNL A   1      32.659  35.488  32.838  1.00  0.00    -0.200 F 
ENDBRANCH  49  63
BRANCH  50  74
ATOM     74  C   UNL A   1      45.910  32.487  29.943  1.00  0.00     0.064 A 
ATOM     75  C   UNL A   1      46.820  32.664  30.990  1.00  0.00     0.173 A 
ATOM     76  C   UNL A   1      46.495  32.675  28.647  1.00  0.00     0.173 A 
ATOM     77  F   UNL A   1      46.405  32.646  32.262  1.00  0.00    -0.203 F 
ATOM     78  C   UNL A   1      48.198  32.898  30.754  1.00  0.00     0.198 A 
ATOM     79  C   UNL A   1      47.860  32.844  28.412  1.00  0.00     0.198 A 
ATOM     80  F   UNL A   1      45.758  32.716  27.530  1.00  0.00    -0.203 F 
ATOM     81  F   UNL A   1      49.032  33.075  31.789  1.00  0.00    -0.200 F 
ATOM     82  C   UNL A   1      48.721  32.942  29.470  1.00  0.00     0.200 A 
ATOM     83  F   UNL A   1      48.315  32.902  27.149  1.00  0.00    -0.200 F 
ATOM     84  F   UNL A   1      50.034  33.099  29.253  1.00  0.00    -0.200 F 
ENDBRANCH  50  74
BRANCH  62  85
ATOM     85  C   UNL A   1      40.646  32.951  32.885  1.00  0.00     0.064 A 
ATOM     86  C   UNL A   1      41.160  33.385  34.117  1.00  0.00     0.173 A 
ATOM     87  C   UNL A   1      40.195  31.620  32.843  1.00  0.00     0.173 A 
ATOM     88  F   UNL A   1      41.590  34.649  34.250  1.00  0.00    -0.203 F 
ATOM     89  C   UNL A   1      41.233  32.540  35.227  1.00  0.00     0.198 A 
ATOM     90  C   UNL A   1      40.267  30.770  33.952  1.00  0.00     0.198 A 
ATOM     91  F   UNL A   1      39.665  31.114  31.731  1.00  0.00    -0.203 F 
ATOM     92  F   UNL A   1      41.726  33.001  36.384  1.00  0.00    -0.200 F 
ATOM     93  C   UNL A   1      40.790  31.231  35.144  1.00  0.00     0.200 A 
ATOM     94  F   UNL A   1      39.816  29.508  33.864  1.00  0.00    -0.200 F 
ATOM     95  F   UNL A   1      40.845  30.426  36.215  1.00  0.00    -0.200 F 
ENDBRANCH  62  85
ENDBRANCH  36  37
ENDBRANCH  29  31
ENDBRANCH  28  29
ENDBRANCH  27  28
ENDBRANCH  26  27
ENDBRANCH  25  26
ENDBRANCH  24  25
ENDBRANCH   1  24
TORSDOF 20
ENDMDL
MODEL 2
REMARK VINA RESULT:     -10.6      1.697      2.919
REMARK SMILES C[C@H](CCc1ccco1)NC(=O)c1cccn1CC(=O)OCCOCCOC(=O)c1ccc(-c2c3nc(c(-c4c(F)c(F)c(F)c(F)c4F)c4ccc([nH]4)c(-c4c(F)c(F)c(F)c(F)c4F)c4nc(c(-c5c(F)c(F)c(F)c(F)c5F)c5ccc2[nH]5)C=C4)C=C3)cc1
REMARK SMILES IDX 22 1 21 2 19 3 20 4 18 5 17 6 13 7 14 8 15 9 16 10 11 11
REMARK SMILES IDX 10 12 12 14 2 15 1 16 3 17 4 18 5 19 6 20 9 21 7 22 8 23
REMARK SMILES IDX 23 24 24 25 25 26 26 27 27 28 28 29 29 30 30 31 31 32 92 33
REMARK SMILES IDX 32 34 91 35 33 36 34 37 35 38 85 39 36 40 90 41 84 42 86 43
REMARK SMILES IDX 37 44 89 45 83 46 82 47 38 49 70 50 50 51 69 52 51 53 54 54
REMARK SMILES IDX 68 55 87 56 52 57 53 58 67 60 88 61 55 62 39 63 40 64 48 65
REMARK SMILES IDX 41 66 42 67 46 68 49 69 43 70 44 71 47 72 45 73 71 74 72 75
REMARK SMILES IDX 80 76 73 77 74 78 78 79 81 80 75 81 76 82 79 83 77 84 56 85
REMARK SMILES IDX 57 86 65 87 58 88 59 89 63 90 66 91 60 92 61 93 64 94 62 95
REMARK H PARENT 10 13 86 48 54 59
REMARK Flexibility Score: inf
ROOT
ATOM      1  C   UNL A   1      36.012  21.307  25.612  1.00  0.00     0.261 C 
ENDROOT
BRANCH   1   2
ATOM      2  O   UNL A   1      35.261  21.476  24.393  1.00  0.00    -0.462 OA
BRANCH   2   3
ATOM      3  C   UNL A   1      33.968  21.053  24.451  1.00  0.00     0.326 C 
ATOM      4  O   UNL A   1      33.631  19.928  24.813  1.00  0.00    -0.250 OA
BRANCH   3   5
ATOM      5  C   UNL A   1      32.932  22.088  24.100  1.00  0.00     0.244 C 
BRANCH   5   6
ATOM      6  N   UNL A   1      32.345  22.867  25.189  1.00  0.00    -0.332 N 
ATOM      7  C   UNL A   1      32.779  24.103  25.645  1.00  0.00     0.107 A 
ATOM      8  C   UNL A   1      31.816  24.526  26.559  1.00  0.00     0.033 A 
ATOM      9  C   UNL A   1      30.825  23.530  26.683  1.00  0.00     0.020 A 
ATOM     10  C   UNL A   1      31.151  22.540  25.792  1.00  0.00     0.087 A 
BRANCH   7  11
ATOM     11  C   UNL A   1      33.972  24.769  25.148  1.00  0.00     0.268 C 
ATOM     12  N   UNL A   1      33.883  25.748  24.196  1.00  0.00    -0.348 N 
ATOM     13  H   UNL A   1      34.712  26.257  24.041  1.00  0.00     0.164 HD
ATOM     14  O   UNL A   1      35.098  24.527  25.579  1.00  0.00    -0.268 OA
BRANCH  12  15
ATOM     15  C   UNL A   1      32.748  26.152  23.376  1.00  0.00     0.079 C 
ATOM     16  C   UNL A   1      33.252  26.202  21.936  1.00  0.00     0.031 C 
BRANCH  15  17
ATOM     17  C   UNL A   1      32.070  27.411  23.971  1.00  0.00     0.032 C 
BRANCH  17  18
ATOM     18  C   UNL A   1      32.787  28.760  23.885  1.00  0.00     0.077 C 
BRANCH  18  19
ATOM     19  C   UNL A   1      32.607  29.613  25.087  1.00  0.00     0.103 A 
ATOM     20  C   UNL A   1      31.497  30.217  25.642  1.00  0.00     0.045 A 
ATOM     21  O   UNL A   1      33.695  29.807  25.885  1.00  0.00    -0.469 OA
ATOM     22  C   UNL A   1      31.915  30.750  26.883  1.00  0.00     0.042 A 
ATOM     23  C   UNL A   1      33.264  30.499  26.973  1.00  0.00     0.195 A 
ENDBRANCH  18  19
ENDBRANCH  17  18
ENDBRANCH  15  17
ENDBRANCH  12  15
ENDBRANCH   7  11
ENDBRANCH   5   6
ENDBRANCH   3   5
ENDBRANCH   2   3
ENDBRANCH   1   2
BRANCH   1  24
ATOM     24  C   UNL A   1      37.428  20.773  25.376  1.00  0.00     0.202 C 
BRANCH  24  25
ATOM     25  O   UNL A   1      38.486  21.722  25.264  1.00  0.00    -0.374 OA
BRANCH  25  26
ATOM     26  C   UNL A   1      39.669  21.523  26.026  1.00  0.00     0.202 C 
BRANCH  26  27
ATOM     27  C   UNL A   1      40.003  22.516  27.133  1.00  0.00     0.261 C 
BRANCH  27  28
ATOM     28  O   UNL A   1      40.265  23.844  26.695  1.00  0.00    -0.460 OA
BRANCH  28  29
ATOM     29  C   UNL A   1      39.226  24.670  26.959  1.00  0.00     0.338 C 
ATOM     30  O   UNL A   1      38.094  24.588  26.515  1.00  0.00    -0.246 OA
BRANCH  29  31
ATOM     31  C   UNL A   1      39.682  25.850  27.697  1.00  0.00     0.060 A 
ATOM     32  C   UNL A   1      39.292  25.909  29.036  1.00  0.00     0.016 A 
ATOM     33  C   UNL A   1      40.209  26.965  27.029  1.00  0.00     0.016 A 
ATOM     34  C   UNL A   1      39.300  27.128  29.676  1.00  0.00     0.010 A 
ATOM     35  C   UNL A   1      40.198  28.195  27.665  1.00  0.00     0.010 A 
ATOM     36  C   UNL A   1      39.714  28.270  28.974  1.00  0.00    -0.014 A 
BRANCH  36  37
ATOM     37  C   UNL A   1      39.862  29.492  29.777  1.00  0.00     0.031 A 
ATOM     38  C   UNL A   1      38.602  30.367  29.562  1.00  0.00     0.074 A 
ATOM     39  C   UNL A   1      41.077  29.671  30.393  1.00  0.00     0.049 A 
ATOM     40  N   UNL A   1      38.492  31.655  29.516  1.00  0.00    -0.248 NA
ATOM     41  C   UNL A   1      37.288  29.722  29.253  1.00  0.00     0.031 C 
ATOM     42  C   UNL A   1      42.134  28.637  30.531  1.00  0.00     0.029 A 
ATOM     43  N   UNL A   1      41.692  30.744  31.012  1.00  0.00    -0.354 N 
ATOM     44  C   UNL A   1      37.120  31.971  29.385  1.00  0.00     0.074 A 
ATOM     45  C   UNL A   1      36.447  30.747  29.097  1.00  0.00     0.031 C 
ATOM     46  C   UNL A   1      43.258  29.147  31.092  1.00  0.00     0.029 A 
ATOM     47  C   UNL A   1      43.064  30.557  31.378  1.00  0.00     0.049 A 
ATOM     48  H   UNL A   1      41.215  31.586  31.191  1.00  0.00     0.167 HD
ATOM     49  C   UNL A   1      36.629  33.210  29.681  1.00  0.00     0.037 A 
ATOM     50  C   UNL A   1      43.974  31.489  31.824  1.00  0.00     0.037 A 
ATOM     51  C   UNL A   1      37.714  34.074  29.998  1.00  0.00     0.049 A 
ATOM     52  C   UNL A   1      43.166  32.697  31.999  1.00  0.00     0.074 A 
ATOM     53  C   UNL A   1      38.689  34.620  29.208  1.00  0.00     0.029 A 
ATOM     54  N   UNL A   1      38.120  34.081  31.309  1.00  0.00    -0.354 N 
ATOM     55  N   UNL A   1      42.347  32.897  32.987  1.00  0.00    -0.248 NA
ATOM     56  C   UNL A   1      43.197  33.714  30.940  1.00  0.00     0.031 C 
ATOM     57  C   UNL A   1      39.845  34.449  29.992  1.00  0.00     0.029 A 
ATOM     58  C   UNL A   1      39.488  34.129  31.309  1.00  0.00     0.049 A 
ATOM     59  H   UNL A   1      37.537  34.056  32.103  1.00  0.00     0.167 HD
ATOM     60  C   UNL A   1      41.538  33.879  32.474  1.00  0.00     0.074 A 
ATOM     61  C   UNL A   1      42.298  34.553  31.443  1.00  0.00     0.031 C 
ATOM     62  C   UNL A   1      40.193  33.699  32.487  1.00  0.00     0.037 A 
BRANCH  49  63
ATOM     63  C   UNL A   1      35.250  33.717  29.991  1.00  0.00     0.064 A 
ATOM     64  C   UNL A   1      34.612  34.531  29.018  1.00  0.00     0.173 A 
ATOM     65  C   UNL A   1      34.728  33.781  31.288  1.00  0.00     0.173 A 
ATOM     66  F   UNL A   1      34.999  34.501  27.732  1.00  0.00    -0.203 F 
ATOM     67  C   UNL A   1      33.643  35.469  29.361  1.00  0.00     0.198 A 
ATOM     68  C   UNL A   1      33.713  34.684  31.616  1.00  0.00     0.198 A 
ATOM     69  F   UNL A   1      35.256  33.061  32.285  1.00  0.00    -0.203 F 
ATOM     70  F   UNL A   1      33.195  36.335  28.440  1.00  0.00    -0.200 F 
ATOM     71  C   UNL A   1      33.208  35.560  30.667  1.00  0.00     0.200 A 
ATOM     72  F   UNL A   1      33.287  34.767  32.883  1.00  0.00    -0.200 F 
ATOM     73  F   UNL A   1      32.337  36.513  31.021  1.00  0.00    -0.200 F 
ENDBRANCH  49  63
BRANCH  50  74
ATOM     74  C   UNL A   1      45.460  31.679  32.120  1.00  0.00     0.064 A 
ATOM     75  C   UNL A   1      46.070  31.683  33.378  1.00  0.00     0.173 A 
ATOM     76  C   UNL A   1      46.388  31.852  31.040  1.00  0.00     0.173 A 
ATOM     77  F   UNL A   1      45.331  31.656  34.494  1.00  0.00    -0.203 F 
ATOM     78  C   UNL A   1      47.479  31.744  33.528  1.00  0.00     0.198 A 
ATOM     79  C   UNL A   1      47.775  31.851  31.181  1.00  0.00     0.198 A 
ATOM     80  F   UNL A   1      45.986  32.045  29.778  1.00  0.00    -0.203 F 
ATOM     81  F   UNL A   1      48.021  31.759  34.754  1.00  0.00    -0.200 F 
ATOM     82  C   UNL A   1      48.328  31.783  32.431  1.00  0.00     0.200 A 
ATOM     83  F   UNL A   1      48.555  31.911  30.089  1.00  0.00    -0.200 F 
ATOM     84  F   UNL A   1      49.660  31.776  32.575  1.00  0.00    -0.200 F 
ENDBRANCH  50  74
BRANCH  62  85
ATOM     85  C   UNL A   1      39.690  32.766  33.571  1.00  0.00     0.064 A 
ATOM     86  C   UNL A   1      38.995  31.603  33.202  1.00  0.00     0.173 A 
ATOM     87  C   UNL A   1      39.769  33.022  34.950  1.00  0.00     0.173 A 
ATOM     88  F   UNL A   1      38.892  31.272  31.906  1.00  0.00    -0.203 F 
ATOM     89  C   UNL A   1      38.404  30.763  34.150  1.00  0.00     0.198 A 
ATOM     90  C   UNL A   1      39.179  32.184  35.902  1.00  0.00     0.198 A 
ATOM     91  F   UNL A   1      40.428  34.085  35.410  1.00  0.00    -0.203 F 
ATOM     92  F   UNL A   1      37.756  29.661  33.751  1.00  0.00    -0.200 F 
ATOM     93  C   UNL A   1      38.493  31.054  35.500  1.00  0.00     0.200 A 
ATOM     94  F   UNL A   1      39.288  32.468  37.211  1.00  0.00    -0.200 F 
ATOM     95  F   UNL A   1      37.941  30.238  36.410  1.00  0.00    -0.200 F 
ENDBRANCH  62  85
ENDBRANCH  36  37
ENDBRANCH  29  31
ENDBRANCH  28  29
ENDBRANCH  27  28
ENDBRANCH  26  27
ENDBRANCH  25  26
ENDBRANCH  24  25
ENDBRANCH   1  24
TORSDOF 20
ENDMDL
MODEL 3
REMARK VINA RESULT:     -10.6      2.957      8.052
REMARK SMILES C[C@H](CCc1ccco1)NC(=O)c1cccn1CC(=O)OCCOCCOC(=O)c1ccc(-c2c3nc(c(-c4c(F)c(F)c(F)c(F)c4F)c4ccc([nH]4)c(-c4c(F)c(F)c(F)c(F)c4F)c4nc(c(-c5c(F)c(F)c(F)c(F)c5F)c5ccc2[nH]5)C=C4)C=C3)cc1
REMARK SMILES IDX 22 1 21 2 19 3 20 4 18 5 17 6 13 7 14 8 15 9 16 10 11 11
REMARK SMILES IDX 10 12 12 14 2 15 1 16 3 17 4 18 5 19 6 20 9 21 7 22 8 23
REMARK SMILES IDX 23 24 24 25 25 26 26 27 27 28 28 29 29 30 30 31 31 32 92 33
REMARK SMILES IDX 32 34 91 35 33 36 34 37 35 38 85 39 36 40 90 41 84 42 86 43
REMARK SMILES IDX 37 44 89 45 83 46 82 47 38 49 70 50 50 51 69 52 51 53 54 54
REMARK SMILES IDX 68 55 87 56 52 57 53 58 67 60 88 61 55 62 39 63 40 64 48 65
REMARK SMILES IDX 41 66 42 67 46 68 49 69 43 70 44 71 47 72 45 73 71 74 72 75
REMARK SMILES IDX 80 76 73 77 74 78 78 79 81 80 75 81 76 82 79 83 77 84 56 85
REMARK SMILES IDX 57 86 65 87 58 88 59 89 63 90 66 91 60 92 61 93 64 94 62 95
REMARK H PARENT 10 13 86 48 54 59
REMARK Flexibility Score: inf
ROOT
ATOM      1  C   UNL A   1      36.263  21.008  25.232  1.00  0.00     0.261 C 
ENDROOT
BRANCH   1   2
ATOM      2  O   UNL A   1      35.871  21.625  26.475  1.00  0.00    -0.462 OA
BRANCH   2   3
ATOM      3  C   UNL A   1      34.564  22.002  26.543  1.00  0.00     0.326 C 
ATOM      4  O   UNL A   1      33.720  21.428  27.228  1.00  0.00    -0.250 OA
BRANCH   3   5
ATOM      5  C   UNL A   1      34.205  23.237  25.760  1.00  0.00     0.244 C 
BRANCH   5   6
ATOM      6  N   UNL A   1      33.056  23.167  24.858  1.00  0.00    -0.332 N 
ATOM      7  C   UNL A   1      31.845  23.826  25.014  1.00  0.00     0.107 A 
ATOM      8  C   UNL A   1      31.139  23.600  23.835  1.00  0.00     0.033 A 
ATOM      9  C   UNL A   1      31.906  22.774  22.986  1.00  0.00     0.020 A 
ATOM     10  C   UNL A   1      33.102  22.562  23.623  1.00  0.00     0.087 A 
BRANCH   7  11
ATOM     11  C   UNL A   1      31.510  24.626  26.181  1.00  0.00     0.268 C 
ATOM     12  N   UNL A   1      31.524  25.993  26.120  1.00  0.00    -0.348 N 
ATOM     13  H   UNL A   1      31.126  26.450  26.897  1.00  0.00     0.164 HD
ATOM     14  O   UNL A   1      31.160  24.130  27.251  1.00  0.00    -0.268 OA
BRANCH  12  15
ATOM     15  C   UNL A   1      32.037  26.876  25.081  1.00  0.00     0.079 C 
ATOM     16  C   UNL A   1      33.546  26.966  25.297  1.00  0.00     0.031 C 
BRANCH  15  17
ATOM     17  C   UNL A   1      31.213  28.186  25.027  1.00  0.00     0.032 C 
BRANCH  17  18
ATOM     18  C   UNL A   1      31.205  29.014  23.739  1.00  0.00     0.077 C 
BRANCH  18  19
ATOM     19  C   UNL A   1      29.866  29.543  23.375  1.00  0.00     0.103 A 
ATOM     20  C   UNL A   1      28.809  28.998  22.675  1.00  0.00     0.045 A 
ATOM     21  O   UNL A   1      29.523  30.766  23.868  1.00  0.00    -0.469 OA
ATOM     22  C   UNL A   1      27.736  29.909  22.807  1.00  0.00     0.042 A 
ATOM     23  C   UNL A   1      28.227  30.980  23.517  1.00  0.00     0.195 A 
ENDBRANCH  18  19
ENDBRANCH  17  18
ENDBRANCH  15  17
ENDBRANCH  12  15
ENDBRANCH   7  11
ENDBRANCH   5   6
ENDBRANCH   3   5
ENDBRANCH   2   3
ENDBRANCH   1   2
BRANCH   1  24
ATOM     24  C   UNL A   1      37.774  21.056  24.988  1.00  0.00     0.202 C 
BRANCH  24  25
ATOM     25  O   UNL A   1      38.509  22.126  25.578  1.00  0.00    -0.374 OA
BRANCH  25  26
ATOM     26  C   UNL A   1      39.549  21.818  26.496  1.00  0.00     0.202 C 
BRANCH  26  27
ATOM     27  C   UNL A   1      40.906  21.389  25.948  1.00  0.00     0.261 C 
BRANCH  27  28
ATOM     28  O   UNL A   1      42.031  21.952  26.614  1.00  0.00    -0.460 OA
BRANCH  28  29
ATOM     29  C   UNL A   1      42.516  23.027  25.952  1.00  0.00     0.338 C 
ATOM     30  O   UNL A   1      43.030  23.036  24.848  1.00  0.00    -0.246 OA
BRANCH  29  31
ATOM     31  C   UNL A   1      42.554  24.198  26.832  1.00  0.00     0.060 A 
ATOM     32  C   UNL A   1      41.746  24.123  27.968  1.00  0.00     0.016 A 
ATOM     33  C   UNL A   1      43.123  25.407  26.406  1.00  0.00     0.016 A 
ATOM     34  C   UNL A   1      41.392  25.288  28.607  1.00  0.00     0.010 A 
ATOM     35  C   UNL A   1      42.750  26.582  27.036  1.00  0.00     0.010 A 
ATOM     36  C   UNL A   1      41.862  26.514  28.114  1.00  0.00    -0.014 A 
BRANCH  36  37
ATOM     37  C   UNL A   1      41.584  27.688  28.954  1.00  0.00     0.031 A 
ATOM     38  C   UNL A   1      42.446  27.580  30.236  1.00  0.00     0.074 A 
ATOM     39  C   UNL A   1      40.567  28.509  28.532  1.00  0.00     0.049 A 
ATOM     40  N   UNL A   1      42.171  27.944  31.447  1.00  0.00    -0.248 NA
ATOM     41  C   UNL A   1      43.764  26.874  30.193  1.00  0.00     0.031 C 
ATOM     42  C   UNL A   1      39.918  28.462  27.197  1.00  0.00     0.029 A 
ATOM     43  N   UNL A   1      39.853  29.536  29.123  1.00  0.00    -0.354 N 
ATOM     44  C   UNL A   1      43.317  27.712  32.242  1.00  0.00     0.074 A 
ATOM     45  C   UNL A   1      44.212  26.935  31.449  1.00  0.00     0.031 C 
ATOM     46  C   UNL A   1      38.877  29.329  27.119  1.00  0.00     0.029 A 
ATOM     47  C   UNL A   1      38.731  30.029  28.381  1.00  0.00     0.049 A 
ATOM     48  H   UNL A   1      40.101  29.906  30.001  1.00  0.00     0.167 HD
ATOM     49  C   UNL A   1      43.495  28.320  33.452  1.00  0.00     0.037 A 
ATOM     50  C   UNL A   1      37.739  30.894  28.789  1.00  0.00     0.037 A 
ATOM     51  C   UNL A   1      42.329  29.069  33.770  1.00  0.00     0.049 A 
ATOM     52  C   UNL A   1      38.190  31.329  30.112  1.00  0.00     0.074 A 
ATOM     53  C   UNL A   1      41.071  28.666  34.128  1.00  0.00     0.029 A 
ATOM     54  N   UNL A   1      42.286  30.356  33.293  1.00  0.00    -0.354 N 
ATOM     55  N   UNL A   1      39.142  32.187  30.319  1.00  0.00    -0.248 NA
ATOM     56  C   UNL A   1      37.602  30.684  31.293  1.00  0.00     0.031 C 
ATOM     57  C   UNL A   1      40.251  29.520  33.368  1.00  0.00     0.029 A 
ATOM     58  C   UNL A   1      41.007  30.585  32.861  1.00  0.00     0.049 A 
ATOM     59  H   UNL A   1      43.035  30.995  33.266  1.00  0.00     0.167 HD
ATOM     60  C   UNL A   1      39.481  31.907  31.618  1.00  0.00     0.074 A 
ATOM     61  C   UNL A   1      38.324  31.288  32.231  1.00  0.00     0.031 C 
ATOM     62  C   UNL A   1      40.779  31.650  31.921  1.00  0.00     0.037 A 
BRANCH  49  63
ATOM     63  C   UNL A   1      44.706  28.560  34.307  1.00  0.00     0.064 A 
ATOM     64  C   UNL A   1      45.773  29.310  33.745  1.00  0.00     0.173 A 
ATOM     65  C   UNL A   1      45.020  27.786  35.430  1.00  0.00     0.173 A 
ATOM     66  F   UNL A   1      45.565  30.130  32.701  1.00  0.00    -0.203 F 
ATOM     67  C   UNL A   1      47.088  29.154  34.170  1.00  0.00     0.198 A 
ATOM     68  C   UNL A   1      46.335  27.677  35.889  1.00  0.00     0.198 A 
ATOM     69  F   UNL A   1      44.093  27.033  36.036  1.00  0.00    -0.203 F 
ATOM     70  F   UNL A   1      48.084  29.749  33.496  1.00  0.00    -0.200 F 
ATOM     71  C   UNL A   1      47.373  28.318  35.230  1.00  0.00     0.200 A 
ATOM     72  F   UNL A   1      46.609  26.870  36.923  1.00  0.00    -0.200 F 
ATOM     73  F   UNL A   1      48.643  28.099  35.592  1.00  0.00    -0.200 F 
ENDBRANCH  49  63
BRANCH  50  74
ATOM     74  C   UNL A   1      36.388  31.464  28.365  1.00  0.00     0.064 A 
ATOM     75  C   UNL A   1      35.237  30.740  28.041  1.00  0.00     0.173 A 
ATOM     76  C   UNL A   1      36.201  32.884  28.296  1.00  0.00     0.173 A 
ATOM     77  F   UNL A   1      35.278  29.406  27.938  1.00  0.00    -0.203 F 
ATOM     78  C   UNL A   1      33.998  31.378  27.780  1.00  0.00     0.198 A 
ATOM     79  C   UNL A   1      34.971  33.512  28.100  1.00  0.00     0.198 A 
ATOM     80  F   UNL A   1      37.221  33.744  28.404  1.00  0.00    -0.203 F 
ATOM     81  F   UNL A   1      32.922  30.644  27.460  1.00  0.00    -0.200 F 
ATOM     82  C   UNL A   1      33.858  32.756  27.854  1.00  0.00     0.200 A 
ATOM     83  F   UNL A   1      34.892  34.852  28.160  1.00  0.00    -0.200 F 
ATOM     84  F   UNL A   1      32.671  33.351  27.670  1.00  0.00    -0.200 F 
ENDBRANCH  50  74
BRANCH  62  85
ATOM     85  C   UNL A   1      41.785  32.273  30.973  1.00  0.00     0.064 A 
ATOM     86  C   UNL A   1      41.835  33.671  30.854  1.00  0.00     0.173 A 
ATOM     87  C   UNL A   1      42.622  31.553  30.104  1.00  0.00     0.173 A 
ATOM     88  F   UNL A   1      41.085  34.435  31.662  1.00  0.00    -0.203 F 
ATOM     89  C   UNL A   1      42.654  34.304  29.915  1.00  0.00     0.198 A 
ATOM     90  C   UNL A   1      43.443  32.183  29.162  1.00  0.00     0.198 A 
ATOM     91  F   UNL A   1      42.671  30.222  30.151  1.00  0.00    -0.203 F 
ATOM     92  F   UNL A   1      42.673  35.641  29.842  1.00  0.00    -0.200 F 
ATOM     93  C   UNL A   1      43.456  33.560  29.067  1.00  0.00     0.200 A 
ATOM     94  F   UNL A   1      44.231  31.449  28.358  1.00  0.00    -0.200 F 
ATOM     95  F   UNL A   1      44.255  34.169  28.179  1.00  0.00    -0.200 F 
ENDBRANCH  62  85
ENDBRANCH  36  37
ENDBRANCH  29  31
ENDBRANCH  28  29
ENDBRANCH  27  28
ENDBRANCH  26  27
ENDBRANCH  25  26
ENDBRANCH  24  25
ENDBRANCH   1  24
TORSDOF 20
ENDMDL
