MODEL 1
REMARK VINA RESULT:     -12.1      0.000      0.000
REMARK SMILES Cc1ncccc1C(=O)Nc1ccccc1C(=O)OCCOCCOC(=O)c1ccc(-c2c3nc(c(-c4c(F)c(F)c(F)c(F)c4F)c4ccc([nH]4)c(-c4c(F)c(F)c(F)c(F)c4F)c4nc(c(-c5c(F)c(F)c(F)c(F)c5F)c5ccc2[nH]5)C=C4)C=C3)cc1
REMARK SMILES IDX 22 1 21 2 20 3 19 4 17 5 18 6 16 7 11 8 12 9 13 10 15 11
REMARK SMILES IDX 14 12 10 13 8 14 9 15 7 17 1 18 2 19 3 20 4 21 6 22 5 23
REMARK SMILES IDX 23 24 24 25 25 26 26 27 27 28 28 29 29 30 90 31 30 32 89 33
REMARK SMILES IDX 31 34 32 35 33 36 83 37 34 38 88 39 82 40 84 41 35 42 87 43
REMARK SMILES IDX 81 44 80 45 36 47 68 48 48 49 67 50 49 51 52 52 66 53 85 54
REMARK SMILES IDX 50 55 51 56 65 58 86 59 53 60 37 61 38 62 46 63 39 64 40 65
REMARK SMILES IDX 44 66 47 67 41 68 42 69 45 70 43 71 69 72 70 73 78 74 71 75
REMARK SMILES IDX 72 76 76 77 79 78 73 79 74 80 77 81 75 82 54 83 55 84 63 85
REMARK SMILES IDX 56 86 57 87 61 88 64 89 58 90 59 91 62 92 60 93
REMARK H PARENT 10 16 84 46 52 57
REMARK Flexibility Score: inf
ROOT
ATOM      1  O   UNL A   1      35.367  22.805  24.273  1.00  0.00    -0.374 OA
ENDROOT
BRANCH   1   2
ATOM      2  C   UNL A   1      34.749  23.884  24.961  1.00  0.00     0.202 C 
BRANCH   2   3
ATOM      3  C   UNL A   1      33.255  23.790  25.279  1.00  0.00     0.261 C 
BRANCH   3   4
ATOM      4  O   UNL A   1      32.489  24.963  24.945  1.00  0.00    -0.460 OA
BRANCH   4   5
ATOM      5  C   UNL A   1      31.807  25.501  25.990  1.00  0.00     0.340 C 
ATOM      6  O   UNL A   1      31.340  24.886  26.937  1.00  0.00    -0.246 OA
BRANCH   5   7
ATOM      7  C   UNL A   1      31.841  26.979  25.972  1.00  0.00     0.083 A 
ATOM      8  C   UNL A   1      31.957  27.807  24.844  1.00  0.00     0.056 A 
ATOM      9  C   UNL A   1      32.091  29.196  25.055  1.00  0.00     0.027 A 
ATOM     10  C   UNL A   1      32.013  29.762  26.329  1.00  0.00     0.002 A 
ATOM     11  C   UNL A   1      31.766  27.564  27.256  1.00  0.00     0.018 A 
ATOM     12  C   UNL A   1      31.835  28.944  27.433  1.00  0.00     0.001 A 
BRANCH   8  13
ATOM     13  N   UNL A   1      31.913  27.455  23.482  1.00  0.00    -0.321 N 
ATOM     14  C   UNL A   1      31.002  27.593  22.467  1.00  0.00     0.257 C 
ATOM     15  O   UNL A   1      31.237  27.007  21.406  1.00  0.00    -0.269 OA
ATOM     16  H   UNL A   1      32.735  27.000  23.188  1.00  0.00     0.170 HD
BRANCH  14  17
ATOM     17  C   UNL A   1      29.793  28.433  22.528  1.00  0.00     0.061 A 
ATOM     18  C   UNL A   1      28.334  26.826  23.888  1.00  0.00     0.067 C 
ATOM     19  C   UNL A   1      28.585  28.100  23.142  1.00  0.00     0.050 A 
ATOM     20  N   UNL A   1      27.513  28.941  23.114  1.00  0.00    -0.261 NA
ATOM     21  C   UNL A   1      27.653  30.142  22.512  1.00  0.00     0.111 A 
ATOM     22  C   UNL A   1      29.926  29.725  21.993  1.00  0.00     0.017 A 
ATOM     23  C   UNL A   1      28.839  30.588  21.967  1.00  0.00     0.021 A 
ENDBRANCH  14  17
ENDBRANCH   8  13
ENDBRANCH   5   7
ENDBRANCH   4   5
ENDBRANCH   3   4
ENDBRANCH   2   3
ENDBRANCH   1   2
BRANCH   1  24
ATOM     24  C   UNL A   1      35.354  21.519  24.882  1.00  0.00     0.202 C 
BRANCH  24  25
ATOM     25  C   UNL A   1      36.699  20.840  25.175  1.00  0.00     0.261 C 
BRANCH  25  26
ATOM     26  O   UNL A   1      37.847  21.684  24.970  1.00  0.00    -0.460 OA
BRANCH  26  27
ATOM     27  C   UNL A   1      38.902  21.398  25.769  1.00  0.00     0.338 C 
ATOM     28  O   UNL A   1      39.521  20.342  25.834  1.00  0.00    -0.246 OA
BRANCH  27  29
ATOM     29  C   UNL A   1      39.338  22.583  26.522  1.00  0.00     0.060 A 
ATOM     30  C   UNL A   1      38.756  23.818  26.204  1.00  0.00     0.016 A 
ATOM     31  C   UNL A   1      40.437  22.514  27.379  1.00  0.00     0.016 A 
ATOM     32  C   UNL A   1      39.312  24.997  26.695  1.00  0.00     0.010 A 
ATOM     33  C   UNL A   1      41.001  23.699  27.862  1.00  0.00     0.010 A 
ATOM     34  C   UNL A   1      40.470  24.946  27.482  1.00  0.00    -0.014 A 
BRANCH  34  35
ATOM     35  C   UNL A   1      41.229  26.192  27.749  1.00  0.00     0.031 A 
ATOM     36  C   UNL A   1      40.550  27.312  28.489  1.00  0.00     0.074 A 
ATOM     37  C   UNL A   1      42.509  26.317  27.364  1.00  0.00     0.049 A 
ATOM     38  N   UNL A   1      41.000  28.502  28.797  1.00  0.00    -0.248 NA
ATOM     39  C   UNL A   1      39.176  27.052  28.946  1.00  0.00     0.031 C 
ATOM     40  C   UNL A   1      43.289  25.288  26.682  1.00  0.00     0.029 A 
ATOM     41  N   UNL A   1      43.375  27.374  27.490  1.00  0.00    -0.354 N 
ATOM     42  C   UNL A   1      39.964  29.135  29.470  1.00  0.00     0.074 A 
ATOM     43  C   UNL A   1      38.854  28.207  29.509  1.00  0.00     0.031 C 
ATOM     44  C   UNL A   1      44.523  25.766  26.445  1.00  0.00     0.029 A 
ATOM     45  C   UNL A   1      44.605  27.144  26.927  1.00  0.00     0.049 A 
ATOM     46  H   UNL A   1      43.136  28.216  27.942  1.00  0.00     0.167 HD
ATOM     47  C   UNL A   1      39.943  30.376  30.014  1.00  0.00     0.037 A 
ATOM     48  C   UNL A   1      45.667  27.963  26.800  1.00  0.00     0.037 A 
ATOM     49  C   UNL A   1      41.046  31.297  29.978  1.00  0.00     0.049 A 
ATOM     50  C   UNL A   1      45.593  29.364  27.345  1.00  0.00     0.074 A 
ATOM     51  C   UNL A   1      41.130  32.570  30.514  1.00  0.00     0.029 A 
ATOM     52  N   UNL A   1      42.263  31.043  29.360  1.00  0.00    -0.354 N 
ATOM     53  N   UNL A   1      44.616  29.953  27.992  1.00  0.00    -0.248 NA
ATOM     54  C   UNL A   1      46.773  30.217  27.138  1.00  0.00     0.031 C 
ATOM     55  C   UNL A   1      42.380  33.105  30.182  1.00  0.00     0.029 A 
ATOM     56  C   UNL A   1      43.093  32.146  29.480  1.00  0.00     0.049 A 
ATOM     57  H   UNL A   1      42.501  30.203  28.904  1.00  0.00     0.167 HD
ATOM     58  C   UNL A   1      45.070  31.231  28.291  1.00  0.00     0.074 A 
ATOM     59  C   UNL A   1      46.414  31.331  27.761  1.00  0.00     0.031 C 
ATOM     60  C   UNL A   1      44.431  32.230  28.950  1.00  0.00     0.037 A 
BRANCH  47  61
ATOM     61  C   UNL A   1      38.665  30.816  30.667  1.00  0.00     0.064 A 
ATOM     62  C   UNL A   1      37.590  31.318  29.919  1.00  0.00     0.173 A 
ATOM     63  C   UNL A   1      38.513  30.727  32.058  1.00  0.00     0.173 A 
ATOM     64  F   UNL A   1      37.691  31.437  28.587  1.00  0.00    -0.203 F 
ATOM     65  C   UNL A   1      36.420  31.745  30.545  1.00  0.00     0.198 A 
ATOM     66  C   UNL A   1      37.333  31.130  32.678  1.00  0.00     0.198 A 
ATOM     67  F   UNL A   1      39.510  30.251  32.820  1.00  0.00    -0.203 F 
ATOM     68  F   UNL A   1      35.425  32.269  29.816  1.00  0.00    -0.200 F 
ATOM     69  C   UNL A   1      36.291  31.646  31.922  1.00  0.00     0.200 A 
ATOM     70  F   UNL A   1      37.206  31.025  34.008  1.00  0.00    -0.200 F 
ATOM     71  F   UNL A   1      35.166  32.059  32.523  1.00  0.00    -0.200 F 
ENDBRANCH  47  61
BRANCH  48  72
ATOM     72  C   UNL A   1      46.893  27.472  26.123  1.00  0.00     0.064 A 
ATOM     73  C   UNL A   1      47.922  26.864  26.852  1.00  0.00     0.173 A 
ATOM     74  C   UNL A   1      47.058  27.597  24.736  1.00  0.00     0.173 A 
ATOM     75  F   UNL A   1      47.821  26.749  28.186  1.00  0.00    -0.203 F 
ATOM     76  C   UNL A   1      49.074  26.401  26.220  1.00  0.00     0.198 A 
ATOM     77  C   UNL A   1      48.199  27.114  24.102  1.00  0.00     0.198 A 
ATOM     78  F   UNL A   1      46.103  28.180  23.996  1.00  0.00    -0.203 F 
ATOM     79  F   UNL A   1      50.059  25.852  26.944  1.00  0.00    -0.200 F 
ATOM     80  C   UNL A   1      49.208  26.519  24.845  1.00  0.00     0.200 A 
ATOM     81  F   UNL A   1      48.323  27.224  22.772  1.00  0.00    -0.200 F 
ATOM     82  F   UNL A   1      50.313  26.068  24.237  1.00  0.00    -0.200 F 
ENDBRANCH  48  72
BRANCH  60  83
ATOM     83  C   UNL A   1      45.188  33.507  29.166  1.00  0.00     0.064 A 
ATOM     84  C   UNL A   1      45.094  34.579  28.268  1.00  0.00     0.173 A 
ATOM     85  C   UNL A   1      45.980  33.676  30.312  1.00  0.00     0.173 A 
ATOM     86  F   UNL A   1      44.360  34.461  27.151  1.00  0.00    -0.203 F 
ATOM     87  C   UNL A   1      45.781  35.768  28.499  1.00  0.00     0.198 A 
ATOM     88  C   UNL A   1      46.645  34.875  30.553  1.00  0.00     0.198 A 
ATOM     89  F   UNL A   1      46.098  32.682  31.206  1.00  0.00    -0.203 F 
ATOM     90  F   UNL A   1      45.707  36.766  27.608  1.00  0.00    -0.200 F 
ATOM     91  C   UNL A   1      46.550  35.918  29.644  1.00  0.00     0.200 A 
ATOM     92  F   UNL A   1      47.379  35.021  31.665  1.00  0.00    -0.200 F 
ATOM     93  F   UNL A   1      47.205  37.065  29.868  1.00  0.00    -0.200 F 
ENDBRANCH  60  83
ENDBRANCH  34  35
ENDBRANCH  27  29
ENDBRANCH  26  27
ENDBRANCH  25  26
ENDBRANCH  24  25
ENDBRANCH   1  24
TORSDOF 16
ENDMDL
MODEL 2
REMARK VINA RESULT:     -11.9      1.883      7.860
REMARK SMILES Cc1ncccc1C(=O)Nc1ccccc1C(=O)OCCOCCOC(=O)c1ccc(-c2c3nc(c(-c4c(F)c(F)c(F)c(F)c4F)c4ccc([nH]4)c(-c4c(F)c(F)c(F)c(F)c4F)c4nc(c(-c5c(F)c(F)c(F)c(F)c5F)c5ccc2[nH]5)C=C4)C=C3)cc1
REMARK SMILES IDX 22 1 21 2 20 3 19 4 17 5 18 6 16 7 11 8 12 9 13 10 15 11
REMARK SMILES IDX 14 12 10 13 8 14 9 15 7 17 1 18 2 19 3 20 4 21 6 22 5 23
REMARK SMILES IDX 23 24 24 25 25 26 26 27 27 28 28 29 29 30 90 31 30 32 89 33
REMARK SMILES IDX 31 34 32 35 33 36 83 37 34 38 88 39 82 40 84 41 35 42 87 43
REMARK SMILES IDX 81 44 80 45 36 47 68 48 48 49 67 50 49 51 52 52 66 53 85 54
REMARK SMILES IDX 50 55 51 56 65 58 86 59 53 60 37 61 38 62 46 63 39 64 40 65
REMARK SMILES IDX 44 66 47 67 41 68 42 69 45 70 43 71 69 72 70 73 78 74 71 75
REMARK SMILES IDX 72 76 76 77 79 78 73 79 74 80 77 81 75 82 54 83 55 84 63 85
REMARK SMILES IDX 56 86 57 87 61 88 64 89 58 90 59 91 62 92 60 93
REMARK H PARENT 10 16 84 46 52 57
REMARK Flexibility Score: inf
ROOT
ATOM      1  O   UNL A   1      37.412  21.376  24.444  1.00  0.00    -0.374 OA
ENDROOT
BRANCH   1   2
ATOM      2  C   UNL A   1      36.714  22.366  25.186  1.00  0.00     0.202 C 
BRANCH   2   3
ATOM      3  C   UNL A   1      35.507  23.051  24.541  1.00  0.00     0.261 C 
BRANCH   3   4
ATOM      4  O   UNL A   1      35.152  24.321  25.118  1.00  0.00    -0.460 OA
BRANCH   4   5
ATOM      5  C   UNL A   1      34.220  24.246  26.104  1.00  0.00     0.340 C 
ATOM      6  O   UNL A   1      34.177  23.406  26.992  1.00  0.00    -0.246 OA
BRANCH   5   7
ATOM      7  C   UNL A   1      33.329  25.426  26.117  1.00  0.00     0.083 A 
ATOM      8  C   UNL A   1      31.950  25.440  26.377  1.00  0.00     0.056 A 
ATOM      9  C   UNL A   1      31.260  26.662  26.222  1.00  0.00     0.027 A 
ATOM     10  C   UNL A   1      31.924  27.853  25.917  1.00  0.00     0.002 A 
ATOM     11  C   UNL A   1      33.988  26.637  25.807  1.00  0.00     0.018 A 
ATOM     12  C   UNL A   1      33.295  27.843  25.723  1.00  0.00     0.001 A 
BRANCH   8  13
ATOM     13  N   UNL A   1      31.126  24.393  26.830  1.00  0.00    -0.321 N 
ATOM     14  C   UNL A   1      30.716  23.186  26.328  1.00  0.00     0.257 C 
ATOM     15  O   UNL A   1      29.838  22.578  26.947  1.00  0.00    -0.269 OA
ATOM     16  H   UNL A   1      30.754  24.572  27.724  1.00  0.00     0.170 HD
BRANCH  14  17
ATOM     17  C   UNL A   1      31.284  22.534  25.135  1.00  0.00     0.061 A 
ATOM     18  C   UNL A   1      30.642  24.333  23.428  1.00  0.00     0.067 C 
ATOM     19  C   UNL A   1      31.244  23.021  23.827  1.00  0.00     0.050 A 
ATOM     20  N   UNL A   1      31.775  22.320  22.786  1.00  0.00    -0.261 NA
ATOM     21  C   UNL A   1      32.393  21.148  23.049  1.00  0.00     0.111 A 
ATOM     22  C   UNL A   1      32.011  21.357  25.376  1.00  0.00     0.017 A 
ATOM     23  C   UNL A   1      32.560  20.642  24.321  1.00  0.00     0.021 A 
ENDBRANCH  14  17
ENDBRANCH   8  13
ENDBRANCH   5   7
ENDBRANCH   4   5
ENDBRANCH   3   4
ENDBRANCH   2   3
ENDBRANCH   1   2
BRANCH   1  24
ATOM     24  C   UNL A   1      37.537  20.074  25.003  1.00  0.00     0.202 C 
BRANCH  24  25
ATOM     25  C   UNL A   1      38.936  19.590  25.409  1.00  0.00     0.261 C 
BRANCH  25  26
ATOM     26  O   UNL A   1      39.891  20.645  25.621  1.00  0.00    -0.460 OA
BRANCH  26  27
ATOM     27  C   UNL A   1      40.508  20.609  26.826  1.00  0.00     0.338 C 
ATOM     28  O   UNL A   1      41.011  19.637  27.376  1.00  0.00    -0.246 OA
BRANCH  27  29
ATOM     29  C   UNL A   1      40.625  21.955  27.406  1.00  0.00     0.060 A 
ATOM     30  C   UNL A   1      39.856  22.984  26.845  1.00  0.00     0.016 A 
ATOM     31  C   UNL A   1      41.617  22.240  28.345  1.00  0.00     0.016 A 
ATOM     32  C   UNL A   1      40.120  24.311  27.177  1.00  0.00     0.010 A 
ATOM     33  C   UNL A   1      41.889  23.573  28.668  1.00  0.00     0.010 A 
ATOM     34  C   UNL A   1      41.173  24.614  28.049  1.00  0.00    -0.014 A 
BRANCH  34  35
ATOM     35  C   UNL A   1      41.647  26.015  28.165  1.00  0.00     0.031 A 
ATOM     36  C   UNL A   1      42.987  26.380  27.587  1.00  0.00     0.074 A 
ATOM     37  C   UNL A   1      40.888  26.955  28.749  1.00  0.00     0.049 A 
ATOM     38  N   UNL A   1      43.621  27.525  27.607  1.00  0.00    -0.248 NA
ATOM     39  C   UNL A   1      43.711  25.304  26.890  1.00  0.00     0.031 C 
ATOM     40  C   UNL A   1      39.555  26.737  29.305  1.00  0.00     0.029 A 
ATOM     41  N   UNL A   1      41.138  28.285  28.977  1.00  0.00    -0.354 N 
ATOM     42  C   UNL A   1      44.818  27.306  26.938  1.00  0.00     0.074 A 
ATOM     43  C   UNL A   1      44.835  25.914  26.544  1.00  0.00     0.031 C 
ATOM     44  C   UNL A   1      39.103  27.896  29.815  1.00  0.00     0.029 A 
ATOM     45  C   UNL A   1      40.129  28.925  29.651  1.00  0.00     0.049 A 
ATOM     46  H   UNL A   1      41.963  28.736  28.683  1.00  0.00     0.167 HD
ATOM     47  C   UNL A   1      45.811  28.189  26.672  1.00  0.00     0.037 A 
ATOM     48  C   UNL A   1      40.055  30.192  30.102  1.00  0.00     0.037 A 
ATOM     49  C   UNL A   1      45.794  29.572  27.062  1.00  0.00     0.049 A 
ATOM     50  C   UNL A   1      41.204  31.134  29.860  1.00  0.00     0.074 A 
ATOM     51  C   UNL A   1      46.744  30.551  26.825  1.00  0.00     0.029 A 
ATOM     52  N   UNL A   1      44.772  30.174  27.783  1.00  0.00    -0.354 N 
ATOM     53  N   UNL A   1      42.328  30.925  29.217  1.00  0.00    -0.248 NA
ATOM     54  C   UNL A   1      41.074  32.491  30.413  1.00  0.00     0.031 C 
ATOM     55  C   UNL A   1      46.318  31.733  27.441  1.00  0.00     0.029 A 
ATOM     56  C   UNL A   1      45.080  31.503  28.021  1.00  0.00     0.049 A 
ATOM     57  H   UNL A   1      43.949  29.722  28.080  1.00  0.00     0.167 HD
ATOM     58  C   UNL A   1      43.025  32.125  29.264  1.00  0.00     0.074 A 
ATOM     59  C   UNL A   1      42.195  33.062  29.994  1.00  0.00     0.031 C 
ATOM     60  C   UNL A   1      44.242  32.425  28.745  1.00  0.00     0.037 A 
BRANCH  47  61
ATOM     61  C   UNL A   1      47.017  27.665  25.948  1.00  0.00     0.064 A 
ATOM     62  C   UNL A   1      47.111  27.701  24.549  1.00  0.00     0.173 A 
ATOM     63  C   UNL A   1      48.095  27.127  26.665  1.00  0.00     0.173 A 
ATOM     64  F   UNL A   1      46.101  28.192  23.816  1.00  0.00    -0.203 F 
ATOM     65  C   UNL A   1      48.229  27.188  23.893  1.00  0.00     0.198 A 
ATOM     66  C   UNL A   1      49.222  26.639  26.009  1.00  0.00     0.198 A 
ATOM     67  F   UNL A   1      48.058  27.072  28.005  1.00  0.00    -0.203 F 
ATOM     68  F   UNL A   1      48.276  27.186  22.554  1.00  0.00    -0.200 F 
ATOM     69  C   UNL A   1      49.284  26.662  24.623  1.00  0.00     0.200 A 
ATOM     70  F   UNL A   1      50.245  26.140  26.716  1.00  0.00    -0.200 F 
ATOM     71  F   UNL A   1      50.357  26.167  23.991  1.00  0.00    -0.200 F 
ENDBRANCH  47  61
BRANCH  48  72
ATOM     72  C   UNL A   1      38.843  30.640  30.831  1.00  0.00     0.064 A 
ATOM     73  C   UNL A   1      37.729  31.134  30.140  1.00  0.00     0.173 A 
ATOM     74  C   UNL A   1      38.771  30.579  32.231  1.00  0.00     0.173 A 
ATOM     75  F   UNL A   1      37.763  31.238  28.802  1.00  0.00    -0.203 F 
ATOM     76  C   UNL A   1      36.589  31.555  30.821  1.00  0.00     0.198 A 
ATOM     77  C   UNL A   1      37.622  30.978  32.909  1.00  0.00     0.198 A 
ATOM     78  F   UNL A   1      39.814  30.121  32.937  1.00  0.00    -0.203 F 
ATOM     79  F   UNL A   1      35.549  32.054  30.138  1.00  0.00    -0.200 F 
ATOM     80  C   UNL A   1      36.534  31.469  32.204  1.00  0.00     0.200 A 
ATOM     81  F   UNL A   1      37.570  30.889  34.245  1.00  0.00    -0.200 F 
ATOM     82  F   UNL A   1      35.434  31.868  32.857  1.00  0.00    -0.200 F 
ENDBRANCH  48  72
BRANCH  60  83
ATOM     83  C   UNL A   1      44.737  33.831  28.916  1.00  0.00     0.064 A 
ATOM     84  C   UNL A   1      45.541  34.200  30.003  1.00  0.00     0.173 A 
ATOM     85  C   UNL A   1      44.440  34.809  27.954  1.00  0.00     0.173 A 
ATOM     86  F   UNL A   1      45.841  33.306  30.956  1.00  0.00    -0.203 F 
ATOM     87  C   UNL A   1      46.015  35.504  30.131  1.00  0.00     0.198 A 
ATOM     88  C   UNL A   1      44.937  36.104  28.072  1.00  0.00     0.198 A 
ATOM     89  F   UNL A   1      43.679  34.504  26.892  1.00  0.00    -0.203 F 
ATOM     90  F   UNL A   1      46.751  35.845  31.198  1.00  0.00    -0.200 F 
ATOM     91  C   UNL A   1      45.719  36.452  29.163  1.00  0.00     0.200 A 
ATOM     92  F   UNL A   1      44.658  37.016  27.130  1.00  0.00    -0.200 F 
ATOM     93  F   UNL A   1      46.182  37.703  29.284  1.00  0.00    -0.200 F 
ENDBRANCH  60  83
ENDBRANCH  34  35
ENDBRANCH  27  29
ENDBRANCH  26  27
ENDBRANCH  25  26
ENDBRANCH  24  25
ENDBRANCH   1  24
TORSDOF 16
ENDMDL
MODEL 3
REMARK VINA RESULT:     -11.9      1.450      2.967
REMARK SMILES Cc1ncccc1C(=O)Nc1ccccc1C(=O)OCCOCCOC(=O)c1ccc(-c2c3nc(c(-c4c(F)c(F)c(F)c(F)c4F)c4ccc([nH]4)c(-c4c(F)c(F)c(F)c(F)c4F)c4nc(c(-c5c(F)c(F)c(F)c(F)c5F)c5ccc2[nH]5)C=C4)C=C3)cc1
REMARK SMILES IDX 22 1 21 2 20 3 19 4 17 5 18 6 16 7 11 8 12 9 13 10 15 11
REMARK SMILES IDX 14 12 10 13 8 14 9 15 7 17 1 18 2 19 3 20 4 21 6 22 5 23
REMARK SMILES IDX 23 24 24 25 25 26 26 27 27 28 28 29 29 30 90 31 30 32 89 33
REMARK SMILES IDX 31 34 32 35 33 36 83 37 34 38 88 39 82 40 84 41 35 42 87 43
REMARK SMILES IDX 81 44 80 45 36 47 68 48 48 49 67 50 49 51 52 52 66 53 85 54
REMARK SMILES IDX 50 55 51 56 65 58 86 59 53 60 37 61 38 62 46 63 39 64 40 65
REMARK SMILES IDX 44 66 47 67 41 68 42 69 45 70 43 71 69 72 70 73 78 74 71 75
REMARK SMILES IDX 72 76 76 77 79 78 73 79 74 80 77 81 75 82 54 83 55 84 63 85
REMARK SMILES IDX 56 86 57 87 61 88 64 89 58 90 59 91 62 92 60 93
REMARK H PARENT 10 16 84 46 52 57
REMARK Flexibility Score: inf
ROOT
ATOM      1  O   UNL A   1      35.730  22.742  25.265  1.00  0.00    -0.374 OA
ENDROOT
BRANCH   1   2
ATOM      2  C   UNL A   1      35.194  23.361  24.105  1.00  0.00     0.202 C 
BRANCH   2   3
ATOM      3  C   UNL A   1      33.773  22.995  23.670  1.00  0.00     0.261 C 
BRANCH   3   4
ATOM      4  O   UNL A   1      32.957  24.111  23.266  1.00  0.00    -0.460 OA
BRANCH   4   5
ATOM      5  C   UNL A   1      32.659  24.978  24.270  1.00  0.00     0.340 C 
ATOM      6  O   UNL A   1      32.406  24.678  25.428  1.00  0.00    -0.246 OA
BRANCH   5   7
ATOM      7  C   UNL A   1      32.858  26.385  23.864  1.00  0.00     0.083 A 
ATOM      8  C   UNL A   1      32.358  27.528  24.507  1.00  0.00     0.056 A 
ATOM      9  C   UNL A   1      32.564  28.780  23.887  1.00  0.00     0.027 A 
ATOM     10  C   UNL A   1      33.324  28.912  22.723  1.00  0.00     0.002 A 
ATOM     11  C   UNL A   1      33.623  26.533  22.685  1.00  0.00     0.018 A 
ATOM     12  C   UNL A   1      33.868  27.786  22.127  1.00  0.00     0.001 A 
BRANCH   8  13
ATOM     13  N   UNL A   1      31.697  27.626  25.746  1.00  0.00    -0.321 N 
ATOM     14  C   UNL A   1      31.947  28.251  26.940  1.00  0.00     0.257 C 
ATOM     15  O   UNL A   1      31.209  27.982  27.891  1.00  0.00    -0.269 OA
ATOM     16  H   UNL A   1      30.850  27.124  25.757  1.00  0.00     0.170 HD
BRANCH  14  17
ATOM     17  C   UNL A   1      32.998  29.261  27.157  1.00  0.00     0.061 A 
ATOM     18  C   UNL A   1      31.552  31.341  26.769  1.00  0.00     0.067 C 
ATOM     19  C   UNL A   1      32.845  30.646  27.067  1.00  0.00     0.050 A 
ATOM     20  N   UNL A   1      33.894  31.495  27.256  1.00  0.00    -0.261 NA
ATOM     21  C   UNL A   1      35.095  30.970  27.585  1.00  0.00     0.111 A 
ATOM     22  C   UNL A   1      34.239  28.763  27.587  1.00  0.00     0.017 A 
ATOM     23  C   UNL A   1      35.309  29.623  27.788  1.00  0.00     0.021 A 
ENDBRANCH  14  17
ENDBRANCH   8  13
ENDBRANCH   5   7
ENDBRANCH   4   5
ENDBRANCH   3   4
ENDBRANCH   2   3
ENDBRANCH   1   2
BRANCH   1  24
ATOM     24  C   UNL A   1      35.872  21.327  25.273  1.00  0.00     0.202 C 
BRANCH  24  25
ATOM     25  C   UNL A   1      37.271  20.736  25.047  1.00  0.00     0.261 C 
BRANCH  25  26
ATOM     26  O   UNL A   1      38.339  21.699  25.107  1.00  0.00    -0.460 OA
BRANCH  26  27
ATOM     27  C   UNL A   1      39.283  21.432  26.040  1.00  0.00     0.338 C 
ATOM     28  O   UNL A   1      39.838  20.361  26.252  1.00  0.00    -0.246 OA
BRANCH  27  29
ATOM     29  C   UNL A   1      39.689  22.653  26.752  1.00  0.00     0.060 A 
ATOM     30  C   UNL A   1      39.129  23.872  26.345  1.00  0.00     0.016 A 
ATOM     31  C   UNL A   1      40.747  22.625  27.661  1.00  0.00     0.016 A 
ATOM     32  C   UNL A   1      39.667  25.072  26.800  1.00  0.00     0.010 A 
ATOM     33  C   UNL A   1      41.293  23.832  28.109  1.00  0.00     0.010 A 
ATOM     34  C   UNL A   1      40.787  25.059  27.642  1.00  0.00    -0.014 A 
BRANCH  34  35
ATOM     35  C   UNL A   1      41.539  26.315  27.880  1.00  0.00     0.031 A 
ATOM     36  C   UNL A   1      40.883  27.416  28.668  1.00  0.00     0.074 A 
ATOM     37  C   UNL A   1      42.794  26.465  27.429  1.00  0.00     0.049 A 
ATOM     38  N   UNL A   1      41.329  28.611  28.963  1.00  0.00    -0.248 NA
ATOM     39  C   UNL A   1      39.539  27.129  29.195  1.00  0.00     0.031 C 
ATOM     40  C   UNL A   1      43.553  25.456  26.696  1.00  0.00     0.029 A 
ATOM     41  N   UNL A   1      43.648  27.535  27.519  1.00  0.00    -0.354 N 
ATOM     42  C   UNL A   1      40.321  29.221  29.697  1.00  0.00     0.074 A 
ATOM     43  C   UNL A   1      39.229  28.274  29.786  1.00  0.00     0.031 C 
ATOM     44  C   UNL A   1      44.764  25.957  26.397  1.00  0.00     0.029 A 
ATOM     45  C   UNL A   1      44.849  27.331  26.889  1.00  0.00     0.049 A 
ATOM     46  H   UNL A   1      43.421  28.369  27.992  1.00  0.00     0.167 HD
ATOM     47  C   UNL A   1      40.309  30.456  30.254  1.00  0.00     0.037 A 
ATOM     48  C   UNL A   1      45.890  28.169  26.713  1.00  0.00     0.037 A 
ATOM     49  C   UNL A   1      41.394  31.395  30.168  1.00  0.00     0.049 A 
ATOM     50  C   UNL A   1      45.823  29.564  27.276  1.00  0.00     0.074 A 
ATOM     51  C   UNL A   1      41.485  32.665  30.712  1.00  0.00     0.029 A 
ATOM     52  N   UNL A   1      42.580  31.168  29.484  1.00  0.00    -0.354 N 
ATOM     53  N   UNL A   1      44.873  30.130  27.980  1.00  0.00    -0.248 NA
ATOM     54  C   UNL A   1      46.976  30.438  27.014  1.00  0.00     0.031 C 
ATOM     55  C   UNL A   1      42.707  33.223  30.319  1.00  0.00     0.029 A 
ATOM     56  C   UNL A   1      43.396  32.283  29.569  1.00  0.00     0.049 A 
ATOM     57  H   UNL A   1      42.805  30.336  29.007  1.00  0.00     0.167 HD
ATOM     58  C   UNL A   1      45.321  31.412  28.267  1.00  0.00     0.074 A 
ATOM     59  C   UNL A   1      46.633  31.540  27.666  1.00  0.00     0.031 C 
ATOM     60  C   UNL A   1      44.702  32.394  28.970  1.00  0.00     0.037 A 
BRANCH  47  61
ATOM     61  C   UNL A   1      39.061  30.869  30.979  1.00  0.00     0.064 A 
ATOM     62  C   UNL A   1      38.901  30.649  32.355  1.00  0.00     0.173 A 
ATOM     63  C   UNL A   1      38.016  31.498  30.288  1.00  0.00     0.173 A 
ATOM     64  F   UNL A   1      39.865  30.038  33.059  1.00  0.00    -0.203 F 
ATOM     65  C   UNL A   1      37.726  31.018  33.007  1.00  0.00     0.198 A 
ATOM     66  C   UNL A   1      36.853  31.889  30.946  1.00  0.00     0.198 A 
ATOM     67  F   UNL A   1      38.120  31.735  28.971  1.00  0.00    -0.203 F 
ATOM     68  F   UNL A   1      37.572  30.753  34.312  1.00  0.00    -0.200 F 
ATOM     69  C   UNL A   1      36.705  31.641  32.303  1.00  0.00     0.200 A 
ATOM     70  F   UNL A   1      35.873  32.500  30.267  1.00  0.00    -0.200 F 
ATOM     71  F   UNL A   1      35.574  31.993  32.930  1.00  0.00    -0.200 F 
ENDBRANCH  47  61
BRANCH  48  72
ATOM     72  C   UNL A   1      47.085  27.705  25.966  1.00  0.00     0.064 A 
ATOM     73  C   UNL A   1      48.205  27.204  26.641  1.00  0.00     0.173 A 
ATOM     74  C   UNL A   1      47.131  27.749  24.565  1.00  0.00     0.173 A 
ATOM     75  F   UNL A   1      48.218  27.169  27.983  1.00  0.00    -0.203 F 
ATOM     76  C   UNL A   1      49.329  26.767  25.943  1.00  0.00     0.198 A 
ATOM     77  C   UNL A   1      48.245  27.291  23.868  1.00  0.00     0.198 A 
ATOM     78  F   UNL A   1      46.086  28.229  23.875  1.00  0.00    -0.203 F 
ATOM     79  F   UNL A   1      50.400  26.322  26.615  1.00  0.00    -0.200 F 
ATOM     80  C   UNL A   1      49.345  26.803  24.558  1.00  0.00     0.200 A 
ATOM     81  F   UNL A   1      48.255  27.322  22.528  1.00  0.00    -0.200 F 
ATOM     82  F   UNL A   1      50.423  26.376  23.887  1.00  0.00    -0.200 F 
ENDBRANCH  48  72
BRANCH  60  83
ATOM     83  C   UNL A   1      45.449  33.682  29.158  1.00  0.00     0.064 A 
ATOM     84  C   UNL A   1      46.318  33.877  30.240  1.00  0.00     0.173 A 
ATOM     85  C   UNL A   1      45.327  34.716  28.217  1.00  0.00     0.173 A 
ATOM     86  F   UNL A   1      46.458  32.924  31.174  1.00  0.00    -0.203 F 
ATOM     87  C   UNL A   1      47.025  35.068  30.383  1.00  0.00     0.198 A 
ATOM     88  C   UNL A   1      46.055  35.895  28.349  1.00  0.00     0.198 A 
ATOM     89  F   UNL A   1      44.512  34.576  27.160  1.00  0.00    -0.203 F 
ATOM     90  F   UNL A   1      47.823  35.249  31.446  1.00  0.00    -0.200 F 
ATOM     91  C   UNL A   1      46.899  36.073  29.435  1.00  0.00     0.200 A 
ATOM     92  F   UNL A   1      45.939  36.860  27.426  1.00  0.00    -0.200 F 
ATOM     93  F   UNL A   1      47.585  37.215  29.571  1.00  0.00    -0.200 F 
ENDBRANCH  60  83
ENDBRANCH  34  35
ENDBRANCH  27  29
ENDBRANCH  26  27
ENDBRANCH  25  26
ENDBRANCH  24  25
ENDBRANCH   1  24
TORSDOF 16
ENDMDL
