MODEL 1
REMARK VINA RESULT:     -11.0      0.000      0.000
REMARK SMILES CCc1cc(Nc2ccc(C(=O)OCCOCCOC(=O)c3ccc(-c4c5nc(c(-c6c(F)c(F)c(F)c(F)c6F)c6ccc([nH]6)c(-c6c(F)c(F)c(F)c(F)c6F)c6nc(c(-c7c(F)c(F)c(F)c(F)c7F)c7ccc4[nH]7)C=C6)C=C5)cc3)cc2)nc(C(C)C)n1
REMARK SMILES IDX 15 1 14 2 13 3 11 4 12 5 10 6 7 7 8 8 86 9 9 10 85 11 6 12
REMARK SMILES IDX 5 14 3 15 4 16 92 17 88 18 87 19 2 20 1 21 89 22 90 23 91 24
REMARK SMILES IDX 16 25 17 26 18 27 19 28 20 29 21 30 22 31 23 32 84 33 24 34
REMARK SMILES IDX 83 35 25 36 26 37 27 38 77 39 28 40 82 41 76 42 78 43 29 44
REMARK SMILES IDX 81 45 75 46 74 47 30 49 62 50 42 51 61 52 43 53 46 54 60 55
REMARK SMILES IDX 79 56 44 57 45 58 59 60 80 61 47 62 31 63 32 64 40 65 33 66
REMARK SMILES IDX 34 67 38 68 41 69 35 70 36 71 39 72 37 73 63 74 64 75 72 76
REMARK SMILES IDX 65 77 66 78 70 79 73 80 67 81 68 82 71 83 69 84 48 85 49 86
REMARK SMILES IDX 57 87 50 88 51 89 55 90 58 91 52 92 53 93 56 94 54 95
REMARK H PARENT 6 13 78 48 46 59
REMARK Flexibility Score: inf
ROOT
ATOM      1  C   UNL A   1      34.610  33.620  29.691  1.00  0.00     0.202 C 
ENDROOT
BRANCH   1   2
ATOM      2  C   UNL A   1      35.503  33.647  28.447  1.00  0.00     0.261 C 
BRANCH   2   3
ATOM      3  O   UNL A   1      35.050  32.707  27.462  1.00  0.00    -0.460 OA
BRANCH   3   4
ATOM      4  C   UNL A   1      35.468  31.434  27.661  1.00  0.00     0.338 C 
ATOM      5  O   UNL A   1      36.542  31.081  28.124  1.00  0.00    -0.246 OA
BRANCH   4   6
ATOM      6  C   UNL A   1      34.369  30.483  27.384  1.00  0.00     0.060 A 
ATOM      7  C   UNL A   1      32.410  28.598  26.685  1.00  0.00     0.040 A 
ATOM      8  C   UNL A   1      33.740  28.202  26.863  1.00  0.00     0.027 A 
ATOM      9  C   UNL A   1      32.065  29.937  26.926  1.00  0.00     0.027 A 
ATOM     10  C   UNL A   1      34.716  29.140  27.200  1.00  0.00     0.018 A 
ATOM     11  C   UNL A   1      33.034  30.879  27.287  1.00  0.00     0.018 A 
BRANCH   7  12
ATOM     12  N   UNL A   1      31.499  27.692  26.105  1.00  0.00    -0.340 N 
ATOM     13  H   UNL A   1      31.108  27.002  26.687  1.00  0.00     0.168 HD
BRANCH  12  14
ATOM     14  C   UNL A   1      31.103  27.703  24.749  1.00  0.00     0.134 A 
ATOM     15  C   UNL A   1      31.312  26.888  22.541  1.00  0.00     0.046 A 
ATOM     16  C   UNL A   1      31.691  26.813  23.870  1.00  0.00     0.071 A 
ATOM     17  N   UNL A   1      30.385  27.773  22.121  1.00  0.00    -0.238 NA
ATOM     18  C   UNL A   1      29.842  28.587  23.042  1.00  0.00     0.133 A 
ATOM     19  N   UNL A   1      30.169  28.575  24.340  1.00  0.00    -0.216 NA
BRANCH  15  20
ATOM     20  C   UNL A   1      31.904  26.024  21.455  1.00  0.00     0.053 C 
ATOM     21  C   UNL A   1      33.115  25.179  21.822  1.00  0.00     0.011 C 
ENDBRANCH  15  20
BRANCH  18  22
ATOM     22  C   UNL A   1      28.791  29.585  22.615  1.00  0.00     0.051 C 
ATOM     23  C   UNL A   1      27.384  29.068  22.908  1.00  0.00     0.016 C 
ATOM     24  C   UNL A   1      29.038  30.941  23.271  1.00  0.00     0.016 C 
ENDBRANCH  18  22
ENDBRANCH  12  14
ENDBRANCH   7  12
ENDBRANCH   4   6
ENDBRANCH   3   4
ENDBRANCH   2   3
ENDBRANCH   1   2
BRANCH   1  25
ATOM     25  O   UNL A   1      33.273  34.089  29.519  1.00  0.00    -0.374 OA
BRANCH  25  26
ATOM     26  C   UNL A   1      33.107  35.464  29.166  1.00  0.00     0.202 C 
BRANCH  26  27
ATOM     27  C   UNL A   1      32.713  36.414  30.303  1.00  0.00     0.261 C 
BRANCH  27  28
ATOM     28  O   UNL A   1      32.249  35.698  31.464  1.00  0.00    -0.460 OA
BRANCH  28  29
ATOM     29  C   UNL A   1      32.857  36.028  32.627  1.00  0.00     0.338 C 
ATOM     30  O   UNL A   1      32.435  36.767  33.505  1.00  0.00    -0.246 OA
BRANCH  29  31
ATOM     31  C   UNL A   1      34.069  35.208  32.796  1.00  0.00     0.060 A 
ATOM     32  C   UNL A   1      33.913  33.904  33.286  1.00  0.00     0.016 A 
ATOM     33  C   UNL A   1      35.339  35.715  32.518  1.00  0.00     0.016 A 
ATOM     34  C   UNL A   1      35.032  33.106  33.513  1.00  0.00     0.010 A 
ATOM     35  C   UNL A   1      36.462  34.916  32.761  1.00  0.00     0.010 A 
ATOM     36  C   UNL A   1      36.315  33.615  33.273  1.00  0.00    -0.014 A 
BRANCH  36  37
ATOM     37  C   UNL A   1      37.512  32.816  33.626  1.00  0.00     0.031 A 
ATOM     38  C   UNL A   1      38.246  33.105  34.903  1.00  0.00     0.074 A 
ATOM     39  C   UNL A   1      37.944  31.844  32.801  1.00  0.00     0.049 A 
ATOM     40  N   UNL A   1      39.358  32.587  35.357  1.00  0.00    -0.248 NA
ATOM     41  C   UNL A   1      37.647  34.117  35.785  1.00  0.00     0.031 C 
ATOM     42  C   UNL A   1      37.293  31.447  31.555  1.00  0.00     0.029 A 
ATOM     43  N   UNL A   1      39.045  31.028  32.884  1.00  0.00    -0.354 N 
ATOM     44  C   UNL A   1      39.596  33.210  36.574  1.00  0.00     0.074 A 
ATOM     45  C   UNL A   1      38.526  34.164  36.777  1.00  0.00     0.031 C 
ATOM     46  C   UNL A   1      38.018  30.474  30.977  1.00  0.00     0.029 A 
ATOM     47  C   UNL A   1      39.202  30.211  31.792  1.00  0.00     0.049 A 
ATOM     48  H   UNL A   1      39.661  31.029  33.651  1.00  0.00     0.167 HD
ATOM     49  C   UNL A   1      40.612  33.000  37.443  1.00  0.00     0.037 A 
ATOM     50  C   UNL A   1      40.207  29.374  31.471  1.00  0.00     0.037 A 
ATOM     51  C   UNL A   1      41.674  32.049  37.235  1.00  0.00     0.049 A 
ATOM     52  C   UNL A   1      41.377  29.230  32.409  1.00  0.00     0.074 A 
ATOM     53  C   UNL A   1      42.725  31.731  38.077  1.00  0.00     0.029 A 
ATOM     54  N   UNL A   1      41.828  31.276  36.094  1.00  0.00    -0.354 N 
ATOM     55  N   UNL A   1      41.577  29.793  33.575  1.00  0.00    -0.248 NA
ATOM     56  C   UNL A   1      42.466  28.339  31.981  1.00  0.00     0.031 C 
ATOM     57  C   UNL A   1      43.547  30.808  37.422  1.00  0.00     0.029 A 
ATOM     58  C   UNL A   1      42.981  30.513  36.191  1.00  0.00     0.049 A 
ATOM     59  H   UNL A   1      41.209  31.269  35.328  1.00  0.00     0.167 HD
ATOM     60  C   UNL A   1      42.802  29.317  34.026  1.00  0.00     0.074 A 
ATOM     61  C   UNL A   1      43.291  28.403  33.016  1.00  0.00     0.031 C 
ATOM     62  C   UNL A   1      43.462  29.615  35.173  1.00  0.00     0.037 A 
BRANCH  49  63
ATOM     63  C   UNL A   1      40.644  33.830  38.692  1.00  0.00     0.064 A 
ATOM     64  C   UNL A   1      39.943  33.454  39.848  1.00  0.00     0.173 A 
ATOM     65  C   UNL A   1      41.423  34.996  38.747  1.00  0.00     0.173 A 
ATOM     66  F   UNL A   1      39.176  32.353  39.843  1.00  0.00    -0.203 F 
ATOM     67  C   UNL A   1      40.005  34.224  41.005  1.00  0.00     0.198 A 
ATOM     68  C   UNL A   1      41.504  35.750  39.915  1.00  0.00     0.198 A 
ATOM     69  F   UNL A   1      42.116  35.397  37.671  1.00  0.00    -0.203 F 
ATOM     70  F   UNL A   1      39.296  33.866  42.085  1.00  0.00    -0.200 F 
ATOM     71  C   UNL A   1      40.790  35.368  41.040  1.00  0.00     0.200 A 
ATOM     72  F   UNL A   1      42.272  36.847  39.950  1.00  0.00    -0.200 F 
ATOM     73  F   UNL A   1      40.854  36.104  42.159  1.00  0.00    -0.200 F 
ENDBRANCH  49  63
BRANCH  50  74
ATOM     74  C   UNL A   1      40.170  28.632  30.183  1.00  0.00     0.064 A 
ATOM     75  C   UNL A   1      39.533  27.388  30.083  1.00  0.00     0.173 A 
ATOM     76  C   UNL A   1      40.782  29.147  29.030  1.00  0.00     0.173 A 
ATOM     77  F   UNL A   1      38.959  26.842  31.165  1.00  0.00    -0.203 F 
ATOM     78  C   UNL A   1      39.518  26.682  28.882  1.00  0.00     0.198 A 
ATOM     79  C   UNL A   1      40.743  28.454  27.823  1.00  0.00     0.198 A 
ATOM     80  F   UNL A   1      41.410  30.331  29.075  1.00  0.00    -0.203 F 
ATOM     81  F   UNL A   1      38.940  25.476  28.824  1.00  0.00    -0.200 F 
ATOM     82  C   UNL A   1      40.118  27.219  27.751  1.00  0.00     0.200 A 
ATOM     83  F   UNL A   1      41.314  28.980  26.731  1.00  0.00    -0.200 F 
ATOM     84  F   UNL A   1      40.099  26.541  26.595  1.00  0.00    -0.200 F 
ENDBRANCH  50  74
BRANCH  62  85
ATOM     85  C   UNL A   1      44.785  28.944  35.401  1.00  0.00     0.064 A 
ATOM     86  C   UNL A   1      44.870  27.691  36.026  1.00  0.00     0.173 A 
ATOM     87  C   UNL A   1      45.974  29.532  34.942  1.00  0.00     0.173 A 
ATOM     88  F   UNL A   1      43.765  27.095  36.497  1.00  0.00    -0.203 F 
ATOM     89  C   UNL A   1      46.099  27.059  36.196  1.00  0.00     0.198 A 
ATOM     90  C   UNL A   1      47.197  28.884  35.089  1.00  0.00     0.198 A 
ATOM     91  F   UNL A   1      45.946  30.726  34.333  1.00  0.00    -0.203 F 
ATOM     92  F   UNL A   1      46.161  25.879  36.830  1.00  0.00    -0.200 F 
ATOM     93  C   UNL A   1      47.260  27.651  35.721  1.00  0.00     0.200 A 
ATOM     94  F   UNL A   1      48.315  29.451  34.617  1.00  0.00    -0.200 F 
ATOM     95  F   UNL A   1      48.440  27.035  35.875  1.00  0.00    -0.200 F 
ENDBRANCH  62  85
ENDBRANCH  36  37
ENDBRANCH  29  31
ENDBRANCH  28  29
ENDBRANCH  27  28
ENDBRANCH  26  27
ENDBRANCH  25  26
ENDBRANCH   1  25
TORSDOF 18
ENDMDL
MODEL 2
REMARK VINA RESULT:     -10.9      3.104      8.414
REMARK SMILES CCc1cc(Nc2ccc(C(=O)OCCOCCOC(=O)c3ccc(-c4c5nc(c(-c6c(F)c(F)c(F)c(F)c6F)c6ccc([nH]6)c(-c6c(F)c(F)c(F)c(F)c6F)c6nc(c(-c7c(F)c(F)c(F)c(F)c7F)c7ccc4[nH]7)C=C6)C=C5)cc3)cc2)nc(C(C)C)n1
REMARK SMILES IDX 15 1 14 2 13 3 11 4 12 5 10 6 7 7 8 8 86 9 9 10 85 11 6 12
REMARK SMILES IDX 5 14 3 15 4 16 92 17 88 18 87 19 2 20 1 21 89 22 90 23 91 24
REMARK SMILES IDX 16 25 17 26 18 27 19 28 20 29 21 30 22 31 23 32 84 33 24 34
REMARK SMILES IDX 83 35 25 36 26 37 27 38 77 39 28 40 82 41 76 42 78 43 29 44
REMARK SMILES IDX 81 45 75 46 74 47 30 49 62 50 42 51 61 52 43 53 46 54 60 55
REMARK SMILES IDX 79 56 44 57 45 58 59 60 80 61 47 62 31 63 32 64 40 65 33 66
REMARK SMILES IDX 34 67 38 68 41 69 35 70 36 71 39 72 37 73 63 74 64 75 72 76
REMARK SMILES IDX 65 77 66 78 70 79 73 80 67 81 68 82 71 83 69 84 48 85 49 86
REMARK SMILES IDX 57 87 50 88 51 89 55 90 58 91 52 92 53 93 56 94 54 95
REMARK H PARENT 6 13 78 48 46 59
REMARK Flexibility Score: inf
ROOT
ATOM      1  C   UNL A   1      32.411  29.770  25.612  1.00  0.00     0.202 C 
ENDROOT
BRANCH   1   2
ATOM      2  C   UNL A   1      31.276  29.271  24.713  1.00  0.00     0.261 C 
BRANCH   2   3
ATOM      3  O   UNL A   1      31.583  27.986  24.153  1.00  0.00    -0.460 OA
BRANCH   3   4
ATOM      4  C   UNL A   1      30.500  27.243  23.816  1.00  0.00     0.338 C 
ATOM      5  O   UNL A   1      29.600  27.567  23.056  1.00  0.00    -0.246 OA
BRANCH   4   6
ATOM      6  C   UNL A   1      30.616  25.881  24.379  1.00  0.00     0.060 A 
ATOM      7  C   UNL A   1      31.010  23.373  25.576  1.00  0.00     0.040 A 
ATOM      8  C   UNL A   1      30.885  24.521  26.366  1.00  0.00     0.027 A 
ATOM      9  C   UNL A   1      30.870  23.490  24.184  1.00  0.00     0.027 A 
ATOM     10  C   UNL A   1      30.700  25.769  25.771  1.00  0.00     0.018 A 
ATOM     11  C   UNL A   1      30.661  24.735  23.582  1.00  0.00     0.018 A 
BRANCH   7  12
ATOM     12  N   UNL A   1      31.444  22.173  26.177  1.00  0.00    -0.340 N 
ATOM     13  H   UNL A   1      31.031  21.916  27.032  1.00  0.00     0.168 HD
BRANCH  12  14
ATOM     14  C   UNL A   1      32.427  21.312  25.641  1.00  0.00     0.134 A 
ATOM     15  C   UNL A   1      34.664  20.887  25.012  1.00  0.00     0.046 A 
ATOM     16  C   UNL A   1      33.740  21.740  25.587  1.00  0.00     0.071 A 
ATOM     17  N   UNL A   1      34.308  19.672  24.545  1.00  0.00    -0.238 NA
ATOM     18  C   UNL A   1      33.016  19.319  24.657  1.00  0.00     0.133 A 
ATOM     19  N   UNL A   1      32.069  20.099  25.193  1.00  0.00    -0.216 NA
BRANCH  15  20
ATOM     20  C   UNL A   1      36.121  21.234  24.830  1.00  0.00     0.053 C 
ATOM     21  C   UNL A   1      36.442  22.493  24.037  1.00  0.00     0.011 C 
ENDBRANCH  15  20
BRANCH  18  22
ATOM     22  C   UNL A   1      32.577  17.963  24.157  1.00  0.00     0.051 C 
ATOM     23  C   UNL A   1      33.528  17.432  23.087  1.00  0.00     0.016 C 
ATOM     24  C   UNL A   1      32.435  16.981  25.317  1.00  0.00     0.016 C 
ENDBRANCH  18  22
ENDBRANCH  12  14
ENDBRANCH   7  12
ENDBRANCH   4   6
ENDBRANCH   3   4
ENDBRANCH   2   3
ENDBRANCH   1   2
BRANCH   1  25
ATOM     25  O   UNL A   1      32.021  30.467  26.795  1.00  0.00    -0.374 OA
BRANCH  25  26
ATOM     26  C   UNL A   1      31.765  31.867  26.669  1.00  0.00     0.202 C 
BRANCH  26  27
ATOM     27  C   UNL A   1      32.797  32.806  27.306  1.00  0.00     0.261 C 
BRANCH  27  28
ATOM     28  O   UNL A   1      32.200  33.665  28.296  1.00  0.00    -0.460 OA
BRANCH  28  29
ATOM     29  C   UNL A   1      32.950  34.729  28.665  1.00  0.00     0.338 C 
ATOM     30  O   UNL A   1      32.673  35.914  28.549  1.00  0.00    -0.246 OA
BRANCH  29  31
ATOM     31  C   UNL A   1      34.123  34.261  29.425  1.00  0.00     0.060 A 
ATOM     32  C   UNL A   1      35.386  34.413  28.835  1.00  0.00     0.016 A 
ATOM     33  C   UNL A   1      33.991  33.653  30.674  1.00  0.00     0.016 A 
ATOM     34  C   UNL A   1      36.522  33.941  29.490  1.00  0.00     0.010 A 
ATOM     35  C   UNL A   1      35.131  33.167  31.321  1.00  0.00     0.010 A 
ATOM     36  C   UNL A   1      36.399  33.295  30.727  1.00  0.00    -0.014 A 
BRANCH  36  37
ATOM     37  C   UNL A   1      37.586  32.685  31.370  1.00  0.00     0.031 A 
ATOM     38  C   UNL A   1      38.297  31.552  30.689  1.00  0.00     0.074 A 
ATOM     39  C   UNL A   1      38.018  33.138  32.562  1.00  0.00     0.049 A 
ATOM     40  N   UNL A   1      39.297  30.823  31.116  1.00  0.00    -0.248 NA
ATOM     41  C   UNL A   1      37.814  31.189  29.349  1.00  0.00     0.031 C 
ATOM     42  C   UNL A   1      37.434  34.256  33.299  1.00  0.00     0.029 A 
ATOM     43  N   UNL A   1      39.039  32.698  33.366  1.00  0.00    -0.354 N 
ATOM     44  C   UNL A   1      39.561  29.913  30.101  1.00  0.00     0.074 A 
ATOM     45  C   UNL A   1      38.600  30.164  29.048  1.00  0.00     0.031 C 
ATOM     46  C   UNL A   1      38.094  34.402  34.460  1.00  0.00     0.029 A 
ATOM     47  C   UNL A   1      39.118  33.365  34.563  1.00  0.00     0.049 A 
ATOM     48  H   UNL A   1      39.655  31.974  33.110  1.00  0.00     0.167 HD
ATOM     49  C   UNL A   1      40.521  28.961  30.054  1.00  0.00     0.037 A 
ATOM     50  C   UNL A   1      39.903  33.139  35.634  1.00  0.00     0.037 A 
ATOM     51  C   UNL A   1      41.474  28.716  31.106  1.00  0.00     0.049 A 
ATOM     52  C   UNL A   1      40.898  32.009  35.596  1.00  0.00     0.074 A 
ATOM     53  C   UNL A   1      42.514  27.803  31.134  1.00  0.00     0.029 A 
ATOM     54  N   UNL A   1      41.491  29.378  32.325  1.00  0.00    -0.354 N 
ATOM     55  N   UNL A   1      41.169  31.178  34.619  1.00  0.00    -0.248 NA
ATOM     56  C   UNL A   1      41.692  31.780  36.812  1.00  0.00     0.031 C 
ATOM     57  C   UNL A   1      43.123  27.872  32.391  1.00  0.00     0.029 A 
ATOM     58  C   UNL A   1      42.495  28.864  33.129  1.00  0.00     0.049 A 
ATOM     59  H   UNL A   1      40.879  30.107  32.581  1.00  0.00     0.167 HD
ATOM     60  C   UNL A   1      42.169  30.339  35.095  1.00  0.00     0.074 A 
ATOM     61  C   UNL A   1      42.472  30.775  36.442  1.00  0.00     0.031 C 
ATOM     62  C   UNL A   1      42.778  29.300  34.473  1.00  0.00     0.037 A 
BRANCH  49  63
ATOM     63  C   UNL A   1      40.578  28.090  28.834  1.00  0.00     0.064 A 
ATOM     64  C   UNL A   1      39.870  26.881  28.755  1.00  0.00     0.173 A 
ATOM     65  C   UNL A   1      41.317  28.492  27.711  1.00  0.00     0.173 A 
ATOM     66  F   UNL A   1      39.157  26.447  29.806  1.00  0.00    -0.203 F 
ATOM     67  C   UNL A   1      39.916  26.099  27.605  1.00  0.00     0.198 A 
ATOM     68  C   UNL A   1      41.339  27.720  26.552  1.00  0.00     0.198 A 
ATOM     69  F   UNL A   1      42.008  29.642  27.733  1.00  0.00    -0.203 F 
ATOM     70  F   UNL A   1      39.263  24.929  27.567  1.00  0.00    -0.200 F 
ATOM     71  C   UNL A   1      40.645  26.521  26.502  1.00  0.00     0.200 A 
ATOM     72  F   UNL A   1      42.034  28.136  25.485  1.00  0.00    -0.200 F 
ATOM     73  F   UNL A   1      40.681  25.770  25.393  1.00  0.00    -0.200 F 
ENDBRANCH  49  63
BRANCH  50  74
ATOM     74  C   UNL A   1      39.755  33.979  36.852  1.00  0.00     0.064 A 
ATOM     75  C   UNL A   1      38.926  33.580  37.909  1.00  0.00     0.173 A 
ATOM     76  C   UNL A   1      40.430  35.203  36.977  1.00  0.00     0.173 A 
ATOM     77  F   UNL A   1      38.238  32.432  37.824  1.00  0.00    -0.203 F 
ATOM     78  C   UNL A   1      38.769  34.379  39.040  1.00  0.00     0.198 A 
ATOM     79  C   UNL A   1      40.294  35.987  38.119  1.00  0.00     0.198 A 
ATOM     80  F   UNL A   1      41.230  35.632  35.990  1.00  0.00    -0.203 F 
ATOM     81  F   UNL A   1      37.938  33.995  40.018  1.00  0.00    -0.200 F 
ATOM     82  C   UNL A   1      39.458  35.578  39.147  1.00  0.00     0.200 A 
ATOM     83  F   UNL A   1      40.969  37.140  38.223  1.00  0.00    -0.200 F 
ATOM     84  F   UNL A   1      39.310  36.343  40.238  1.00  0.00    -0.200 F 
ENDBRANCH  50  74
BRANCH  62  85
ATOM     85  C   UNL A   1      43.837  28.562  35.239  1.00  0.00     0.064 A 
ATOM     86  C   UNL A   1      43.526  27.434  36.012  1.00  0.00     0.173 A 
ATOM     87  C   UNL A   1      45.183  28.950  35.155  1.00  0.00     0.173 A 
ATOM     88  F   UNL A   1      42.252  27.032  36.138  1.00  0.00    -0.203 F 
ATOM     89  C   UNL A   1      44.521  26.732  36.686  1.00  0.00     0.198 A 
ATOM     90  C   UNL A   1      46.179  28.230  35.808  1.00  0.00     0.198 A 
ATOM     91  F   UNL A   1      45.534  30.018  34.424  1.00  0.00    -0.203 F 
ATOM     92  F   UNL A   1      44.196  25.679  37.451  1.00  0.00    -0.200 F 
ATOM     93  C   UNL A   1      45.847  27.124  36.578  1.00  0.00     0.200 A 
ATOM     94  F   UNL A   1      47.460  28.602  35.689  1.00  0.00    -0.200 F 
ATOM     95  F   UNL A   1      46.805  26.440  37.217  1.00  0.00    -0.200 F 
ENDBRANCH  62  85
ENDBRANCH  36  37
ENDBRANCH  29  31
ENDBRANCH  28  29
ENDBRANCH  27  28
ENDBRANCH  26  27
ENDBRANCH  25  26
ENDBRANCH   1  25
TORSDOF 18
ENDMDL
MODEL 3
REMARK VINA RESULT:     -10.9      4.114      9.109
REMARK SMILES CCc1cc(Nc2ccc(C(=O)OCCOCCOC(=O)c3ccc(-c4c5nc(c(-c6c(F)c(F)c(F)c(F)c6F)c6ccc([nH]6)c(-c6c(F)c(F)c(F)c(F)c6F)c6nc(c(-c7c(F)c(F)c(F)c(F)c7F)c7ccc4[nH]7)C=C6)C=C5)cc3)cc2)nc(C(C)C)n1
REMARK SMILES IDX 15 1 14 2 13 3 11 4 12 5 10 6 7 7 8 8 86 9 9 10 85 11 6 12
REMARK SMILES IDX 5 14 3 15 4 16 92 17 88 18 87 19 2 20 1 21 89 22 90 23 91 24
REMARK SMILES IDX 16 25 17 26 18 27 19 28 20 29 21 30 22 31 23 32 84 33 24 34
REMARK SMILES IDX 83 35 25 36 26 37 27 38 77 39 28 40 82 41 76 42 78 43 29 44
REMARK SMILES IDX 81 45 75 46 74 47 30 49 62 50 42 51 61 52 43 53 46 54 60 55
REMARK SMILES IDX 79 56 44 57 45 58 59 60 80 61 47 62 31 63 32 64 40 65 33 66
REMARK SMILES IDX 34 67 38 68 41 69 35 70 36 71 39 72 37 73 63 74 64 75 72 76
REMARK SMILES IDX 65 77 66 78 70 79 73 80 67 81 68 82 71 83 69 84 48 85 49 86
REMARK SMILES IDX 57 87 50 88 51 89 55 90 58 91 52 92 53 93 56 94 54 95
REMARK H PARENT 6 13 78 48 46 59
REMARK Flexibility Score: inf
ROOT
ATOM      1  C   UNL A   1      39.301  21.105  25.865  1.00  0.00     0.202 C 
ENDROOT
BRANCH   1   2
ATOM      2  C   UNL A   1      38.071  22.012  25.759  1.00  0.00     0.261 C 
BRANCH   2   3
ATOM      3  O   UNL A   1      37.389  21.818  24.511  1.00  0.00    -0.460 OA
BRANCH   3   4
ATOM      4  C   UNL A   1      36.158  21.260  24.621  1.00  0.00     0.338 C 
ATOM      5  O   UNL A   1      35.899  20.135  25.022  1.00  0.00    -0.246 OA
BRANCH   4   6
ATOM      6  C   UNL A   1      35.111  22.263  24.328  1.00  0.00     0.060 A 
ATOM      7  C   UNL A   1      32.985  23.992  23.722  1.00  0.00     0.040 A 
ATOM      8  C   UNL A   1      32.795  22.919  24.600  1.00  0.00     0.027 A 
ATOM      9  C   UNL A   1      34.269  24.224  23.204  1.00  0.00     0.027 A 
ATOM     10  C   UNL A   1      33.849  22.054  24.893  1.00  0.00     0.018 A 
ATOM     11  C   UNL A   1      35.336  23.373  23.512  1.00  0.00     0.018 A 
BRANCH   7  12
ATOM     12  N   UNL A   1      31.859  24.695  23.248  1.00  0.00    -0.340 N 
ATOM     13  H   UNL A   1      31.271  24.236  22.606  1.00  0.00     0.168 HD
BRANCH  12  14
ATOM     14  C   UNL A   1      31.511  26.011  23.628  1.00  0.00     0.134 A 
ATOM     15  C   UNL A   1      30.344  28.025  23.225  1.00  0.00     0.046 A 
ATOM     16  C   UNL A   1      30.621  26.724  22.846  1.00  0.00     0.071 A 
ATOM     17  N   UNL A   1      30.895  28.571  24.328  1.00  0.00    -0.238 NA
ATOM     18  C   UNL A   1      31.731  27.804  25.049  1.00  0.00     0.133 A 
ATOM     19  N   UNL A   1      32.050  26.543  24.735  1.00  0.00    -0.216 NA
BRANCH  15  20
ATOM     20  C   UNL A   1      29.439  28.946  22.444  1.00  0.00     0.053 C 
ATOM     21  C   UNL A   1      29.200  30.335  23.017  1.00  0.00     0.011 C 
ENDBRANCH  15  20
BRANCH  18  22
ATOM     22  C   UNL A   1      32.361  28.374  26.298  1.00  0.00     0.051 C 
ATOM     23  C   UNL A   1      31.493  28.110  27.527  1.00  0.00     0.016 C 
ATOM     24  C   UNL A   1      33.776  27.833  26.484  1.00  0.00     0.016 C 
ENDBRANCH  18  22
ENDBRANCH  12  14
ENDBRANCH   7  12
ENDBRANCH   4   6
ENDBRANCH   3   4
ENDBRANCH   2   3
ENDBRANCH   1   2
BRANCH   1  25
ATOM     25  O   UNL A   1      40.492  21.712  26.365  1.00  0.00    -0.374 OA
BRANCH  25  26
ATOM     26  C   UNL A   1      41.720  21.018  26.136  1.00  0.00     0.202 C 
BRANCH  26  27
ATOM     27  C   UNL A   1      42.893  21.864  25.626  1.00  0.00     0.261 C 
BRANCH  27  28
ATOM     28  O   UNL A   1      42.451  23.132  25.105  1.00  0.00    -0.460 OA
BRANCH  28  29
ATOM     29  C   UNL A   1      43.319  24.157  25.269  1.00  0.00     0.338 C 
ATOM     30  O   UNL A   1      44.314  24.407  24.603  1.00  0.00    -0.246 OA
BRANCH  29  31
ATOM     31  C   UNL A   1      42.795  25.085  26.286  1.00  0.00     0.060 A 
ATOM     32  C   UNL A   1      43.392  26.349  26.387  1.00  0.00     0.016 A 
ATOM     33  C   UNL A   1      41.763  24.716  27.151  1.00  0.00     0.016 A 
ATOM     34  C   UNL A   1      42.968  27.245  27.368  1.00  0.00     0.010 A 
ATOM     35  C   UNL A   1      41.350  25.611  28.143  1.00  0.00     0.010 A 
ATOM     36  C   UNL A   1      41.959  26.872  28.265  1.00  0.00    -0.014 A 
BRANCH  36  37
ATOM     37  C   UNL A   1      41.587  27.771  29.383  1.00  0.00     0.031 A 
ATOM     38  C   UNL A   1      42.331  27.682  30.684  1.00  0.00     0.074 A 
ATOM     39  C   UNL A   1      40.583  28.655  29.236  1.00  0.00     0.049 A 
ATOM     40  N   UNL A   1      42.112  28.311  31.810  1.00  0.00    -0.248 NA
ATOM     41  C   UNL A   1      43.474  26.758  30.721  1.00  0.00     0.031 C 
ATOM     42  C   UNL A   1      39.815  28.859  28.010  1.00  0.00     0.029 A 
ATOM     43  N   UNL A   1      40.028  29.532  30.134  1.00  0.00    -0.354 N 
ATOM     44  C   UNL A   1      43.084  27.858  32.691  1.00  0.00     0.074 A 
ATOM     45  C   UNL A   1      43.880  26.881  31.978  1.00  0.00     0.031 C 
ATOM     46  C   UNL A   1      38.873  29.789  28.238  1.00  0.00     0.029 A 
ATOM     47  C   UNL A   1      38.947  30.214  29.634  1.00  0.00     0.049 A 
ATOM     48  H   UNL A   1      40.372  29.659  31.047  1.00  0.00     0.167 HD
ATOM     49  C   UNL A   1      43.295  28.228  33.976  1.00  0.00     0.037 A 
ATOM     50  C   UNL A   1      38.092  31.057  30.246  1.00  0.00     0.037 A 
ATOM     51  C   UNL A   1      42.499  29.200  34.681  1.00  0.00     0.049 A 
ATOM     52  C   UNL A   1      38.288  31.378  31.704  1.00  0.00     0.074 A 
ATOM     53  C   UNL A   1      42.659  29.676  35.970  1.00  0.00     0.029 A 
ATOM     54  N   UNL A   1      41.380  29.833  34.158  1.00  0.00    -0.354 N 
ATOM     55  N   UNL A   1      39.231  30.976  32.521  1.00  0.00    -0.248 NA
ATOM     56  C   UNL A   1      37.296  32.265  32.329  1.00  0.00     0.031 C 
ATOM     57  C   UNL A   1      41.605  30.552  36.248  1.00  0.00     0.029 A 
ATOM     58  C   UNL A   1      40.816  30.662  35.114  1.00  0.00     0.049 A 
ATOM     59  H   UNL A   1      41.039  29.712  33.242  1.00  0.00     0.167 HD
ATOM     60  C   UNL A   1      38.956  31.568  33.747  1.00  0.00     0.074 A 
ATOM     61  C   UNL A   1      37.768  32.374  33.562  1.00  0.00     0.031 C 
ATOM     62  C   UNL A   1      39.626  31.451  34.920  1.00  0.00     0.037 A 
BRANCH  49  63
ATOM     63  C   UNL A   1      44.415  27.563  34.718  1.00  0.00     0.064 A 
ATOM     64  C   UNL A   1      44.231  26.354  35.405  1.00  0.00     0.173 A 
ATOM     65  C   UNL A   1      45.703  28.120  34.704  1.00  0.00     0.173 A 
ATOM     66  F   UNL A   1      43.017  25.785  35.458  1.00  0.00    -0.203 F 
ATOM     67  C   UNL A   1      45.290  25.739  36.067  1.00  0.00     0.198 A 
ATOM     68  C   UNL A   1      46.766  27.488  35.345  1.00  0.00     0.198 A 
ATOM     69  F   UNL A   1      45.934  29.273  34.057  1.00  0.00    -0.203 F 
ATOM     70  F   UNL A   1      45.082  24.604  36.751  1.00  0.00    -0.200 F 
ATOM     71  C   UNL A   1      46.557  26.302  36.032  1.00  0.00     0.200 A 
ATOM     72  F   UNL A   1      47.991  28.028  35.298  1.00  0.00    -0.200 F 
ATOM     73  F   UNL A   1      47.577  25.704  36.663  1.00  0.00    -0.200 F 
ENDBRANCH  49  63
BRANCH  50  74
ATOM     74  C   UNL A   1      36.948  31.630  29.489  1.00  0.00     0.064 A 
ATOM     75  C   UNL A   1      36.933  32.980  29.114  1.00  0.00     0.173 A 
ATOM     76  C   UNL A   1      35.843  30.841  29.136  1.00  0.00     0.173 A 
ATOM     77  F   UNL A   1      37.954  33.780  29.453  1.00  0.00    -0.203 F 
ATOM     78  C   UNL A   1      35.850  33.523  28.425  1.00  0.00     0.198 A 
ATOM     79  C   UNL A   1      34.773  31.377  28.423  1.00  0.00     0.198 A 
ATOM     80  F   UNL A   1      35.806  29.545  29.477  1.00  0.00    -0.203 F 
ATOM     81  F   UNL A   1      35.840  34.826  28.116  1.00  0.00    -0.200 F 
ATOM     82  C   UNL A   1      34.774  32.719  28.074  1.00  0.00     0.200 A 
ATOM     83  F   UNL A   1      33.741  30.596  28.078  1.00  0.00    -0.200 F 
ATOM     84  F   UNL A   1      33.735  33.241  27.408  1.00  0.00    -0.200 F 
ENDBRANCH  50  74
BRANCH  62  85
ATOM     85  C   UNL A   1      39.093  32.214  36.098  1.00  0.00     0.064 A 
ATOM     86  C   UNL A   1      38.211  31.621  37.013  1.00  0.00     0.173 A 
ATOM     87  C   UNL A   1      39.511  33.530  36.345  1.00  0.00     0.173 A 
ATOM     88  F   UNL A   1      37.770  30.371  36.812  1.00  0.00    -0.203 F 
ATOM     89  C   UNL A   1      37.755  32.324  38.125  1.00  0.00     0.198 A 
ATOM     90  C   UNL A   1      39.074  34.221  37.472  1.00  0.00     0.198 A 
ATOM     91  F   UNL A   1      40.358  34.141  35.503  1.00  0.00    -0.203 F 
ATOM     92  F   UNL A   1      36.882  31.751  38.966  1.00  0.00    -0.200 F 
ATOM     93  C   UNL A   1      38.192  33.620  38.358  1.00  0.00     0.200 A 
ATOM     94  F   UNL A   1      39.510  35.467  37.703  1.00  0.00    -0.200 F 
ATOM     95  F   UNL A   1      37.762  34.291  39.435  1.00  0.00    -0.200 F 
ENDBRANCH  62  85
ENDBRANCH  36  37
ENDBRANCH  29  31
ENDBRANCH  28  29
ENDBRANCH  27  28
ENDBRANCH  26  27
ENDBRANCH  25  26
ENDBRANCH   1  25
TORSDOF 18
ENDMDL
