MODEL 1
REMARK VINA RESULT:     -11.8      0.000      0.000
REMARK SMILES CC(C)CN(C)c1cc2c(cc1Cl)C=C(C(=O)OCCOCCOC(=O)c1ccc(-c3c4nc(c(-c5c(F)c(F)c(F)c(F)c5F)c5ccc([nH]5)c(-c5c(F)c(F)c(F)c(F)c5F)c5nc(c(-c6c(F)c(F)c(F)c(F)c6F)c6ccc3[nH]6)C=C5)C=C4)cc1)[C@H](C(F)(F)F)O2
REMARK SMILES IDX 20 1 19 2 18 3 16 4 17 5 15 6 7 7 8 8 12 9 9 10 11 11 13 12
REMARK SMILES IDX 10 13 95 14 14 15 90 16 5 17 6 18 4 19 2 20 1 21 3 22 91 23
REMARK SMILES IDX 92 24 93 25 94 26 21 27 22 28 23 29 24 30 25 31 26 32 27 33
REMARK SMILES IDX 28 34 89 35 29 36 88 37 30 38 31 39 32 40 82 41 33 42 87 43
REMARK SMILES IDX 81 44 83 45 34 46 86 47 80 48 79 49 35 51 67 52 47 53 66 54
REMARK SMILES IDX 48 55 51 56 65 57 84 58 49 59 50 60 64 62 85 63 52 64 36 65
REMARK SMILES IDX 37 66 45 67 38 68 39 69 43 70 46 71 40 72 41 73 44 74 42 75
REMARK SMILES IDX 68 76 69 77 77 78 70 79 71 80 75 81 78 82 72 83 73 84 76 85
REMARK SMILES IDX 74 86 53 87 54 88 62 89 55 90 56 91 60 92 63 93 57 94 58 95
REMARK SMILES IDX 61 96 59 97
REMARK H PARENT 83 50 51 61
REMARK Flexibility Score: inf
ROOT
ATOM      1  C   UNL A   1      37.392  22.496  24.920  1.00  0.00     0.202 C 
ENDROOT
BRANCH   1   2
ATOM      2  C   UNL A   1      36.944  23.560  25.924  1.00  0.00     0.261 C 
BRANCH   2   3
ATOM      3  O   UNL A   1      35.967  24.451  25.362  1.00  0.00    -0.460 OA
BRANCH   3   4
ATOM      4  C   UNL A   1      34.691  24.090  25.604  1.00  0.00     0.338 C 
ATOM      5  O   UNL A   1      34.308  23.381  26.525  1.00  0.00    -0.246 OA
BRANCH   4   6
ATOM      6  C   UNL A   1      33.753  24.761  24.688  1.00  0.00     0.087 C 
ATOM      7  C   UNL A   1      30.391  28.313  23.528  1.00  0.00     0.059 A 
ATOM      8  C   UNL A   1      30.584  26.975  23.119  1.00  0.00     0.074 A 
ATOM      9  C   UNL A   1      31.367  28.862  24.388  1.00  0.00     0.065 A 
ATOM     10  C   UNL A   1      31.694  26.231  23.544  1.00  0.00     0.130 A 
ATOM     11  C   UNL A   1      32.540  28.171  24.689  1.00  0.00     0.034 A 
ATOM     12  Cl  UNL A   1      31.135  30.334  25.271  1.00  0.00    -0.082 Cl
ATOM     13  C   UNL A   1      32.692  26.851  24.283  1.00  0.00     0.019 A 
ATOM     14  O   UNL A   1      31.722  24.902  23.230  1.00  0.00    -0.475 OA
ATOM     15  C   UNL A   1      33.808  26.093  24.797  1.00  0.00     0.027 C 
ATOM     16  C   UNL A   1      32.708  24.032  23.883  1.00  0.00     0.316 C 
BRANCH   7  17
ATOM     17  N   UNL A   1      29.257  29.034  23.127  1.00  0.00    -0.373 N 
ATOM     18  C   UNL A   1      27.996  28.295  23.125  1.00  0.00     0.143 C 
BRANCH  17  19
ATOM     19  C   UNL A   1      29.413  30.076  22.085  1.00  0.00     0.119 C 
BRANCH  19  20
ATOM     20  C   UNL A   1      28.254  31.093  22.049  1.00  0.00     0.002 C 
ATOM     21  C   UNL A   1      28.414  32.185  23.113  1.00  0.00     0.009 C 
ATOM     22  C   UNL A   1      28.106  31.761  20.679  1.00  0.00     0.009 C 
ENDBRANCH  19  20
ENDBRANCH  17  19
ENDBRANCH   7  17
BRANCH  16  23
ATOM     23  C   UNL A   1      33.286  23.112  22.791  1.00  0.00     0.430 C 
ATOM     24  F   UNL A   1      32.919  21.821  22.965  1.00  0.00    -0.167 F 
ATOM     25  F   UNL A   1      32.907  23.491  21.549  1.00  0.00    -0.167 F 
ATOM     26  F   UNL A   1      34.643  23.141  22.789  1.00  0.00    -0.167 F 
ENDBRANCH  16  23
ENDBRANCH   4   6
ENDBRANCH   3   4
ENDBRANCH   2   3
ENDBRANCH   1   2
BRANCH   1  27
ATOM     27  O   UNL A   1      37.871  21.261  25.443  1.00  0.00    -0.374 OA
BRANCH  27  28
ATOM     28  C   UNL A   1      39.262  21.143  25.748  1.00  0.00     0.202 C 
BRANCH  28  29
ATOM     29  C   UNL A   1      39.782  19.796  26.268  1.00  0.00     0.261 C 
BRANCH  29  30
ATOM     30  O   UNL A   1      40.828  19.257  25.441  1.00  0.00    -0.460 OA
BRANCH  30  31
ATOM     31  C   UNL A   1      42.028  19.103  26.047  1.00  0.00     0.338 C 
ATOM     32  O   UNL A   1      42.656  18.065  26.199  1.00  0.00    -0.246 OA
BRANCH  31  33
ATOM     33  C   UNL A   1      42.607  20.431  26.319  1.00  0.00     0.060 A 
ATOM     34  C   UNL A   1      43.196  21.188  25.306  1.00  0.00     0.016 A 
ATOM     35  C   UNL A   1      42.516  20.934  27.624  1.00  0.00     0.016 A 
ATOM     36  C   UNL A   1      43.666  22.471  25.600  1.00  0.00     0.010 A 
ATOM     37  C   UNL A   1      42.990  22.213  27.915  1.00  0.00     0.010 A 
ATOM     38  C   UNL A   1      43.549  23.001  26.899  1.00  0.00    -0.014 A 
BRANCH  38  39
ATOM     39  C   UNL A   1      43.892  24.420  27.167  1.00  0.00     0.031 A 
ATOM     40  C   UNL A   1      45.284  24.940  26.980  1.00  0.00     0.074 A 
ATOM     41  C   UNL A   1      42.923  25.238  27.618  1.00  0.00     0.049 A 
ATOM     42  N   UNL A   1      45.734  26.161  27.128  1.00  0.00    -0.248 NA
ATOM     43  C   UNL A   1      46.310  23.965  26.583  1.00  0.00     0.031 C 
ATOM     44  C   UNL A   1      41.541  24.833  27.882  1.00  0.00     0.029 A 
ATOM     45  N   UNL A   1      42.945  26.575  27.929  1.00  0.00    -0.354 N 
ATOM     46  C   UNL A   1      47.086  26.109  26.825  1.00  0.00     0.074 A 
ATOM     47  C   UNL A   1      47.398  24.724  26.537  1.00  0.00     0.031 C 
ATOM     48  C   UNL A   1      40.841  25.904  28.284  1.00  0.00     0.029 A 
ATOM     49  C   UNL A   1      41.728  27.063  28.338  1.00  0.00     0.049 A 
ATOM     50  H   UNL A   1      43.755  27.130  27.865  1.00  0.00     0.167 HD
ATOM     51  C   UNL A   1      47.975  27.130  26.770  1.00  0.00     0.037 A 
ATOM     52  C   UNL A   1      41.366  28.305  28.712  1.00  0.00     0.037 A 
ATOM     53  C   UNL A   1      47.660  28.504  27.072  1.00  0.00     0.049 A 
ATOM     54  C   UNL A   1      42.386  29.410  28.688  1.00  0.00     0.074 A 
ATOM     55  C   UNL A   1      48.487  29.613  27.003  1.00  0.00     0.029 A 
ATOM     56  N   UNL A   1      46.425  28.959  27.513  1.00  0.00    -0.354 N 
ATOM     57  N   UNL A   1      43.642  29.366  28.317  1.00  0.00    -0.248 NA
ATOM     58  C   UNL A   1      41.937  30.738  29.127  1.00  0.00     0.031 C 
ATOM     59  C   UNL A   1      47.773  30.724  27.459  1.00  0.00     0.029 A 
ATOM     60  C   UNL A   1      46.480  30.324  27.753  1.00  0.00     0.049 A 
ATOM     61  H   UNL A   1      45.627  28.395  27.638  1.00  0.00     0.167 HD
ATOM     62  C   UNL A   1      44.128  30.659  28.458  1.00  0.00     0.074 A 
ATOM     63  C   UNL A   1      43.024  31.470  28.927  1.00  0.00     0.031 C 
ATOM     64  C   UNL A   1      45.379  31.128  28.222  1.00  0.00     0.037 A 
BRANCH  51  65
ATOM     65  C   UNL A   1      49.384  26.814  26.354  1.00  0.00     0.064 A 
ATOM     66  C   UNL A   1      49.787  26.914  25.014  1.00  0.00     0.173 A 
ATOM     67  C   UNL A   1      50.361  26.502  27.311  1.00  0.00     0.173 A 
ATOM     68  F   UNL A   1      48.892  27.206  24.058  1.00  0.00    -0.203 F 
ATOM     69  C   UNL A   1      51.113  26.698  24.645  1.00  0.00     0.198 A 
ATOM     70  C   UNL A   1      51.692  26.316  26.943  1.00  0.00     0.198 A 
ATOM     71  F   UNL A   1      50.033  26.404  28.607  1.00  0.00    -0.203 F 
ATOM     72  F   UNL A   1      51.468  26.768  23.355  1.00  0.00    -0.200 F 
ATOM     73  C   UNL A   1      52.066  26.410  25.611  1.00  0.00     0.200 A 
ATOM     74  F   UNL A   1      52.616  26.056  27.879  1.00  0.00    -0.200 F 
ATOM     75  F   UNL A   1      53.345  26.223  25.257  1.00  0.00    -0.200 F 
ENDBRANCH  51  65
BRANCH  52  76
ATOM     76  C   UNL A   1      39.958  28.570  29.105  1.00  0.00     0.064 A 
ATOM     77  C   UNL A   1      39.521  28.337  30.416  1.00  0.00     0.173 A 
ATOM     78  C   UNL A   1      39.028  29.084  28.188  1.00  0.00     0.173 A 
ATOM     79  F   UNL A   1      40.367  27.828  31.323  1.00  0.00    -0.203 F 
ATOM     80  C   UNL A   1      38.206  28.598  30.793  1.00  0.00     0.198 A 
ATOM     81  C   UNL A   1      37.722  29.375  28.575  1.00  0.00     0.198 A 
ATOM     82  F   UNL A   1      39.397  29.328  26.923  1.00  0.00    -0.203 F 
ATOM     83  F   UNL A   1      37.805  28.331  32.044  1.00  0.00    -0.200 F 
ATOM     84  C   UNL A   1      37.310  29.125  29.875  1.00  0.00     0.200 A 
ATOM     85  F   UNL A   1      36.864  29.900  27.690  1.00  0.00    -0.200 F 
ATOM     86  F   UNL A   1      36.049  29.390  30.242  1.00  0.00    -0.200 F 
ENDBRANCH  52  76
BRANCH  64  87
ATOM     87  C   UNL A   1      45.630  32.591  28.454  1.00  0.00     0.064 A 
ATOM     88  C   UNL A   1      45.410  33.542  27.447  1.00  0.00     0.173 A 
ATOM     89  C   UNL A   1      46.029  33.055  29.718  1.00  0.00     0.173 A 
ATOM     90  F   UNL A   1      45.041  33.152  26.218  1.00  0.00    -0.203 F 
ATOM     91  C   UNL A   1      45.594  34.902  27.693  1.00  0.00     0.198 A 
ATOM     92  C   UNL A   1      46.180  34.417  29.969  1.00  0.00     0.198 A 
ATOM     93  F   UNL A   1      46.247  32.189  30.719  1.00  0.00    -0.203 F 
ATOM     94  F   UNL A   1      45.416  35.789  26.704  1.00  0.00    -0.200 F 
ATOM     95  C   UNL A   1      45.967  35.338  28.955  1.00  0.00     0.200 A 
ATOM     96  F   UNL A   1      46.523  34.836  31.194  1.00  0.00    -0.200 F 
ATOM     97  F   UNL A   1      46.126  36.646  29.194  1.00  0.00    -0.200 F 
ENDBRANCH  64  87
ENDBRANCH  38  39
ENDBRANCH  31  33
ENDBRANCH  30  31
ENDBRANCH  29  30
ENDBRANCH  28  29
ENDBRANCH  27  28
ENDBRANCH   1  27
TORSDOF 18
ENDMDL
MODEL 2
REMARK VINA RESULT:     -11.8      6.011     10.499
REMARK SMILES CC(C)CN(C)c1cc2c(cc1Cl)C=C(C(=O)OCCOCCOC(=O)c1ccc(-c3c4nc(c(-c5c(F)c(F)c(F)c(F)c5F)c5ccc([nH]5)c(-c5c(F)c(F)c(F)c(F)c5F)c5nc(c(-c6c(F)c(F)c(F)c(F)c6F)c6ccc3[nH]6)C=C5)C=C4)cc1)[C@H](C(F)(F)F)O2
REMARK SMILES IDX 20 1 19 2 18 3 16 4 17 5 15 6 7 7 8 8 12 9 9 10 11 11 13 12
REMARK SMILES IDX 10 13 95 14 14 15 90 16 5 17 6 18 4 19 2 20 1 21 3 22 91 23
REMARK SMILES IDX 92 24 93 25 94 26 21 27 22 28 23 29 24 30 25 31 26 32 27 33
REMARK SMILES IDX 28 34 89 35 29 36 88 37 30 38 31 39 32 40 82 41 33 42 87 43
REMARK SMILES IDX 81 44 83 45 34 46 86 47 80 48 79 49 35 51 67 52 47 53 66 54
REMARK SMILES IDX 48 55 51 56 65 57 84 58 49 59 50 60 64 62 85 63 52 64 36 65
REMARK SMILES IDX 37 66 45 67 38 68 39 69 43 70 46 71 40 72 41 73 44 74 42 75
REMARK SMILES IDX 68 76 69 77 77 78 70 79 71 80 75 81 78 82 72 83 73 84 76 85
REMARK SMILES IDX 74 86 53 87 54 88 62 89 55 90 56 91 60 92 63 93 57 94 58 95
REMARK SMILES IDX 61 96 59 97
REMARK H PARENT 83 50 51 61
REMARK Flexibility Score: inf
ROOT
ATOM      1  C   UNL A   1      34.288  29.914  27.526  1.00  0.00     0.202 C 
ENDROOT
BRANCH   1   2
ATOM      2  C   UNL A   1      33.654  29.418  26.225  1.00  0.00     0.261 C 
BRANCH   2   3
ATOM      3  O   UNL A   1      34.071  28.083  25.899  1.00  0.00    -0.460 OA
BRANCH   3   4
ATOM      4  C   UNL A   1      33.647  27.654  24.694  1.00  0.00     0.338 C 
ATOM      5  O   UNL A   1      33.804  28.235  23.629  1.00  0.00    -0.246 OA
BRANCH   4   6
ATOM      6  C   UNL A   1      33.062  26.303  24.772  1.00  0.00     0.087 C 
ATOM      7  C   UNL A   1      33.280  21.297  24.381  1.00  0.00     0.059 A 
ATOM      8  C   UNL A   1      32.256  22.252  24.193  1.00  0.00     0.074 A 
ATOM      9  C   UNL A   1      34.517  21.779  24.863  1.00  0.00     0.065 A 
ATOM     10  C   UNL A   1      32.459  23.610  24.476  1.00  0.00     0.130 A 
ATOM     11  C   UNL A   1      34.668  23.100  25.281  1.00  0.00     0.034 A 
ATOM     12  Cl  UNL A   1      35.978  20.850  24.822  1.00  0.00    -0.082 Cl
ATOM     13  C   UNL A   1      33.647  24.017  25.068  1.00  0.00     0.019 A 
ATOM     14  O   UNL A   1      31.471  24.484  24.120  1.00  0.00    -0.475 OA
ATOM     15  C   UNL A   1      33.912  25.416  25.302  1.00  0.00     0.027 C 
ATOM     16  C   UNL A   1      31.750  25.925  24.136  1.00  0.00     0.316 C 
BRANCH   7  17
ATOM     17  N   UNL A   1      33.078  19.948  24.059  1.00  0.00    -0.373 N 
ATOM     18  C   UNL A   1      32.194  19.687  22.924  1.00  0.00     0.143 C 
BRANCH  17  19
ATOM     19  C   UNL A   1      33.052  18.954  25.158  1.00  0.00     0.119 C 
BRANCH  19  20
ATOM     20  C   UNL A   1      33.208  17.496  24.677  1.00  0.00     0.002 C 
ATOM     21  C   UNL A   1      34.643  17.186  24.237  1.00  0.00     0.009 C 
ATOM     22  C   UNL A   1      32.792  16.481  25.745  1.00  0.00     0.009 C 
ENDBRANCH  19  20
ENDBRANCH  17  19
ENDBRANCH   7  17
BRANCH  16  23
ATOM     23  C   UNL A   1      30.524  26.610  24.771  1.00  0.00     0.430 C 
ATOM     24  F   UNL A   1      30.375  27.885  24.343  1.00  0.00    -0.167 F 
ATOM     25  F   UNL A   1      29.375  25.945  24.514  1.00  0.00    -0.167 F 
ATOM     26  F   UNL A   1      30.630  26.656  26.124  1.00  0.00    -0.167 F 
ENDBRANCH  16  23
ENDBRANCH   4   6
ENDBRANCH   3   4
ENDBRANCH   2   3
ENDBRANCH   1   2
BRANCH   1  27
ATOM     27  O   UNL A   1      34.108  31.286  27.863  1.00  0.00    -0.374 OA
BRANCH  27  28
ATOM     28  C   UNL A   1      32.848  31.899  27.579  1.00  0.00     0.202 C 
BRANCH  28  29
ATOM     29  C   UNL A   1      32.827  33.394  27.237  1.00  0.00     0.261 C 
BRANCH  29  30
ATOM     30  O   UNL A   1      32.217  34.184  28.272  1.00  0.00    -0.460 OA
BRANCH  30  31
ATOM     31  C   UNL A   1      32.970  35.204  28.746  1.00  0.00     0.338 C 
ATOM     32  O   UNL A   1      32.704  36.398  28.721  1.00  0.00    -0.246 OA
BRANCH  31  33
ATOM     33  C   UNL A   1      34.096  34.656  29.522  1.00  0.00     0.060 A 
ATOM     34  C   UNL A   1      33.914  34.151  30.810  1.00  0.00     0.016 A 
ATOM     35  C   UNL A   1      35.358  34.617  28.913  1.00  0.00     0.016 A 
ATOM     36  C   UNL A   1      34.999  33.576  31.477  1.00  0.00     0.010 A 
ATOM     37  C   UNL A   1      36.440  34.047  29.583  1.00  0.00     0.010 A 
ATOM     38  C   UNL A   1      36.264  33.501  30.862  1.00  0.00    -0.014 A 
BRANCH  38  39
ATOM     39  C   UNL A   1      37.367  32.741  31.502  1.00  0.00     0.031 A 
ATOM     40  C   UNL A   1      38.000  31.561  30.830  1.00  0.00     0.074 A 
ATOM     41  C   UNL A   1      37.774  33.115  32.729  1.00  0.00     0.049 A 
ATOM     42  N   UNL A   1      39.000  30.820  31.237  1.00  0.00    -0.248 NA
ATOM     43  C   UNL A   1      37.434  31.150  29.537  1.00  0.00     0.031 C 
ATOM     44  C   UNL A   1      37.202  34.219  33.501  1.00  0.00     0.029 A 
ATOM     45  N   UNL A   1      38.763  32.617  33.540  1.00  0.00    -0.354 N 
ATOM     46  C   UNL A   1      39.199  29.870  30.247  1.00  0.00     0.074 A 
ATOM     47  C   UNL A   1      38.179  30.092  29.242  1.00  0.00     0.031 C 
ATOM     48  C   UNL A   1      37.868  34.335  34.658  1.00  0.00     0.029 A 
ATOM     49  C   UNL A   1      38.893  33.296  34.727  1.00  0.00     0.049 A 
ATOM     50  H   UNL A   1      39.324  31.847  33.296  1.00  0.00     0.167 HD
ATOM     51  C   UNL A   1      40.161  28.918  30.176  1.00  0.00     0.037 A 
ATOM     52  C   UNL A   1      39.742  33.106  35.755  1.00  0.00     0.037 A 
ATOM     53  C   UNL A   1      41.164  28.695  31.187  1.00  0.00     0.049 A 
ATOM     54  C   UNL A   1      40.769  32.011  35.670  1.00  0.00     0.074 A 
ATOM     55  C   UNL A   1      42.204  27.781  31.182  1.00  0.00     0.029 A 
ATOM     56  N   UNL A   1      41.248  29.381  32.391  1.00  0.00    -0.354 N 
ATOM     57  N   UNL A   1      41.003  31.172  34.690  1.00  0.00    -0.248 NA
ATOM     58  C   UNL A   1      41.654  31.838  36.830  1.00  0.00     0.031 C 
ATOM     59  C   UNL A   1      42.876  27.870  32.403  1.00  0.00     0.029 A 
ATOM     60  C   UNL A   1      42.299  28.886  33.148  1.00  0.00     0.049 A 
ATOM     61  H   UNL A   1      40.648  30.112  32.667  1.00  0.00     0.167 HD
ATOM     62  C   UNL A   1      42.072  30.388  35.105  1.00  0.00     0.074 A 
ATOM     63  C   UNL A   1      42.455  30.867  36.417  1.00  0.00     0.031 C 
ATOM     64  C   UNL A   1      42.676  29.363  34.455  1.00  0.00     0.037 A 
BRANCH  51  65
ATOM     65  C   UNL A   1      40.195  28.043  28.956  1.00  0.00     0.064 A 
ATOM     66  C   UNL A   1      40.934  28.405  27.820  1.00  0.00     0.173 A 
ATOM     67  C   UNL A   1      39.564  26.789  28.955  1.00  0.00     0.173 A 
ATOM     68  F   UNL A   1      41.554  29.594  27.767  1.00  0.00    -0.203 F 
ATOM     69  C   UNL A   1      41.027  27.552  26.722  1.00  0.00     0.198 A 
ATOM     70  C   UNL A   1      39.685  25.927  27.867  1.00  0.00     0.198 A 
ATOM     71  F   UNL A   1      38.854  26.388  30.019  1.00  0.00    -0.203 F 
ATOM     72  F   UNL A   1      41.713  27.935  25.636  1.00  0.00    -0.200 F 
ATOM     73  C   UNL A   1      40.412  26.310  26.751  1.00  0.00     0.200 A 
ATOM     74  F   UNL A   1      39.104  24.718  27.904  1.00  0.00    -0.200 F 
ATOM     75  F   UNL A   1      40.521  25.482  25.703  1.00  0.00    -0.200 F 
ENDBRANCH  51  65
BRANCH  52  76
ATOM     76  C   UNL A   1      39.676  34.006  36.935  1.00  0.00     0.064 A 
ATOM     77  C   UNL A   1      38.942  33.646  38.073  1.00  0.00     0.173 A 
ATOM     78  C   UNL A   1      40.364  35.229  36.961  1.00  0.00     0.173 A 
ATOM     79  F   UNL A   1      38.252  32.496  38.088  1.00  0.00    -0.203 F 
ATOM     80  C   UNL A   1      38.889  34.479  39.188  1.00  0.00     0.198 A 
ATOM     81  C   UNL A   1      40.337  36.046  38.089  1.00  0.00     0.198 A 
ATOM     82  F   UNL A   1      41.084  35.617  35.899  1.00  0.00    -0.203 F 
ATOM     83  F   UNL A   1      38.149  34.128  40.249  1.00  0.00    -0.200 F 
ATOM     84  C   UNL A   1      39.594  35.674  39.199  1.00  0.00     0.200 A 
ATOM     85  F   UNL A   1      41.032  37.191  38.102  1.00  0.00    -0.200 F 
ATOM     86  F   UNL A   1      39.555  36.468  40.278  1.00  0.00    -0.200 F 
ENDBRANCH  52  76
BRANCH  64  87
ATOM     87  C   UNL A   1      43.828  28.685  35.142  1.00  0.00     0.064 A 
ATOM     88  C   UNL A   1      45.143  29.153  35.003  1.00  0.00     0.173 A 
ATOM     89  C   UNL A   1      43.607  27.599  36.003  1.00  0.00     0.173 A 
ATOM     90  F   UNL A   1      45.412  30.179  34.182  1.00  0.00    -0.203 F 
ATOM     91  C   UNL A   1      46.195  28.549  35.689  1.00  0.00     0.198 A 
ATOM     92  C   UNL A   1      44.656  27.019  36.712  1.00  0.00     0.198 A 
ATOM     93  F   UNL A   1      42.367  27.115  36.178  1.00  0.00    -0.203 F 
ATOM     94  F   UNL A   1      47.449  28.989  35.509  1.00  0.00    -0.200 F 
ATOM     95  C   UNL A   1      45.949  27.491  36.550  1.00  0.00     0.200 A 
ATOM     96  F   UNL A   1      44.413  26.009  37.558  1.00  0.00    -0.200 F 
ATOM     97  F   UNL A   1      46.959  26.924  37.223  1.00  0.00    -0.200 F 
ENDBRANCH  64  87
ENDBRANCH  38  39
ENDBRANCH  31  33
ENDBRANCH  30  31
ENDBRANCH  29  30
ENDBRANCH  28  29
ENDBRANCH  27  28
ENDBRANCH   1  27
TORSDOF 18
ENDMDL
MODEL 3
REMARK VINA RESULT:     -11.4      3.017      4.570
REMARK SMILES CC(C)CN(C)c1cc2c(cc1Cl)C=C(C(=O)OCCOCCOC(=O)c1ccc(-c3c4nc(c(-c5c(F)c(F)c(F)c(F)c5F)c5ccc([nH]5)c(-c5c(F)c(F)c(F)c(F)c5F)c5nc(c(-c6c(F)c(F)c(F)c(F)c6F)c6ccc3[nH]6)C=C5)C=C4)cc1)[C@H](C(F)(F)F)O2
REMARK SMILES IDX 20 1 19 2 18 3 16 4 17 5 15 6 7 7 8 8 12 9 9 10 11 11 13 12
REMARK SMILES IDX 10 13 95 14 14 15 90 16 5 17 6 18 4 19 2 20 1 21 3 22 91 23
REMARK SMILES IDX 92 24 93 25 94 26 21 27 22 28 23 29 24 30 25 31 26 32 27 33
REMARK SMILES IDX 28 34 89 35 29 36 88 37 30 38 31 39 32 40 82 41 33 42 87 43
REMARK SMILES IDX 81 44 83 45 34 46 86 47 80 48 79 49 35 51 67 52 47 53 66 54
REMARK SMILES IDX 48 55 51 56 65 57 84 58 49 59 50 60 64 62 85 63 52 64 36 65
REMARK SMILES IDX 37 66 45 67 38 68 39 69 43 70 46 71 40 72 41 73 44 74 42 75
REMARK SMILES IDX 68 76 69 77 77 78 70 79 71 80 75 81 78 82 72 83 73 84 76 85
REMARK SMILES IDX 74 86 53 87 54 88 62 89 55 90 56 91 60 92 63 93 57 94 58 95
REMARK SMILES IDX 61 96 59 97
REMARK H PARENT 83 50 51 61
REMARK Flexibility Score: inf
ROOT
ATOM      1  C   UNL A   1      34.533  23.681  25.055  1.00  0.00     0.202 C 
ENDROOT
BRANCH   1   2
ATOM      2  C   UNL A   1      33.064  24.006  25.334  1.00  0.00     0.261 C 
BRANCH   2   3
ATOM      3  O   UNL A   1      32.722  25.339  24.925  1.00  0.00    -0.460 OA
BRANCH   3   4
ATOM      4  C   UNL A   1      32.002  26.026  25.835  1.00  0.00     0.338 C 
ATOM      5  O   UNL A   1      31.191  25.549  26.617  1.00  0.00    -0.246 OA
BRANCH   4   6
ATOM      6  C   UNL A   1      32.395  27.445  25.880  1.00  0.00     0.087 C 
ATOM      7  C   UNL A   1      34.659  31.402  27.998  1.00  0.00     0.059 A 
ATOM      8  C   UNL A   1      33.519  31.247  27.178  1.00  0.00     0.074 A 
ATOM      9  C   UNL A   1      35.423  30.241  28.249  1.00  0.00     0.065 A 
ATOM     10  C   UNL A   1      33.168  30.002  26.638  1.00  0.00     0.130 A 
ATOM     11  C   UNL A   1      35.155  29.040  27.594  1.00  0.00     0.034 A 
ATOM     12  Cl  UNL A   1      36.626  30.148  29.491  1.00  0.00    -0.082 Cl
ATOM     13  C   UNL A   1      34.017  28.917  26.807  1.00  0.00     0.019 A 
ATOM     14  O   UNL A   1      31.969  29.910  25.989  1.00  0.00    -0.475 OA
ATOM     15  C   UNL A   1      33.645  27.608  26.326  1.00  0.00     0.027 C 
ATOM     16  C   UNL A   1      31.433  28.584  25.657  1.00  0.00     0.316 C 
BRANCH   7  17
ATOM     17  N   UNL A   1      34.979  32.644  28.563  1.00  0.00    -0.373 N 
ATOM     18  C   UNL A   1      36.279  33.199  28.193  1.00  0.00     0.143 C 
BRANCH  17  19
ATOM     19  C   UNL A   1      34.498  32.944  29.932  1.00  0.00     0.119 C 
BRANCH  19  20
ATOM     20  C   UNL A   1      34.319  34.451  30.209  1.00  0.00     0.002 C 
ATOM     21  C   UNL A   1      33.189  35.059  29.371  1.00  0.00     0.009 C 
ATOM     22  C   UNL A   1      34.048  34.745  31.687  1.00  0.00     0.009 C 
ENDBRANCH  19  20
ENDBRANCH  17  19
ENDBRANCH   7  17
BRANCH  16  23
ATOM     23  C   UNL A   1      30.885  28.670  24.220  1.00  0.00     0.430 C 
ATOM     24  F   UNL A   1      30.049  29.721  24.055  1.00  0.00    -0.167 F 
ATOM     25  F   UNL A   1      31.872  28.773  23.301  1.00  0.00    -0.167 F 
ATOM     26  F   UNL A   1      30.187  27.553  23.890  1.00  0.00    -0.167 F 
ENDBRANCH  16  23
ENDBRANCH   4   6
ENDBRANCH   3   4
ENDBRANCH   2   3
ENDBRANCH   1   2
BRANCH   1  27
ATOM     27  O   UNL A   1      34.822  22.431  24.437  1.00  0.00    -0.374 OA
BRANCH  27  28
ATOM     28  C   UNL A   1      35.452  21.413  25.217  1.00  0.00     0.202 C 
BRANCH  28  29
ATOM     29  C   UNL A   1      36.969  21.224  25.079  1.00  0.00     0.261 C 
BRANCH  29  30
ATOM     30  O   UNL A   1      37.712  22.240  25.775  1.00  0.00    -0.460 OA
BRANCH  30  31
ATOM     31  C   UNL A   1      38.964  21.889  26.152  1.00  0.00     0.338 C 
ATOM     32  O   UNL A   1      39.559  20.855  25.883  1.00  0.00    -0.246 OA
BRANCH  31  33
ATOM     33  C   UNL A   1      39.627  23.051  26.770  1.00  0.00     0.060 A 
ATOM     34  C   UNL A   1      40.555  22.895  27.801  1.00  0.00     0.016 A 
ATOM     35  C   UNL A   1      39.330  24.325  26.266  1.00  0.00     0.016 A 
ATOM     36  C   UNL A   1      41.209  24.022  28.306  1.00  0.00     0.010 A 
ATOM     37  C   UNL A   1      39.981  25.448  26.774  1.00  0.00     0.010 A 
ATOM     38  C   UNL A   1      40.944  25.303  27.783  1.00  0.00    -0.014 A 
BRANCH  38  39
ATOM     39  C   UNL A   1      41.761  26.469  28.201  1.00  0.00     0.031 A 
ATOM     40  C   UNL A   1      43.170  26.651  27.725  1.00  0.00     0.074 A 
ATOM     41  C   UNL A   1      41.217  27.359  29.052  1.00  0.00     0.049 A 
ATOM     42  N   UNL A   1      43.998  27.637  27.964  1.00  0.00    -0.248 NA
ATOM     43  C   UNL A   1      43.729  25.587  26.880  1.00  0.00     0.031 C 
ATOM     44  C   UNL A   1      39.871  27.262  29.618  1.00  0.00     0.029 A 
ATOM     45  N   UNL A   1      41.722  28.518  29.587  1.00  0.00    -0.354 N 
ATOM     46  C   UNL A   1      45.167  27.327  27.285  1.00  0.00     0.074 A 
ATOM     47  C   UNL A   1      44.962  26.032  26.668  1.00  0.00     0.031 C 
ATOM     48  C   UNL A   1      39.645  28.332  30.394  1.00  0.00     0.029 A 
ATOM     49  C   UNL A   1      40.838  29.174  30.408  1.00  0.00     0.049 A 
ATOM     50  H   UNL A   1      42.630  28.848  29.400  1.00  0.00     0.167 HD
ATOM     51  C   UNL A   1      46.295  28.068  27.170  1.00  0.00     0.037 A 
ATOM     52  C   UNL A   1      40.971  30.326  31.094  1.00  0.00     0.037 A 
ATOM     53  C   UNL A   1      46.497  29.350  27.799  1.00  0.00     0.049 A 
ATOM     54  C   UNL A   1      42.253  31.104  30.986  1.00  0.00     0.074 A 
ATOM     55  C   UNL A   1      47.592  30.192  27.705  1.00  0.00     0.029 A 
ATOM     56  N   UNL A   1      45.592  29.971  28.649  1.00  0.00    -0.354 N 
ATOM     57  N   UNL A   1      43.320  30.843  30.272  1.00  0.00    -0.248 NA
ATOM     58  C   UNL A   1      42.347  32.341  31.773  1.00  0.00     0.031 C 
ATOM     59  C   UNL A   1      47.377  31.289  28.544  1.00  0.00     0.029 A 
ATOM     60  C   UNL A   1      46.120  31.166  29.113  1.00  0.00     0.049 A 
ATOM     61  H   UNL A   1      44.706  29.614  28.889  1.00  0.00     0.167 HD
ATOM     62  C   UNL A   1      44.203  31.889  30.507  1.00  0.00     0.074 A 
ATOM     63  C   UNL A   1      43.537  32.801  31.412  1.00  0.00     0.031 C 
ATOM     64  C   UNL A   1      45.454  32.071  30.016  1.00  0.00     0.037 A 
BRANCH  51  65
ATOM     65  C   UNL A   1      47.409  27.526  26.320  1.00  0.00     0.064 A 
ATOM     66  C   UNL A   1      47.447  27.757  24.937  1.00  0.00     0.173 A 
ATOM     67  C   UNL A   1      48.494  26.854  26.903  1.00  0.00     0.173 A 
ATOM     68  F   UNL A   1      46.433  28.391  24.328  1.00  0.00    -0.203 F 
ATOM     69  C   UNL A   1      48.523  27.321  24.166  1.00  0.00     0.198 A 
ATOM     70  C   UNL A   1      49.582  26.447  26.134  1.00  0.00     0.198 A 
ATOM     71  F   UNL A   1      48.514  26.617  28.222  1.00  0.00    -0.203 F 
ATOM     72  F   UNL A   1      48.522  27.526  22.841  1.00  0.00    -0.200 F 
ATOM     73  C   UNL A   1      49.594  26.677  24.766  1.00  0.00     0.200 A 
ATOM     74  F   UNL A   1      50.625  25.840  26.718  1.00  0.00    -0.200 F 
ATOM     75  F   UNL A   1      50.637  26.277  24.027  1.00  0.00    -0.200 F 
ENDBRANCH  51  65
BRANCH  52  76
ATOM     76  C   UNL A   1      39.836  30.826  31.913  1.00  0.00     0.064 A 
ATOM     77  C   UNL A   1      38.957  31.793  31.408  1.00  0.00     0.173 A 
ATOM     78  C   UNL A   1      39.593  30.330  33.203  1.00  0.00     0.173 A 
ATOM     79  F   UNL A   1      39.160  32.311  30.188  1.00  0.00    -0.203 F 
ATOM     80  C   UNL A   1      37.883  32.253  32.166  1.00  0.00     0.198 A 
ATOM     81  C   UNL A   1      38.500  30.767  33.947  1.00  0.00     0.198 A 
ATOM     82  F   UNL A   1      40.403  29.400  33.729  1.00  0.00    -0.203 F 
ATOM     83  F   UNL A   1      37.079  33.205  31.674  1.00  0.00    -0.200 F 
ATOM     84  C   UNL A   1      37.649  31.733  33.431  1.00  0.00     0.200 A 
ATOM     85  F   UNL A   1      38.268  30.251  35.161  1.00  0.00    -0.200 F 
ATOM     86  F   UNL A   1      36.607  32.166  34.153  1.00  0.00    -0.200 F 
ENDBRANCH  52  76
BRANCH  64  87
ATOM     87  C   UNL A   1      46.194  33.311  30.435  1.00  0.00     0.064 A 
ATOM     88  C   UNL A   1      46.082  34.510  29.715  1.00  0.00     0.173 A 
ATOM     89  C   UNL A   1      46.965  33.320  31.608  1.00  0.00     0.173 A 
ATOM     90  F   UNL A   1      45.369  34.553  28.580  1.00  0.00    -0.203 F 
ATOM     91  C   UNL A   1      46.730  35.667  30.146  1.00  0.00     0.198 A 
ATOM     92  C   UNL A   1      47.582  34.487  32.053  1.00  0.00     0.198 A 
ATOM     93  F   UNL A   1      47.099  32.203  32.339  1.00  0.00    -0.203 F 
ATOM     94  F   UNL A   1      46.641  36.790  29.419  1.00  0.00    -0.200 F 
ATOM     95  C   UNL A   1      47.468  35.657  31.318  1.00  0.00     0.200 A 
ATOM     96  F   UNL A   1      48.280  34.479  33.196  1.00  0.00    -0.200 F 
ATOM     97  F   UNL A   1      48.074  36.775  31.740  1.00  0.00    -0.200 F 
ENDBRANCH  64  87
ENDBRANCH  38  39
ENDBRANCH  31  33
ENDBRANCH  30  31
ENDBRANCH  29  30
ENDBRANCH  28  29
ENDBRANCH  27  28
ENDBRANCH   1  27
TORSDOF 18
ENDMDL
