MODEL 1
REMARK VINA RESULT:     -12.1      0.000      0.000
REMARK SMILES COc1cc(OC)c([C@H]2CC(=O)Nc3c(C(=O)OCCOCCOC(=O)c4ccc(-c5c6nc(c(-c7c(F)c(F)c(F)c(F)c7F)c7ccc([nH]7)c(-c7c(F)c(F)c(F)c(F)c7F)c7nc(c(-c8c(F)c(F)c(F)c(F)c8F)c8ccc5[nH]8)C=C7)C=C6)cc4)cn(-c4ccccc4)c32)cc1OC
REMARK SMILES IDX 21 1 20 2 19 3 18 4 16 5 17 6 15 7 9 8 10 9 98 10 11 11
REMARK SMILES IDX 14 12 91 13 12 14 13 15 90 16 8 18 3 19 4 20 100 21 5 22
REMARK SMILES IDX 99 23 2 24 1 25 101 26 102 27 6 28 7 29 92 30 93 31 97 32
REMARK SMILES IDX 94 33 96 34 95 35 22 36 23 37 24 38 25 39 26 40 27 41 28 42
REMARK SMILES IDX 89 43 29 44 88 45 30 46 31 47 32 48 82 49 33 50 87 51 81 52
REMARK SMILES IDX 83 53 34 54 86 55 80 56 79 57 35 59 67 60 47 61 66 62 48 63
REMARK SMILES IDX 51 64 65 65 84 66 49 67 50 68 64 70 85 71 52 72 36 73 37 74
REMARK SMILES IDX 45 75 38 76 39 77 43 78 46 79 40 80 41 81 44 82 42 83 68 84
REMARK SMILES IDX 69 85 77 86 70 87 71 88 75 89 78 90 72 91 73 92 76 93 74 94
REMARK SMILES IDX 53 95 54 96 62 97 55 98 56 99 60 100 63 101 57 102 58 103
REMARK SMILES IDX 61 104 59 105
REMARK H PARENT 13 17 83 58 51 69
REMARK Flexibility Score: inf
ROOT
ATOM      1  O   UNL A   1      41.250  21.526  26.313  1.00  0.00    -0.374 OA
ENDROOT
BRANCH   1   2
ATOM      2  C   UNL A   1      39.904  21.755  26.725  1.00  0.00     0.202 C 
BRANCH   2   3
ATOM      3  C   UNL A   1      39.042  22.718  25.902  1.00  0.00     0.261 C 
BRANCH   3   4
ATOM      4  O   UNL A   1      37.658  22.683  26.281  1.00  0.00    -0.460 OA
BRANCH   4   5
ATOM      5  C   UNL A   1      36.814  22.220  25.317  1.00  0.00     0.341 C 
ATOM      6  O   UNL A   1      36.947  21.145  24.730  1.00  0.00    -0.246 OA
BRANCH   5   7
ATOM      7  C   UNL A   1      35.638  23.055  25.152  1.00  0.00     0.102 A 
ATOM      8  C   UNL A   1      32.016  23.899  24.865  1.00  0.00     0.082 C 
ATOM      9  C   UNL A   1      31.540  22.539  24.334  1.00  0.00     0.115 C 
ATOM     10  C   UNL A   1      33.532  23.886  24.944  1.00  0.00     0.055 A 
ATOM     11  C   UNL A   1      32.287  21.360  24.939  1.00  0.00     0.225 C 
ATOM     12  C   UNL A   1      34.269  22.724  25.048  1.00  0.00     0.078 A 
ATOM     13  N   UNL A   1      34.417  24.949  25.038  1.00  0.00    -0.317 N 
ATOM     14  O   UNL A   1      31.735  20.284  25.160  1.00  0.00    -0.275 OA
ATOM     15  N   UNL A   1      33.642  21.502  25.115  1.00  0.00    -0.324 N 
ATOM     16  C   UNL A   1      35.694  24.435  25.021  1.00  0.00     0.109 A 
ATOM     17  H   UNL A   1      34.184  20.700  25.296  1.00  0.00     0.170 HD
BRANCH   8  18
ATOM     18  C   UNL A   1      31.348  25.032  24.093  1.00  0.00     0.008 A 
ATOM     19  C   UNL A   1      30.468  27.282  22.568  1.00  0.00     0.164 A 
ATOM     20  C   UNL A   1      30.155  27.143  23.925  1.00  0.00     0.097 A 
ATOM     21  C   UNL A   1      31.126  26.236  21.928  1.00  0.00     0.161 A 
ATOM     22  C   UNL A   1      30.558  26.030  24.688  1.00  0.00     0.126 A 
ATOM     23  C   UNL A   1      31.513  25.114  22.686  1.00  0.00     0.058 A 
BRANCH  19  24
ATOM     24  O   UNL A   1      30.151  28.503  22.047  1.00  0.00    -0.493 OA
ATOM     25  C   UNL A   1      30.099  29.595  22.955  1.00  0.00     0.278 C 
ENDBRANCH  19  24
BRANCH  21  26
ATOM     26  O   UNL A   1      31.417  26.129  20.596  1.00  0.00    -0.493 OA
ATOM     27  C   UNL A   1      32.603  25.426  20.249  1.00  0.00     0.278 C 
ENDBRANCH  21  26
BRANCH  22  28
ATOM     28  O   UNL A   1      29.970  26.018  25.922  1.00  0.00    -0.496 OA
ATOM     29  C   UNL A   1      29.134  24.942  26.307  1.00  0.00     0.278 C 
ENDBRANCH  22  28
ENDBRANCH   8  18
BRANCH  13  30
ATOM     30  C   UNL A   1      34.128  26.324  25.166  1.00  0.00     0.045 A 
ATOM     31  C   UNL A   1      33.775  26.841  26.414  1.00  0.00     0.026 A 
ATOM     32  C   UNL A   1      34.153  27.142  24.031  1.00  0.00     0.026 A 
ATOM     33  C   UNL A   1      33.387  28.175  26.518  1.00  0.00     0.002 A 
ATOM     34  C   UNL A   1      33.739  28.470  24.142  1.00  0.00     0.002 A 
ATOM     35  C   UNL A   1      33.346  28.981  25.380  1.00  0.00     0.000 A 
ENDBRANCH  13  30
ENDBRANCH   5   7
ENDBRANCH   4   5
ENDBRANCH   3   4
ENDBRANCH   2   3
ENDBRANCH   1   2
BRANCH   1  36
ATOM     36  C   UNL A   1      41.950  20.367  26.752  1.00  0.00     0.202 C 
BRANCH  36  37
ATOM     37  C   UNL A   1      42.696  19.534  25.724  1.00  0.00     0.261 C 
BRANCH  37  38
ATOM     38  O   UNL A   1      44.067  19.883  25.666  1.00  0.00    -0.460 OA
BRANCH  38  39
ATOM     39  C   UNL A   1      44.449  20.408  24.482  1.00  0.00     0.338 C 
ATOM     40  O   UNL A   1      44.658  19.811  23.435  1.00  0.00    -0.246 OA
BRANCH  39  41
ATOM     41  C   UNL A   1      44.775  21.818  24.697  1.00  0.00     0.060 A 
ATOM     42  C   UNL A   1      45.689  22.072  25.721  1.00  0.00     0.016 A 
ATOM     43  C   UNL A   1      43.899  22.797  24.205  1.00  0.00     0.016 A 
ATOM     44  C   UNL A   1      45.520  23.221  26.452  1.00  0.00     0.010 A 
ATOM     45  C   UNL A   1      43.709  23.924  24.956  1.00  0.00     0.010 A 
ATOM     46  C   UNL A   1      44.456  24.067  26.122  1.00  0.00    -0.014 A 
BRANCH  46  47
ATOM     47  C   UNL A   1      44.239  25.233  26.943  1.00  0.00     0.031 A 
ATOM     48  C   UNL A   1      45.304  26.231  26.718  1.00  0.00     0.074 A 
ATOM     49  C   UNL A   1      43.141  25.383  27.706  1.00  0.00     0.049 A 
ATOM     50  N   UNL A   1      46.250  26.561  27.533  1.00  0.00    -0.248 NA
ATOM     51  C   UNL A   1      45.492  26.733  25.344  1.00  0.00     0.031 C 
ATOM     52  C   UNL A   1      41.948  24.534  27.758  1.00  0.00     0.029 A 
ATOM     53  N   UNL A   1      42.823  26.406  28.545  1.00  0.00    -0.354 N 
ATOM     54  C   UNL A   1      47.006  27.499  26.840  1.00  0.00     0.074 A 
ATOM     55  C   UNL A   1      46.662  27.359  25.455  1.00  0.00     0.031 C 
ATOM     56  C   UNL A   1      40.956  25.195  28.402  1.00  0.00     0.029 A 
ATOM     57  C   UNL A   1      41.480  26.448  28.914  1.00  0.00     0.049 A 
ATOM     58  H   UNL A   1      43.486  27.060  28.864  1.00  0.00     0.167 HD
ATOM     59  C   UNL A   1      47.560  28.544  27.511  1.00  0.00     0.037 A 
ATOM     60  C   UNL A   1      40.866  27.499  29.519  1.00  0.00     0.037 A 
ATOM     61  C   UNL A   1      47.689  28.229  28.915  1.00  0.00     0.049 A 
ATOM     62  C   UNL A   1      41.935  28.346  30.113  1.00  0.00     0.074 A 
ATOM     63  C   UNL A   1      48.343  27.247  29.635  1.00  0.00     0.029 A 
ATOM     64  N   UNL A   1      46.752  28.756  29.769  1.00  0.00    -0.354 N 
ATOM     65  N   UNL A   1      42.677  27.971  31.117  1.00  0.00    -0.248 NA
ATOM     66  C   UNL A   1      42.500  29.395  29.275  1.00  0.00     0.031 C 
ATOM     67  C   UNL A   1      47.467  26.927  30.715  1.00  0.00     0.029 A 
ATOM     68  C   UNL A   1      46.365  27.780  30.647  1.00  0.00     0.049 A 
ATOM     69  H   UNL A   1      46.415  29.680  29.752  1.00  0.00     0.167 HD
ATOM     70  C   UNL A   1      43.956  28.399  30.789  1.00  0.00     0.074 A 
ATOM     71  C   UNL A   1      43.771  29.329  29.677  1.00  0.00     0.031 C 
ATOM     72  C   UNL A   1      45.053  27.729  31.247  1.00  0.00     0.037 A 
BRANCH  59  73
ATOM     73  C   UNL A   1      47.514  29.969  26.996  1.00  0.00     0.064 A 
ATOM     74  C   UNL A   1      48.677  30.754  27.115  1.00  0.00     0.173 A 
ATOM     75  C   UNL A   1      46.332  30.690  26.697  1.00  0.00     0.173 A 
ATOM     76  F   UNL A   1      49.858  30.184  27.399  1.00  0.00    -0.203 F 
ATOM     77  C   UNL A   1      48.638  32.149  27.056  1.00  0.00     0.198 A 
ATOM     78  C   UNL A   1      46.307  32.077  26.589  1.00  0.00     0.198 A 
ATOM     79  F   UNL A   1      45.130  30.117  26.599  1.00  0.00    -0.203 F 
ATOM     80  F   UNL A   1      49.745  32.853  27.320  1.00  0.00    -0.200 F 
ATOM     81  C   UNL A   1      47.451  32.810  26.806  1.00  0.00     0.200 A 
ATOM     82  F   UNL A   1      45.140  32.696  26.361  1.00  0.00    -0.200 F 
ATOM     83  F   UNL A   1      47.396  34.147  26.820  1.00  0.00    -0.200 F 
ENDBRANCH  59  73
BRANCH  60  84
ATOM     84  C   UNL A   1      39.489  28.014  29.311  1.00  0.00     0.064 A 
ATOM     85  C   UNL A   1      38.603  28.169  30.391  1.00  0.00     0.173 A 
ATOM     86  C   UNL A   1      39.115  28.637  28.104  1.00  0.00     0.173 A 
ATOM     87  F   UNL A   1      38.905  27.651  31.591  1.00  0.00    -0.203 F 
ATOM     88  C   UNL A   1      37.428  28.923  30.278  1.00  0.00     0.198 A 
ATOM     89  C   UNL A   1      37.940  29.384  27.991  1.00  0.00     0.198 A 
ATOM     90  F   UNL A   1      39.929  28.619  27.040  1.00  0.00    -0.203 F 
ATOM     91  F   UNL A   1      36.640  29.100  31.349  1.00  0.00    -0.200 F 
ATOM     92  C   UNL A   1      37.104  29.539  29.081  1.00  0.00     0.200 A 
ATOM     93  F   UNL A   1      37.659  30.008  26.839  1.00  0.00    -0.200 F 
ATOM     94  F   UNL A   1      36.013  30.311  28.988  1.00  0.00    -0.200 F 
ENDBRANCH  60  84
BRANCH  72  95
ATOM     95  C   UNL A   1      44.844  26.710  32.333  1.00  0.00     0.064 A 
ATOM     96  C   UNL A   1      44.732  27.017  33.701  1.00  0.00     0.173 A 
ATOM     97  C   UNL A   1      44.611  25.383  31.949  1.00  0.00     0.173 A 
ATOM     98  F   UNL A   1      44.848  28.277  34.137  1.00  0.00    -0.203 F 
ATOM     99  C   UNL A   1      44.439  26.027  34.640  1.00  0.00     0.198 A 
ATOM    100  C   UNL A   1      44.282  24.406  32.882  1.00  0.00     0.198 A 
ATOM    101  F   UNL A   1      44.655  25.044  30.651  1.00  0.00    -0.203 F 
ATOM    102  F   UNL A   1      44.348  26.340  35.941  1.00  0.00    -0.200 F 
ATOM    103  C   UNL A   1      44.206  24.725  34.229  1.00  0.00     0.200 A 
ATOM    104  F   UNL A   1      44.009  23.161  32.471  1.00  0.00    -0.200 F 
ATOM    105  F   UNL A   1      43.882  23.782  35.124  1.00  0.00    -0.200 F 
ENDBRANCH  72  95
ENDBRANCH  46  47
ENDBRANCH  39  41
ENDBRANCH  38  39
ENDBRANCH  37  38
ENDBRANCH  36  37
ENDBRANCH   1  36
TORSDOF 19
ENDMDL
MODEL 2
REMARK VINA RESULT:     -11.4      1.423      2.035
REMARK SMILES COc1cc(OC)c([C@H]2CC(=O)Nc3c(C(=O)OCCOCCOC(=O)c4ccc(-c5c6nc(c(-c7c(F)c(F)c(F)c(F)c7F)c7ccc([nH]7)c(-c7c(F)c(F)c(F)c(F)c7F)c7nc(c(-c8c(F)c(F)c(F)c(F)c8F)c8ccc5[nH]8)C=C7)C=C6)cc4)cn(-c4ccccc4)c32)cc1OC
REMARK SMILES IDX 21 1 20 2 19 3 18 4 16 5 17 6 15 7 9 8 10 9 98 10 11 11
REMARK SMILES IDX 14 12 91 13 12 14 13 15 90 16 8 18 3 19 4 20 100 21 5 22
REMARK SMILES IDX 99 23 2 24 1 25 101 26 102 27 6 28 7 29 92 30 93 31 97 32
REMARK SMILES IDX 94 33 96 34 95 35 22 36 23 37 24 38 25 39 26 40 27 41 28 42
REMARK SMILES IDX 89 43 29 44 88 45 30 46 31 47 32 48 82 49 33 50 87 51 81 52
REMARK SMILES IDX 83 53 34 54 86 55 80 56 79 57 35 59 67 60 47 61 66 62 48 63
REMARK SMILES IDX 51 64 65 65 84 66 49 67 50 68 64 70 85 71 52 72 36 73 37 74
REMARK SMILES IDX 45 75 38 76 39 77 43 78 46 79 40 80 41 81 44 82 42 83 68 84
REMARK SMILES IDX 69 85 77 86 70 87 71 88 75 89 78 90 72 91 73 92 76 93 74 94
REMARK SMILES IDX 53 95 54 96 62 97 55 98 56 99 60 100 63 101 57 102 58 103
REMARK SMILES IDX 61 104 59 105
REMARK H PARENT 13 17 83 58 51 69
REMARK Flexibility Score: inf
ROOT
ATOM      1  O   UNL A   1      39.991  22.059  25.869  1.00  0.00    -0.374 OA
ENDROOT
BRANCH   1   2
ATOM      2  C   UNL A   1      38.585  21.885  25.704  1.00  0.00     0.202 C 
BRANCH   2   3
ATOM      3  C   UNL A   1      37.740  23.102  25.314  1.00  0.00     0.261 C 
BRANCH   3   4
ATOM      4  O   UNL A   1      36.730  23.409  26.287  1.00  0.00    -0.460 OA
BRANCH   4   5
ATOM      5  C   UNL A   1      35.514  22.846  26.044  1.00  0.00     0.341 C 
ATOM      6  O   UNL A   1      35.238  21.663  26.248  1.00  0.00    -0.246 OA
BRANCH   5   7
ATOM      7  C   UNL A   1      34.510  23.822  25.661  1.00  0.00     0.102 A 
ATOM      8  C   UNL A   1      31.445  25.154  24.004  1.00  0.00     0.082 C 
ATOM      9  C   UNL A   1      31.400  24.152  22.842  1.00  0.00     0.115 C 
ATOM     10  C   UNL A   1      32.722  24.926  24.793  1.00  0.00     0.055 A 
ATOM     11  C   UNL A   1      31.842  22.750  23.237  1.00  0.00     0.225 C 
ATOM     12  C   UNL A   1      33.400  23.724  24.793  1.00  0.00     0.078 A 
ATOM     13  N   UNL A   1      33.359  25.763  25.695  1.00  0.00    -0.317 N 
ATOM     14  O   UNL A   1      31.339  21.745  22.738  1.00  0.00    -0.275 OA
ATOM     15  N   UNL A   1      32.919  22.650  24.083  1.00  0.00    -0.324 N 
ATOM     16  C   UNL A   1      34.515  25.137  26.105  1.00  0.00     0.109 A 
ATOM     17  H   UNL A   1      33.363  21.777  24.185  1.00  0.00     0.170 HD
BRANCH   8  18
ATOM     18  C   UNL A   1      31.157  26.564  23.498  1.00  0.00     0.008 A 
ATOM     19  C   UNL A   1      30.337  29.033  22.319  1.00  0.00     0.164 A 
ATOM     20  C   UNL A   1      31.636  28.536  22.161  1.00  0.00     0.097 A 
ATOM     21  C   UNL A   1      29.467  28.358  23.169  1.00  0.00     0.161 A 
ATOM     22  C   UNL A   1      32.067  27.334  22.753  1.00  0.00     0.126 A 
ATOM     23  C   UNL A   1      29.903  27.165  23.778  1.00  0.00     0.058 A 
BRANCH  19  24
ATOM     24  O   UNL A   1      30.054  30.109  21.527  1.00  0.00    -0.493 OA
ATOM     25  C   UNL A   1      28.681  30.396  21.301  1.00  0.00     0.278 C 
ENDBRANCH  19  24
BRANCH  21  26
ATOM     26  O   UNL A   1      28.209  28.741  23.544  1.00  0.00    -0.493 OA
ATOM     27  C   UNL A   1      27.195  27.744  23.512  1.00  0.00     0.278 C 
ENDBRANCH  21  26
BRANCH  22  28
ATOM     28  O   UNL A   1      33.417  27.158  22.627  1.00  0.00    -0.496 OA
ATOM     29  C   UNL A   1      34.235  28.208  22.143  1.00  0.00     0.278 C 
ENDBRANCH  22  28
ENDBRANCH   8  18
BRANCH  13  30
ATOM     30  C   UNL A   1      32.939  27.022  26.176  1.00  0.00     0.045 A 
ATOM     31  C   UNL A   1      33.702  28.157  25.894  1.00  0.00     0.026 A 
ATOM     32  C   UNL A   1      31.790  27.108  26.970  1.00  0.00     0.026 A 
ATOM     33  C   UNL A   1      33.344  29.380  26.458  1.00  0.00     0.002 A 
ATOM     34  C   UNL A   1      31.456  28.332  27.549  1.00  0.00     0.002 A 
ATOM     35  C   UNL A   1      32.238  29.462  27.303  1.00  0.00     0.000 A 
ENDBRANCH  13  30
ENDBRANCH   5   7
ENDBRANCH   4   5
ENDBRANCH   3   4
ENDBRANCH   2   3
ENDBRANCH   1   2
BRANCH   1  36
ATOM     36  C   UNL A   1      40.658  21.502  26.997  1.00  0.00     0.202 C 
BRANCH  36  37
ATOM     37  C   UNL A   1      41.936  20.713  26.770  1.00  0.00     0.261 C 
BRANCH  37  38
ATOM     38  O   UNL A   1      42.430  20.888  25.455  1.00  0.00    -0.460 OA
BRANCH  38  39
ATOM     39  C   UNL A   1      43.774  20.994  25.383  1.00  0.00     0.338 C 
ATOM     40  O   UNL A   1      44.594  20.087  25.378  1.00  0.00    -0.246 OA
BRANCH  39  41
ATOM     41  C   UNL A   1      44.123  22.409  25.511  1.00  0.00     0.060 A 
ATOM     42  C   UNL A   1      44.944  22.727  26.593  1.00  0.00     0.016 A 
ATOM     43  C   UNL A   1      43.328  23.363  24.859  1.00  0.00     0.016 A 
ATOM     44  C   UNL A   1      44.744  23.938  27.209  1.00  0.00     0.010 A 
ATOM     45  C   UNL A   1      43.104  24.555  25.494  1.00  0.00     0.010 A 
ATOM     46  C   UNL A   1      43.743  24.778  26.709  1.00  0.00    -0.014 A 
BRANCH  46  47
ATOM     47  C   UNL A   1      43.487  26.015  27.407  1.00  0.00     0.031 A 
ATOM     48  C   UNL A   1      44.496  27.031  27.048  1.00  0.00     0.074 A 
ATOM     49  C   UNL A   1      42.400  26.194  28.180  1.00  0.00     0.049 A 
ATOM     50  N   UNL A   1      45.443  27.490  27.796  1.00  0.00    -0.248 NA
ATOM     51  C   UNL A   1      44.628  27.390  25.623  1.00  0.00     0.031 C 
ATOM     52  C   UNL A   1      41.252  25.301  28.356  1.00  0.00     0.029 A 
ATOM     53  N   UNL A   1      42.051  27.286  28.914  1.00  0.00    -0.354 N 
ATOM     54  C   UNL A   1      46.135  28.383  26.987  1.00  0.00     0.074 A 
ATOM     55  C   UNL A   1      45.768  28.078  25.635  1.00  0.00     0.031 C 
ATOM     56  C   UNL A   1      40.244  25.981  28.953  1.00  0.00     0.029 A 
ATOM     57  C   UNL A   1      40.717  27.305  29.314  1.00  0.00     0.049 A 
ATOM     58  H   UNL A   1      42.688  28.001  29.143  1.00  0.00     0.167 HD
ATOM     59  C   UNL A   1      46.652  29.518  27.528  1.00  0.00     0.037 A 
ATOM     60  C   UNL A   1      40.065  28.384  29.819  1.00  0.00     0.037 A 
ATOM     61  C   UNL A   1      46.829  29.363  28.953  1.00  0.00     0.049 A 
ATOM     62  C   UNL A   1      41.104  29.340  30.290  1.00  0.00     0.074 A 
ATOM     63  C   UNL A   1      47.546  28.496  29.754  1.00  0.00     0.029 A 
ATOM     64  N   UNL A   1      45.886  29.935  29.771  1.00  0.00    -0.354 N 
ATOM     65  N   UNL A   1      41.886  29.111  31.308  1.00  0.00    -0.248 NA
ATOM     66  C   UNL A   1      41.597  30.317  29.330  1.00  0.00     0.031 C 
ATOM     67  C   UNL A   1      46.712  28.254  30.886  1.00  0.00     0.029 A 
ATOM     68  C   UNL A   1      45.567  29.042  30.758  1.00  0.00     0.049 A 
ATOM     69  H   UNL A   1      45.503  30.835  29.666  1.00  0.00     0.167 HD
ATOM     70  C   UNL A   1      43.134  29.560  30.900  1.00  0.00     0.074 A 
ATOM     71  C   UNL A   1      42.880  30.355  29.701  1.00  0.00     0.031 C 
ATOM     72  C   UNL A   1      44.273  28.994  31.397  1.00  0.00     0.037 A 
BRANCH  59  73
ATOM     73  C   UNL A   1      46.524  30.876  26.865  1.00  0.00     0.064 A 
ATOM     74  C   UNL A   1      47.667  31.697  26.812  1.00  0.00     0.173 A 
ATOM     75  C   UNL A   1      45.302  31.531  26.577  1.00  0.00     0.173 A 
ATOM     76  F   UNL A   1      48.883  31.191  27.067  1.00  0.00    -0.203 F 
ATOM     77  C   UNL A   1      47.579  33.075  26.603  1.00  0.00     0.198 A 
ATOM     78  C   UNL A   1      45.224  32.896  26.321  1.00  0.00     0.198 A 
ATOM     79  F   UNL A   1      44.115  30.922  26.631  1.00  0.00    -0.203 F 
ATOM     80  F   UNL A   1      48.680  33.831  26.707  1.00  0.00    -0.200 F 
ATOM     81  C   UNL A   1      46.357  33.676  26.371  1.00  0.00     0.200 A 
ATOM     82  F   UNL A   1      44.025  33.457  26.113  1.00  0.00    -0.200 F 
ATOM     83  F   UNL A   1      46.260  35.005  26.244  1.00  0.00    -0.200 F 
ENDBRANCH  59  73
BRANCH  60  84
ATOM     84  C   UNL A   1      38.660  28.809  29.596  1.00  0.00     0.064 A 
ATOM     85  C   UNL A   1      37.824  29.142  30.676  1.00  0.00     0.173 A 
ATOM     86  C   UNL A   1      38.201  29.178  28.317  1.00  0.00     0.173 A 
ATOM     87  F   UNL A   1      38.207  28.874  31.933  1.00  0.00    -0.203 F 
ATOM     88  C   UNL A   1      36.615  29.826  30.489  1.00  0.00     0.198 A 
ATOM     89  C   UNL A   1      36.994  29.855  28.130  1.00  0.00     0.198 A 
ATOM     90  F   UNL A   1      38.961  28.980  27.230  1.00  0.00    -0.203 F 
ATOM     91  F   UNL A   1      35.876  30.182  31.549  1.00  0.00    -0.200 F 
ATOM     92  C   UNL A   1      36.208  30.191  29.217  1.00  0.00     0.200 A 
ATOM     93  F   UNL A   1      36.631  30.238  26.898  1.00  0.00    -0.200 F 
ATOM     94  F   UNL A   1      35.083  30.898  29.041  1.00  0.00    -0.200 F 
ENDBRANCH  60  84
BRANCH  72  95
ATOM     95  C   UNL A   1      44.140  28.090  32.591  1.00  0.00     0.064 A 
ATOM     96  C   UNL A   1      43.973  28.538  33.913  1.00  0.00     0.173 A 
ATOM     97  C   UNL A   1      44.039  26.712  32.359  1.00  0.00     0.173 A 
ATOM     98  F   UNL A   1      43.962  29.845  34.203  1.00  0.00    -0.203 F 
ATOM     99  C   UNL A   1      43.756  27.637  34.957  1.00  0.00     0.198 A 
ATOM    100  C   UNL A   1      43.784  25.820  33.395  1.00  0.00     0.198 A 
ATOM    101  F   UNL A   1      44.140  26.234  31.108  1.00  0.00    -0.203 F 
ATOM    102  F   UNL A   1      43.611  28.085  36.213  1.00  0.00    -0.200 F 
ATOM    103  C   UNL A   1      43.653  26.281  34.696  1.00  0.00     0.200 A 
ATOM    104  F   UNL A   1      43.637  24.516  33.127  1.00  0.00    -0.200 F 
ATOM    105  F   UNL A   1      43.402  25.419  35.690  1.00  0.00    -0.200 F 
ENDBRANCH  72  95
ENDBRANCH  46  47
ENDBRANCH  39  41
ENDBRANCH  38  39
ENDBRANCH  37  38
ENDBRANCH  36  37
ENDBRANCH   1  36
TORSDOF 19
ENDMDL
MODEL 3
REMARK VINA RESULT:     -11.4      2.657      4.215
REMARK SMILES COc1cc(OC)c([C@H]2CC(=O)Nc3c(C(=O)OCCOCCOC(=O)c4ccc(-c5c6nc(c(-c7c(F)c(F)c(F)c(F)c7F)c7ccc([nH]7)c(-c7c(F)c(F)c(F)c(F)c7F)c7nc(c(-c8c(F)c(F)c(F)c(F)c8F)c8ccc5[nH]8)C=C7)C=C6)cc4)cn(-c4ccccc4)c32)cc1OC
REMARK SMILES IDX 21 1 20 2 19 3 18 4 16 5 17 6 15 7 9 8 10 9 98 10 11 11
REMARK SMILES IDX 14 12 91 13 12 14 13 15 90 16 8 18 3 19 4 20 100 21 5 22
REMARK SMILES IDX 99 23 2 24 1 25 101 26 102 27 6 28 7 29 92 30 93 31 97 32
REMARK SMILES IDX 94 33 96 34 95 35 22 36 23 37 24 38 25 39 26 40 27 41 28 42
REMARK SMILES IDX 89 43 29 44 88 45 30 46 31 47 32 48 82 49 33 50 87 51 81 52
REMARK SMILES IDX 83 53 34 54 86 55 80 56 79 57 35 59 67 60 47 61 66 62 48 63
REMARK SMILES IDX 51 64 65 65 84 66 49 67 50 68 64 70 85 71 52 72 36 73 37 74
REMARK SMILES IDX 45 75 38 76 39 77 43 78 46 79 40 80 41 81 44 82 42 83 68 84
REMARK SMILES IDX 69 85 77 86 70 87 71 88 75 89 78 90 72 91 73 92 76 93 74 94
REMARK SMILES IDX 53 95 54 96 62 97 55 98 56 99 60 100 63 101 57 102 58 103
REMARK SMILES IDX 61 104 59 105
REMARK H PARENT 13 17 83 58 51 69
REMARK Flexibility Score: inf
ROOT
ATOM      1  O   UNL A   1      35.650  21.587  24.835  1.00  0.00    -0.374 OA
ENDROOT
BRANCH   1   2
ATOM      2  C   UNL A   1      34.865  20.607  25.512  1.00  0.00     0.202 C 
BRANCH   2   3
ATOM      3  C   UNL A   1      33.981  19.676  24.676  1.00  0.00     0.261 C 
BRANCH   3   4
ATOM      4  O   UNL A   1      32.616  20.118  24.615  1.00  0.00    -0.460 OA
BRANCH   4   5
ATOM      5  C   UNL A   1      32.298  20.836  23.502  1.00  0.00     0.341 C 
ATOM      6  O   UNL A   1      32.066  20.347  22.397  1.00  0.00    -0.246 OA
BRANCH   5   7
ATOM      7  C   UNL A   1      32.105  22.248  23.782  1.00  0.00     0.102 A 
ATOM      8  C   UNL A   1      30.997  25.275  25.660  1.00  0.00     0.082 C 
ATOM      9  C   UNL A   1      29.837  24.619  26.421  1.00  0.00     0.115 C 
ATOM     10  C   UNL A   1      31.564  24.267  24.675  1.00  0.00     0.055 A 
ATOM     11  C   UNL A   1      30.124  23.184  26.839  1.00  0.00     0.225 C 
ATOM     12  C   UNL A   1      31.427  22.904  24.834  1.00  0.00     0.078 A 
ATOM     13  N   UNL A   1      32.368  24.479  23.566  1.00  0.00    -0.317 N 
ATOM     14  O   UNL A   1      29.692  22.714  27.891  1.00  0.00    -0.275 OA
ATOM     15  N   UNL A   1      30.781  22.388  25.933  1.00  0.00    -0.324 N 
ATOM     16  C   UNL A   1      32.570  23.261  22.957  1.00  0.00     0.109 A 
ATOM     17  H   UNL A   1      30.791  21.414  26.076  1.00  0.00     0.170 HD
BRANCH   8  18
ATOM     18  C   UNL A   1      30.576  26.640  25.127  1.00  0.00     0.008 A 
ATOM     19  C   UNL A   1      29.864  29.048  23.765  1.00  0.00     0.164 A 
ATOM     20  C   UNL A   1      30.929  29.001  24.672  1.00  0.00     0.097 A 
ATOM     21  C   UNL A   1      29.067  27.916  23.618  1.00  0.00     0.161 A 
ATOM     22  C   UNL A   1      31.281  27.831  25.371  1.00  0.00     0.126 A 
ATOM     23  C   UNL A   1      29.407  26.751  24.332  1.00  0.00     0.058 A 
BRANCH  19  24
ATOM     24  O   UNL A   1      29.791  30.211  23.053  1.00  0.00    -0.493 OA
ATOM     25  C   UNL A   1      29.946  30.113  21.644  1.00  0.00     0.278 C 
ENDBRANCH  19  24
BRANCH  21  26
ATOM     26  O   UNL A   1      27.923  27.797  22.878  1.00  0.00    -0.493 OA
ATOM     27  C   UNL A   1      26.807  28.578  23.284  1.00  0.00     0.278 C 
ENDBRANCH  21  26
BRANCH  22  28
ATOM     28  O   UNL A   1      32.214  28.077  26.340  1.00  0.00    -0.496 OA
ATOM     29  C   UNL A   1      31.828  28.645  27.579  1.00  0.00     0.278 C 
ENDBRANCH  22  28
ENDBRANCH   8  18
BRANCH  13  30
ATOM     30  C   UNL A   1      32.937  25.686  23.110  1.00  0.00     0.045 A 
ATOM     31  C   UNL A   1      33.913  26.323  23.882  1.00  0.00     0.026 A 
ATOM     32  C   UNL A   1      32.482  26.256  21.916  1.00  0.00     0.026 A 
ATOM     33  C   UNL A   1      34.396  27.567  23.484  1.00  0.00     0.002 A 
ATOM     34  C   UNL A   1      32.955  27.513  21.540  1.00  0.00     0.002 A 
ATOM     35  C   UNL A   1      33.900  28.172  22.329  1.00  0.00     0.000 A 
ENDBRANCH  13  30
ENDBRANCH   5   7
ENDBRANCH   4   5
ENDBRANCH   3   4
ENDBRANCH   2   3
ENDBRANCH   1   2
BRANCH   1  36
ATOM     36  C   UNL A   1      36.527  22.438  25.566  1.00  0.00     0.202 C 
BRANCH  36  37
ATOM     37  C   UNL A   1      37.971  22.007  25.751  1.00  0.00     0.261 C 
BRANCH  37  38
ATOM     38  O   UNL A   1      38.819  23.116  25.992  1.00  0.00    -0.460 OA
BRANCH  38  39
ATOM     39  C   UNL A   1      39.926  22.815  26.705  1.00  0.00     0.338 C 
ATOM     40  O   UNL A   1      40.179  21.766  27.280  1.00  0.00    -0.246 OA
BRANCH  39  41
ATOM     41  C   UNL A   1      40.713  24.039  26.854  1.00  0.00     0.060 A 
ATOM     42  C   UNL A   1      41.601  24.052  27.931  1.00  0.00     0.016 A 
ATOM     43  C   UNL A   1      40.265  25.212  26.229  1.00  0.00     0.016 A 
ATOM     44  C   UNL A   1      41.807  25.249  28.570  1.00  0.00     0.010 A 
ATOM     45  C   UNL A   1      40.443  26.398  26.888  1.00  0.00     0.010 A 
ATOM     46  C   UNL A   1      41.128  26.378  28.099  1.00  0.00    -0.014 A 
BRANCH  46  47
ATOM     47  C   UNL A   1      41.290  27.616  28.822  1.00  0.00     0.031 A 
ATOM     48  C   UNL A   1      42.531  28.299  28.407  1.00  0.00     0.074 A 
ATOM     49  C   UNL A   1      40.351  28.086  29.664  1.00  0.00     0.049 A 
ATOM     50  N   UNL A   1      43.613  28.440  29.097  1.00  0.00    -0.248 NA
ATOM     51  C   UNL A   1      42.679  28.641  26.980  1.00  0.00     0.031 C 
ATOM     52  C   UNL A   1      39.004  27.566  29.905  1.00  0.00     0.029 A 
ATOM     53  N   UNL A   1      40.384  29.212  30.427  1.00  0.00    -0.354 N 
ATOM     54  C   UNL A   1      44.490  29.111  28.253  1.00  0.00     0.074 A 
ATOM     55  C   UNL A   1      43.970  28.964  26.925  1.00  0.00     0.031 C 
ATOM     56  C   UNL A   1      38.278  28.496  30.571  1.00  0.00     0.029 A 
ATOM     57  C   UNL A   1      39.141  29.612  30.912  1.00  0.00     0.049 A 
ATOM     58  H   UNL A   1      41.216  29.701  30.621  1.00  0.00     0.167 HD
ATOM     59  C   UNL A   1      45.349  30.029  28.768  1.00  0.00     0.037 A 
ATOM     60  C   UNL A   1      38.867  30.822  31.468  1.00  0.00     0.037 A 
ATOM     61  C   UNL A   1      45.556  29.791  30.178  1.00  0.00     0.049 A 
ATOM     62  C   UNL A   1      40.168  31.416  31.879  1.00  0.00     0.074 A 
ATOM     63  C   UNL A   1      46.031  28.729  30.925  1.00  0.00     0.029 A 
ATOM     64  N   UNL A   1      44.874  30.592  31.060  1.00  0.00    -0.354 N 
ATOM     65  N   UNL A   1      40.906  30.940  32.842  1.00  0.00    -0.248 NA
ATOM     66  C   UNL A   1      40.871  32.231  30.897  1.00  0.00     0.031 C 
ATOM     67  C   UNL A   1      45.230  28.713  32.106  1.00  0.00     0.029 A 
ATOM     68  C   UNL A   1      44.364  29.806  32.058  1.00  0.00     0.049 A 
ATOM     69  H   UNL A   1      44.768  31.568  30.986  1.00  0.00     0.167 HD
ATOM     70  C   UNL A   1      42.205  31.013  32.360  1.00  0.00     0.074 A 
ATOM     71  C   UNL A   1      42.126  31.880  31.186  1.00  0.00     0.031 C 
ATOM     72  C   UNL A   1      43.153  30.125  32.778  1.00  0.00     0.037 A 
BRANCH  59  73
ATOM     73  C   UNL A   1      45.589  31.382  28.126  1.00  0.00     0.064 A 
ATOM     74  C   UNL A   1      44.467  32.154  27.771  1.00  0.00     0.173 A 
ATOM     75  C   UNL A   1      46.815  31.810  27.562  1.00  0.00     0.173 A 
ATOM     76  F   UNL A   1      43.249  31.845  28.242  1.00  0.00    -0.203 F 
ATOM     77  C   UNL A   1      44.548  33.192  26.839  1.00  0.00     0.198 A 
ATOM     78  C   UNL A   1      46.899  32.876  26.672  1.00  0.00     0.198 A 
ATOM     79  F   UNL A   1      47.971  31.168  27.748  1.00  0.00    -0.203 F 
ATOM     80  F   UNL A   1      43.428  33.798  26.426  1.00  0.00    -0.200 F 
ATOM     81  C   UNL A   1      45.761  33.543  26.280  1.00  0.00     0.200 A 
ATOM     82  F   UNL A   1      48.086  33.188  26.132  1.00  0.00    -0.200 F 
ATOM     83  F   UNL A   1      45.831  34.487  25.334  1.00  0.00    -0.200 F 
ENDBRANCH  59  73
BRANCH  60  84
ATOM     84  C   UNL A   1      37.640  31.647  31.338  1.00  0.00     0.064 A 
ATOM     85  C   UNL A   1      36.938  32.084  32.475  1.00  0.00     0.173 A 
ATOM     86  C   UNL A   1      37.299  32.266  30.119  1.00  0.00     0.173 A 
ATOM     87  F   UNL A   1      37.235  31.585  33.684  1.00  0.00    -0.203 F 
ATOM     88  C   UNL A   1      35.972  33.096  32.401  1.00  0.00     0.198 A 
ATOM     89  C   UNL A   1      36.332  33.271  30.045  1.00  0.00     0.198 A 
ATOM     90  F   UNL A   1      37.966  31.979  28.993  1.00  0.00    -0.203 F 
ATOM     91  F   UNL A   1      35.370  33.530  33.517  1.00  0.00    -0.200 F 
ATOM     92  C   UNL A   1      35.679  33.696  31.188  1.00  0.00     0.200 A 
ATOM     93  F   UNL A   1      36.087  33.870  28.872  1.00  0.00    -0.200 F 
ATOM     94  F   UNL A   1      34.801  34.706  31.124  1.00  0.00    -0.200 F 
ENDBRANCH  60  84
BRANCH  72  95
ATOM     95  C   UNL A   1      42.829  29.268  33.970  1.00  0.00     0.064 A 
ATOM     96  C   UNL A   1      42.118  28.056  33.909  1.00  0.00     0.173 A 
ATOM     97  C   UNL A   1      43.387  29.627  35.204  1.00  0.00     0.173 A 
ATOM     98  F   UNL A   1      41.635  27.597  32.747  1.00  0.00    -0.203 F 
ATOM     99  C   UNL A   1      41.942  27.266  35.045  1.00  0.00     0.198 A 
ATOM    100  C   UNL A   1      43.243  28.819  36.326  1.00  0.00     0.198 A 
ATOM    101  F   UNL A   1      44.118  30.748  35.308  1.00  0.00    -0.203 F 
ATOM    102  F   UNL A   1      41.249  26.120  34.967  1.00  0.00    -0.200 F 
ATOM    103  C   UNL A   1      42.512  27.643  36.250  1.00  0.00     0.200 A 
ATOM    104  F   UNL A   1      43.837  29.165  37.475  1.00  0.00    -0.200 F 
ATOM    105  F   UNL A   1      42.380  26.864  37.332  1.00  0.00    -0.200 F 
ENDBRANCH  72  95
ENDBRANCH  46  47
ENDBRANCH  39  41
ENDBRANCH  38  39
ENDBRANCH  37  38
ENDBRANCH  36  37
ENDBRANCH   1  36
TORSDOF 19
ENDMDL
