MODEL 1
REMARK VINA RESULT:     -11.8      0.000      0.000
REMARK SMILES CC(C)c1ccc(C(=O)NC[C@H]2CC[C@@H](C(=O)OCCOCCOC(=O)c3ccc(-c4c5nc(c(-c6c(F)c(F)c(F)c(F)c6F)c6ccc([nH]6)c(-c6c(F)c(F)c(F)c(F)c6F)c6nc(c(-c7c(F)c(F)c(F)c(F)c7F)c7ccc4[nH]7)C=C6)C=C5)cc3)O2)cc1
REMARK SMILES IDX 20 1 19 2 18 3 16 4 17 5 15 6 12 7 13 8 90 9 14 10 11 11
REMARK SMILES IDX 10 12 8 13 9 14 7 16 4 17 5 18 92 19 6 20 91 21 2 22 1 23
REMARK SMILES IDX 3 24 21 25 22 26 23 27 24 28 25 29 26 30 27 31 28 32 89 33
REMARK SMILES IDX 29 34 88 35 30 36 31 37 32 38 82 39 33 40 87 41 81 42 83 43
REMARK SMILES IDX 34 44 86 45 80 46 79 47 35 49 67 50 47 51 66 52 48 53 51 54
REMARK SMILES IDX 65 55 84 56 49 57 50 58 64 60 85 61 52 62 36 63 37 64 45 65
REMARK SMILES IDX 38 66 39 67 43 68 46 69 40 70 41 71 44 72 42 73 68 74 69 75
REMARK SMILES IDX 77 76 70 77 71 78 75 79 78 80 72 81 73 82 76 83 74 84 53 85
REMARK SMILES IDX 54 86 62 87 55 88 56 89 60 90 63 91 57 92 58 93 61 94 59 95
REMARK H PARENT 10 15 83 48 51 59
REMARK Flexibility Score: inf
ROOT
ATOM      1  C   UNL A   1      45.918  20.070  25.304  1.00  0.00     0.202 C 
ENDROOT
BRANCH   1   2
ATOM      2  C   UNL A   1      44.889  19.013  24.883  1.00  0.00     0.261 C 
BRANCH   2   3
ATOM      3  O   UNL A   1      44.133  18.459  25.976  1.00  0.00    -0.461 OA
BRANCH   3   4
ATOM      4  C   UNL A   1      42.839  18.891  26.008  1.00  0.00     0.335 C 
ATOM      5  O   UNL A   1      41.884  18.175  25.751  1.00  0.00    -0.249 OA
BRANCH   4   6
ATOM      6  C   UNL A   1      42.700  20.330  26.484  1.00  0.00     0.228 C 
ATOM      7  C   UNL A   1      40.891  21.807  26.135  1.00  0.00     0.138 C 
ATOM      8  C   UNL A   1      41.156  21.718  27.632  1.00  0.00     0.037 C 
ATOM      9  O   UNL A   1      41.970  21.099  25.507  1.00  0.00    -0.361 OA
ATOM     10  C   UNL A   1      41.889  20.407  27.768  1.00  0.00     0.047 C 
BRANCH   7  11
ATOM     11  C   UNL A   1      39.516  21.216  25.752  1.00  0.00     0.148 C 
BRANCH  11  12
ATOM     12  N   UNL A   1      38.478  22.224  25.558  1.00  0.00    -0.349 N 
ATOM     13  C   UNL A   1      37.123  22.248  25.347  1.00  0.00     0.251 C 
ATOM     14  O   UNL A   1      36.629  23.379  25.272  1.00  0.00    -0.269 OA
ATOM     15  H   UNL A   1      38.853  23.134  25.588  1.00  0.00     0.163 HD
BRANCH  13  16
ATOM     16  C   UNL A   1      36.210  21.074  25.179  1.00  0.00     0.039 A 
ATOM     17  C   UNL A   1      34.288  19.019  24.607  1.00  0.00    -0.045 A 
ATOM     18  C   UNL A   1      33.884  20.321  24.926  1.00  0.00     0.005 A 
ATOM     19  C   UNL A   1      35.655  18.749  24.698  1.00  0.00     0.005 A 
ATOM     20  C   UNL A   1      34.828  21.331  25.190  1.00  0.00     0.014 A 
ATOM     21  C   UNL A   1      36.592  19.754  24.999  1.00  0.00     0.014 A 
BRANCH  17  22
ATOM     22  C   UNL A   1      33.272  17.961  24.191  1.00  0.00     0.013 C 
ATOM     23  C   UNL A   1      33.845  17.006  23.131  1.00  0.00     0.012 C 
ATOM     24  C   UNL A   1      32.721  17.102  25.343  1.00  0.00     0.012 C 
ENDBRANCH  17  22
ENDBRANCH  13  16
ENDBRANCH  11  12
ENDBRANCH   7  11
ENDBRANCH   4   6
ENDBRANCH   3   4
ENDBRANCH   2   3
ENDBRANCH   1   2
BRANCH   1  25
ATOM     25  O   UNL A   1      46.481  20.905  24.298  1.00  0.00    -0.374 OA
BRANCH  25  26
ATOM     26  C   UNL A   1      46.200  22.302  24.360  1.00  0.00     0.202 C 
BRANCH  26  27
ATOM     27  C   UNL A   1      44.736  22.744  24.278  1.00  0.00     0.261 C 
BRANCH  27  28
ATOM     28  O   UNL A   1      44.340  23.500  25.435  1.00  0.00    -0.460 OA
BRANCH  28  29
ATOM     29  C   UNL A   1      44.679  24.810  25.395  1.00  0.00     0.338 C 
ATOM     30  O   UNL A   1      45.463  25.351  24.626  1.00  0.00    -0.246 OA
BRANCH  29  31
ATOM     31  C   UNL A   1      43.810  25.582  26.301  1.00  0.00     0.060 A 
ATOM     32  C   UNL A   1      44.037  26.963  26.387  1.00  0.00     0.016 A 
ATOM     33  C   UNL A   1      42.841  24.968  27.095  1.00  0.00     0.016 A 
ATOM     34  C   UNL A   1      43.334  27.729  27.311  1.00  0.00     0.010 A 
ATOM     35  C   UNL A   1      42.144  25.736  28.033  1.00  0.00     0.010 A 
ATOM     36  C   UNL A   1      42.418  27.110  28.171  1.00  0.00    -0.014 A 
BRANCH  36  37
ATOM     37  C   UNL A   1      41.882  27.870  29.324  1.00  0.00     0.031 A 
ATOM     38  C   UNL A   1      42.584  27.762  30.649  1.00  0.00     0.074 A 
ATOM     39  C   UNL A   1      40.811  28.670  29.184  1.00  0.00     0.049 A 
ATOM     40  N   UNL A   1      42.280  28.310  31.798  1.00  0.00    -0.248 NA
ATOM     41  C   UNL A   1      43.792  26.922  30.683  1.00  0.00     0.031 C 
ATOM     42  C   UNL A   1      40.076  28.883  27.939  1.00  0.00     0.029 A 
ATOM     43  N   UNL A   1      40.153  29.445  30.104  1.00  0.00    -0.354 N 
ATOM     44  C   UNL A   1      43.252  27.876  32.689  1.00  0.00     0.074 A 
ATOM     45  C   UNL A   1      44.140  26.998  31.957  1.00  0.00     0.031 C 
ATOM     46  C   UNL A   1      39.055  29.726  28.177  1.00  0.00     0.029 A 
ATOM     47  C   UNL A   1      39.051  30.084  29.594  1.00  0.00     0.049 A 
ATOM     48  H   UNL A   1      40.443  29.533  31.041  1.00  0.00     0.167 HD
ATOM     49  C   UNL A   1      43.394  28.188  33.999  1.00  0.00     0.037 A 
ATOM     50  C   UNL A   1      38.133  30.854  30.211  1.00  0.00     0.037 A 
ATOM     51  C   UNL A   1      42.512  29.066  34.720  1.00  0.00     0.049 A 
ATOM     52  C   UNL A   1      38.279  31.137  31.684  1.00  0.00     0.074 A 
ATOM     53  C   UNL A   1      42.584  29.465  36.042  1.00  0.00     0.029 A 
ATOM     54  N   UNL A   1      41.390  29.676  34.177  1.00  0.00    -0.354 N 
ATOM     55  N   UNL A   1      39.214  30.744  32.514  1.00  0.00    -0.248 NA
ATOM     56  C   UNL A   1      37.242  31.975  32.304  1.00  0.00     0.031 C 
ATOM     57  C   UNL A   1      41.477  30.277  36.313  1.00  0.00     0.029 A 
ATOM     58  C   UNL A   1      40.746  30.426  35.145  1.00  0.00     0.049 A 
ATOM     59  H   UNL A   1      41.097  29.586  33.241  1.00  0.00     0.167 HD
ATOM     60  C   UNL A   1      38.895  31.306  33.744  1.00  0.00     0.074 A 
ATOM     61  C   UNL A   1      37.686  32.078  33.549  1.00  0.00     0.031 C 
ATOM     62  C   UNL A   1      39.546  31.194  34.929  1.00  0.00     0.037 A 
BRANCH  49  63
ATOM     63  C   UNL A   1      44.532  27.554  34.743  1.00  0.00     0.064 A 
ATOM     64  C   UNL A   1      44.414  26.290  35.339  1.00  0.00     0.173 A 
ATOM     65  C   UNL A   1      45.771  28.207  34.830  1.00  0.00     0.173 A 
ATOM     66  F   UNL A   1      43.245  25.632  35.298  1.00  0.00    -0.203 F 
ATOM     67  C   UNL A   1      45.485  25.714  36.016  1.00  0.00     0.198 A 
ATOM     68  C   UNL A   1      46.850  27.616  35.482  1.00  0.00     0.198 A 
ATOM     69  F   UNL A   1      45.939  29.417  34.275  1.00  0.00    -0.203 F 
ATOM     70  F   UNL A   1      45.336  24.525  36.615  1.00  0.00    -0.200 F 
ATOM     71  C   UNL A   1      46.704  26.372  36.080  1.00  0.00     0.200 A 
ATOM     72  F   UNL A   1      48.029  28.250  35.535  1.00  0.00    -0.200 F 
ATOM     73  F   UNL A   1      47.738  25.814  36.725  1.00  0.00    -0.200 F 
ENDBRANCH  49  63
BRANCH  50  74
ATOM     74  C   UNL A   1      36.985  31.398  29.441  1.00  0.00     0.064 A 
ATOM     75  C   UNL A   1      36.937  32.748  29.068  1.00  0.00     0.173 A 
ATOM     76  C   UNL A   1      35.907  30.580  29.073  1.00  0.00     0.173 A 
ATOM     77  F   UNL A   1      37.933  33.575  29.419  1.00  0.00    -0.203 F 
ATOM     78  C   UNL A   1      35.846  33.264  28.370  1.00  0.00     0.198 A 
ATOM     79  C   UNL A   1      34.829  31.091  28.351  1.00  0.00     0.198 A 
ATOM     80  F   UNL A   1      35.903  29.282  29.408  1.00  0.00    -0.203 F 
ATOM     81  F   UNL A   1      35.805  34.567  28.064  1.00  0.00    -0.200 F 
ATOM     82  C   UNL A   1      34.797  32.433  28.007  1.00  0.00     0.200 A 
ATOM     83  F   UNL A   1      33.822  30.282  27.994  1.00  0.00    -0.200 F 
ATOM     84  F   UNL A   1      33.750  32.928  27.333  1.00  0.00    -0.200 F 
ENDBRANCH  50  74
BRANCH  62  85
ATOM     85  C   UNL A   1      38.985  31.949  36.099  1.00  0.00     0.064 A 
ATOM     86  C   UNL A   1      38.111  31.345  37.015  1.00  0.00     0.173 A 
ATOM     87  C   UNL A   1      39.364  33.279  36.332  1.00  0.00     0.173 A 
ATOM     88  F   UNL A   1      37.708  30.079  36.828  1.00  0.00    -0.203 F 
ATOM     89  C   UNL A   1      37.622  32.052  38.109  1.00  0.00     0.198 A 
ATOM     90  C   UNL A   1      38.896  33.975  37.443  1.00  0.00     0.198 A 
ATOM     91  F   UNL A   1      40.204  33.901  35.490  1.00  0.00    -0.203 F 
ATOM     92  F   UNL A   1      36.754  31.469  38.948  1.00  0.00    -0.200 F 
ATOM     93  C   UNL A   1      38.020  33.363  38.327  1.00  0.00     0.200 A 
ATOM     94  F   UNL A   1      39.293  35.236  37.659  1.00  0.00    -0.200 F 
ATOM     95  F   UNL A   1      37.554  34.039  39.386  1.00  0.00    -0.200 F 
ENDBRANCH  62  85
ENDBRANCH  36  37
ENDBRANCH  29  31
ENDBRANCH  28  29
ENDBRANCH  27  28
ENDBRANCH  26  27
ENDBRANCH  25  26
ENDBRANCH   1  25
TORSDOF 18
ENDMDL
MODEL 2
REMARK VINA RESULT:     -11.7      4.906     10.117
REMARK SMILES CC(C)c1ccc(C(=O)NC[C@H]2CC[C@@H](C(=O)OCCOCCOC(=O)c3ccc(-c4c5nc(c(-c6c(F)c(F)c(F)c(F)c6F)c6ccc([nH]6)c(-c6c(F)c(F)c(F)c(F)c6F)c6nc(c(-c7c(F)c(F)c(F)c(F)c7F)c7ccc4[nH]7)C=C6)C=C5)cc3)O2)cc1
REMARK SMILES IDX 20 1 19 2 18 3 16 4 17 5 15 6 12 7 13 8 90 9 14 10 11 11
REMARK SMILES IDX 10 12 8 13 9 14 7 16 4 17 5 18 92 19 6 20 91 21 2 22 1 23
REMARK SMILES IDX 3 24 21 25 22 26 23 27 24 28 25 29 26 30 27 31 28 32 89 33
REMARK SMILES IDX 29 34 88 35 30 36 31 37 32 38 82 39 33 40 87 41 81 42 83 43
REMARK SMILES IDX 34 44 86 45 80 46 79 47 35 49 67 50 47 51 66 52 48 53 51 54
REMARK SMILES IDX 65 55 84 56 49 57 50 58 64 60 85 61 52 62 36 63 37 64 45 65
REMARK SMILES IDX 38 66 39 67 43 68 46 69 40 70 41 71 44 72 42 73 68 74 69 75
REMARK SMILES IDX 77 76 70 77 71 78 75 79 78 80 72 81 73 82 76 83 74 84 53 85
REMARK SMILES IDX 54 86 62 87 55 88 56 89 60 90 63 91 57 92 58 93 61 94 59 95
REMARK H PARENT 10 15 83 48 51 59
REMARK Flexibility Score: inf
ROOT
ATOM      1  C   UNL A   1      34.637  22.875  26.783  1.00  0.00     0.202 C 
ENDROOT
BRANCH   1   2
ATOM      2  C   UNL A   1      33.174  22.852  26.322  1.00  0.00     0.261 C 
BRANCH   2   3
ATOM      3  O   UNL A   1      32.803  23.963  25.485  1.00  0.00    -0.461 OA
BRANCH   3   4
ATOM      4  C   UNL A   1      32.344  23.582  24.258  1.00  0.00     0.335 C 
ATOM      5  O   UNL A   1      31.408  22.814  24.098  1.00  0.00    -0.249 OA
BRANCH   4   6
ATOM      6  C   UNL A   1      33.059  24.277  23.108  1.00  0.00     0.228 C 
ATOM      7  C   UNL A   1      32.259  26.032  21.747  1.00  0.00     0.138 C 
ATOM      8  C   UNL A   1      33.584  26.466  22.359  1.00  0.00     0.037 C 
ATOM      9  O   UNL A   1      32.106  24.647  22.092  1.00  0.00    -0.361 OA
ATOM     10  C   UNL A   1      33.706  25.574  23.570  1.00  0.00     0.047 C 
BRANCH   7  11
ATOM     11  C   UNL A   1      31.076  26.885  22.258  1.00  0.00     0.148 C 
BRANCH  11  12
ATOM     12  N   UNL A   1      30.490  26.391  23.500  1.00  0.00    -0.349 N 
ATOM     13  C   UNL A   1      30.558  26.692  24.837  1.00  0.00     0.251 C 
ATOM     14  O   UNL A   1      29.831  26.004  25.562  1.00  0.00    -0.269 OA
ATOM     15  H   UNL A   1      29.879  25.637  23.333  1.00  0.00     0.163 HD
BRANCH  13  16
ATOM     16  C   UNL A   1      31.419  27.727  25.492  1.00  0.00     0.039 A 
ATOM     17  C   UNL A   1      33.348  29.496  26.671  1.00  0.00    -0.045 A 
ATOM     18  C   UNL A   1      33.279  28.147  27.041  1.00  0.00     0.005 A 
ATOM     19  C   UNL A   1      32.362  29.955  25.796  1.00  0.00     0.005 A 
ATOM     20  C   UNL A   1      32.344  27.279  26.450  1.00  0.00     0.014 A 
ATOM     21  C   UNL A   1      31.405  29.089  25.235  1.00  0.00     0.014 A 
BRANCH  17  22
ATOM     22  C   UNL A   1      34.447  30.404  27.213  1.00  0.00     0.013 C 
ATOM     23  C   UNL A   1      33.868  31.590  28.001  1.00  0.00     0.012 C 
ATOM     24  C   UNL A   1      35.480  29.705  28.114  1.00  0.00     0.012 C 
ENDBRANCH  17  22
ENDBRANCH  13  16
ENDBRANCH  11  12
ENDBRANCH   7  11
ENDBRANCH   4   6
ENDBRANCH   3   4
ENDBRANCH   2   3
ENDBRANCH   1   2
BRANCH   1  25
ATOM     25  O   UNL A   1      35.651  22.559  25.835  1.00  0.00    -0.374 OA
BRANCH  25  26
ATOM     26  C   UNL A   1      35.736  21.211  25.378  1.00  0.00     0.202 C 
BRANCH  26  27
ATOM     27  C   UNL A   1      37.117  20.666  25.001  1.00  0.00     0.261 C 
BRANCH  27  28
ATOM     28  O   UNL A   1      38.143  21.666  25.141  1.00  0.00    -0.460 OA
BRANCH  28  29
ATOM     29  C   UNL A   1      39.100  21.367  26.051  1.00  0.00     0.338 C 
ATOM     30  O   UNL A   1      39.603  20.273  26.266  1.00  0.00    -0.246 OA
BRANCH  29  31
ATOM     31  C   UNL A   1      39.630  22.606  26.646  1.00  0.00     0.060 A 
ATOM     32  C   UNL A   1      39.141  23.820  26.145  1.00  0.00     0.016 A 
ATOM     33  C   UNL A   1      40.627  22.588  27.623  1.00  0.00     0.016 A 
ATOM     34  C   UNL A   1      39.688  25.024  26.578  1.00  0.00     0.010 A 
ATOM     35  C   UNL A   1      41.185  23.797  28.048  1.00  0.00     0.010 A 
ATOM     36  C   UNL A   1      40.745  25.015  27.497  1.00  0.00    -0.014 A 
BRANCH  36  37
ATOM     37  C   UNL A   1      41.499  26.266  27.743  1.00  0.00     0.031 A 
ATOM     38  C   UNL A   1      40.831  27.372  28.510  1.00  0.00     0.074 A 
ATOM     39  C   UNL A   1      42.769  26.399  27.324  1.00  0.00     0.049 A 
ATOM     40  N   UNL A   1      41.282  28.561  28.820  1.00  0.00    -0.248 NA
ATOM     41  C   UNL A   1      39.467  27.102  28.994  1.00  0.00     0.031 C 
ATOM     42  C   UNL A   1      43.531  25.378  26.608  1.00  0.00     0.029 A 
ATOM     43  N   UNL A   1      43.637  27.455  27.436  1.00  0.00    -0.354 N 
ATOM     44  C   UNL A   1      40.259  29.180  29.525  1.00  0.00     0.074 A 
ATOM     45  C   UNL A   1      39.152  28.249  29.575  1.00  0.00     0.031 C 
ATOM     46  C   UNL A   1      44.754  25.865  26.331  1.00  0.00     0.029 A 
ATOM     47  C   UNL A   1      44.846  27.238  26.824  1.00  0.00     0.049 A 
ATOM     48  H   UNL A   1      43.413  28.289  27.909  1.00  0.00     0.167 HD
ATOM     49  C   UNL A   1      40.247  30.412  30.085  1.00  0.00     0.037 A 
ATOM     50  C   UNL A   1      45.897  28.065  26.664  1.00  0.00     0.037 A 
ATOM     51  C   UNL A   1      41.352  31.332  30.037  1.00  0.00     0.049 A 
ATOM     52  C   UNL A   1      45.836  29.455  27.244  1.00  0.00     0.074 A 
ATOM     53  C   UNL A   1      41.450  32.594  30.595  1.00  0.00     0.029 A 
ATOM     54  N   UNL A   1      42.553  31.087  29.386  1.00  0.00    -0.354 N 
ATOM     55  N   UNL A   1      44.876  30.024  27.932  1.00  0.00    -0.248 NA
ATOM     56  C   UNL A   1      47.009  30.315  27.030  1.00  0.00     0.031 C 
ATOM     57  C   UNL A   1      42.690  33.134  30.239  1.00  0.00     0.029 A 
ATOM     58  C   UNL A   1      43.386  32.186  29.504  1.00  0.00     0.049 A 
ATOM     59  H   UNL A   1      42.777  30.255  28.910  1.00  0.00     0.167 HD
ATOM     60  C   UNL A   1      45.336  31.295  28.253  1.00  0.00     0.074 A 
ATOM     61  C   UNL A   1      46.668  31.408  27.697  1.00  0.00     0.031 C 
ATOM     62  C   UNL A   1      44.712  32.278  28.948  1.00  0.00     0.037 A 
BRANCH  49  63
ATOM     63  C   UNL A   1      38.989  30.847  30.777  1.00  0.00     0.064 A 
ATOM     64  C   UNL A   1      38.774  30.605  32.142  1.00  0.00     0.173 A 
ATOM     65  C   UNL A   1      37.999  31.547  30.071  1.00  0.00     0.173 A 
ATOM     66  F   UNL A   1      39.683  29.925  32.858  1.00  0.00    -0.203 F 
ATOM     67  C   UNL A   1      37.605  31.027  32.769  1.00  0.00     0.198 A 
ATOM     68  C   UNL A   1      36.844  31.993  30.707  1.00  0.00     0.198 A 
ATOM     69  F   UNL A   1      38.156  31.806  28.764  1.00  0.00    -0.203 F 
ATOM     70  F   UNL A   1      37.402  30.747  34.063  1.00  0.00    -0.200 F 
ATOM     71  C   UNL A   1      36.645  31.728  32.054  1.00  0.00     0.200 A 
ATOM     72  F   UNL A   1      35.922  32.678  30.016  1.00  0.00    -0.200 F 
ATOM     73  F   UNL A   1      35.523  32.140  32.659  1.00  0.00    -0.200 F 
ENDBRANCH  49  63
BRANCH  50  74
ATOM     74  C   UNL A   1      47.091  27.607  25.908  1.00  0.00     0.064 A 
ATOM     75  C   UNL A   1      48.208  27.078  26.567  1.00  0.00     0.173 A 
ATOM     76  C   UNL A   1      47.143  27.702  24.509  1.00  0.00     0.173 A 
ATOM     77  F   UNL A   1      48.216  26.990  27.906  1.00  0.00    -0.203 F 
ATOM     78  C   UNL A   1      49.339  26.675  25.859  1.00  0.00     0.198 A 
ATOM     79  C   UNL A   1      48.263  27.274  23.799  1.00  0.00     0.198 A 
ATOM     80  F   UNL A   1      46.101  28.205  23.830  1.00  0.00    -0.203 F 
ATOM     81  F   UNL A   1      50.410  26.213  26.517  1.00  0.00    -0.200 F 
ATOM     82  C   UNL A   1      49.363  26.768  24.475  1.00  0.00     0.200 A 
ATOM     83  F   UNL A   1      48.277  27.356  22.462  1.00  0.00    -0.200 F 
ATOM     84  F   UNL A   1      50.448  26.377  23.794  1.00  0.00    -0.200 F 
ENDBRANCH  50  74
BRANCH  62  85
ATOM     85  C   UNL A   1      45.474  33.552  29.177  1.00  0.00     0.064 A 
ATOM     86  C   UNL A   1      46.330  33.710  30.277  1.00  0.00     0.173 A 
ATOM     87  C   UNL A   1      45.383  34.607  28.257  1.00  0.00     0.173 A 
ATOM     88  F   UNL A   1      46.440  32.735  31.191  1.00  0.00    -0.203 F 
ATOM     89  C   UNL A   1      47.049  34.888  30.458  1.00  0.00     0.198 A 
ATOM     90  C   UNL A   1      46.127  35.771  28.426  1.00  0.00     0.198 A 
ATOM     91  F   UNL A   1      44.585  34.502  27.183  1.00  0.00    -0.203 F 
ATOM     92  F   UNL A   1      47.828  35.035  31.539  1.00  0.00    -0.200 F 
ATOM     93  C   UNL A   1      46.954  35.914  29.529  1.00  0.00     0.200 A 
ATOM     94  F   UNL A   1      46.044  36.756  27.520  1.00  0.00    -0.200 F 
ATOM     95  F   UNL A   1      47.655  37.043  29.702  1.00  0.00    -0.200 F 
ENDBRANCH  62  85
ENDBRANCH  36  37
ENDBRANCH  29  31
ENDBRANCH  28  29
ENDBRANCH  27  28
ENDBRANCH  26  27
ENDBRANCH  25  26
ENDBRANCH   1  25
TORSDOF 18
ENDMDL
MODEL 3
REMARK VINA RESULT:     -11.6      4.562      7.864
REMARK SMILES CC(C)c1ccc(C(=O)NC[C@H]2CC[C@@H](C(=O)OCCOCCOC(=O)c3ccc(-c4c5nc(c(-c6c(F)c(F)c(F)c(F)c6F)c6ccc([nH]6)c(-c6c(F)c(F)c(F)c(F)c6F)c6nc(c(-c7c(F)c(F)c(F)c(F)c7F)c7ccc4[nH]7)C=C6)C=C5)cc3)O2)cc1
REMARK SMILES IDX 20 1 19 2 18 3 16 4 17 5 15 6 12 7 13 8 90 9 14 10 11 11
REMARK SMILES IDX 10 12 8 13 9 14 7 16 4 17 5 18 92 19 6 20 91 21 2 22 1 23
REMARK SMILES IDX 3 24 21 25 22 26 23 27 24 28 25 29 26 30 27 31 28 32 89 33
REMARK SMILES IDX 29 34 88 35 30 36 31 37 32 38 82 39 33 40 87 41 81 42 83 43
REMARK SMILES IDX 34 44 86 45 80 46 79 47 35 49 67 50 47 51 66 52 48 53 51 54
REMARK SMILES IDX 65 55 84 56 49 57 50 58 64 60 85 61 52 62 36 63 37 64 45 65
REMARK SMILES IDX 38 66 39 67 43 68 46 69 40 70 41 71 44 72 42 73 68 74 69 75
REMARK SMILES IDX 77 76 70 77 71 78 75 79 78 80 72 81 73 82 76 83 74 84 53 85
REMARK SMILES IDX 54 86 62 87 55 88 56 89 60 90 63 91 57 92 58 93 61 94 59 95
REMARK H PARENT 10 15 83 48 51 59
REMARK Flexibility Score: inf
ROOT
ATOM      1  C   UNL A   1      37.483  23.440  25.724  1.00  0.00     0.202 C 
ENDROOT
BRANCH   1   2
ATOM      2  C   UNL A   1      36.058  23.341  25.165  1.00  0.00     0.261 C 
BRANCH   2   3
ATOM      3  O   UNL A   1      35.056  23.961  25.991  1.00  0.00    -0.461 OA
BRANCH   3   4
ATOM      4  C   UNL A   1      34.257  24.830  25.307  1.00  0.00     0.335 C 
ATOM      5  O   UNL A   1      34.574  25.343  24.245  1.00  0.00    -0.249 OA
BRANCH   4   6
ATOM      6  C   UNL A   1      32.895  25.030  25.957  1.00  0.00     0.228 C 
ATOM      7  C   UNL A   1      30.765  24.842  24.956  1.00  0.00     0.138 C 
ATOM      8  C   UNL A   1      30.808  23.922  26.168  1.00  0.00     0.037 C 
ATOM      9  O   UNL A   1      31.979  25.607  25.005  1.00  0.00    -0.361 OA
ATOM     10  C   UNL A   1      32.286  23.700  26.372  1.00  0.00     0.047 C 
BRANCH   7  11
ATOM     11  C   UNL A   1      30.636  24.055  23.633  1.00  0.00     0.148 C 
BRANCH  11  12
ATOM     12  N   UNL A   1      31.894  23.920  22.905  1.00  0.00    -0.349 N 
ATOM     13  C   UNL A   1      32.803  22.928  22.640  1.00  0.00     0.251 C 
ATOM     14  O   UNL A   1      33.748  23.269  21.918  1.00  0.00    -0.269 OA
ATOM     15  H   UNL A   1      32.162  24.772  22.492  1.00  0.00     0.163 HD
BRANCH  13  16
ATOM     16  C   UNL A   1      32.781  21.518  23.141  1.00  0.00     0.039 A 
ATOM     17  C   UNL A   1      32.833  18.717  23.767  1.00  0.00    -0.045 A 
ATOM     18  C   UNL A   1      32.088  19.204  22.686  1.00  0.00     0.005 A 
ATOM     19  C   UNL A   1      33.445  19.669  24.584  1.00  0.00     0.005 A 
ATOM     20  C   UNL A   1      32.077  20.575  22.372  1.00  0.00     0.014 A 
ATOM     21  C   UNL A   1      33.401  21.043  24.286  1.00  0.00     0.014 A 
BRANCH  17  22
ATOM     22  C   UNL A   1      32.951  17.219  24.027  1.00  0.00     0.013 C 
ATOM     23  C   UNL A   1      34.332  16.678  23.625  1.00  0.00     0.012 C 
ATOM     24  C   UNL A   1      32.687  16.789  25.481  1.00  0.00     0.012 C 
ENDBRANCH  17  22
ENDBRANCH  13  16
ENDBRANCH  11  12
ENDBRANCH   7  11
ENDBRANCH   4   6
ENDBRANCH   3   4
ENDBRANCH   2   3
ENDBRANCH   1   2
BRANCH   1  25
ATOM     25  O   UNL A   1      38.180  22.235  26.020  1.00  0.00    -0.374 OA
BRANCH  25  26
ATOM     26  C   UNL A   1      37.863  21.078  25.248  1.00  0.00     0.202 C 
BRANCH  26  27
ATOM     27  C   UNL A   1      38.852  19.909  25.267  1.00  0.00     0.261 C 
BRANCH  27  28
ATOM     28  O   UNL A   1      39.652  19.905  26.462  1.00  0.00    -0.460 OA
BRANCH  28  29
ATOM     29  C   UNL A   1      40.977  19.720  26.253  1.00  0.00     0.338 C 
ATOM     30  O   UNL A   1      41.523  18.732  25.781  1.00  0.00    -0.246 OA
BRANCH  29  31
ATOM     31  C   UNL A   1      41.702  20.981  26.489  1.00  0.00     0.060 A 
ATOM     32  C   UNL A   1      41.933  21.350  27.822  1.00  0.00     0.016 A 
ATOM     33  C   UNL A   1      42.093  21.816  25.441  1.00  0.00     0.016 A 
ATOM     34  C   UNL A   1      42.503  22.584  28.115  1.00  0.00     0.010 A 
ATOM     35  C   UNL A   1      42.654  23.062  25.737  1.00  0.00     0.010 A 
ATOM     36  C   UNL A   1      42.823  23.465  27.075  1.00  0.00    -0.014 A 
BRANCH  36  37
ATOM     37  C   UNL A   1      43.170  24.869  27.397  1.00  0.00     0.031 A 
ATOM     38  C   UNL A   1      44.570  25.345  27.131  1.00  0.00     0.074 A 
ATOM     39  C   UNL A   1      42.243  25.713  27.882  1.00  0.00     0.049 A 
ATOM     40  N   UNL A   1      45.108  26.517  27.359  1.00  0.00    -0.248 NA
ATOM     41  C   UNL A   1      45.491  24.368  26.528  1.00  0.00     0.031 C 
ATOM     42  C   UNL A   1      40.846  25.373  28.140  1.00  0.00     0.029 A 
ATOM     43  N   UNL A   1      42.346  27.030  28.250  1.00  0.00    -0.354 N 
ATOM     44  C   UNL A   1      46.425  26.414  26.934  1.00  0.00     0.074 A 
ATOM     45  C   UNL A   1      46.617  25.060  26.461  1.00  0.00     0.031 C 
ATOM     46  C   UNL A   1      40.222  26.455  28.640  1.00  0.00     0.029 A 
ATOM     47  C   UNL A   1      41.184  27.548  28.763  1.00  0.00     0.049 A 
ATOM     48  H   UNL A   1      43.176  27.554  28.156  1.00  0.00     0.167 HD
ATOM     49  C   UNL A   1      47.387  27.367  26.934  1.00  0.00     0.037 A 
ATOM     50  C   UNL A   1      40.935  28.762  29.291  1.00  0.00     0.037 A 
ATOM     51  C   UNL A   1      47.190  28.714  27.400  1.00  0.00     0.049 A 
ATOM     52  C   UNL A   1      42.039  29.787  29.336  1.00  0.00     0.074 A 
ATOM     53  C   UNL A   1      48.093  29.761  27.419  1.00  0.00     0.029 A 
ATOM     54  N   UNL A   1      46.005  29.196  27.937  1.00  0.00    -0.354 N 
ATOM     55  N   UNL A   1      43.275  29.692  28.909  1.00  0.00    -0.248 NA
ATOM     56  C   UNL A   1      41.711  31.090  29.931  1.00  0.00     0.031 C 
ATOM     57  C   UNL A   1      47.470  30.864  28.014  1.00  0.00     0.029 A 
ATOM     58  C   UNL A   1      46.162  30.518  28.316  1.00  0.00     0.049 A 
ATOM     59  H   UNL A   1      45.176  28.674  28.035  1.00  0.00     0.167 HD
ATOM     60  C   UNL A   1      43.864  30.925  29.160  1.00  0.00     0.074 A 
ATOM     61  C   UNL A   1      42.844  31.758  29.764  1.00  0.00     0.031 C 
ATOM     62  C   UNL A   1      45.133  31.332  28.911  1.00  0.00     0.037 A 
BRANCH  49  63
ATOM     63  C   UNL A   1      48.748  26.979  26.436  1.00  0.00     0.064 A 
ATOM     64  C   UNL A   1      49.716  26.425  27.286  1.00  0.00     0.173 A 
ATOM     65  C   UNL A   1      49.075  27.131  25.080  1.00  0.00     0.173 A 
ATOM     66  F   UNL A   1      49.458  26.274  28.595  1.00  0.00    -0.203 F 
ATOM     67  C   UNL A   1      50.970  26.060  26.803  1.00  0.00     0.198 A 
ATOM     68  C   UNL A   1      50.319  26.738  24.594  1.00  0.00     0.198 A 
ATOM     69  F   UNL A   1      48.185  27.654  24.224  1.00  0.00    -0.203 F 
ATOM     70  F   UNL A   1      51.894  25.573  27.642  1.00  0.00    -0.200 F 
ATOM     71  C   UNL A   1      51.268  26.209  25.457  1.00  0.00     0.200 A 
ATOM     72  F   UNL A   1      50.602  26.875  23.291  1.00  0.00    -0.200 F 
ATOM     73  F   UNL A   1      52.472  25.850  24.991  1.00  0.00    -0.200 F 
ENDBRANCH  49  63
BRANCH  50  74
ATOM     74  C   UNL A   1      39.587  29.071  29.835  1.00  0.00     0.064 A 
ATOM     75  C   UNL A   1      38.611  29.690  29.045  1.00  0.00     0.173 A 
ATOM     76  C   UNL A   1      39.254  28.763  31.163  1.00  0.00     0.173 A 
ATOM     77  F   UNL A   1      38.891  30.028  27.776  1.00  0.00    -0.203 F 
ATOM     78  C   UNL A   1      37.356  30.005  29.565  1.00  0.00     0.198 A 
ATOM     79  C   UNL A   1      37.991  29.053  31.674  1.00  0.00     0.198 A 
ATOM     80  F   UNL A   1      40.155  28.172  31.962  1.00  0.00    -0.203 F 
ATOM     81  F   UNL A   1      36.456  30.638  28.801  1.00  0.00    -0.200 F 
ATOM     82  C   UNL A   1      37.046  29.681  30.877  1.00  0.00     0.200 A 
ATOM     83  F   UNL A   1      37.692  28.728  32.939  1.00  0.00    -0.200 F 
ATOM     84  F   UNL A   1      35.839  29.980  31.376  1.00  0.00    -0.200 F 
ENDBRANCH  50  74
BRANCH  62  85
ATOM     85  C   UNL A   1      45.484  32.750  29.259  1.00  0.00     0.064 A 
ATOM     86  C   UNL A   1      45.274  33.803  28.357  1.00  0.00     0.173 A 
ATOM     87  C   UNL A   1      45.991  33.063  30.529  1.00  0.00     0.173 A 
ATOM     88  F   UNL A   1      44.804  33.552  27.125  1.00  0.00    -0.203 F 
ATOM     89  C   UNL A   1      45.580  35.115  28.706  1.00  0.00     0.198 A 
ATOM     90  C   UNL A   1      46.267  34.380  30.886  1.00  0.00     0.198 A 
ATOM     91  F   UNL A   1      46.202  32.094  31.432  1.00  0.00    -0.203 F 
ATOM     92  F   UNL A   1      45.412  36.100  27.813  1.00  0.00    -0.200 F 
ATOM     93  C   UNL A   1      46.069  35.404  29.972  1.00  0.00     0.200 A 
ATOM     94  F   UNL A   1      46.726  34.658  32.114  1.00  0.00    -0.200 F 
ATOM     95  F   UNL A   1      46.354  36.669  30.309  1.00  0.00    -0.200 F 
ENDBRANCH  62  85
ENDBRANCH  36  37
ENDBRANCH  29  31
ENDBRANCH  28  29
ENDBRANCH  27  28
ENDBRANCH  26  27
ENDBRANCH  25  26
ENDBRANCH   1  25
TORSDOF 18
ENDMDL
