MODEL 1
REMARK VINA RESULT:     -12.3      0.000      0.000
REMARK SMILES C[C@H]1Oc2ccccc2C=C1/C=C/C(=O)N[C@H](C(=O)OCCOCCOC(=O)c1ccc(-c2c3nc(c(-c4c(F)c(F)c(F)c(F)c4F)c4ccc([nH]4)c(-c4c(F)c(F)c(F)c(F)c4F)c4nc(c(-c5c(F)c(F)c(F)c(F)c5F)c5ccc2[nH]5)C=C4)C=C3)cc1)c1ccccc1
REMARK SMILES IDX 22 1 21 2 20 3 18 4 19 5 17 6 16 7 14 8 15 9 13 11 12 12
REMARK SMILES IDX 11 13 1 14 2 15 3 16 4 17 10 18 5 19 9 20 6 21 8 22 7 23
REMARK SMILES IDX 92 24 93 25 97 26 94 27 96 28 95 29 23 30 24 31 25 32 26 33
REMARK SMILES IDX 27 34 28 35 29 36 30 37 91 38 31 39 90 40 32 41 33 42 34 43
REMARK SMILES IDX 84 44 35 45 89 46 83 47 85 48 36 49 88 50 82 51 81 52 37 54
REMARK SMILES IDX 69 55 49 56 68 57 50 58 53 59 67 60 86 61 51 62 52 63 66 65
REMARK SMILES IDX 87 66 54 67 38 68 39 69 47 70 40 71 41 72 45 73 48 74 42 75
REMARK SMILES IDX 43 76 46 77 44 78 70 79 71 80 79 81 72 82 73 83 77 84 80 85
REMARK SMILES IDX 74 86 75 87 78 88 76 89 55 90 56 91 64 92 57 93 58 94 62 95
REMARK SMILES IDX 65 96 59 97 60 98 63 99 61 100
REMARK H PARENT 16 10 85 53 53 64
REMARK Flexibility Score: inf
ROOT
ATOM      1  C   UNL A   1      33.876  18.964  24.602  1.00  0.00     0.202 C 
ENDROOT
BRANCH   1   2
ATOM      2  C   UNL A   1      32.578  19.275  23.850  1.00  0.00     0.261 C 
BRANCH   2   3
ATOM      3  O   UNL A   1      32.258  20.670  23.955  1.00  0.00    -0.461 OA
BRANCH   3   4
ATOM      4  C   UNL A   1      32.294  21.392  22.794  1.00  0.00     0.333 C 
ATOM      5  O   UNL A   1      31.842  21.023  21.717  1.00  0.00    -0.249 OA
BRANCH   4   6
ATOM      6  C   UNL A   1      33.043  22.718  23.027  1.00  0.00     0.223 C 
BRANCH   6   7
ATOM      7  N   UNL A   1      33.022  23.459  21.768  1.00  0.00    -0.335 N 
ATOM      8  C   UNL A   1      33.147  24.774  21.483  1.00  0.00     0.244 C 
ATOM      9  O   UNL A   1      33.071  25.129  20.306  1.00  0.00    -0.270 OA
ATOM     10  H   UNL A   1      32.893  22.891  20.975  1.00  0.00     0.165 HD
BRANCH   8  11
ATOM     11  C   UNL A   1      33.276  25.821  22.527  1.00  0.00     0.071 C 
ATOM     12  C   UNL A   1      32.551  26.942  22.659  1.00  0.00     0.013 C 
BRANCH  12  13
ATOM     13  C   UNL A   1      32.673  27.943  23.716  1.00  0.00    -0.007 C 
ATOM     14  C   UNL A   1      30.157  28.279  24.044  1.00  0.00     0.058 C 
ATOM     15  C   UNL A   1      31.527  28.947  23.859  1.00  0.00     0.200 C 
ATOM     16  O   UNL A   1      31.636  29.930  24.906  1.00  0.00    -0.485 OA
ATOM     17  C   UNL A   1      32.685  29.852  25.770  1.00  0.00     0.127 A 
ATOM     18  C   UNL A   1      33.708  27.955  24.570  1.00  0.00     0.019 C 
ATOM     19  C   UNL A   1      32.680  30.770  26.823  1.00  0.00     0.047 A 
ATOM     20  C   UNL A   1      33.723  28.931  25.648  1.00  0.00     0.017 A 
ATOM     21  C   UNL A   1      33.711  30.767  27.761  1.00  0.00     0.004 A 
ATOM     22  C   UNL A   1      34.764  28.938  26.584  1.00  0.00     0.012 A 
ATOM     23  C   UNL A   1      34.755  29.853  27.639  1.00  0.00     0.001 A 
ENDBRANCH  12  13
ENDBRANCH   8  11
ENDBRANCH   6   7
BRANCH   6  24
ATOM     24  C   UNL A   1      32.470  23.525  24.182  1.00  0.00    -0.014 A 
ATOM     25  C   UNL A   1      31.110  23.865  24.232  1.00  0.00     0.006 A 
ATOM     26  C   UNL A   1      33.307  23.983  25.215  1.00  0.00     0.006 A 
ATOM     27  C   UNL A   1      30.616  24.675  25.259  1.00  0.00     0.000 A 
ATOM     28  C   UNL A   1      32.813  24.792  26.241  1.00  0.00     0.000 A 
ATOM     29  C   UNL A   1      31.468  25.146  26.255  1.00  0.00     0.000 A 
ENDBRANCH   6  24
ENDBRANCH   4   6
ENDBRANCH   3   4
ENDBRANCH   2   3
ENDBRANCH   1   2
BRANCH   1  30
ATOM     30  O   UNL A   1      34.772  20.057  24.792  1.00  0.00    -0.374 OA
BRANCH  30  31
ATOM     31  C   UNL A   1      36.151  19.744  24.984  1.00  0.00     0.202 C 
BRANCH  31  32
ATOM     32  C   UNL A   1      37.168  20.830  24.616  1.00  0.00     0.261 C 
BRANCH  32  33
ATOM     33  O   UNL A   1      37.629  21.538  25.782  1.00  0.00    -0.460 OA
BRANCH  33  34
ATOM     34  C   UNL A   1      38.926  21.318  26.104  1.00  0.00     0.338 C 
ATOM     35  O   UNL A   1      39.589  20.319  25.867  1.00  0.00    -0.246 OA
BRANCH  34  36
ATOM     36  C   UNL A   1      39.520  22.566  26.618  1.00  0.00     0.060 A 
ATOM     37  C   UNL A   1      40.572  22.557  27.536  1.00  0.00     0.016 A 
ATOM     38  C   UNL A   1      39.009  23.776  26.132  1.00  0.00     0.016 A 
ATOM     39  C   UNL A   1      41.131  23.772  27.946  1.00  0.00     0.010 A 
ATOM     40  C   UNL A   1      39.568  24.985  26.542  1.00  0.00     0.010 A 
ATOM     41  C   UNL A   1      40.645  24.991  27.438  1.00  0.00    -0.014 A 
BRANCH  41  42
ATOM     42  C   UNL A   1      41.330  26.268  27.753  1.00  0.00     0.031 A 
ATOM     43  C   UNL A   1      40.623  27.372  28.479  1.00  0.00     0.074 A 
ATOM     44  C   UNL A   1      42.597  26.439  27.331  1.00  0.00     0.049 A 
ATOM     45  N   UNL A   1      41.076  28.549  28.833  1.00  0.00    -0.248 NA
ATOM     46  C   UNL A   1      39.222  27.130  28.848  1.00  0.00     0.031 C 
ATOM     47  C   UNL A   1      43.369  25.447  26.582  1.00  0.00     0.029 A 
ATOM     48  N   UNL A   1      43.454  27.500  27.466  1.00  0.00    -0.354 N 
ATOM     49  C   UNL A   1      40.024  29.182  29.479  1.00  0.00     0.074 A 
ATOM     50  C   UNL A   1      38.893  28.279  29.424  1.00  0.00     0.031 C 
ATOM     51  C   UNL A   1      44.596  25.937  26.345  1.00  0.00     0.029 A 
ATOM     52  C   UNL A   1      44.683  27.288  26.892  1.00  0.00     0.049 A 
ATOM     53  H   UNL A   1      43.211  28.335  27.929  1.00  0.00     0.167 HD
ATOM     54  C   UNL A   1      40.014  30.397  30.078  1.00  0.00     0.037 A 
ATOM     55  C   UNL A   1      45.759  28.093  26.811  1.00  0.00     0.037 A 
ATOM     56  C   UNL A   1      41.142  31.295  30.115  1.00  0.00     0.049 A 
ATOM     57  C   UNL A   1      45.704  29.457  27.441  1.00  0.00     0.074 A 
ATOM     58  C   UNL A   1      41.241  32.530  30.731  1.00  0.00     0.029 A 
ATOM     59  N   UNL A   1      42.363  31.062  29.496  1.00  0.00    -0.354 N 
ATOM     60  N   UNL A   1      44.729  30.018  28.113  1.00  0.00    -0.248 NA
ATOM     61  C   UNL A   1      46.901  30.297  27.306  1.00  0.00     0.031 C 
ATOM     62  C   UNL A   1      42.496  33.072  30.435  1.00  0.00     0.029 A 
ATOM     63  C   UNL A   1      43.207  32.146  29.686  1.00  0.00     0.049 A 
ATOM     64  H   UNL A   1      42.596  30.247  28.996  1.00  0.00     0.167 HD
ATOM     65  C   UNL A   1      45.196  31.269  28.493  1.00  0.00     0.074 A 
ATOM     66  C   UNL A   1      46.555  31.371  28.002  1.00  0.00     0.031 C 
ATOM     67  C   UNL A   1      44.553  32.247  29.179  1.00  0.00     0.037 A 
BRANCH  54  68
ATOM     68  C   UNL A   1      38.744  30.835  30.752  1.00  0.00     0.064 A 
ATOM     69  C   UNL A   1      38.578  30.731  32.142  1.00  0.00     0.173 A 
ATOM     70  C   UNL A   1      37.709  31.428  30.014  1.00  0.00     0.173 A 
ATOM     71  F   UNL A   1      39.534  30.164  32.895  1.00  0.00    -0.203 F 
ATOM     72  C   UNL A   1      37.417  31.185  32.762  1.00  0.00     0.198 A 
ATOM     73  C   UNL A   1      36.563  31.910  30.641  1.00  0.00     0.198 A 
ATOM     74  F   UNL A   1      37.818  31.560  28.682  1.00  0.00    -0.203 F 
ATOM     75  F   UNL A   1      37.266  31.039  34.086  1.00  0.00    -0.200 F 
ATOM     76  C   UNL A   1      36.415  31.783  32.014  1.00  0.00     0.200 A 
ATOM     77  F   UNL A   1      35.602  32.501  29.917  1.00  0.00    -0.200 F 
ATOM     78  F   UNL A   1      35.305  32.232  32.614  1.00  0.00    -0.200 F 
ENDBRANCH  54  68
BRANCH  55  79
ATOM     79  C   UNL A   1      46.987  27.608  26.128  1.00  0.00     0.064 A 
ATOM     80  C   UNL A   1      47.120  27.701  24.737  1.00  0.00     0.173 A 
ATOM     81  C   UNL A   1      48.063  27.074  26.853  1.00  0.00     0.173 A 
ATOM     82  F   UNL A   1      46.110  28.186  23.999  1.00  0.00    -0.203 F 
ATOM     83  C   UNL A   1      48.280  27.274  24.095  1.00  0.00     0.198 A 
ATOM     84  C   UNL A   1      49.235  26.675  26.213  1.00  0.00     0.198 A 
ATOM     85  F   UNL A   1      47.988  26.966  28.188  1.00  0.00    -0.203 F 
ATOM     86  F   UNL A   1      48.368  27.345  22.760  1.00  0.00    -0.200 F 
ATOM     87  C   UNL A   1      49.340  26.771  24.834  1.00  0.00     0.200 A 
ATOM     88  F   UNL A   1      50.263  26.206  26.933  1.00  0.00    -0.200 F 
ATOM     89  F   UNL A   1      50.462  26.378  24.217  1.00  0.00    -0.200 F 
ENDBRANCH  55  79
BRANCH  67  90
ATOM     90  C   UNL A   1      45.311  33.519  29.440  1.00  0.00     0.064 A 
ATOM     91  C   UNL A   1      45.234  34.610  28.561  1.00  0.00     0.173 A 
ATOM     92  C   UNL A   1      46.086  33.668  30.601  1.00  0.00     0.173 A 
ATOM     93  F   UNL A   1      44.518  34.517  27.429  1.00  0.00    -0.203 F 
ATOM     94  C   UNL A   1      45.925  35.792  28.820  1.00  0.00     0.198 A 
ATOM     95  C   UNL A   1      46.746  34.863  30.875  1.00  0.00     0.198 A 
ATOM     96  F   UNL A   1      46.188  32.659  31.479  1.00  0.00    -0.203 F 
ATOM     97  F   UNL A   1      45.876  36.801  27.941  1.00  0.00    -0.200 F 
ATOM     98  C   UNL A   1      46.672  35.920  29.981  1.00  0.00     0.200 A 
ATOM     99  F   UNL A   1      47.453  34.991  32.007  1.00  0.00    -0.200 F 
ATOM    100  F   UNL A   1      47.326  37.061  30.236  1.00  0.00    -0.200 F 
ENDBRANCH  67  90
ENDBRANCH  41  42
ENDBRANCH  34  36
ENDBRANCH  33  34
ENDBRANCH  32  33
ENDBRANCH  31  32
ENDBRANCH  30  31
ENDBRANCH   1  30
TORSDOF 18
ENDMDL
MODEL 2
REMARK VINA RESULT:     -12.0      1.544      2.950
REMARK SMILES C[C@H]1Oc2ccccc2C=C1/C=C/C(=O)N[C@H](C(=O)OCCOCCOC(=O)c1ccc(-c2c3nc(c(-c4c(F)c(F)c(F)c(F)c4F)c4ccc([nH]4)c(-c4c(F)c(F)c(F)c(F)c4F)c4nc(c(-c5c(F)c(F)c(F)c(F)c5F)c5ccc2[nH]5)C=C4)C=C3)cc1)c1ccccc1
REMARK SMILES IDX 22 1 21 2 20 3 18 4 19 5 17 6 16 7 14 8 15 9 13 11 12 12
REMARK SMILES IDX 11 13 1 14 2 15 3 16 4 17 10 18 5 19 9 20 6 21 8 22 7 23
REMARK SMILES IDX 92 24 93 25 97 26 94 27 96 28 95 29 23 30 24 31 25 32 26 33
REMARK SMILES IDX 27 34 28 35 29 36 30 37 91 38 31 39 90 40 32 41 33 42 34 43
REMARK SMILES IDX 84 44 35 45 89 46 83 47 85 48 36 49 88 50 82 51 81 52 37 54
REMARK SMILES IDX 69 55 49 56 68 57 50 58 53 59 67 60 86 61 51 62 52 63 66 65
REMARK SMILES IDX 87 66 54 67 38 68 39 69 47 70 40 71 41 72 45 73 48 74 42 75
REMARK SMILES IDX 43 76 46 77 44 78 70 79 71 80 79 81 72 82 73 83 77 84 80 85
REMARK SMILES IDX 74 86 75 87 78 88 76 89 55 90 56 91 64 92 57 93 58 94 62 95
REMARK SMILES IDX 65 96 59 97 60 98 63 99 61 100
REMARK H PARENT 16 10 85 53 53 64
REMARK Flexibility Score: inf
ROOT
ATOM      1  C   UNL A   1      34.561  18.322  24.268  1.00  0.00     0.202 C 
ENDROOT
BRANCH   1   2
ATOM      2  C   UNL A   1      33.225  18.469  23.533  1.00  0.00     0.261 C 
BRANCH   2   3
ATOM      3  O   UNL A   1      32.718  19.804  23.676  1.00  0.00    -0.461 OA
BRANCH   3   4
ATOM      4  C   UNL A   1      32.316  20.172  24.932  1.00  0.00     0.333 C 
ATOM      5  O   UNL A   1      32.114  19.403  25.862  1.00  0.00    -0.249 OA
BRANCH   4   6
ATOM      6  C   UNL A   1      32.098  21.695  24.984  1.00  0.00     0.223 C 
BRANCH   6   7
ATOM      7  N   UNL A   1      31.282  21.980  26.161  1.00  0.00    -0.335 N 
ATOM      8  C   UNL A   1      30.620  23.087  26.567  1.00  0.00     0.244 C 
ATOM      9  O   UNL A   1      30.013  23.048  27.637  1.00  0.00    -0.270 OA
ATOM     10  H   UNL A   1      31.196  21.218  26.779  1.00  0.00     0.165 HD
BRANCH   8  11
ATOM     11  C   UNL A   1      30.670  24.374  25.831  1.00  0.00     0.071 C 
ATOM     12  C   UNL A   1      29.923  24.748  24.781  1.00  0.00     0.013 C 
BRANCH  12  13
ATOM     13  C   UNL A   1      29.967  26.036  24.091  1.00  0.00    -0.007 C 
ATOM     14  C   UNL A   1      31.881  25.416  22.510  1.00  0.00     0.058 C 
ATOM     15  C   UNL A   1      31.308  26.455  23.484  1.00  0.00     0.200 C 
ATOM     16  O   UNL A   1      31.355  27.718  22.794  1.00  0.00    -0.485 OA
ATOM     17  C   UNL A   1      30.199  28.416  22.626  1.00  0.00     0.127 A 
ATOM     18  C   UNL A   1      28.874  26.799  23.936  1.00  0.00     0.019 C 
ATOM     19  C   UNL A   1      30.293  29.581  21.861  1.00  0.00     0.047 A 
ATOM     20  C   UNL A   1      28.975  28.030  23.169  1.00  0.00     0.017 A 
ATOM     21  C   UNL A   1      29.161  30.362  21.631  1.00  0.00     0.004 A 
ATOM     22  C   UNL A   1      27.843  28.823  22.947  1.00  0.00     0.012 A 
ATOM     23  C   UNL A   1      27.937  29.984  22.177  1.00  0.00     0.001 A 
ENDBRANCH  12  13
ENDBRANCH   8  11
ENDBRANCH   6   7
BRANCH   6  24
ATOM     24  C   UNL A   1      33.401  22.480  24.981  1.00  0.00    -0.014 A 
ATOM     25  C   UNL A   1      34.045  22.832  26.177  1.00  0.00     0.006 A 
ATOM     26  C   UNL A   1      33.974  22.905  23.769  1.00  0.00     0.006 A 
ATOM     27  C   UNL A   1      35.198  23.621  26.160  1.00  0.00     0.000 A 
ATOM     28  C   UNL A   1      35.126  23.693  23.752  1.00  0.00     0.000 A 
ATOM     29  C   UNL A   1      35.732  24.060  24.950  1.00  0.00     0.000 A 
ENDBRANCH   6  24
ENDBRANCH   4   6
ENDBRANCH   3   4
ENDBRANCH   2   3
ENDBRANCH   1   2
BRANCH   1  30
ATOM     30  O   UNL A   1      35.193  19.533  24.678  1.00  0.00    -0.374 OA
BRANCH  30  31
ATOM     31  C   UNL A   1      36.597  19.484  24.929  1.00  0.00     0.202 C 
BRANCH  31  32
ATOM     32  C   UNL A   1      37.401  20.754  24.632  1.00  0.00     0.261 C 
BRANCH  32  33
ATOM     33  O   UNL A   1      37.812  21.415  25.843  1.00  0.00    -0.460 OA
BRANCH  33  34
ATOM     34  C   UNL A   1      39.105  21.212  26.190  1.00  0.00     0.338 C 
ATOM     35  O   UNL A   1      39.778  20.211  25.992  1.00  0.00    -0.246 OA
BRANCH  34  36
ATOM     36  C   UNL A   1      39.685  22.479  26.674  1.00  0.00     0.060 A 
ATOM     37  C   UNL A   1      40.720  22.505  27.610  1.00  0.00     0.016 A 
ATOM     38  C   UNL A   1      39.178  23.670  26.139  1.00  0.00     0.016 A 
ATOM     39  C   UNL A   1      41.266  23.734  27.991  1.00  0.00     0.010 A 
ATOM     40  C   UNL A   1      39.724  24.894  26.521  1.00  0.00     0.010 A 
ATOM     41  C   UNL A   1      40.785  24.934  27.435  1.00  0.00    -0.014 A 
BRANCH  41  42
ATOM     42  C   UNL A   1      41.459  26.224  27.721  1.00  0.00     0.031 A 
ATOM     43  C   UNL A   1      40.744  27.336  28.425  1.00  0.00     0.074 A 
ATOM     44  C   UNL A   1      42.723  26.398  27.291  1.00  0.00     0.049 A 
ATOM     45  N   UNL A   1      41.186  28.525  28.753  1.00  0.00    -0.248 NA
ATOM     46  C   UNL A   1      39.346  27.089  28.804  1.00  0.00     0.031 C 
ATOM     47  C   UNL A   1      43.502  25.397  26.560  1.00  0.00     0.029 A 
ATOM     48  N   UNL A   1      43.570  27.469  27.401  1.00  0.00    -0.354 N 
ATOM     49  C   UNL A   1      40.130  29.162  29.389  1.00  0.00     0.074 A 
ATOM     50  C   UNL A   1      39.008  28.247  29.356  1.00  0.00     0.031 C 
ATOM     51  C   UNL A   1      44.723  25.893  26.310  1.00  0.00     0.029 A 
ATOM     52  C   UNL A   1      44.800  27.256  26.828  1.00  0.00     0.049 A 
ATOM     53  H   UNL A   1      43.321  28.311  27.847  1.00  0.00     0.167 HD
ATOM     54  C   UNL A   1      40.111  30.389  29.962  1.00  0.00     0.037 A 
ATOM     55  C   UNL A   1      45.868  28.069  26.726  1.00  0.00     0.037 A 
ATOM     56  C   UNL A   1      41.231  31.297  29.976  1.00  0.00     0.049 A 
ATOM     57  C   UNL A   1      45.802  29.446  27.328  1.00  0.00     0.074 A 
ATOM     58  C   UNL A   1      41.320  32.547  30.566  1.00  0.00     0.029 A 
ATOM     59  N   UNL A   1      42.452  31.063  29.359  1.00  0.00    -0.354 N 
ATOM     60  N   UNL A   1      44.823  30.012  27.991  1.00  0.00    -0.248 NA
ATOM     61  C   UNL A   1      46.991  30.294  27.171  1.00  0.00     0.031 C 
ATOM     62  C   UNL A   1      42.569  33.093  30.255  1.00  0.00     0.029 A 
ATOM     63  C   UNL A   1      43.286  32.159  29.524  1.00  0.00     0.049 A 
ATOM     64  H   UNL A   1      42.691  30.239  28.875  1.00  0.00     0.167 HD
ATOM     65  C   UNL A   1      45.280  31.275  28.342  1.00  0.00     0.074 A 
ATOM     66  C   UNL A   1      46.636  31.380  27.845  1.00  0.00     0.031 C 
ATOM     67  C   UNL A   1      44.630  32.261  29.010  1.00  0.00     0.037 A 
BRANCH  54  68
ATOM     68  C   UNL A   1      38.839  30.829  30.630  1.00  0.00     0.064 A 
ATOM     69  C   UNL A   1      37.764  31.347  29.891  1.00  0.00     0.173 A 
ATOM     70  C   UNL A   1      38.663  30.669  32.013  1.00  0.00     0.173 A 
ATOM     71  F   UNL A   1      37.882  31.528  28.566  1.00  0.00    -0.203 F 
ATOM     72  C   UNL A   1      36.571  31.706  30.513  1.00  0.00     0.198 A 
ATOM     73  C   UNL A   1      37.458  31.000  32.628  1.00  0.00     0.198 A 
ATOM     74  F   UNL A   1      39.655  30.171  32.768  1.00  0.00    -0.203 F 
ATOM     75  F   UNL A   1      35.574  32.235  29.791  1.00  0.00    -0.200 F 
ATOM     76  C   UNL A   1      36.415  31.523  31.879  1.00  0.00     0.200 A 
ATOM     77  F   UNL A   1      37.304  30.808  33.946  1.00  0.00    -0.200 F 
ATOM     78  F   UNL A   1      35.261  31.856  32.474  1.00  0.00    -0.200 F 
ENDBRANCH  54  68
BRANCH  55  79
ATOM     79  C   UNL A   1      47.098  27.582  26.050  1.00  0.00     0.064 A 
ATOM     80  C   UNL A   1      48.125  26.970  26.781  1.00  0.00     0.173 A 
ATOM     81  C   UNL A   1      47.258  27.685  24.660  1.00  0.00     0.173 A 
ATOM     82  F   UNL A   1      48.027  26.866  28.115  1.00  0.00    -0.203 F 
ATOM     83  C   UNL A   1      49.268  26.486  26.149  1.00  0.00     0.198 A 
ATOM     84  C   UNL A   1      48.388  27.173  24.026  1.00  0.00     0.198 A 
ATOM     85  F   UNL A   1      46.302  28.258  23.914  1.00  0.00    -0.203 F 
ATOM     86  F   UNL A   1      50.249  25.934  26.876  1.00  0.00    -0.200 F 
ATOM     87  C   UNL A   1      49.394  26.578  24.771  1.00  0.00     0.200 A 
ATOM     88  F   UNL A   1      48.497  27.248  22.692  1.00  0.00    -0.200 F 
ATOM     89  F   UNL A   1      50.485  26.095  24.162  1.00  0.00    -0.200 F 
ENDBRANCH  55  79
BRANCH  67  90
ATOM     90  C   UNL A   1      45.377  33.546  29.241  1.00  0.00     0.064 A 
ATOM     91  C   UNL A   1      45.323  34.601  28.318  1.00  0.00     0.173 A 
ATOM     92  C   UNL A   1      46.117  33.744  30.418  1.00  0.00     0.173 A 
ATOM     93  F   UNL A   1      44.640  34.460  27.170  1.00  0.00    -0.203 F 
ATOM     94  C   UNL A   1      46.003  35.794  28.550  1.00  0.00     0.198 A 
ATOM     95  C   UNL A   1      46.766  34.951  30.663  1.00  0.00     0.198 A 
ATOM     96  F   UNL A   1      46.196  32.771  31.339  1.00  0.00    -0.203 F 
ATOM     97  F   UNL A   1      45.977  36.767  27.630  1.00  0.00    -0.200 F 
ATOM     98  C   UNL A   1      46.715  35.971  29.726  1.00  0.00     0.200 A 
ATOM     99  F   UNL A   1      47.439  35.127  31.808  1.00  0.00    -0.200 F 
ATOM    100  F   UNL A   1      47.359  37.124  29.954  1.00  0.00    -0.200 F 
ENDBRANCH  67  90
ENDBRANCH  41  42
ENDBRANCH  34  36
ENDBRANCH  33  34
ENDBRANCH  32  33
ENDBRANCH  31  32
ENDBRANCH  30  31
ENDBRANCH   1  30
TORSDOF 18
ENDMDL
MODEL 3
REMARK VINA RESULT:     -12.0      1.558      8.344
REMARK SMILES C[C@H]1Oc2ccccc2C=C1/C=C/C(=O)N[C@H](C(=O)OCCOCCOC(=O)c1ccc(-c2c3nc(c(-c4c(F)c(F)c(F)c(F)c4F)c4ccc([nH]4)c(-c4c(F)c(F)c(F)c(F)c4F)c4nc(c(-c5c(F)c(F)c(F)c(F)c5F)c5ccc2[nH]5)C=C4)C=C3)cc1)c1ccccc1
REMARK SMILES IDX 22 1 21 2 20 3 18 4 19 5 17 6 16 7 14 8 15 9 13 11 12 12
REMARK SMILES IDX 11 13 1 14 2 15 3 16 4 17 10 18 5 19 9 20 6 21 8 22 7 23
REMARK SMILES IDX 92 24 93 25 97 26 94 27 96 28 95 29 23 30 24 31 25 32 26 33
REMARK SMILES IDX 27 34 28 35 29 36 30 37 91 38 31 39 90 40 32 41 33 42 34 43
REMARK SMILES IDX 84 44 35 45 89 46 83 47 85 48 36 49 88 50 82 51 81 52 37 54
REMARK SMILES IDX 69 55 49 56 68 57 50 58 53 59 67 60 86 61 51 62 52 63 66 65
REMARK SMILES IDX 87 66 54 67 38 68 39 69 47 70 40 71 41 72 45 73 48 74 42 75
REMARK SMILES IDX 43 76 46 77 44 78 70 79 71 80 79 81 72 82 73 83 77 84 80 85
REMARK SMILES IDX 74 86 75 87 78 88 76 89 55 90 56 91 64 92 57 93 58 94 62 95
REMARK SMILES IDX 65 96 59 97 60 98 63 99 61 100
REMARK H PARENT 16 10 85 53 53 64
REMARK Flexibility Score: inf
ROOT
ATOM      1  C   UNL A   1      35.543  24.091  25.020  1.00  0.00     0.202 C 
ENDROOT
BRANCH   1   2
ATOM      2  C   UNL A   1      34.366  24.652  25.824  1.00  0.00     0.261 C 
BRANCH   2   3
ATOM      3  O   UNL A   1      33.626  25.598  25.039  1.00  0.00    -0.461 OA
BRANCH   3   4
ATOM      4  C   UNL A   1      32.549  26.184  25.647  1.00  0.00     0.333 C 
ATOM      5  O   UNL A   1      32.609  27.033  26.527  1.00  0.00    -0.249 OA
BRANCH   4   6
ATOM      6  C   UNL A   1      31.246  25.570  25.102  1.00  0.00     0.223 C 
BRANCH   6   7
ATOM      7  N   UNL A   1      30.510  25.025  26.240  1.00  0.00    -0.335 N 
ATOM      8  C   UNL A   1      30.241  23.759  26.629  1.00  0.00     0.244 C 
ATOM      9  O   UNL A   1      29.567  23.588  27.645  1.00  0.00    -0.270 OA
ATOM     10  H   UNL A   1      30.139  25.712  26.839  1.00  0.00     0.165 HD
BRANCH   8  11
ATOM     11  C   UNL A   1      30.638  22.567  25.839  1.00  0.00     0.071 C 
ATOM     12  C   UNL A   1      31.844  21.982  25.789  1.00  0.00     0.013 C 
BRANCH  12  13
ATOM     13  C   UNL A   1      32.205  20.787  25.028  1.00  0.00    -0.007 C 
ATOM     14  C   UNL A   1      32.652  22.010  22.825  1.00  0.00     0.058 C 
ATOM     15  C   UNL A   1      31.964  20.825  23.517  1.00  0.00     0.200 C 
ATOM     16  O   UNL A   1      32.328  19.655  22.760  1.00  0.00    -0.485 OA
ATOM     17  C   UNL A   1      32.955  18.630  23.400  1.00  0.00     0.127 A 
ATOM     18  C   UNL A   1      32.780  19.721  25.605  1.00  0.00     0.019 C 
ATOM     19  C   UNL A   1      33.373  17.570  22.592  1.00  0.00     0.047 A 
ATOM     20  C   UNL A   1      33.186  18.599  24.773  1.00  0.00     0.017 A 
ATOM     21  C   UNL A   1      34.027  16.476  23.155  1.00  0.00     0.004 A 
ATOM     22  C   UNL A   1      33.832  17.494  25.338  1.00  0.00     0.012 A 
ATOM     23  C   UNL A   1      34.254  16.437  24.529  1.00  0.00     0.001 A 
ENDBRANCH  12  13
ENDBRANCH   8  11
ENDBRANCH   6   7
BRANCH   6  24
ATOM     24  C   UNL A   1      30.416  26.561  24.299  1.00  0.00    -0.014 A 
ATOM     25  C   UNL A   1      31.004  27.676  23.683  1.00  0.00     0.006 A 
ATOM     26  C   UNL A   1      29.024  26.398  24.187  1.00  0.00     0.006 A 
ATOM     27  C   UNL A   1      30.217  28.619  23.017  1.00  0.00     0.000 A 
ATOM     28  C   UNL A   1      28.238  27.341  23.521  1.00  0.00     0.000 A 
ATOM     29  C   UNL A   1      28.836  28.458  22.945  1.00  0.00     0.000 A 
ENDBRANCH   6  24
ENDBRANCH   4   6
ENDBRANCH   3   4
ENDBRANCH   2   3
ENDBRANCH   1   2
BRANCH   1  30
ATOM     30  O   UNL A   1      35.528  22.686  24.776  1.00  0.00    -0.374 OA
BRANCH  30  31
ATOM     31  C   UNL A   1      36.595  22.148  23.995  1.00  0.00     0.202 C 
BRANCH  31  32
ATOM     32  C   UNL A   1      37.468  21.077  24.655  1.00  0.00     0.261 C 
BRANCH  32  33
ATOM     33  O   UNL A   1      37.889  21.475  25.972  1.00  0.00    -0.460 OA
BRANCH  33  34
ATOM     34  C   UNL A   1      39.215  21.334  26.212  1.00  0.00     0.338 C 
ATOM     35  O   UNL A   1      39.926  20.387  25.911  1.00  0.00    -0.246 OA
BRANCH  34  36
ATOM     36  C   UNL A   1      39.757  22.607  26.723  1.00  0.00     0.060 A 
ATOM     37  C   UNL A   1      40.779  22.644  27.672  1.00  0.00     0.016 A 
ATOM     38  C   UNL A   1      39.226  23.794  26.201  1.00  0.00     0.016 A 
ATOM     39  C   UNL A   1      41.290  23.880  28.079  1.00  0.00     0.010 A 
ATOM     40  C   UNL A   1      39.738  25.025  26.608  1.00  0.00     0.010 A 
ATOM     41  C   UNL A   1      40.785  25.077  27.536  1.00  0.00    -0.014 A 
BRANCH  41  42
ATOM     42  C   UNL A   1      41.423  26.378  27.850  1.00  0.00     0.031 A 
ATOM     43  C   UNL A   1      42.839  26.666  27.454  1.00  0.00     0.074 A 
ATOM     44  C   UNL A   1      40.718  27.289  28.547  1.00  0.00     0.049 A 
ATOM     45  N   UNL A   1      43.547  27.751  27.649  1.00  0.00    -0.248 NA
ATOM     46  C   UNL A   1      43.561  25.595  26.753  1.00  0.00     0.031 C 
ATOM     47  C   UNL A   1      39.345  27.099  29.019  1.00  0.00     0.029 A 
ATOM     48  N   UNL A   1      41.051  28.545  28.980  1.00  0.00    -0.354 N 
ATOM     49  C   UNL A   1      44.789  27.502  27.085  1.00  0.00     0.074 A 
ATOM     50  C   UNL A   1      44.757  26.143  26.583  1.00  0.00     0.031 C 
ATOM     51  C   UNL A   1      38.945  28.211  29.654  1.00  0.00     0.029 A 
ATOM     52  C   UNL A   1      40.043  29.174  29.667  1.00  0.00     0.049 A 
ATOM     53  H   UNL A   1      41.931  28.958  28.814  1.00  0.00     0.167 HD
ATOM     54  C   UNL A   1      45.849  28.339  26.981  1.00  0.00     0.037 A 
ATOM     55  C   UNL A   1      40.006  30.389  30.246  1.00  0.00     0.037 A 
ATOM     56  C   UNL A   1      45.875  29.686  27.497  1.00  0.00     0.049 A 
ATOM     57  C   UNL A   1      41.214  31.280  30.159  1.00  0.00     0.074 A 
ATOM     58  C   UNL A   1      46.888  30.624  27.407  1.00  0.00     0.029 A 
ATOM     59  N   UNL A   1      44.847  30.282  28.216  1.00  0.00    -0.354 N 
ATOM     60  N   UNL A   1      42.360  31.063  29.560  1.00  0.00    -0.248 NA
ATOM     61  C   UNL A   1      41.123  32.586  30.824  1.00  0.00     0.031 C 
ATOM     62  C   UNL A   1      46.500  31.763  28.121  1.00  0.00     0.029 A 
ATOM     63  C   UNL A   1      45.217  31.560  28.604  1.00  0.00     0.049 A 
ATOM     64  H   UNL A   1      43.982  29.857  28.420  1.00  0.00     0.167 HD
ATOM     65  C   UNL A   1      43.121  32.206  29.762  1.00  0.00     0.074 A 
ATOM     66  C   UNL A   1      42.294  33.127  30.514  1.00  0.00     0.031 C 
ATOM     67  C   UNL A   1      44.393  32.465  29.368  1.00  0.00     0.037 A 
BRANCH  54  68
ATOM     68  C   UNL A   1      47.076  27.832  26.277  1.00  0.00     0.064 A 
ATOM     69  C   UNL A   1      48.159  27.295  26.990  1.00  0.00     0.173 A 
ATOM     70  C   UNL A   1      47.144  27.816  24.876  1.00  0.00     0.173 A 
ATOM     71  F   UNL A   1      48.149  27.292  28.332  1.00  0.00    -0.203 F 
ATOM     72  C   UNL A   1      49.271  26.781  26.327  1.00  0.00     0.198 A 
ATOM     73  C   UNL A   1      48.243  27.274  24.216  1.00  0.00     0.198 A 
ATOM     74  F   UNL A   1      46.133  28.310  24.145  1.00  0.00    -0.203 F 
ATOM     75  F   UNL A   1      50.310  26.309  27.030  1.00  0.00    -0.200 F 
ATOM     76  C   UNL A   1      49.308  26.762  24.941  1.00  0.00     0.200 A 
ATOM     77  F   UNL A   1      48.271  27.242  22.876  1.00  0.00    -0.200 F 
ATOM     78  F   UNL A   1      50.373  26.254  24.304  1.00  0.00    -0.200 F 
ENDBRANCH  54  68
BRANCH  55  79
ATOM     79  C   UNL A   1      38.767  30.837  30.932  1.00  0.00     0.064 A 
ATOM     80  C   UNL A   1      38.629  30.713  32.320  1.00  0.00     0.173 A 
ATOM     81  C   UNL A   1      37.710  31.427  30.221  1.00  0.00     0.173 A 
ATOM     82  F   UNL A   1      39.603  30.138  33.041  1.00  0.00    -0.203 F 
ATOM     83  C   UNL A   1      37.480  31.157  32.972  1.00  0.00     0.198 A 
ATOM     84  C   UNL A   1      36.575  31.898  30.878  1.00  0.00     0.198 A 
ATOM     85  F   UNL A   1      37.794  31.572  28.890  1.00  0.00    -0.203 F 
ATOM     86  F   UNL A   1      37.362  30.997  34.297  1.00  0.00    -0.200 F 
ATOM     87  C   UNL A   1      36.460  31.758  32.252  1.00  0.00     0.200 A 
ATOM     88  F   UNL A   1      35.599  32.494  30.179  1.00  0.00    -0.200 F 
ATOM     89  F   UNL A   1      35.363  32.201  32.881  1.00  0.00    -0.200 F 
ENDBRANCH  55  79
BRANCH  67  90
ATOM     90  C   UNL A   1      44.974  33.800  29.744  1.00  0.00     0.064 A 
ATOM     91  C   UNL A   1      45.719  33.969  30.921  1.00  0.00     0.173 A 
ATOM     92  C   UNL A   1      44.825  34.911  28.899  1.00  0.00     0.173 A 
ATOM     93  F   UNL A   1      45.881  32.943  31.771  1.00  0.00    -0.203 F 
ATOM     94  C   UNL A   1      46.268  35.205  31.251  1.00  0.00     0.198 A 
ATOM     95  C   UNL A   1      45.406  36.136  29.215  1.00  0.00     0.198 A 
ATOM     96  F   UNL A   1      44.128  34.804  27.757  1.00  0.00    -0.203 F 
ATOM     97  F   UNL A   1      46.932  35.354  32.405  1.00  0.00    -0.200 F 
ATOM     98  C   UNL A   1      46.120  36.284  30.394  1.00  0.00     0.200 A 
ATOM     99  F   UNL A   1      45.276  37.173  28.376  1.00  0.00    -0.200 F 
ATOM    100  F   UNL A   1      46.660  37.470  30.707  1.00  0.00    -0.200 F 
ENDBRANCH  67  90
ENDBRANCH  41  42
ENDBRANCH  34  36
ENDBRANCH  33  34
ENDBRANCH  32  33
ENDBRANCH  31  32
ENDBRANCH  30  31
ENDBRANCH   1  30
TORSDOF 18
ENDMDL
