MODEL 1
REMARK VINA RESULT:     -12.8      0.000      0.000
REMARK SMILES CC(C)CCn1nc(C(=O)OCCOCCOC(=O)c2ccc(-c3c4nc(c(-c5c(F)c(F)c(F)c(F)c5F)c5ccc([nH]5)c(-c5c(F)c(F)c(F)c(F)c5F)c5nc(c(-c6c(F)c(F)c(F)c(F)c6F)c6ccc3[nH]6)C=C5)C=C4)cc2)c2c1CCN(C(=O)[C@@H]1CCc3nn(C)c(=O)n3C1)C2
REMARK SMILES IDX 13 1 12 2 11 3 9 4 10 5 8 6 6 7 7 8 84 9 83 10 85 11 101 12
REMARK SMILES IDX 86 13 87 14 5 15 4 16 2 17 1 18 3 19 88 20 89 21 90 22 91 23
REMARK SMILES IDX 100 24 92 25 99 26 93 27 97 28 94 29 95 30 98 31 96 32 14 33
REMARK SMILES IDX 15 34 16 35 17 36 18 37 19 38 20 39 21 40 82 41 22 42 81 43
REMARK SMILES IDX 23 44 24 45 25 46 75 47 26 48 80 49 74 50 76 51 27 52 79 53
REMARK SMILES IDX 73 54 72 55 28 57 60 58 40 59 59 60 41 61 44 62 58 63 77 64
REMARK SMILES IDX 42 65 43 66 57 68 78 69 45 70 29 71 30 72 38 73 31 74 32 75
REMARK SMILES IDX 36 76 39 77 33 78 34 79 37 80 35 81 61 82 62 83 70 84 63 85
REMARK SMILES IDX 64 86 68 87 71 88 65 89 66 90 69 91 67 92 46 93 47 94 55 95
REMARK SMILES IDX 48 96 49 97 53 98 56 99 50 100 51 101 54 102 52 103
REMARK H PARENT 76 56 44 67
REMARK Flexibility Score: inf
ROOT
ATOM      1  C   UNL A   1      39.903  20.789  26.205  1.00  0.00     0.202 C 
ENDROOT
BRANCH   1   2
ATOM      2  C   UNL A   1      38.954  21.982  26.124  1.00  0.00     0.261 C 
BRANCH   2   3
ATOM      3  O   UNL A   1      37.719  21.589  25.514  1.00  0.00    -0.458 OA
BRANCH   3   4
ATOM      4  C   UNL A   1      36.961  22.597  24.988  1.00  0.00     0.359 C 
ATOM      5  O   UNL A   1      37.401  23.699  24.677  1.00  0.00    -0.244 OA
BRANCH   4   6
ATOM      6  C   UNL A   1      35.575  22.154  24.757  1.00  0.00     0.175 A 
ATOM      7  N   UNL A   1      33.853  20.882  24.757  1.00  0.00    -0.268 N 
ATOM      8  N   UNL A   1      35.100  20.988  25.254  1.00  0.00    -0.165 NA
ATOM      9  C   UNL A   1      33.596  21.867  23.860  1.00  0.00     0.046 A 
ATOM     10  C   UNL A   1      34.566  22.832  24.017  1.00  0.00     0.028 A 
ATOM     11  C   UNL A   1      32.583  21.895  22.786  1.00  0.00     0.078 C 
ATOM     12  C   UNL A   1      34.557  24.155  23.302  1.00  0.00     0.159 C 
ATOM     13  C   UNL A   1      33.114  22.913  21.754  1.00  0.00     0.126 C 
ATOM     14  N   UNL A   1      33.403  24.210  22.367  1.00  0.00    -0.338 N 
BRANCH   7  15
ATOM     15  C   UNL A   1      33.016  19.734  25.055  1.00  0.00     0.145 C 
BRANCH  15  16
ATOM     16  C   UNL A   1      33.021  18.600  24.021  1.00  0.00     0.027 C 
BRANCH  16  17
ATOM     17  C   UNL A   1      34.014  17.446  24.281  1.00  0.00    -0.016 C 
ATOM     18  C   UNL A   1      33.595  16.557  25.454  1.00  0.00     0.007 C 
ATOM     19  C   UNL A   1      34.133  16.585  23.019  1.00  0.00     0.007 C 
ENDBRANCH  16  17
ENDBRANCH  15  16
ENDBRANCH   7  15
BRANCH  14  20
ATOM     20  C   UNL A   1      32.821  25.435  22.100  1.00  0.00     0.227 C 
ATOM     21  O   UNL A   1      33.265  26.116  21.162  1.00  0.00    -0.274 OA
BRANCH  20  22
ATOM     22  C   UNL A   1      31.647  26.073  22.892  1.00  0.00     0.099 C 
ATOM     23  C   UNL A   1      31.951  27.324  23.727  1.00  0.00     0.023 C 
ATOM     24  C   UNL A   1      30.693  25.128  23.611  1.00  0.00     0.142 C 
ATOM     25  C   UNL A   1      32.348  27.067  25.173  1.00  0.00     0.078 C 
ATOM     26  N   UNL A   1      31.001  24.991  25.015  1.00  0.00    -0.278 N 
ATOM     27  C   UNL A   1      31.795  25.796  25.749  1.00  0.00     0.133 A 
ATOM     28  C   UNL A   1      30.891  23.814  25.715  1.00  0.00     0.345 A 
ATOM     29  N   UNL A   1      32.204  25.281  26.873  1.00  0.00    -0.155 NA
ATOM     30  N   UNL A   1      31.651  24.016  26.875  1.00  0.00    -0.216 N 
ATOM     31  O   UNL A   1      30.392  22.771  25.326  1.00  0.00    -0.246 OA
ATOM     32  C   UNL A   1      32.168  22.950  27.691  1.00  0.00     0.179 C 
ENDBRANCH  20  22
ENDBRANCH  14  20
ENDBRANCH   4   6
ENDBRANCH   3   4
ENDBRANCH   2   3
ENDBRANCH   1   2
BRANCH   1  33
ATOM     33  O   UNL A   1      41.151  20.999  26.869  1.00  0.00    -0.374 OA
BRANCH  33  34
ATOM     34  C   UNL A   1      42.362  20.542  26.271  1.00  0.00     0.202 C 
BRANCH  34  35
ATOM     35  C   UNL A   1      43.324  21.588  25.733  1.00  0.00     0.261 C 
BRANCH  35  36
ATOM     36  O   UNL A   1      42.614  22.656  25.130  1.00  0.00    -0.460 OA
BRANCH  36  37
ATOM     37  C   UNL A   1      43.014  23.888  25.511  1.00  0.00     0.338 C 
ATOM     38  O   UNL A   1      44.053  24.462  25.206  1.00  0.00    -0.246 OA
BRANCH  37  39
ATOM     39  C   UNL A   1      42.071  24.376  26.521  1.00  0.00     0.060 A 
ATOM     40  C   UNL A   1      41.060  25.193  26.025  1.00  0.00     0.016 A 
ATOM     41  C   UNL A   1      42.509  24.449  27.850  1.00  0.00     0.016 A 
ATOM     42  C   UNL A   1      40.778  26.331  26.734  1.00  0.00     0.010 A 
ATOM     43  C   UNL A   1      42.235  25.586  28.554  1.00  0.00     0.010 A 
ATOM     44  C   UNL A   1      41.479  26.561  27.923  1.00  0.00    -0.014 A 
BRANCH  44  45
ATOM     45  C   UNL A   1      41.335  27.838  28.566  1.00  0.00     0.031 A 
ATOM     46  C   UNL A   1      42.431  28.745  28.200  1.00  0.00     0.074 A 
ATOM     47  C   UNL A   1      40.283  28.151  29.341  1.00  0.00     0.049 A 
ATOM     48  N   UNL A   1      43.434  29.068  28.943  1.00  0.00    -0.248 NA
ATOM     49  C   UNL A   1      42.567  29.128  26.788  1.00  0.00     0.031 C 
ATOM     50  C   UNL A   1      39.040  27.418  29.576  1.00  0.00     0.029 A 
ATOM     51  N   UNL A   1      40.105  29.297  30.046  1.00  0.00    -0.354 N 
ATOM     52  C   UNL A   1      44.239  29.863  28.142  1.00  0.00     0.074 A 
ATOM     53  C   UNL A   1      43.784  29.672  26.792  1.00  0.00     0.031 C 
ATOM     54  C   UNL A   1      38.149  28.239  30.184  1.00  0.00     0.029 A 
ATOM     55  C   UNL A   1      38.802  29.499  30.487  1.00  0.00     0.049 A 
ATOM     56  H   UNL A   1      40.835  29.930  30.230  1.00  0.00     0.167 HD
ATOM     57  C   UNL A   1      45.034  30.813  28.700  1.00  0.00     0.037 A 
ATOM     58  C   UNL A   1      38.336  30.687  30.952  1.00  0.00     0.037 A 
ATOM     59  C   UNL A   1      45.195  30.581  30.115  1.00  0.00     0.049 A 
ATOM     60  C   UNL A   1      39.529  31.468  31.404  1.00  0.00     0.074 A 
ATOM     61  C   UNL A   1      45.729  29.548  30.863  1.00  0.00     0.029 A 
ATOM     62  N   UNL A   1      44.393  31.293  30.978  1.00  0.00    -0.354 N 
ATOM     63  N   UNL A   1      40.260  31.120  32.431  1.00  0.00    -0.248 NA
ATOM     64  C   UNL A   1      40.204  32.303  30.416  1.00  0.00     0.031 C 
ATOM     65  C   UNL A   1      44.854  29.408  31.980  1.00  0.00     0.029 A 
ATOM     66  C   UNL A   1      43.886  30.409  31.898  1.00  0.00     0.049 A 
ATOM     67  H   UNL A   1      44.216  32.260  30.941  1.00  0.00     0.167 HD
ATOM     68  C   UNL A   1      41.572  31.316  32.017  1.00  0.00     0.074 A 
ATOM     69  C   UNL A   1      41.473  32.098  30.786  1.00  0.00     0.031 C 
ATOM     70  C   UNL A   1      42.596  30.570  32.528  1.00  0.00     0.037 A 
BRANCH  57  71
ATOM     71  C   UNL A   1      45.320  32.145  28.058  1.00  0.00     0.064 A 
ATOM     72  C   UNL A   1      44.245  33.029  27.845  1.00  0.00     0.173 A 
ATOM     73  C   UNL A   1      46.518  32.470  27.383  1.00  0.00     0.173 A 
ATOM     74  F   UNL A   1      43.059  32.819  28.434  1.00  0.00    -0.203 F 
ATOM     75  C   UNL A   1      44.336  34.093  26.944  1.00  0.00     0.198 A 
ATOM     76  C   UNL A   1      46.621  33.564  26.530  1.00  0.00     0.198 A 
ATOM     77  F   UNL A   1      47.605  31.693  27.421  1.00  0.00    -0.203 F 
ATOM     78  F   UNL A   1      43.247  34.822  26.670  1.00  0.00    -0.200 F 
ATOM     79  C   UNL A   1      45.519  34.353  26.280  1.00  0.00     0.200 A 
ATOM     80  F   UNL A   1      47.775  33.789  25.888  1.00  0.00    -0.200 F 
ATOM     81  F   UNL A   1      45.589  35.328  25.366  1.00  0.00    -0.200 F 
ENDBRANCH  57  71
BRANCH  58  82
ATOM     82  C   UNL A   1      37.021  31.313  30.662  1.00  0.00     0.064 A 
ATOM     83  C   UNL A   1      36.119  31.625  31.695  1.00  0.00     0.173 A 
ATOM     84  C   UNL A   1      36.730  31.867  29.398  1.00  0.00     0.173 A 
ATOM     85  F   UNL A   1      36.342  31.182  32.941  1.00  0.00    -0.203 F 
ATOM     86  C   UNL A   1      35.012  32.457  31.480  1.00  0.00     0.198 A 
ATOM     87  C   UNL A   1      35.624  32.690  29.184  1.00  0.00     0.198 A 
ATOM     88  F   UNL A   1      37.562  31.701  28.362  1.00  0.00    -0.203 F 
ATOM     89  F   UNL A   1      34.210  32.781  32.503  1.00  0.00    -0.200 F 
ATOM     90  C   UNL A   1      34.772  32.996  30.228  1.00  0.00     0.200 A 
ATOM     91  F   UNL A   1      35.427  33.235  27.975  1.00  0.00    -0.200 F 
ATOM     92  F   UNL A   1      33.750  33.842  30.034  1.00  0.00    -0.200 F 
ENDBRANCH  58  82
BRANCH  70  93
ATOM     93  C   UNL A   1      42.303  29.672  33.698  1.00  0.00     0.064 A 
ATOM     94  C   UNL A   1      41.818  28.358  33.576  1.00  0.00     0.173 A 
ATOM     95  C   UNL A   1      42.688  30.097  34.976  1.00  0.00     0.173 A 
ATOM     96  F   UNL A   1      41.532  27.838  32.377  1.00  0.00    -0.203 F 
ATOM     97  C   UNL A   1      41.684  27.528  34.689  1.00  0.00     0.198 A 
ATOM     98  C   UNL A   1      42.589  29.255  36.079  1.00  0.00     0.198 A 
ATOM     99  F   UNL A   1      43.216  31.320  35.145  1.00  0.00    -0.203 F 
ATOM    100  F   UNL A   1      41.210  26.280  34.545  1.00  0.00    -0.200 F 
ATOM    101  C   UNL A   1      42.078  27.975  35.939  1.00  0.00     0.200 A 
ATOM    102  F   UNL A   1      43.022  29.674  37.276  1.00  0.00    -0.200 F 
ATOM    103  F   UNL A   1      41.992  27.163  37.002  1.00  0.00    -0.200 F 
ENDBRANCH  70  93
ENDBRANCH  44  45
ENDBRANCH  37  39
ENDBRANCH  36  37
ENDBRANCH  35  36
ENDBRANCH  34  35
ENDBRANCH  33  34
ENDBRANCH   1  33
TORSDOF 19
ENDMDL
MODEL 2
REMARK VINA RESULT:     -12.5      3.485      9.156
REMARK SMILES CC(C)CCn1nc(C(=O)OCCOCCOC(=O)c2ccc(-c3c4nc(c(-c5c(F)c(F)c(F)c(F)c5F)c5ccc([nH]5)c(-c5c(F)c(F)c(F)c(F)c5F)c5nc(c(-c6c(F)c(F)c(F)c(F)c6F)c6ccc3[nH]6)C=C5)C=C4)cc2)c2c1CCN(C(=O)[C@@H]1CCc3nn(C)c(=O)n3C1)C2
REMARK SMILES IDX 13 1 12 2 11 3 9 4 10 5 8 6 6 7 7 8 84 9 83 10 85 11 101 12
REMARK SMILES IDX 86 13 87 14 5 15 4 16 2 17 1 18 3 19 88 20 89 21 90 22 91 23
REMARK SMILES IDX 100 24 92 25 99 26 93 27 97 28 94 29 95 30 98 31 96 32 14 33
REMARK SMILES IDX 15 34 16 35 17 36 18 37 19 38 20 39 21 40 82 41 22 42 81 43
REMARK SMILES IDX 23 44 24 45 25 46 75 47 26 48 80 49 74 50 76 51 27 52 79 53
REMARK SMILES IDX 73 54 72 55 28 57 60 58 40 59 59 60 41 61 44 62 58 63 77 64
REMARK SMILES IDX 42 65 43 66 57 68 78 69 45 70 29 71 30 72 38 73 31 74 32 75
REMARK SMILES IDX 36 76 39 77 33 78 34 79 37 80 35 81 61 82 62 83 70 84 63 85
REMARK SMILES IDX 64 86 68 87 71 88 65 89 66 90 69 91 67 92 46 93 47 94 55 95
REMARK SMILES IDX 48 96 49 97 53 98 56 99 50 100 51 101 54 102 52 103
REMARK H PARENT 76 56 44 67
REMARK Flexibility Score: inf
ROOT
ATOM      1  C   UNL A   1      34.274  31.957  28.389  1.00  0.00     0.202 C 
ENDROOT
BRANCH   1   2
ATOM      2  C   UNL A   1      33.314  31.450  27.316  1.00  0.00     0.261 C 
BRANCH   2   3
ATOM      3  O   UNL A   1      33.045  30.057  27.515  1.00  0.00    -0.458 OA
BRANCH   3   4
ATOM      4  C   UNL A   1      33.644  29.198  26.637  1.00  0.00     0.359 C 
ATOM      5  O   UNL A   1      34.822  28.860  26.700  1.00  0.00    -0.244 OA
BRANCH   4   6
ATOM      6  C   UNL A   1      32.670  28.663  25.670  1.00  0.00     0.175 A 
ATOM      7  N   UNL A   1      31.176  28.640  24.136  1.00  0.00    -0.268 N 
ATOM      8  N   UNL A   1      32.050  29.451  24.761  1.00  0.00    -0.165 NA
ATOM      9  C   UNL A   1      31.136  27.416  24.722  1.00  0.00     0.046 A 
ATOM     10  C   UNL A   1      32.243  27.312  25.536  1.00  0.00     0.028 A 
ATOM     11  C   UNL A   1      30.065  26.403  24.668  1.00  0.00     0.078 C 
ATOM     12  C   UNL A   1      32.636  26.053  26.259  1.00  0.00     0.159 C 
ATOM     13  C   UNL A   1      30.261  25.536  25.930  1.00  0.00     0.126 C 
ATOM     14  N   UNL A   1      31.618  24.998  26.016  1.00  0.00    -0.338 N 
BRANCH   7  15
ATOM     15  C   UNL A   1      30.300  29.136  23.091  1.00  0.00     0.145 C 
BRANCH  15  16
ATOM     16  C   UNL A   1      29.289  30.214  23.505  1.00  0.00     0.027 C 
BRANCH  16  17
ATOM     17  C   UNL A   1      27.921  30.174  22.792  1.00  0.00    -0.016 C 
ATOM     18  C   UNL A   1      28.032  30.409  21.283  1.00  0.00     0.007 C 
ATOM     19  C   UNL A   1      27.260  28.813  23.038  1.00  0.00     0.007 C 
ENDBRANCH  16  17
ENDBRANCH  15  16
ENDBRANCH   7  15
BRANCH  14  20
ATOM     20  C   UNL A   1      32.020  23.676  26.007  1.00  0.00     0.227 C 
ATOM     21  O   UNL A   1      32.311  23.132  27.084  1.00  0.00    -0.274 OA
BRANCH  20  22
ATOM     22  C   UNL A   1      32.169  22.782  24.745  1.00  0.00     0.099 C 
ATOM     23  C   UNL A   1      31.880  21.283  24.899  1.00  0.00     0.023 C 
ATOM     24  C   UNL A   1      33.369  23.040  23.843  1.00  0.00     0.142 C 
ATOM     25  C   UNL A   1      33.082  20.416  25.247  1.00  0.00     0.078 C 
ATOM     26  N   UNL A   1      34.459  22.127  24.093  1.00  0.00    -0.278 N 
ATOM     27  C   UNL A   1      34.397  20.967  24.779  1.00  0.00     0.133 A 
ATOM     28  C   UNL A   1      35.785  22.482  24.052  1.00  0.00     0.345 A 
ATOM     29  N   UNL A   1      35.549  20.507  25.176  1.00  0.00    -0.155 NA
ATOM     30  N   UNL A   1      36.451  21.455  24.734  1.00  0.00    -0.216 N 
ATOM     31  O   UNL A   1      36.250  23.541  23.664  1.00  0.00    -0.246 OA
ATOM     32  C   UNL A   1      37.766  21.591  25.302  1.00  0.00     0.179 C 
ENDBRANCH  20  22
ENDBRANCH  14  20
ENDBRANCH   4   6
ENDBRANCH   3   4
ENDBRANCH   2   3
ENDBRANCH   1   2
BRANCH   1  33
ATOM     33  O   UNL A   1      34.824  33.263  28.202  1.00  0.00    -0.374 OA
BRANCH  33  34
ATOM     34  C   UNL A   1      34.854  34.186  29.289  1.00  0.00     0.202 C 
BRANCH  34  35
ATOM     35  C   UNL A   1      34.653  33.634  30.690  1.00  0.00     0.261 C 
BRANCH  35  36
ATOM     36  O   UNL A   1      35.900  33.451  31.339  1.00  0.00    -0.460 OA
BRANCH  36  37
ATOM     37  C   UNL A   1      36.151  32.185  31.735  1.00  0.00     0.338 C 
ATOM     38  O   UNL A   1      36.005  31.711  32.855  1.00  0.00    -0.246 OA
BRANCH  37  39
ATOM     39  C   UNL A   1      36.816  31.491  30.628  1.00  0.00     0.060 A 
ATOM     40  C   UNL A   1      36.594  30.118  30.588  1.00  0.00     0.016 A 
ATOM     41  C   UNL A   1      37.957  32.082  30.071  1.00  0.00     0.016 A 
ATOM     42  C   UNL A   1      37.683  29.320  30.353  1.00  0.00     0.010 A 
ATOM     43  C   UNL A   1      39.045  31.289  29.845  1.00  0.00     0.010 A 
ATOM     44  C   UNL A   1      38.917  29.937  30.119  1.00  0.00    -0.014 A 
BRANCH  44  45
ATOM     45  C   UNL A   1      40.094  29.114  30.070  1.00  0.00     0.031 A 
ATOM     46  C   UNL A   1      40.663  28.919  31.410  1.00  0.00     0.074 A 
ATOM     47  C   UNL A   1      40.548  28.555  28.936  1.00  0.00     0.049 A 
ATOM     48  N   UNL A   1      41.717  29.492  31.883  1.00  0.00    -0.248 NA
ATOM     49  C   UNL A   1      39.845  28.221  32.412  1.00  0.00     0.031 C 
ATOM     50  C   UNL A   1      39.935  28.493  27.610  1.00  0.00     0.029 A 
ATOM     51  N   UNL A   1      41.688  27.834  28.783  1.00  0.00    -0.354 N 
ATOM     52  C   UNL A   1      41.802  29.069  33.200  1.00  0.00     0.074 A 
ATOM     53  C   UNL A   1      40.525  28.494  33.525  1.00  0.00     0.031 C 
ATOM     54  C   UNL A   1      40.600  27.583  26.856  1.00  0.00     0.029 A 
ATOM     55  C   UNL A   1      41.748  27.103  27.603  1.00  0.00     0.049 A 
ATOM     56  H   UNL A   1      42.410  27.829  29.452  1.00  0.00     0.167 HD
ATOM     57  C   UNL A   1      43.010  28.989  33.816  1.00  0.00     0.037 A 
ATOM     58  C   UNL A   1      42.642  26.106  27.374  1.00  0.00     0.037 A 
ATOM     59  C   UNL A   1      44.007  29.741  33.092  1.00  0.00     0.049 A 
ATOM     60  C   UNL A   1      43.792  26.341  28.301  1.00  0.00     0.074 A 
ATOM     61  C   UNL A   1      44.148  31.076  32.759  1.00  0.00     0.029 A 
ATOM     62  N   UNL A   1      44.830  29.051  32.231  1.00  0.00    -0.354 N 
ATOM     63  N   UNL A   1      44.597  27.366  28.190  1.00  0.00    -0.248 NA
ATOM     64  C   UNL A   1      43.718  25.751  29.633  1.00  0.00     0.031 C 
ATOM     65  C   UNL A   1      44.658  31.075  31.428  1.00  0.00     0.029 A 
ATOM     66  C   UNL A   1      44.875  29.749  31.050  1.00  0.00     0.049 A 
ATOM     67  H   UNL A   1      45.302  28.210  32.428  1.00  0.00     0.167 HD
ATOM     68  C   UNL A   1      44.788  27.811  29.493  1.00  0.00     0.074 A 
ATOM     69  C   UNL A   1      44.265  26.743  30.344  1.00  0.00     0.031 C 
ATOM     70  C   UNL A   1      45.060  29.122  29.762  1.00  0.00     0.037 A 
BRANCH  57  71
ATOM     71  C   UNL A   1      43.368  27.925  34.820  1.00  0.00     0.064 A 
ATOM     72  C   UNL A   1      43.759  28.328  36.111  1.00  0.00     0.173 A 
ATOM     73  C   UNL A   1      43.631  26.574  34.498  1.00  0.00     0.173 A 
ATOM     74  F   UNL A   1      43.560  29.588  36.525  1.00  0.00    -0.203 F 
ATOM     75  C   UNL A   1      44.453  27.472  36.969  1.00  0.00     0.198 A 
ATOM     76  C   UNL A   1      44.273  25.709  35.379  1.00  0.00     0.198 A 
ATOM     77  F   UNL A   1      43.390  26.057  33.289  1.00  0.00    -0.203 F 
ATOM     78  F   UNL A   1      44.926  27.941  38.131  1.00  0.00    -0.200 F 
ATOM     79  C   UNL A   1      44.718  26.168  36.599  1.00  0.00     0.200 A 
ATOM     80  F   UNL A   1      44.530  24.452  34.991  1.00  0.00    -0.200 F 
ATOM     81  F   UNL A   1      45.442  25.367  37.389  1.00  0.00    -0.200 F 
ENDBRANCH  57  71
BRANCH  58  82
ATOM     82  C   UNL A   1      42.382  24.798  26.720  1.00  0.00     0.064 A 
ATOM     83  C   UNL A   1      43.154  24.364  25.629  1.00  0.00     0.173 A 
ATOM     84  C   UNL A   1      41.553  23.827  27.318  1.00  0.00     0.173 A 
ATOM     85  F   UNL A   1      44.007  25.207  25.028  1.00  0.00    -0.203 F 
ATOM     86  C   UNL A   1      43.115  23.037  25.180  1.00  0.00     0.198 A 
ATOM     87  C   UNL A   1      41.511  22.507  26.867  1.00  0.00     0.198 A 
ATOM     88  F   UNL A   1      40.836  24.108  28.413  1.00  0.00    -0.203 F 
ATOM     89  F   UNL A   1      43.911  22.645  24.176  1.00  0.00    -0.200 F 
ATOM     90  C   UNL A   1      42.302  22.108  25.807  1.00  0.00     0.200 A 
ATOM     91  F   UNL A   1      40.746  21.611  27.509  1.00  0.00    -0.200 F 
ATOM     92  F   UNL A   1      42.309  20.824  25.421  1.00  0.00    -0.200 F 
ENDBRANCH  58  82
BRANCH  70  93
ATOM     93  C   UNL A   1      45.352  30.036  28.604  1.00  0.00     0.064 A 
ATOM     94  C   UNL A   1      44.363  30.731  27.884  1.00  0.00     0.173 A 
ATOM     95  C   UNL A   1      46.688  30.353  28.326  1.00  0.00     0.173 A 
ATOM     96  F   UNL A   1      43.065  30.568  28.165  1.00  0.00    -0.203 F 
ATOM     97  C   UNL A   1      44.700  31.663  26.903  1.00  0.00     0.198 A 
ATOM     98  C   UNL A   1      47.022  31.310  27.373  1.00  0.00     0.198 A 
ATOM     99  F   UNL A   1      47.674  29.768  29.024  1.00  0.00    -0.203 F 
ATOM    100  F   UNL A   1      43.736  32.305  26.225  1.00  0.00    -0.200 F 
ATOM    101  C   UNL A   1      46.030  31.957  26.654  1.00  0.00     0.200 A 
ATOM    102  F   UNL A   1      48.307  31.630  27.175  1.00  0.00    -0.200 F 
ATOM    103  F   UNL A   1      46.355  32.885  25.742  1.00  0.00    -0.200 F 
ENDBRANCH  70  93
ENDBRANCH  44  45
ENDBRANCH  37  39
ENDBRANCH  36  37
ENDBRANCH  35  36
ENDBRANCH  34  35
ENDBRANCH  33  34
ENDBRANCH   1  33
TORSDOF 19
ENDMDL
MODEL 3
REMARK VINA RESULT:     -12.4      2.093      3.007
REMARK SMILES CC(C)CCn1nc(C(=O)OCCOCCOC(=O)c2ccc(-c3c4nc(c(-c5c(F)c(F)c(F)c(F)c5F)c5ccc([nH]5)c(-c5c(F)c(F)c(F)c(F)c5F)c5nc(c(-c6c(F)c(F)c(F)c(F)c6F)c6ccc3[nH]6)C=C5)C=C4)cc2)c2c1CCN(C(=O)[C@@H]1CCc3nn(C)c(=O)n3C1)C2
REMARK SMILES IDX 13 1 12 2 11 3 9 4 10 5 8 6 6 7 7 8 84 9 83 10 85 11 101 12
REMARK SMILES IDX 86 13 87 14 5 15 4 16 2 17 1 18 3 19 88 20 89 21 90 22 91 23
REMARK SMILES IDX 100 24 92 25 99 26 93 27 97 28 94 29 95 30 98 31 96 32 14 33
REMARK SMILES IDX 15 34 16 35 17 36 18 37 19 38 20 39 21 40 82 41 22 42 81 43
REMARK SMILES IDX 23 44 24 45 25 46 75 47 26 48 80 49 74 50 76 51 27 52 79 53
REMARK SMILES IDX 73 54 72 55 28 57 60 58 40 59 59 60 41 61 44 62 58 63 77 64
REMARK SMILES IDX 42 65 43 66 57 68 78 69 45 70 29 71 30 72 38 73 31 74 32 75
REMARK SMILES IDX 36 76 39 77 33 78 34 79 37 80 35 81 61 82 62 83 70 84 63 85
REMARK SMILES IDX 64 86 68 87 71 88 65 89 66 90 69 91 67 92 46 93 47 94 55 95
REMARK SMILES IDX 48 96 49 97 53 98 56 99 50 100 51 101 54 102 52 103
REMARK H PARENT 76 56 44 67
REMARK Flexibility Score: inf
ROOT
ATOM      1  C   UNL A   1      39.472  20.046  25.260  1.00  0.00     0.202 C 
ENDROOT
BRANCH   1   2
ATOM      2  C   UNL A   1      37.977  19.975  24.955  1.00  0.00     0.261 C 
BRANCH   2   3
ATOM      3  O   UNL A   1      37.286  21.033  25.629  1.00  0.00    -0.458 OA
BRANCH   3   4
ATOM      4  C   UNL A   1      36.768  22.015  24.833  1.00  0.00     0.359 C 
ATOM      5  O   UNL A   1      37.424  22.941  24.368  1.00  0.00    -0.244 OA
BRANCH   4   6
ATOM      6  C   UNL A   1      35.349  21.761  24.532  1.00  0.00     0.175 A 
ATOM      7  N   UNL A   1      33.493  20.705  24.374  1.00  0.00    -0.268 N 
ATOM      8  N   UNL A   1      34.727  20.618  24.904  1.00  0.00    -0.165 NA
ATOM      9  C   UNL A   1      33.378  21.794  23.571  1.00  0.00     0.046 A 
ATOM     10  C   UNL A   1      34.448  22.619  23.841  1.00  0.00     0.028 A 
ATOM     11  C   UNL A   1      32.410  22.041  22.486  1.00  0.00     0.078 C 
ATOM     12  C   UNL A   1      34.613  23.995  23.257  1.00  0.00     0.159 C 
ATOM     13  C   UNL A   1      33.086  23.082  21.568  1.00  0.00     0.126 C 
ATOM     14  N   UNL A   1      33.503  24.273  22.308  1.00  0.00    -0.338 N 
BRANCH   7  15
ATOM     15  C   UNL A   1      32.521  19.641  24.544  1.00  0.00     0.145 C 
BRANCH  15  16
ATOM     16  C   UNL A   1      32.463  18.588  23.428  1.00  0.00     0.027 C 
BRANCH  16  17
ATOM     17  C   UNL A   1      32.926  17.166  23.811  1.00  0.00    -0.016 C 
ATOM     18  C   UNL A   1      34.257  16.782  23.161  1.00  0.00     0.007 C 
ATOM     19  C   UNL A   1      33.067  17.070  25.334  1.00  0.00     0.007 C 
ENDBRANCH  16  17
ENDBRANCH  15  16
ENDBRANCH   7  15
BRANCH  14  20
ATOM     20  C   UNL A   1      33.074  25.576  22.149  1.00  0.00     0.227 C 
ATOM     21  O   UNL A   1      33.485  26.226  21.174  1.00  0.00    -0.274 OA
BRANCH  20  22
ATOM     22  C   UNL A   1      32.120  26.340  23.107  1.00  0.00     0.099 C 
ATOM     23  C   UNL A   1      32.732  27.422  24.007  1.00  0.00     0.023 C 
ATOM     24  C   UNL A   1      31.063  25.524  23.839  1.00  0.00     0.142 C 
ATOM     25  C   UNL A   1      33.192  26.950  25.380  1.00  0.00     0.078 C 
ATOM     26  N   UNL A   1      31.454  25.190  25.188  1.00  0.00    -0.278 N 
ATOM     27  C   UNL A   1      32.450  25.754  25.901  1.00  0.00     0.133 A 
ATOM     28  C   UNL A   1      31.174  23.990  25.796  1.00  0.00     0.345 A 
ATOM     29  N   UNL A   1      32.843  25.060  26.931  1.00  0.00    -0.155 NA
ATOM     30  N   UNL A   1      32.054  23.928  26.884  1.00  0.00    -0.216 N 
ATOM     31  O   UNL A   1      30.449  23.105  25.374  1.00  0.00    -0.246 OA
ATOM     32  C   UNL A   1      32.418  22.706  27.552  1.00  0.00     0.179 C 
ENDBRANCH  20  22
ENDBRANCH  14  20
ENDBRANCH   4   6
ENDBRANCH   3   4
ENDBRANCH   2   3
ENDBRANCH   1   2
BRANCH   1  33
ATOM     33  O   UNL A   1      39.894  21.037  26.200  1.00  0.00    -0.374 OA
BRANCH  33  34
ATOM     34  C   UNL A   1      40.746  20.674  27.283  1.00  0.00     0.202 C 
BRANCH  34  35
ATOM     35  C   UNL A   1      42.247  20.722  27.049  1.00  0.00     0.261 C 
BRANCH  35  36
ATOM     36  O   UNL A   1      42.535  20.790  25.663  1.00  0.00    -0.460 OA
BRANCH  36  37
ATOM     37  C   UNL A   1      43.849  20.770  25.357  1.00  0.00     0.338 C 
ATOM     38  O   UNL A   1      44.597  19.800  25.340  1.00  0.00    -0.246 OA
BRANCH  37  39
ATOM     39  C   UNL A   1      44.300  22.158  25.218  1.00  0.00     0.060 A 
ATOM     40  C   UNL A   1      45.258  22.552  26.147  1.00  0.00     0.016 A 
ATOM     41  C   UNL A   1      43.438  23.071  24.597  1.00  0.00     0.016 A 
ATOM     42  C   UNL A   1      45.083  23.776  26.738  1.00  0.00     0.010 A 
ATOM     43  C   UNL A   1      43.256  24.288  25.190  1.00  0.00     0.010 A 
ATOM     44  C   UNL A   1      43.996  24.558  26.331  1.00  0.00    -0.014 A 
BRANCH  44  45
ATOM     45  C   UNL A   1      43.691  25.747  27.079  1.00  0.00     0.031 A 
ATOM     46  C   UNL A   1      44.655  26.817  26.793  1.00  0.00     0.074 A 
ATOM     47  C   UNL A   1      42.615  25.852  27.876  1.00  0.00     0.049 A 
ATOM     48  N   UNL A   1      45.614  27.207  27.562  1.00  0.00    -0.248 NA
ATOM     49  C   UNL A   1      44.726  27.332  25.418  1.00  0.00     0.031 C 
ATOM     50  C   UNL A   1      41.481  24.944  28.047  1.00  0.00     0.029 A 
ATOM     51  N   UNL A   1      42.294  26.901  28.676  1.00  0.00    -0.354 N 
ATOM     52  C   UNL A   1      46.299  28.165  26.832  1.00  0.00     0.074 A 
ATOM     53  C   UNL A   1      45.860  28.029  25.470  1.00  0.00     0.031 C 
ATOM     54  C   UNL A   1      40.495  25.587  28.720  1.00  0.00     0.029 A 
ATOM     55  C   UNL A   1      40.980  26.892  29.130  1.00  0.00     0.049 A 
ATOM     56  H   UNL A   1      42.937  27.608  28.913  1.00  0.00     0.167 HD
ATOM     57  C   UNL A   1      46.968  29.162  27.469  1.00  0.00     0.037 A 
ATOM     58  C   UNL A   1      40.367  27.966  29.693  1.00  0.00     0.037 A 
ATOM     59  C   UNL A   1      47.172  28.835  28.860  1.00  0.00     0.049 A 
ATOM     60  C   UNL A   1      41.451  28.856  30.211  1.00  0.00     0.074 A 
ATOM     61  C   UNL A   1      47.844  27.822  29.519  1.00  0.00     0.029 A 
ATOM     62  N   UNL A   1      46.291  29.360  29.778  1.00  0.00    -0.354 N 
ATOM     63  N   UNL A   1      42.231  28.522  31.205  1.00  0.00    -0.248 NA
ATOM     64  C   UNL A   1      42.001  29.853  29.297  1.00  0.00     0.031 C 
ATOM     65  C   UNL A   1      47.006  27.475  30.619  1.00  0.00     0.029 A 
ATOM     66  C   UNL A   1      45.914  28.343  30.620  1.00  0.00     0.049 A 
ATOM     67  H   UNL A   1      45.988  30.295  29.823  1.00  0.00     0.167 HD
ATOM     68  C   UNL A   1      43.502  28.924  30.812  1.00  0.00     0.074 A 
ATOM     69  C   UNL A   1      43.289  29.787  29.650  1.00  0.00     0.031 C 
ATOM     70  C   UNL A   1      44.620  28.280  31.260  1.00  0.00     0.037 A 
BRANCH  57  71
ATOM     71  C   UNL A   1      47.070  30.569  26.942  1.00  0.00     0.064 A 
ATOM     72  C   UNL A   1      48.327  31.203  26.969  1.00  0.00     0.173 A 
ATOM     73  C   UNL A   1      45.966  31.416  26.697  1.00  0.00     0.173 A 
ATOM     74  F   UNL A   1      49.445  30.497  27.195  1.00  0.00    -0.203 F 
ATOM     75  C   UNL A   1      48.453  32.590  26.863  1.00  0.00     0.198 A 
ATOM     76  C   UNL A   1      46.102  32.791  26.535  1.00  0.00     0.198 A 
ATOM     77  F   UNL A   1      44.701  30.983  26.714  1.00  0.00    -0.203 F 
ATOM     78  F   UNL A   1      49.652  33.160  27.033  1.00  0.00    -0.200 F 
ATOM     79  C   UNL A   1      47.340  33.383  26.657  1.00  0.00     0.200 A 
ATOM     80  F   UNL A   1      45.008  33.541  26.349  1.00  0.00    -0.200 F 
ATOM     81  F   UNL A   1      47.449  34.716  26.623  1.00  0.00    -0.200 F 
ENDBRANCH  57  71
BRANCH  58  82
ATOM     82  C   UNL A   1      38.977  28.435  29.455  1.00  0.00     0.064 A 
ATOM     83  C   UNL A   1      38.089  28.652  30.522  1.00  0.00     0.173 A 
ATOM     84  C   UNL A   1      38.575  28.939  28.201  1.00  0.00     0.173 A 
ATOM     85  F   UNL A   1      38.412  28.249  31.760  1.00  0.00    -0.203 F 
ATOM     86  C   UNL A   1      36.887  29.350  30.350  1.00  0.00     0.198 A 
ATOM     87  C   UNL A   1      37.374  29.629  28.029  1.00  0.00     0.198 A 
ATOM     88  F   UNL A   1      39.378  28.860  27.132  1.00  0.00    -0.203 F 
ATOM     89  F   UNL A   1      36.094  29.590  31.403  1.00  0.00    -0.200 F 
ATOM     90  C   UNL A   1      36.536  29.846  29.106  1.00  0.00     0.200 A 
ATOM     91  F   UNL A   1      37.067  30.137  26.826  1.00  0.00    -0.200 F 
ATOM     92  F   UNL A   1      35.416  30.568  28.950  1.00  0.00    -0.200 F 
ENDBRANCH  58  82
BRANCH  70  93
ATOM     93  C   UNL A   1      44.458  27.256  32.349  1.00  0.00     0.064 A 
ATOM     94  C   UNL A   1      44.258  25.884  32.114  1.00  0.00     0.173 A 
ATOM     95  C   UNL A   1      44.686  27.653  33.673  1.00  0.00     0.173 A 
ATOM     96  F   UNL A   1      44.144  25.409  30.868  1.00  0.00    -0.203 F 
ATOM     97  C   UNL A   1      44.242  24.963  33.161  1.00  0.00     0.198 A 
ATOM     98  C   UNL A   1      44.706  26.727  34.713  1.00  0.00     0.198 A 
ATOM     99  F   UNL A   1      44.944  28.939  33.953  1.00  0.00    -0.203 F 
ATOM    100  F   UNL A   1      44.040  23.660  32.909  1.00  0.00    -0.200 F 
ATOM    101  C   UNL A   1      44.474  25.385  34.459  1.00  0.00     0.200 A 
ATOM    102  F   UNL A   1      44.986  27.133  35.958  1.00  0.00    -0.200 F 
ATOM    103  F   UNL A   1      44.503  24.495  35.461  1.00  0.00    -0.200 F 
ENDBRANCH  70  93
ENDBRANCH  44  45
ENDBRANCH  37  39
ENDBRANCH  36  37
ENDBRANCH  35  36
ENDBRANCH  34  35
ENDBRANCH  33  34
ENDBRANCH   1  33
TORSDOF 19
ENDMDL
