MODEL 1
REMARK VINA RESULT:     -12.6      0.000      0.000
REMARK SMILES CC(C)(C)c1ccc(OCC(=O)NNC(=O)[C@H]2[C@@H](C(=O)OCCOCCOC(=O)c3ccc(-c4c5nc(c(-c6c(F)c(F)c(F)c(F)c6F)c6ccc([nH]6)c(-c6c(F)c(F)c(F)c(F)c6F)c6nc(c(-c7c(F)c(F)c(F)c(F)c7F)c7ccc4[nH]7)C=C6)C=C5)cc3)[C@@H]3C=C[C@H]2C3)cc1
REMARK SMILES IDX 22 1 21 2 19 3 20 4 18 5 17 6 96 7 93 8 95 9 97 10 94 11
REMARK SMILES IDX 15 12 14 13 16 15 13 16 11 17 12 18 10 20 9 21 8 22 5 23
REMARK SMILES IDX 6 24 99 25 7 26 98 27 2 28 1 29 3 30 4 31 23 32 24 33 25 34
REMARK SMILES IDX 26 35 27 36 28 37 29 38 30 39 31 40 92 41 32 42 91 43 33 44
REMARK SMILES IDX 34 45 35 46 85 47 36 48 90 49 84 50 86 51 37 52 89 53 83 54
REMARK SMILES IDX 82 55 38 57 70 58 50 59 69 60 51 61 54 62 68 63 87 64 52 65
REMARK SMILES IDX 53 66 67 68 88 69 55 70 39 71 40 72 48 73 41 74 42 75 46 76
REMARK SMILES IDX 49 77 43 78 44 79 47 80 45 81 71 82 72 83 80 84 73 85 74 86
REMARK SMILES IDX 78 87 81 88 75 89 76 90 79 91 77 92 56 93 57 94 65 95 58 96
REMARK SMILES IDX 59 97 63 98 66 99 60 100 61 101 64 102 62 103
REMARK H PARENT 14 14 13 19 86 56 54 67
REMARK Flexibility Score: inf
ROOT
ATOM      1  C   UNL A   1      35.243  23.999  24.711  1.00  0.00     0.261 C 
ENDROOT
BRANCH   1   2
ATOM      2  O   UNL A   1      34.918  25.178  25.497  1.00  0.00    -0.463 OA
BRANCH   2   3
ATOM      3  C   UNL A   1      33.943  25.952  24.957  1.00  0.00     0.310 C 
ATOM      4  O   UNL A   1      33.765  26.020  23.741  1.00  0.00    -0.252 OA
BRANCH   3   5
ATOM      5  C   UNL A   1      33.175  26.863  25.910  1.00  0.00     0.119 C 
ATOM      6  C   UNL A   1      31.641  27.276  25.987  1.00  0.00     0.102 C 
ATOM      7  C   UNL A   1      31.713  28.819  26.070  1.00  0.00     0.025 C 
ATOM      8  C   UNL A   1      33.866  28.276  25.837  1.00  0.00     0.027 C 
ATOM      9  C   UNL A   1      32.434  29.231  27.340  1.00  0.00    -0.027 C 
ATOM     10  C   UNL A   1      32.835  29.101  25.070  1.00  0.00     0.017 C 
ATOM     11  C   UNL A   1      33.729  28.925  27.187  1.00  0.00    -0.027 C 
BRANCH   6  12
ATOM     12  C   UNL A   1      30.512  26.684  25.114  1.00  0.00     0.242 C 
ATOM     13  N   UNL A   1      29.789  25.527  25.367  1.00  0.00    -0.267 N 
ATOM     14  H   UNL A   1      29.194  25.219  24.645  1.00  0.00     0.191 HD
ATOM     15  O   UNL A   1      30.227  27.296  24.073  1.00  0.00    -0.273 OA
BRANCH  13  16
ATOM     16  N   UNL A   1      29.809  24.749  26.522  1.00  0.00    -0.265 N 
ATOM     17  C   UNL A   1      30.070  23.404  26.665  1.00  0.00     0.276 C 
ATOM     18  O   UNL A   1      29.705  22.895  27.733  1.00  0.00    -0.269 OA
ATOM     19  H   UNL A   1      29.607  25.229  27.358  1.00  0.00     0.191 HD
BRANCH  17  20
ATOM     20  C   UNL A   1      30.902  22.574  25.648  1.00  0.00     0.331 C 
BRANCH  20  21
ATOM     21  O   UNL A   1      32.302  22.389  25.590  1.00  0.00    -0.484 OA
BRANCH  21  22
ATOM     22  C   UNL A   1      32.887  21.211  25.235  1.00  0.00     0.120 A 
ATOM     23  C   UNL A   1      33.607  18.514  24.614  1.00  0.00    -0.042 A 
ATOM     24  C   UNL A   1      32.450  19.102  24.080  1.00  0.00     0.008 A 
ATOM     25  C   UNL A   1      34.446  19.359  25.374  1.00  0.00     0.008 A 
ATOM     26  C   UNL A   1      32.106  20.427  24.378  1.00  0.00     0.047 A 
ATOM     27  C   UNL A   1      34.091  20.691  25.685  1.00  0.00     0.047 A 
BRANCH  23  28
ATOM     28  C   UNL A   1      33.943  17.028  24.361  1.00  0.00    -0.013 C 
ATOM     29  C   UNL A   1      32.861  16.047  24.886  1.00  0.00     0.016 C 
ATOM     30  C   UNL A   1      35.263  16.588  25.039  1.00  0.00     0.016 C 
ATOM     31  C   UNL A   1      34.072  16.825  22.841  1.00  0.00     0.016 C 
ENDBRANCH  23  28
ENDBRANCH  21  22
ENDBRANCH  20  21
ENDBRANCH  17  20
ENDBRANCH  13  16
ENDBRANCH   6  12
ENDBRANCH   3   5
ENDBRANCH   2   3
ENDBRANCH   1   2
BRANCH   1  32
ATOM     32  C   UNL A   1      36.629  23.357  24.911  1.00  0.00     0.202 C 
BRANCH  32  33
ATOM     33  O   UNL A   1      36.994  22.255  24.103  1.00  0.00    -0.374 OA
BRANCH  33  34
ATOM     34  C   UNL A   1      37.654  21.162  24.705  1.00  0.00     0.202 C 
BRANCH  34  35
ATOM     35  C   UNL A   1      38.574  21.388  25.902  1.00  0.00     0.261 C 
BRANCH  35  36
ATOM     36  O   UNL A   1      39.861  20.797  25.866  1.00  0.00    -0.460 OA
BRANCH  36  37
ATOM     37  C   UNL A   1      40.533  20.822  27.043  1.00  0.00     0.338 C 
ATOM     38  O   UNL A   1      40.716  19.897  27.812  1.00  0.00    -0.246 OA
BRANCH  37  39
ATOM     39  C   UNL A   1      40.876  22.236  27.306  1.00  0.00     0.060 A 
ATOM     40  C   UNL A   1      40.338  23.265  26.524  1.00  0.00     0.016 A 
ATOM     41  C   UNL A   1      41.726  22.529  28.375  1.00  0.00     0.016 A 
ATOM     42  C   UNL A   1      40.682  24.590  26.789  1.00  0.00     0.010 A 
ATOM     43  C   UNL A   1      42.049  23.858  28.657  1.00  0.00     0.010 A 
ATOM     44  C   UNL A   1      41.554  24.892  27.844  1.00  0.00    -0.014 A 
BRANCH  44  45
ATOM     45  C   UNL A   1      42.042  26.279  28.029  1.00  0.00     0.031 A 
ATOM     46  C   UNL A   1      43.376  26.663  27.457  1.00  0.00     0.074 A 
ATOM     47  C   UNL A   1      41.295  27.183  28.689  1.00  0.00     0.049 A 
ATOM     48  N   UNL A   1      44.001  27.812  27.495  1.00  0.00    -0.248 NA
ATOM     49  C   UNL A   1      44.111  25.603  26.747  1.00  0.00     0.031 C 
ATOM     50  C   UNL A   1      39.982  26.923  29.274  1.00  0.00     0.029 A 
ATOM     51  N   UNL A   1      41.537  28.502  28.977  1.00  0.00    -0.354 N 
ATOM     52  C   UNL A   1      45.200  27.611  26.825  1.00  0.00     0.074 A 
ATOM     53  C   UNL A   1      45.235  26.223  26.422  1.00  0.00     0.031 C 
ATOM     54  C   UNL A   1      39.528  28.051  29.846  1.00  0.00     0.029 A 
ATOM     55  C   UNL A   1      40.532  29.102  29.692  1.00  0.00     0.049 A 
ATOM     56  H   UNL A   1      42.356  28.974  28.697  1.00  0.00     0.167 HD
ATOM     57  C   UNL A   1      46.179  28.510  26.561  1.00  0.00     0.037 A 
ATOM     58  C   UNL A   1      40.441  30.355  30.176  1.00  0.00     0.037 A 
ATOM     59  C   UNL A   1      46.135  29.889  26.970  1.00  0.00     0.049 A 
ATOM     60  C   UNL A   1      41.564  31.324  29.909  1.00  0.00     0.074 A 
ATOM     61  C   UNL A   1      47.059  30.891  26.735  1.00  0.00     0.029 A 
ATOM     62  N   UNL A   1      45.109  30.456  27.715  1.00  0.00    -0.354 N 
ATOM     63  N   UNL A   1      42.675  31.139  29.237  1.00  0.00    -0.248 NA
ATOM     64  C   UNL A   1      41.415  32.677  30.462  1.00  0.00     0.031 C 
ATOM     65  C   UNL A   1      46.618  32.051  27.382  1.00  0.00     0.029 A 
ATOM     66  C   UNL A   1      45.390  31.789  27.970  1.00  0.00     0.049 A 
ATOM     67  H   UNL A   1      44.301  29.982  28.017  1.00  0.00     0.167 HD
ATOM     68  C   UNL A   1      43.342  32.358  29.258  1.00  0.00     0.074 A 
ATOM     69  C   UNL A   1      42.505  33.276  30.002  1.00  0.00     0.031 C 
ATOM     70  C   UNL A   1      44.537  32.688  28.706  1.00  0.00     0.037 A 
BRANCH  57  71
ATOM     71  C   UNL A   1      47.389  28.013  25.823  1.00  0.00     0.064 A 
ATOM     72  C   UNL A   1      48.583  27.691  26.488  1.00  0.00     0.173 A 
ATOM     73  C   UNL A   1      47.353  27.853  24.430  1.00  0.00     0.173 A 
ATOM     74  F   UNL A   1      48.676  27.840  27.818  1.00  0.00    -0.203 F 
ATOM     75  C   UNL A   1      49.704  27.263  25.781  1.00  0.00     0.198 A 
ATOM     76  C   UNL A   1      48.467  27.395  23.730  1.00  0.00     0.198 A 
ATOM     77  F   UNL A   1      46.237  28.142  23.744  1.00  0.00    -0.203 F 
ATOM     78  F   UNL A   1      50.851  27.019  26.433  1.00  0.00    -0.200 F 
ATOM     79  C   UNL A   1      49.644  27.110  24.405  1.00  0.00     0.200 A 
ATOM     80  F   UNL A   1      48.404  27.236  22.401  1.00  0.00    -0.200 F 
ATOM     81  F   UNL A   1      50.725  26.699  23.727  1.00  0.00    -0.200 F 
ENDBRANCH  57  71
BRANCH  58  82
ATOM     82  C   UNL A   1      39.235  30.769  30.939  1.00  0.00     0.064 A 
ATOM     83  C   UNL A   1      38.123  31.320  30.288  1.00  0.00     0.173 A 
ATOM     84  C   UNL A   1      39.164  30.615  32.332  1.00  0.00     0.173 A 
ATOM     85  F   UNL A   1      38.149  31.510  28.961  1.00  0.00    -0.203 F 
ATOM     86  C   UNL A   1      36.991  31.711  31.002  1.00  0.00     0.198 A 
ATOM     87  C   UNL A   1      38.022  30.980  33.040  1.00  0.00     0.198 A 
ATOM     88  F   UNL A   1      40.202  30.093  33.003  1.00  0.00    -0.203 F 
ATOM     89  F   UNL A   1      35.956  32.270  30.359  1.00  0.00    -0.200 F 
ATOM     90  C   UNL A   1      36.938  31.534  32.376  1.00  0.00     0.200 A 
ATOM     91  F   UNL A   1      37.970  30.794  34.367  1.00  0.00    -0.200 F 
ATOM     92  F   UNL A   1      35.846  31.900  33.060  1.00  0.00    -0.200 F 
ENDBRANCH  58  82
BRANCH  70  93
ATOM     93  C   UNL A   1      44.988  34.113  28.849  1.00  0.00     0.064 A 
ATOM     94  C   UNL A   1      45.807  34.527  29.911  1.00  0.00     0.173 A 
ATOM     95  C   UNL A   1      44.626  35.068  27.888  1.00  0.00     0.173 A 
ATOM     96  F   UNL A   1      46.170  33.655  30.864  1.00  0.00    -0.203 F 
ATOM     97  C   UNL A   1      46.221  35.853  30.019  1.00  0.00     0.198 A 
ATOM     98  C   UNL A   1      45.068  36.384  27.982  1.00  0.00     0.198 A 
ATOM     99  F   UNL A   1      43.851  34.721  26.848  1.00  0.00    -0.203 F 
ATOM    100  F   UNL A   1      46.960  36.237  31.068  1.00  0.00    -0.200 F 
ATOM    101  C   UNL A   1      45.858  36.777  29.051  1.00  0.00     0.200 A 
ATOM    102  F   UNL A   1      44.728  37.272  27.038  1.00  0.00    -0.200 F 
ATOM    103  F   UNL A   1      46.263  38.050  29.154  1.00  0.00    -0.200 F 
ENDBRANCH  70  93
ENDBRANCH  44  45
ENDBRANCH  37  39
ENDBRANCH  36  37
ENDBRANCH  35  36
ENDBRANCH  34  35
ENDBRANCH  33  34
ENDBRANCH  32  33
ENDBRANCH   1  32
TORSDOF 20
ENDMDL
MODEL 2
REMARK VINA RESULT:     -12.5      1.819      3.081
REMARK SMILES CC(C)(C)c1ccc(OCC(=O)NNC(=O)[C@H]2[C@@H](C(=O)OCCOCCOC(=O)c3ccc(-c4c5nc(c(-c6c(F)c(F)c(F)c(F)c6F)c6ccc([nH]6)c(-c6c(F)c(F)c(F)c(F)c6F)c6nc(c(-c7c(F)c(F)c(F)c(F)c7F)c7ccc4[nH]7)C=C6)C=C5)cc3)[C@@H]3C=C[C@H]2C3)cc1
REMARK SMILES IDX 22 1 21 2 19 3 20 4 18 5 17 6 96 7 93 8 95 9 97 10 94 11
REMARK SMILES IDX 15 12 14 13 16 15 13 16 11 17 12 18 10 20 9 21 8 22 5 23
REMARK SMILES IDX 6 24 99 25 7 26 98 27 2 28 1 29 3 30 4 31 23 32 24 33 25 34
REMARK SMILES IDX 26 35 27 36 28 37 29 38 30 39 31 40 92 41 32 42 91 43 33 44
REMARK SMILES IDX 34 45 35 46 85 47 36 48 90 49 84 50 86 51 37 52 89 53 83 54
REMARK SMILES IDX 82 55 38 57 70 58 50 59 69 60 51 61 54 62 68 63 87 64 52 65
REMARK SMILES IDX 53 66 67 68 88 69 55 70 39 71 40 72 48 73 41 74 42 75 46 76
REMARK SMILES IDX 49 77 43 78 44 79 47 80 45 81 71 82 72 83 80 84 73 85 74 86
REMARK SMILES IDX 78 87 81 88 75 89 76 90 79 91 77 92 56 93 57 94 65 95 58 96
REMARK SMILES IDX 59 97 63 98 66 99 60 100 61 101 64 102 62 103
REMARK H PARENT 14 14 13 19 86 56 54 67
REMARK Flexibility Score: inf
ROOT
ATOM      1  C   UNL A   1      35.197  24.244  24.819  1.00  0.00     0.261 C 
ENDROOT
BRANCH   1   2
ATOM      2  O   UNL A   1      34.723  25.563  25.211  1.00  0.00    -0.463 OA
BRANCH   2   3
ATOM      3  C   UNL A   1      33.742  26.056  24.414  1.00  0.00     0.310 C 
ATOM      4  O   UNL A   1      33.658  25.756  23.224  1.00  0.00    -0.252 OA
BRANCH   3   5
ATOM      5  C   UNL A   1      32.839  27.130  25.014  1.00  0.00     0.119 C 
ATOM      6  C   UNL A   1      32.263  28.491  24.427  1.00  0.00     0.102 C 
ATOM      7  C   UNL A   1      32.627  29.513  25.529  1.00  0.00     0.025 C 
ATOM      8  C   UNL A   1      33.554  27.642  26.320  1.00  0.00     0.027 C 
ATOM      9  C   UNL A   1      31.913  29.152  26.819  1.00  0.00    -0.027 C 
ATOM     10  C   UNL A   1      34.030  29.032  25.904  1.00  0.00     0.017 C 
ATOM     11  C   UNL A   1      32.488  28.043  27.302  1.00  0.00    -0.027 C 
BRANCH   6  12
ATOM     12  C   UNL A   1      32.418  28.969  22.966  1.00  0.00     0.242 C 
ATOM     13  N   UNL A   1      31.493  29.695  22.229  1.00  0.00    -0.267 N 
ATOM     14  H   UNL A   1      31.691  29.808  21.271  1.00  0.00     0.191 HD
ATOM     15  O   UNL A   1      33.470  28.664  22.383  1.00  0.00    -0.273 OA
BRANCH  13  16
ATOM     16  N   UNL A   1      30.316  30.283  22.687  1.00  0.00    -0.265 N 
ATOM     17  C   UNL A   1      29.076  29.716  22.881  1.00  0.00     0.276 C 
ATOM     18  O   UNL A   1      28.130  30.510  22.977  1.00  0.00    -0.269 OA
ATOM     19  H   UNL A   1      30.380  31.241  22.903  1.00  0.00     0.191 HD
BRANCH  17  20
ATOM     20  C   UNL A   1      28.849  28.198  23.126  1.00  0.00     0.331 C 
BRANCH  20  21
ATOM     21  O   UNL A   1      29.612  27.103  22.663  1.00  0.00    -0.484 OA
BRANCH  21  22
ATOM     22  C   UNL A   1      29.858  25.992  23.412  1.00  0.00     0.120 A 
ATOM     23  C   UNL A   1      30.651  24.021  25.326  1.00  0.00    -0.042 A 
ATOM     24  C   UNL A   1      30.023  25.211  25.722  1.00  0.00     0.008 A 
ATOM     25  C   UNL A   1      30.763  23.804  23.935  1.00  0.00     0.008 A 
ATOM     26  C   UNL A   1      29.625  26.170  24.781  1.00  0.00     0.047 A 
ATOM     27  C   UNL A   1      30.374  24.778  22.986  1.00  0.00     0.047 A 
BRANCH  23  28
ATOM     28  C   UNL A   1      31.171  23.003  26.364  1.00  0.00    -0.013 C 
ATOM     29  C   UNL A   1      32.282  23.568  27.287  1.00  0.00     0.016 C 
ATOM     30  C   UNL A   1      31.781  21.738  25.711  1.00  0.00     0.016 C 
ATOM     31  C   UNL A   1      29.985  22.583  27.249  1.00  0.00     0.016 C 
ENDBRANCH  23  28
ENDBRANCH  21  22
ENDBRANCH  20  21
ENDBRANCH  17  20
ENDBRANCH  13  16
ENDBRANCH   6  12
ENDBRANCH   3   5
ENDBRANCH   2   3
ENDBRANCH   1   2
BRANCH   1  32
ATOM     32  C   UNL A   1      35.628  23.272  25.933  1.00  0.00     0.202 C 
BRANCH  32  33
ATOM     33  O   UNL A   1      35.546  21.880  25.695  1.00  0.00    -0.374 OA
BRANCH  33  34
ATOM     34  C   UNL A   1      36.341  21.320  24.671  1.00  0.00     0.202 C 
BRANCH  34  35
ATOM     35  C   UNL A   1      37.721  20.754  24.995  1.00  0.00     0.261 C 
BRANCH  35  36
ATOM     36  O   UNL A   1      38.290  21.082  26.251  1.00  0.00    -0.460 OA
BRANCH  36  37
ATOM     37  C   UNL A   1      39.645  21.068  26.282  1.00  0.00     0.338 C 
ATOM     38  O   UNL A   1      40.379  20.108  26.139  1.00  0.00    -0.246 OA
BRANCH  37  39
ATOM     39  C   UNL A   1      40.075  22.425  26.682  1.00  0.00     0.060 A 
ATOM     40  C   UNL A   1      39.461  23.563  26.146  1.00  0.00     0.016 A 
ATOM     41  C   UNL A   1      41.088  22.550  27.636  1.00  0.00     0.016 A 
ATOM     42  C   UNL A   1      39.888  24.831  26.536  1.00  0.00     0.010 A 
ATOM     43  C   UNL A   1      41.497  23.820  28.047  1.00  0.00     0.010 A 
ATOM     44  C   UNL A   1      40.922  24.967  27.473  1.00  0.00    -0.014 A 
BRANCH  44  45
ATOM     45  C   UNL A   1      41.481  26.306  27.771  1.00  0.00     0.031 A 
ATOM     46  C   UNL A   1      42.871  26.633  27.306  1.00  0.00     0.074 A 
ATOM     47  C   UNL A   1      40.750  27.218  28.436  1.00  0.00     0.049 A 
ATOM     48  N   UNL A   1      43.562  27.735  27.453  1.00  0.00    -0.248 NA
ATOM     49  C   UNL A   1      43.584  25.569  26.581  1.00  0.00     0.031 C 
ATOM     50  C   UNL A   1      39.388  27.013  28.922  1.00  0.00     0.029 A 
ATOM     51  N   UNL A   1      41.054  28.501  28.818  1.00  0.00    -0.354 N 
ATOM     52  C   UNL A   1      44.787  27.494  26.847  1.00  0.00     0.074 A 
ATOM     53  C   UNL A   1      44.763  26.131  26.365  1.00  0.00     0.031 C 
ATOM     54  C   UNL A   1      38.968  28.135  29.532  1.00  0.00     0.029 A 
ATOM     55  C   UNL A   1      40.043  29.124  29.505  1.00  0.00     0.049 A 
ATOM     56  H   UNL A   1      41.917  28.933  28.618  1.00  0.00     0.167 HD
ATOM     57  C   UNL A   1      45.836  28.340  26.699  1.00  0.00     0.037 A 
ATOM     58  C   UNL A   1      39.999  30.351  30.056  1.00  0.00     0.037 A 
ATOM     59  C   UNL A   1      45.851  29.693  27.187  1.00  0.00     0.049 A 
ATOM     60  C   UNL A   1      41.194  31.258  29.918  1.00  0.00     0.074 A 
ATOM     61  C   UNL A   1      46.848  30.644  27.070  1.00  0.00     0.029 A 
ATOM     62  N   UNL A   1      44.815  30.283  27.899  1.00  0.00    -0.354 N 
ATOM     63  N   UNL A   1      42.333  31.039  29.306  1.00  0.00    -0.248 NA
ATOM     64  C   UNL A   1      41.094  32.585  30.542  1.00  0.00     0.031 C 
ATOM     65  C   UNL A   1      46.438  31.793  27.757  1.00  0.00     0.029 A 
ATOM     66  C   UNL A   1      45.161  31.579  28.251  1.00  0.00     0.049 A 
ATOM     67  H   UNL A   1      43.961  29.847  28.121  1.00  0.00     0.167 HD
ATOM     68  C   UNL A   1      43.072  32.208  29.442  1.00  0.00     0.074 A 
ATOM     69  C   UNL A   1      42.246  33.136  30.186  1.00  0.00     0.031 C 
ATOM     70  C   UNL A   1      44.318  32.489  28.986  1.00  0.00     0.037 A 
BRANCH  57  71
ATOM     71  C   UNL A   1      47.058  27.807  26.008  1.00  0.00     0.064 A 
ATOM     72  C   UNL A   1      48.168  27.333  26.726  1.00  0.00     0.173 A 
ATOM     73  C   UNL A   1      47.120  27.765  24.607  1.00  0.00     0.173 A 
ATOM     74  F   UNL A   1      48.168  27.363  28.068  1.00  0.00    -0.203 F 
ATOM     75  C   UNL A   1      49.306  26.873  26.067  1.00  0.00     0.198 A 
ATOM     76  C   UNL A   1      48.247  27.275  23.952  1.00  0.00     0.198 A 
ATOM     77  F   UNL A   1      46.087  28.202  23.872  1.00  0.00    -0.203 F 
ATOM     78  F   UNL A   1      50.375  26.482  26.775  1.00  0.00    -0.200 F 
ATOM     79  C   UNL A   1      49.342  26.840  24.681  1.00  0.00     0.200 A 
ATOM     80  F   UNL A   1      48.277  27.233  22.612  1.00  0.00    -0.200 F 
ATOM     81  F   UNL A   1      50.438  26.397  24.049  1.00  0.00    -0.200 F 
ENDBRANCH  57  71
BRANCH  58  82
ATOM     82  C   UNL A   1      38.773  30.800  30.767  1.00  0.00     0.064 A 
ATOM     83  C   UNL A   1      38.657  30.669  32.158  1.00  0.00     0.173 A 
ATOM     84  C   UNL A   1      37.697  31.376  30.076  1.00  0.00     0.173 A 
ATOM     85  F   UNL A   1      39.647  30.103  32.863  1.00  0.00    -0.203 F 
ATOM     86  C   UNL A   1      37.508  31.087  32.827  1.00  0.00     0.198 A 
ATOM     87  C   UNL A   1      36.561  31.819  30.749  1.00  0.00     0.198 A 
ATOM     88  F   UNL A   1      37.758  31.524  28.744  1.00  0.00    -0.203 F 
ATOM     89  F   UNL A   1      37.408  30.916  34.153  1.00  0.00    -0.200 F 
ATOM     90  C   UNL A   1      36.464  31.669  32.124  1.00  0.00     0.200 A 
ATOM     91  F   UNL A   1      35.561  32.393  30.066  1.00  0.00    -0.200 F 
ATOM     92  F   UNL A   1      35.364  32.079  32.769  1.00  0.00    -0.200 F 
ENDBRANCH  58  82
BRANCH  70  93
ATOM     93  C   UNL A   1      44.847  33.871  29.242  1.00  0.00     0.064 A 
ATOM     94  C   UNL A   1      45.647  34.162  30.356  1.00  0.00     0.173 A 
ATOM     95  C   UNL A   1      44.577  34.909  28.338  1.00  0.00     0.173 A 
ATOM     96  F   UNL A   1      45.923  33.208  31.259  1.00  0.00    -0.203 F 
ATOM     97  C   UNL A   1      46.135  35.450  30.570  1.00  0.00     0.198 A 
ATOM     98  C   UNL A   1      45.092  36.186  28.537  1.00  0.00     0.198 A 
ATOM     99  F   UNL A   1      43.823  34.680  27.251  1.00  0.00    -0.203 F 
ATOM    100  F   UNL A   1      46.855  35.718  31.668  1.00  0.00    -0.200 F 
ATOM    101  C   UNL A   1      45.863  36.457  29.657  1.00  0.00     0.200 A 
ATOM    102  F   UNL A   1      44.841  37.155  27.646  1.00  0.00    -0.200 F 
ATOM    103  F   UNL A   1      46.338  37.694  29.861  1.00  0.00    -0.200 F 
ENDBRANCH  70  93
ENDBRANCH  44  45
ENDBRANCH  37  39
ENDBRANCH  36  37
ENDBRANCH  35  36
ENDBRANCH  34  35
ENDBRANCH  33  34
ENDBRANCH  32  33
ENDBRANCH   1  32
TORSDOF 20
ENDMDL
MODEL 3
REMARK VINA RESULT:     -12.2      1.444      2.231
REMARK SMILES CC(C)(C)c1ccc(OCC(=O)NNC(=O)[C@H]2[C@@H](C(=O)OCCOCCOC(=O)c3ccc(-c4c5nc(c(-c6c(F)c(F)c(F)c(F)c6F)c6ccc([nH]6)c(-c6c(F)c(F)c(F)c(F)c6F)c6nc(c(-c7c(F)c(F)c(F)c(F)c7F)c7ccc4[nH]7)C=C6)C=C5)cc3)[C@@H]3C=C[C@H]2C3)cc1
REMARK SMILES IDX 22 1 21 2 19 3 20 4 18 5 17 6 96 7 93 8 95 9 97 10 94 11
REMARK SMILES IDX 15 12 14 13 16 15 13 16 11 17 12 18 10 20 9 21 8 22 5 23
REMARK SMILES IDX 6 24 99 25 7 26 98 27 2 28 1 29 3 30 4 31 23 32 24 33 25 34
REMARK SMILES IDX 26 35 27 36 28 37 29 38 30 39 31 40 92 41 32 42 91 43 33 44
REMARK SMILES IDX 34 45 35 46 85 47 36 48 90 49 84 50 86 51 37 52 89 53 83 54
REMARK SMILES IDX 82 55 38 57 70 58 50 59 69 60 51 61 54 62 68 63 87 64 52 65
REMARK SMILES IDX 53 66 67 68 88 69 55 70 39 71 40 72 48 73 41 74 42 75 46 76
REMARK SMILES IDX 49 77 43 78 44 79 47 80 45 81 71 82 72 83 80 84 73 85 74 86
REMARK SMILES IDX 78 87 81 88 75 89 76 90 79 91 77 92 56 93 57 94 65 95 58 96
REMARK SMILES IDX 59 97 63 98 66 99 60 100 61 101 64 102 62 103
REMARK H PARENT 14 14 13 19 86 56 54 67
REMARK Flexibility Score: inf
ROOT
ATOM      1  C   UNL A   1      35.242  23.861  25.081  1.00  0.00     0.261 C 
ENDROOT
BRANCH   1   2
ATOM      2  O   UNL A   1      34.743  25.157  25.513  1.00  0.00    -0.463 OA
BRANCH   2   3
ATOM      3  C   UNL A   1      33.506  25.116  26.069  1.00  0.00     0.310 C 
ATOM      4  O   UNL A   1      32.941  24.053  26.321  1.00  0.00    -0.252 OA
BRANCH   3   5
ATOM      5  C   UNL A   1      32.773  26.446  26.224  1.00  0.00     0.119 C 
ATOM      6  C   UNL A   1      31.455  27.022  25.547  1.00  0.00     0.102 C 
ATOM      7  C   UNL A   1      31.915  28.410  25.043  1.00  0.00     0.025 C 
ATOM      8  C   UNL A   1      33.812  27.576  25.874  1.00  0.00     0.027 C 
ATOM      9  C   UNL A   1      32.323  29.274  26.222  1.00  0.00    -0.027 C 
ATOM     10  C   UNL A   1      33.311  28.068  24.518  1.00  0.00     0.017 C 
ATOM     11  C   UNL A   1      33.473  28.785  26.703  1.00  0.00    -0.027 C 
BRANCH   6  12
ATOM     12  C   UNL A   1      30.509  26.230  24.617  1.00  0.00     0.242 C 
ATOM     13  N   UNL A   1      30.754  25.870  23.299  1.00  0.00    -0.267 N 
ATOM     14  H   UNL A   1      29.996  25.480  22.806  1.00  0.00     0.191 HD
ATOM     15  O   UNL A   1      29.413  25.888  25.088  1.00  0.00    -0.273 OA
BRANCH  13  16
ATOM     16  N   UNL A   1      31.947  25.998  22.591  1.00  0.00    -0.265 N 
ATOM     17  C   UNL A   1      32.936  25.065  22.372  1.00  0.00     0.276 C 
ATOM     18  O   UNL A   1      34.028  25.516  22.001  1.00  0.00    -0.269 OA
ATOM     19  H   UNL A   1      32.106  26.883  22.190  1.00  0.00     0.191 HD
BRANCH  17  20
ATOM     20  C   UNL A   1      32.701  23.530  22.423  1.00  0.00     0.331 C 
BRANCH  20  21
ATOM     21  O   UNL A   1      32.057  22.765  23.422  1.00  0.00    -0.484 OA
BRANCH  21  22
ATOM     22  C   UNL A   1      32.309  21.442  23.631  1.00  0.00     0.120 A 
ATOM     23  C   UNL A   1      33.362  18.845  24.198  1.00  0.00    -0.042 A 
ATOM     24  C   UNL A   1      33.526  19.911  25.096  1.00  0.00     0.008 A 
ATOM     25  C   UNL A   1      32.557  19.098  23.065  1.00  0.00     0.008 A 
ATOM     26  C   UNL A   1      32.999  21.179  24.820  1.00  0.00     0.047 A 
ATOM     27  C   UNL A   1      32.038  20.382  22.781  1.00  0.00     0.047 A 
BRANCH  23  28
ATOM     28  C   UNL A   1      34.017  17.470  24.455  1.00  0.00    -0.013 C 
ATOM     29  C   UNL A   1      33.266  16.610  25.505  1.00  0.00     0.016 C 
ATOM     30  C   UNL A   1      35.469  17.586  24.977  1.00  0.00     0.016 C 
ATOM     31  C   UNL A   1      34.027  16.696  23.125  1.00  0.00     0.016 C 
ENDBRANCH  23  28
ENDBRANCH  21  22
ENDBRANCH  20  21
ENDBRANCH  17  20
ENDBRANCH  13  16
ENDBRANCH   6  12
ENDBRANCH   3   5
ENDBRANCH   2   3
ENDBRANCH   1   2
BRANCH   1  32
ATOM     32  C   UNL A   1      36.518  23.319  25.752  1.00  0.00     0.202 C 
BRANCH  32  33
ATOM     33  O   UNL A   1      36.738  21.922  25.773  1.00  0.00    -0.374 OA
BRANCH  33  34
ATOM     34  C   UNL A   1      37.745  21.382  24.942  1.00  0.00     0.202 C 
BRANCH  34  35
ATOM     35  C   UNL A   1      38.385  20.040  25.288  1.00  0.00     0.261 C 
BRANCH  35  36
ATOM     36  O   UNL A   1      39.190  19.973  26.452  1.00  0.00    -0.460 OA
BRANCH  36  37
ATOM     37  C   UNL A   1      40.522  19.886  26.219  1.00  0.00     0.338 C 
ATOM     38  O   UNL A   1      41.157  18.896  25.907  1.00  0.00    -0.246 OA
BRANCH  37  39
ATOM     39  C   UNL A   1      41.100  21.201  26.567  1.00  0.00     0.060 A 
ATOM     40  C   UNL A   1      41.278  21.579  27.904  1.00  0.00     0.016 A 
ATOM     41  C   UNL A   1      41.501  22.051  25.533  1.00  0.00     0.016 A 
ATOM     42  C   UNL A   1      41.821  22.827  28.206  1.00  0.00     0.010 A 
ATOM     43  C   UNL A   1      42.070  23.289  25.836  1.00  0.00     0.010 A 
ATOM     44  C   UNL A   1      42.202  23.696  27.174  1.00  0.00    -0.014 A 
BRANCH  44  45
ATOM     45  C   UNL A   1      42.633  25.078  27.491  1.00  0.00     0.031 A 
ATOM     46  C   UNL A   1      44.051  25.481  27.202  1.00  0.00     0.074 A 
ATOM     47  C   UNL A   1      41.765  25.960  28.017  1.00  0.00     0.049 A 
ATOM     48  N   UNL A   1      44.646  26.630  27.395  1.00  0.00    -0.248 NA
ATOM     49  C   UNL A   1      44.918  24.445  26.620  1.00  0.00     0.031 C 
ATOM     50  C   UNL A   1      40.364  25.680  28.326  1.00  0.00     0.029 A 
ATOM     51  N   UNL A   1      41.935  27.270  28.385  1.00  0.00    -0.354 N 
ATOM     52  C   UNL A   1      45.955  26.452  26.966  1.00  0.00     0.074 A 
ATOM     53  C   UNL A   1      46.079  25.076  26.539  1.00  0.00     0.031 C 
ATOM     54  C   UNL A   1      39.798  26.790  28.830  1.00  0.00     0.029 A 
ATOM     55  C   UNL A   1      40.805  27.846  28.907  1.00  0.00     0.049 A 
ATOM     56  H   UNL A   1      42.789  27.752  28.284  1.00  0.00     0.167 HD
ATOM     57  C   UNL A   1      46.960  27.360  26.925  1.00  0.00     0.037 A 
ATOM     58  C   UNL A   1      40.612  29.085  29.399  1.00  0.00     0.037 A 
ATOM     59  C   UNL A   1      46.826  28.726  27.357  1.00  0.00     0.049 A 
ATOM     60  C   UNL A   1      41.757  30.064  29.385  1.00  0.00     0.074 A 
ATOM     61  C   UNL A   1      47.770  29.737  27.337  1.00  0.00     0.029 A 
ATOM     62  N   UNL A   1      45.670  29.269  27.902  1.00  0.00    -0.354 N 
ATOM     63  N   UNL A   1      42.979  29.901  28.938  1.00  0.00    -0.248 NA
ATOM     64  C   UNL A   1      41.492  31.399  29.937  1.00  0.00     0.031 C 
ATOM     65  C   UNL A   1      47.201  30.876  27.918  1.00  0.00     0.029 A 
ATOM     66  C   UNL A   1      45.884  30.594  28.246  1.00  0.00     0.049 A 
ATOM     67  H   UNL A   1      44.822  28.784  28.027  1.00  0.00     0.167 HD
ATOM     68  C   UNL A   1      43.620  31.120  29.124  1.00  0.00     0.074 A 
ATOM     69  C   UNL A   1      42.646  32.014  29.716  1.00  0.00     0.031 C 
ATOM     70  C   UNL A   1      44.897  31.469  28.827  1.00  0.00     0.037 A 
BRANCH  57  71
ATOM     71  C   UNL A   1      48.294  26.888  26.424  1.00  0.00     0.064 A 
ATOM     72  C   UNL A   1      49.222  26.256  27.267  1.00  0.00     0.173 A 
ATOM     73  C   UNL A   1      48.650  27.067  25.079  1.00  0.00     0.173 A 
ATOM     74  F   UNL A   1      48.938  26.073  28.567  1.00  0.00    -0.203 F 
ATOM     75  C   UNL A   1      50.467  25.855  26.791  1.00  0.00     0.198 A 
ATOM     76  C   UNL A   1      49.885  26.636  24.599  1.00  0.00     0.198 A 
ATOM     77  F   UNL A   1      47.802  27.662  24.228  1.00  0.00    -0.203 F 
ATOM     78  F   UNL A   1      51.359  25.307  27.630  1.00  0.00    -0.200 F 
ATOM     79  C   UNL A   1      50.796  26.040  25.457  1.00  0.00     0.200 A 
ATOM     80  F   UNL A   1      50.197  26.806  23.306  1.00  0.00    -0.200 F 
ATOM     81  F   UNL A   1      51.996  25.654  25.001  1.00  0.00    -0.200 F 
ENDBRANCH  57  71
BRANCH  58  82
ATOM     82  C   UNL A   1      39.276  29.473  29.923  1.00  0.00     0.064 A 
ATOM     83  C   UNL A   1      38.272  29.943  29.065  1.00  0.00     0.173 A 
ATOM     84  C   UNL A   1      38.971  29.375  31.289  1.00  0.00     0.173 A 
ATOM     85  F   UNL A   1      38.521  30.077  27.754  1.00  0.00    -0.203 F 
ATOM     86  C   UNL A   1      37.020  30.310  29.554  1.00  0.00     0.198 A 
ATOM     87  C   UNL A   1      37.710  29.716  31.772  1.00  0.00     0.198 A 
ATOM     88  F   UNL A   1      39.897  28.932  32.152  1.00  0.00    -0.203 F 
ATOM     89  F   UNL A   1      36.091  30.791  28.716  1.00  0.00    -0.200 F 
ATOM     90  C   UNL A   1      36.737  30.189  30.906  1.00  0.00     0.200 A 
ATOM     91  F   UNL A   1      37.437  29.584  33.078  1.00  0.00    -0.200 F 
ATOM     92  F   UNL A   1      35.529  30.532  31.373  1.00  0.00    -0.200 F 
ENDBRANCH  58  82
BRANCH  70  93
ATOM     93  C   UNL A   1      45.300  32.890  29.096  1.00  0.00     0.064 A 
ATOM     94  C   UNL A   1      45.146  33.898  28.134  1.00  0.00     0.173 A 
ATOM     95  C   UNL A   1      45.815  33.252  30.350  1.00  0.00     0.173 A 
ATOM     96  F   UNL A   1      44.671  33.601  26.914  1.00  0.00    -0.203 F 
ATOM     97  C   UNL A   1      45.519  35.212  28.408  1.00  0.00     0.198 A 
ATOM     98  C   UNL A   1      46.156  34.571  30.632  1.00  0.00     0.198 A 
ATOM     99  F   UNL A   1      45.975  32.326  31.309  1.00  0.00    -0.203 F 
ATOM    100  F   UNL A   1      45.410  36.150  27.457  1.00  0.00    -0.200 F 
ATOM    101  C   UNL A   1      46.016  35.548  29.658  1.00  0.00     0.200 A 
ATOM    102  F   UNL A   1      46.622  34.897  31.846  1.00  0.00    -0.200 F 
ATOM    103  F   UNL A   1      46.368  36.814  29.922  1.00  0.00    -0.200 F 
ENDBRANCH  70  93
ENDBRANCH  44  45
ENDBRANCH  37  39
ENDBRANCH  36  37
ENDBRANCH  35  36
ENDBRANCH  34  35
ENDBRANCH  33  34
ENDBRANCH  32  33
ENDBRANCH   1  32
TORSDOF 20
ENDMDL
