MODEL 1
REMARK VINA RESULT:     -12.2      0.000      0.000
REMARK SMILES O=C(OCCOCCOC(=O)[C@@H]1CN(Cc2ccccc2)c2ccccc2O1)c1ccc(-c2c3nc(c(-c4c(F)c(F)c(F)c(F)c4F)c4ccc([nH]4)c(-c4c(F)c(F)c(F)c(F)c4F)c4nc(c(-c5c(F)c(F)c(F)c(F)c5F)c5ccc2[nH]5)C=C4)C=C3)cc1
REMARK SMILES IDX 6 1 5 2 4 3 3 4 2 5 1 6 29 7 30 8 91 9 31 10 90 11 32 12
REMARK SMILES IDX 33 13 34 14 84 15 35 16 89 17 83 18 85 19 36 20 88 21 82 22
REMARK SMILES IDX 81 23 37 25 69 26 49 27 68 28 50 29 53 30 67 31 86 32 51 33
REMARK SMILES IDX 52 34 66 36 87 37 54 38 38 39 39 40 47 41 40 42 41 43 45 44
REMARK SMILES IDX 48 45 42 46 43 47 46 48 44 49 70 50 71 51 79 52 72 53 73 54
REMARK SMILES IDX 77 55 80 56 74 57 75 58 78 59 76 60 55 61 56 62 64 63 57 64
REMARK SMILES IDX 58 65 62 66 65 67 59 68 60 69 63 70 61 71 7 72 8 73 9 74
REMARK SMILES IDX 10 75 11 76 12 77 13 78 28 79 14 80 27 81 22 82 26 83 23 84
REMARK SMILES IDX 25 85 24 86 15 87 16 88 17 89 21 90 18 91 20 92 19 93
REMARK H PARENT 85 24 53 35
REMARK Flexibility Score: inf
ROOT
ATOM      1  O   UNL A   1      31.859  26.914  25.848  1.00  0.00    -0.374 OA
ENDROOT
BRANCH   1   2
ATOM      2  C   UNL A   1      31.977  28.318  26.076  1.00  0.00     0.202 C 
BRANCH   2   3
ATOM      3  C   UNL A   1      33.271  28.966  25.573  1.00  0.00     0.261 C 
BRANCH   3   4
ATOM      4  O   UNL A   1      33.213  30.396  25.764  1.00  0.00    -0.460 OA
BRANCH   4   5
ATOM      5  C   UNL A   1      33.460  31.099  26.894  1.00  0.00     0.338 C 
ATOM      6  O   UNL A   1      32.681  31.982  27.244  1.00  0.00    -0.246 OA
BRANCH   5   7
ATOM      7  C   UNL A   1      34.657  30.842  27.737  1.00  0.00     0.060 A 
ATOM      8  C   UNL A   1      34.894  29.619  28.356  1.00  0.00     0.016 A 
ATOM      9  C   UNL A   1      35.641  31.834  27.838  1.00  0.00     0.016 A 
ATOM     10  C   UNL A   1      36.016  29.378  29.108  1.00  0.00     0.010 A 
ATOM     11  C   UNL A   1      36.820  31.586  28.550  1.00  0.00     0.010 A 
ATOM     12  C   UNL A   1      37.001  30.349  29.178  1.00  0.00    -0.014 A 
BRANCH  12  13
ATOM     13  C   UNL A   1      38.179  30.001  29.973  1.00  0.00     0.031 A 
ATOM     14  C   UNL A   1      39.225  29.148  29.345  1.00  0.00     0.074 A 
ATOM     15  C   UNL A   1      38.359  30.622  31.153  1.00  0.00     0.049 A 
ATOM     16  N   UNL A   1      40.307  28.655  29.874  1.00  0.00    -0.248 NA
ATOM     17  C   UNL A   1      39.037  28.819  27.921  1.00  0.00     0.031 C 
ATOM     18  C   UNL A   1      37.446  31.619  31.728  1.00  0.00     0.029 A 
ATOM     19  N   UNL A   1      39.377  30.545  32.060  1.00  0.00    -0.354 N 
ATOM     20  C   UNL A   1      40.900  27.907  28.869  1.00  0.00     0.074 A 
ATOM     21  C   UNL A   1      40.082  28.040  27.685  1.00  0.00     0.031 C 
ATOM     22  C   UNL A   1      37.958  32.069  32.883  1.00  0.00     0.029 A 
ATOM     23  C   UNL A   1      39.172  31.319  33.174  1.00  0.00     0.049 A 
ATOM     24  H   UNL A   1      40.179  29.989  31.926  1.00  0.00     0.167 HD
ATOM     25  C   UNL A   1      42.017  27.154  28.966  1.00  0.00     0.037 A 
ATOM     26  C   UNL A   1      39.860  31.352  34.329  1.00  0.00     0.037 A 
ATOM     27  C   UNL A   1      42.799  27.079  30.168  1.00  0.00     0.049 A 
ATOM     28  C   UNL A   1      41.042  30.428  34.443  1.00  0.00     0.074 A 
ATOM     29  C   UNL A   1      43.924  26.322  30.428  1.00  0.00     0.029 A 
ATOM     30  N   UNL A   1      42.520  27.803  31.323  1.00  0.00    -0.354 N 
ATOM     31  N   UNL A   1      41.562  29.641  33.529  1.00  0.00    -0.248 NA
ATOM     32  C   UNL A   1      41.709  30.362  35.746  1.00  0.00     0.031 C 
ATOM     33  C   UNL A   1      44.297  26.552  31.756  1.00  0.00     0.029 A 
ATOM     34  C   UNL A   1      43.434  27.488  32.311  1.00  0.00     0.049 A 
ATOM     35  H   UNL A   1      41.782  28.447  31.422  1.00  0.00     0.167 HD
ATOM     36  C   UNL A   1      42.613  28.981  34.145  1.00  0.00     0.074 A 
ATOM     37  C   UNL A   1      42.677  29.488  35.503  1.00  0.00     0.031 C 
ATOM     38  C   UNL A   1      43.444  28.033  33.647  1.00  0.00     0.037 A 
BRANCH  25  39
ATOM     39  C   UNL A   1      42.366  26.292  27.795  1.00  0.00     0.064 A 
ATOM     40  C   UNL A   1      43.335  26.659  26.850  1.00  0.00     0.173 A 
ATOM     41  C   UNL A   1      41.688  25.077  27.602  1.00  0.00     0.173 A 
ATOM     42  F   UNL A   1      43.985  27.826  26.968  1.00  0.00    -0.203 F 
ATOM     43  C   UNL A   1      43.597  25.850  25.745  1.00  0.00     0.198 A 
ATOM     44  C   UNL A   1      41.970  24.262  26.511  1.00  0.00     0.198 A 
ATOM     45  F   UNL A   1      40.740  24.689  28.469  1.00  0.00    -0.203 F 
ATOM     46  F   UNL A   1      44.492  26.243  24.827  1.00  0.00    -0.200 F 
ATOM     47  C   UNL A   1      42.919  24.651  25.580  1.00  0.00     0.200 A 
ATOM     48  F   UNL A   1      41.310  23.106  26.353  1.00  0.00    -0.200 F 
ATOM     49  F   UNL A   1      43.171  23.878  24.514  1.00  0.00    -0.200 F 
ENDBRANCH  25  39
BRANCH  26  50
ATOM     50  C   UNL A   1      39.387  32.179  35.471  1.00  0.00     0.064 A 
ATOM     51  C   UNL A   1      39.790  33.511  35.630  1.00  0.00     0.173 A 
ATOM     52  C   UNL A   1      38.524  31.644  36.444  1.00  0.00     0.173 A 
ATOM     53  F   UNL A   1      40.629  34.067  34.745  1.00  0.00    -0.203 F 
ATOM     54  C   UNL A   1      39.364  34.268  36.722  1.00  0.00     0.198 A 
ATOM     55  C   UNL A   1      38.071  32.412  37.514  1.00  0.00     0.198 A 
ATOM     56  F   UNL A   1      38.108  30.372  36.350  1.00  0.00    -0.203 F 
ATOM     57  F   UNL A   1      39.805  35.524  36.876  1.00  0.00    -0.200 F 
ATOM     58  C   UNL A   1      38.500  33.720  37.659  1.00  0.00     0.200 A 
ATOM     59  F   UNL A   1      37.223  31.881  38.406  1.00  0.00    -0.200 F 
ATOM     60  F   UNL A   1      38.090  34.449  38.706  1.00  0.00    -0.200 F 
ENDBRANCH  26  50
BRANCH  38  61
ATOM     61  C   UNL A   1      44.485  27.501  34.580  1.00  0.00     0.064 A 
ATOM     62  C   UNL A   1      44.261  26.337  35.328  1.00  0.00     0.173 A 
ATOM     63  C   UNL A   1      45.736  28.124  34.671  1.00  0.00     0.173 A 
ATOM     64  F   UNL A   1      43.068  25.723  35.282  1.00  0.00    -0.203 F 
ATOM     65  C   UNL A   1      45.258  25.818  36.146  1.00  0.00     0.198 A 
ATOM     66  C   UNL A   1      46.740  27.586  35.467  1.00  0.00     0.198 A 
ATOM     67  F   UNL A   1      45.992  29.237  33.967  1.00  0.00    -0.203 F 
ATOM     68  F   UNL A   1      45.016  24.723  36.880  1.00  0.00    -0.200 F 
ATOM     69  C   UNL A   1      46.499  26.437  36.206  1.00  0.00     0.200 A 
ATOM     70  F   UNL A   1      47.942  28.174  35.514  1.00  0.00    -0.200 F 
ATOM     71  F   UNL A   1      47.465  25.924  36.981  1.00  0.00    -0.200 F 
ENDBRANCH  38  61
ENDBRANCH  12  13
ENDBRANCH   5   7
ENDBRANCH   4   5
ENDBRANCH   3   4
ENDBRANCH   2   3
ENDBRANCH   1   2
BRANCH   1  72
ATOM     72  C   UNL A   1      30.572  26.352  26.121  1.00  0.00     0.202 C 
BRANCH  72  73
ATOM     73  C   UNL A   1      30.645  24.835  25.961  1.00  0.00     0.261 C 
BRANCH  73  74
ATOM     74  O   UNL A   1      31.237  24.263  27.140  1.00  0.00    -0.460 OA
BRANCH  74  75
ATOM     75  C   UNL A   1      32.357  23.509  26.976  1.00  0.00     0.349 C 
ATOM     76  O   UNL A   1      32.788  22.719  27.811  1.00  0.00    -0.248 OA
BRANCH  75  77
ATOM     77  C   UNL A   1      33.011  23.735  25.606  1.00  0.00     0.301 C 
ATOM     78  C   UNL A   1      32.930  22.537  24.654  1.00  0.00     0.174 C 
ATOM     79  O   UNL A   1      34.327  24.298  25.698  1.00  0.00    -0.475 OA
ATOM     80  N   UNL A   1      33.938  21.523  24.963  1.00  0.00    -0.360 N 
ATOM     81  C   UNL A   1      35.369  23.408  25.562  1.00  0.00     0.144 A 
ATOM     82  C   UNL A   1      35.204  22.051  25.220  1.00  0.00     0.080 A 
ATOM     83  C   UNL A   1      36.634  23.921  25.891  1.00  0.00     0.049 A 
ATOM     84  C   UNL A   1      36.359  21.259  25.172  1.00  0.00     0.030 A 
ATOM     85  C   UNL A   1      37.754  23.093  25.882  1.00  0.00     0.004 A 
ATOM     86  C   UNL A   1      37.618  21.763  25.510  1.00  0.00     0.002 A 
BRANCH  80  87
ATOM     87  C   UNL A   1      33.528  20.233  25.531  1.00  0.00     0.152 C 
BRANCH  87  88
ATOM     88  C   UNL A   1      33.507  19.124  24.511  1.00  0.00    -0.029 A 
ATOM     89  C   UNL A   1      34.439  18.081  24.577  1.00  0.00     0.005 A 
ATOM     90  C   UNL A   1      32.557  19.123  23.478  1.00  0.00     0.005 A 
ATOM     91  C   UNL A   1      34.391  17.035  23.655  1.00  0.00     0.000 A 
ATOM     92  C   UNL A   1      32.489  18.061  22.578  1.00  0.00     0.000 A 
ATOM     93  C   UNL A   1      33.405  17.016  22.671  1.00  0.00     0.000 A 
ENDBRANCH  87  88
ENDBRANCH  80  87
ENDBRANCH  75  77
ENDBRANCH  74  75
ENDBRANCH  73  74
ENDBRANCH  72  73
ENDBRANCH   1  72
TORSDOF 16
ENDMDL
MODEL 2
REMARK VINA RESULT:     -12.1      0.732      1.407
REMARK SMILES O=C(OCCOCCOC(=O)[C@@H]1CN(Cc2ccccc2)c2ccccc2O1)c1ccc(-c2c3nc(c(-c4c(F)c(F)c(F)c(F)c4F)c4ccc([nH]4)c(-c4c(F)c(F)c(F)c(F)c4F)c4nc(c(-c5c(F)c(F)c(F)c(F)c5F)c5ccc2[nH]5)C=C4)C=C3)cc1
REMARK SMILES IDX 6 1 5 2 4 3 3 4 2 5 1 6 29 7 30 8 91 9 31 10 90 11 32 12
REMARK SMILES IDX 33 13 34 14 84 15 35 16 89 17 83 18 85 19 36 20 88 21 82 22
REMARK SMILES IDX 81 23 37 25 69 26 49 27 68 28 50 29 53 30 67 31 86 32 51 33
REMARK SMILES IDX 52 34 66 36 87 37 54 38 38 39 39 40 47 41 40 42 41 43 45 44
REMARK SMILES IDX 48 45 42 46 43 47 46 48 44 49 70 50 71 51 79 52 72 53 73 54
REMARK SMILES IDX 77 55 80 56 74 57 75 58 78 59 76 60 55 61 56 62 64 63 57 64
REMARK SMILES IDX 58 65 62 66 65 67 59 68 60 69 63 70 61 71 7 72 8 73 9 74
REMARK SMILES IDX 10 75 11 76 12 77 13 78 28 79 14 80 27 81 22 82 26 83 23 84
REMARK SMILES IDX 25 85 24 86 15 87 16 88 17 89 21 90 18 91 20 92 19 93
REMARK H PARENT 85 24 53 35
REMARK Flexibility Score: inf
ROOT
ATOM      1  O   UNL A   1      31.071  27.291  27.074  1.00  0.00    -0.374 OA
ENDROOT
BRANCH   1   2
ATOM      2  C   UNL A   1      31.763  28.526  27.247  1.00  0.00     0.202 C 
BRANCH   2   3
ATOM      3  C   UNL A   1      31.822  29.433  26.014  1.00  0.00     0.261 C 
BRANCH   3   4
ATOM      4  O   UNL A   1      33.032  30.222  26.039  1.00  0.00    -0.460 OA
BRANCH   4   5
ATOM      5  C   UNL A   1      33.445  31.089  26.993  1.00  0.00     0.338 C 
ATOM      6  O   UNL A   1      32.820  32.130  27.182  1.00  0.00    -0.246 OA
BRANCH   5   7
ATOM      7  C   UNL A   1      34.644  30.826  27.832  1.00  0.00     0.060 A 
ATOM      8  C   UNL A   1      34.921  29.578  28.381  1.00  0.00     0.016 A 
ATOM      9  C   UNL A   1      35.589  31.845  28.000  1.00  0.00     0.016 A 
ATOM     10  C   UNL A   1      36.046  29.335  29.128  1.00  0.00     0.010 A 
ATOM     11  C   UNL A   1      36.771  31.599  28.708  1.00  0.00     0.010 A 
ATOM     12  C   UNL A   1      36.993  30.335  29.265  1.00  0.00    -0.014 A 
BRANCH  12  13
ATOM     13  C   UNL A   1      38.178  29.985  30.049  1.00  0.00     0.031 A 
ATOM     14  C   UNL A   1      39.223  29.142  29.407  1.00  0.00     0.074 A 
ATOM     15  C   UNL A   1      38.362  30.594  31.234  1.00  0.00     0.049 A 
ATOM     16  N   UNL A   1      40.310  28.648  29.925  1.00  0.00    -0.248 NA
ATOM     17  C   UNL A   1      39.028  28.825  27.981  1.00  0.00     0.031 C 
ATOM     18  C   UNL A   1      37.448  31.582  31.824  1.00  0.00     0.029 A 
ATOM     19  N   UNL A   1      39.386  30.513  32.134  1.00  0.00    -0.354 N 
ATOM     20  C   UNL A   1      40.900  27.912  28.909  1.00  0.00     0.074 A 
ATOM     21  C   UNL A   1      40.075  28.052  27.731  1.00  0.00     0.031 C 
ATOM     22  C   UNL A   1      37.965  32.023  32.980  1.00  0.00     0.029 A 
ATOM     23  C   UNL A   1      39.184  31.276  33.257  1.00  0.00     0.049 A 
ATOM     24  H   UNL A   1      40.189  29.962  31.990  1.00  0.00     0.167 HD
ATOM     25  C   UNL A   1      42.020  27.162  28.992  1.00  0.00     0.037 A 
ATOM     26  C   UNL A   1      39.879  31.301  34.407  1.00  0.00     0.037 A 
ATOM     27  C   UNL A   1      42.810  27.079  30.189  1.00  0.00     0.049 A 
ATOM     28  C   UNL A   1      41.065  30.380  34.506  1.00  0.00     0.074 A 
ATOM     29  C   UNL A   1      43.940  26.325  30.435  1.00  0.00     0.029 A 
ATOM     30  N   UNL A   1      42.535  27.791  31.353  1.00  0.00    -0.354 N 
ATOM     31  N   UNL A   1      41.583  29.604  33.582  1.00  0.00    -0.248 NA
ATOM     32  C   UNL A   1      41.740  30.304  35.805  1.00  0.00     0.031 C 
ATOM     33  C   UNL A   1      44.320  26.543  31.763  1.00  0.00     0.029 A 
ATOM     34  C   UNL A   1      43.456  27.470  32.332  1.00  0.00     0.049 A 
ATOM     35  H   UNL A   1      41.795  28.431  31.462  1.00  0.00     0.167 HD
ATOM     36  C   UNL A   1      42.640  28.942  34.184  1.00  0.00     0.074 A 
ATOM     37  C   UNL A   1      42.710  29.437  35.547  1.00  0.00     0.031 C 
ATOM     38  C   UNL A   1      43.471  28.002  33.673  1.00  0.00     0.037 A 
BRANCH  25  39
ATOM     39  C   UNL A   1      42.366  26.313  27.811  1.00  0.00     0.064 A 
ATOM     40  C   UNL A   1      41.746  25.081  27.560  1.00  0.00     0.173 A 
ATOM     41  C   UNL A   1      43.369  26.736  26.924  1.00  0.00     0.173 A 
ATOM     42  F   UNL A   1      40.808  24.614  28.397  1.00  0.00    -0.203 F 
ATOM     43  C   UNL A   1      42.131  24.295  26.474  1.00  0.00     0.198 A 
ATOM     44  C   UNL A   1      43.735  25.960  25.828  1.00  0.00     0.198 A 
ATOM     45  F   UNL A   1      44.005  27.899  27.130  1.00  0.00    -0.203 F 
ATOM     46  F   UNL A   1      41.561  23.098  26.280  1.00  0.00    -0.200 F 
ATOM     47  C   UNL A   1      43.120  24.738  25.608  1.00  0.00     0.200 A 
ATOM     48  F   UNL A   1      44.693  26.389  24.995  1.00  0.00    -0.200 F 
ATOM     49  F   UNL A   1      43.492  23.978  24.567  1.00  0.00    -0.200 F 
ENDBRANCH  25  39
BRANCH  26  50
ATOM     50  C   UNL A   1      39.409  32.115  35.560  1.00  0.00     0.064 A 
ATOM     51  C   UNL A   1      39.836  33.435  35.749  1.00  0.00     0.173 A 
ATOM     52  C   UNL A   1      38.526  31.578  36.514  1.00  0.00     0.173 A 
ATOM     53  F   UNL A   1      40.694  33.992  34.883  1.00  0.00    -0.203 F 
ATOM     54  C   UNL A   1      39.413  34.180  36.851  1.00  0.00     0.198 A 
ATOM     55  C   UNL A   1      38.076  32.334  37.594  1.00  0.00     0.198 A 
ATOM     56  F   UNL A   1      38.087  30.317  36.392  1.00  0.00    -0.203 F 
ATOM     57  F   UNL A   1      39.875  35.424  37.033  1.00  0.00    -0.200 F 
ATOM     58  C   UNL A   1      38.528  33.631  37.768  1.00  0.00     0.200 A 
ATOM     59  F   UNL A   1      37.209  31.803  38.466  1.00  0.00    -0.200 F 
ATOM     60  F   UNL A   1      38.121  34.348  38.824  1.00  0.00    -0.200 F 
ENDBRANCH  26  50
BRANCH  38  61
ATOM     61  C   UNL A   1      44.520  27.466  34.595  1.00  0.00     0.064 A 
ATOM     62  C   UNL A   1      44.299  26.303  35.344  1.00  0.00     0.173 A 
ATOM     63  C   UNL A   1      45.775  28.084  34.673  1.00  0.00     0.173 A 
ATOM     64  F   UNL A   1      43.104  25.693  35.311  1.00  0.00    -0.203 F 
ATOM     65  C   UNL A   1      45.303  25.779  36.152  1.00  0.00     0.198 A 
ATOM     66  C   UNL A   1      46.785  27.541  35.459  1.00  0.00     0.198 A 
ATOM     67  F   UNL A   1      46.028  29.196  33.967  1.00  0.00    -0.203 F 
ATOM     68  F   UNL A   1      45.065  24.684  36.887  1.00  0.00    -0.200 F 
ATOM     69  C   UNL A   1      46.547  26.393  36.200  1.00  0.00     0.200 A 
ATOM     70  F   UNL A   1      47.990  28.125  35.494  1.00  0.00    -0.200 F 
ATOM     71  F   UNL A   1      47.519  25.876  36.964  1.00  0.00    -0.200 F 
ENDBRANCH  38  61
ENDBRANCH  12  13
ENDBRANCH   5   7
ENDBRANCH   4   5
ENDBRANCH   3   4
ENDBRANCH   2   3
ENDBRANCH   1   2
BRANCH   1  72
ATOM     72  C   UNL A   1      31.063  26.772  25.741  1.00  0.00     0.202 C 
BRANCH  72  73
ATOM     73  C   UNL A   1      30.397  25.397  25.744  1.00  0.00     0.261 C 
BRANCH  73  74
ATOM     74  O   UNL A   1      31.375  24.398  26.083  1.00  0.00    -0.460 OA
BRANCH  74  75
ATOM     75  C   UNL A   1      31.206  23.153  25.563  1.00  0.00     0.349 C 
ATOM     76  O   UNL A   1      30.478  22.293  26.050  1.00  0.00    -0.248 OA
BRANCH  75  77
ATOM     77  C   UNL A   1      32.009  22.951  24.272  1.00  0.00     0.301 C 
ATOM     78  C   UNL A   1      32.305  21.488  23.924  1.00  0.00     0.174 C 
ATOM     79  O   UNL A   1      33.164  23.799  24.191  1.00  0.00    -0.475 OA
ATOM     80  N   UNL A   1      33.426  20.959  24.699  1.00  0.00    -0.360 N 
ATOM     81  C   UNL A   1      34.364  23.204  24.514  1.00  0.00     0.144 A 
ATOM     82  C   UNL A   1      34.514  21.828  24.780  1.00  0.00     0.080 A 
ATOM     83  C   UNL A   1      35.443  24.090  24.666  1.00  0.00     0.049 A 
ATOM     84  C   UNL A   1      35.791  21.384  25.147  1.00  0.00     0.030 A 
ATOM     85  C   UNL A   1      36.687  23.622  25.081  1.00  0.00     0.004 A 
ATOM     86  C   UNL A   1      36.864  22.264  25.310  1.00  0.00     0.002 A 
BRANCH  80  87
ATOM     87  C   UNL A   1      33.185  19.952  25.741  1.00  0.00     0.152 C 
BRANCH  87  88
ATOM     88  C   UNL A   1      33.333  18.540  25.237  1.00  0.00    -0.029 A 
ATOM     89  C   UNL A   1      32.528  17.515  25.751  1.00  0.00     0.005 A 
ATOM     90  C   UNL A   1      34.282  18.230  24.251  1.00  0.00     0.005 A 
ATOM     91  C   UNL A   1      32.639  16.216  25.254  1.00  0.00     0.000 A 
ATOM     92  C   UNL A   1      34.369  16.939  23.732  1.00  0.00     0.000 A 
ATOM     93  C   UNL A   1      33.544  15.935  24.232  1.00  0.00     0.000 A 
ENDBRANCH  87  88
ENDBRANCH  80  87
ENDBRANCH  75  77
ENDBRANCH  74  75
ENDBRANCH  73  74
ENDBRANCH  72  73
ENDBRANCH   1  72
TORSDOF 16
ENDMDL
MODEL 3
REMARK VINA RESULT:     -11.8      0.906      3.161
REMARK SMILES O=C(OCCOCCOC(=O)[C@@H]1CN(Cc2ccccc2)c2ccccc2O1)c1ccc(-c2c3nc(c(-c4c(F)c(F)c(F)c(F)c4F)c4ccc([nH]4)c(-c4c(F)c(F)c(F)c(F)c4F)c4nc(c(-c5c(F)c(F)c(F)c(F)c5F)c5ccc2[nH]5)C=C4)C=C3)cc1
REMARK SMILES IDX 6 1 5 2 4 3 3 4 2 5 1 6 29 7 30 8 91 9 31 10 90 11 32 12
REMARK SMILES IDX 33 13 34 14 84 15 35 16 89 17 83 18 85 19 36 20 88 21 82 22
REMARK SMILES IDX 81 23 37 25 69 26 49 27 68 28 50 29 53 30 67 31 86 32 51 33
REMARK SMILES IDX 52 34 66 36 87 37 54 38 38 39 39 40 47 41 40 42 41 43 45 44
REMARK SMILES IDX 48 45 42 46 43 47 46 48 44 49 70 50 71 51 79 52 72 53 73 54
REMARK SMILES IDX 77 55 80 56 74 57 75 58 78 59 76 60 55 61 56 62 64 63 57 64
REMARK SMILES IDX 58 65 62 66 65 67 59 68 60 69 63 70 61 71 7 72 8 73 9 74
REMARK SMILES IDX 10 75 11 76 12 77 13 78 28 79 14 80 27 81 22 82 26 83 23 84
REMARK SMILES IDX 25 85 24 86 15 87 16 88 17 89 21 90 18 91 20 92 19 93
REMARK H PARENT 85 24 53 35
REMARK Flexibility Score: inf
ROOT
ATOM      1  O   UNL A   1      31.188  27.129  24.974  1.00  0.00    -0.374 OA
ENDROOT
BRANCH   1   2
ATOM      2  C   UNL A   1      31.652  28.477  25.017  1.00  0.00     0.202 C 
BRANCH   2   3
ATOM      3  C   UNL A   1      32.336  28.903  26.320  1.00  0.00     0.261 C 
BRANCH   3   4
ATOM      4  O   UNL A   1      33.172  30.057  26.085  1.00  0.00    -0.460 OA
BRANCH   4   5
ATOM      5  C   UNL A   1      33.605  30.972  26.984  1.00  0.00     0.338 C 
ATOM      6  O   UNL A   1      33.003  32.036  27.107  1.00  0.00    -0.246 OA
BRANCH   5   7
ATOM      7  C   UNL A   1      34.799  30.736  27.837  1.00  0.00     0.060 A 
ATOM      8  C   UNL A   1      35.040  29.525  28.478  1.00  0.00     0.016 A 
ATOM      9  C   UNL A   1      35.776  31.735  27.926  1.00  0.00     0.016 A 
ATOM     10  C   UNL A   1      36.161  29.304  29.239  1.00  0.00     0.010 A 
ATOM     11  C   UNL A   1      36.954  31.507  28.647  1.00  0.00     0.010 A 
ATOM     12  C   UNL A   1      37.139  30.281  29.298  1.00  0.00    -0.014 A 
BRANCH  12  13
ATOM     13  C   UNL A   1      38.316  29.955  30.103  1.00  0.00     0.031 A 
ATOM     14  C   UNL A   1      39.415  29.183  29.463  1.00  0.00     0.074 A 
ATOM     15  C   UNL A   1      38.439  30.528  31.314  1.00  0.00     0.049 A 
ATOM     16  N   UNL A   1      40.509  28.719  29.994  1.00  0.00    -0.248 NA
ATOM     17  C   UNL A   1      39.275  28.912  28.021  1.00  0.00     0.031 C 
ATOM     18  C   UNL A   1      37.466  31.451  31.913  1.00  0.00     0.029 A 
ATOM     19  N   UNL A   1      39.440  30.458  32.241  1.00  0.00    -0.354 N 
ATOM     20  C   UNL A   1      41.160  28.048  28.971  1.00  0.00     0.074 A 
ATOM     21  C   UNL A   1      40.362  28.196  27.775  1.00  0.00     0.031 C 
ATOM     22  C   UNL A   1      37.930  31.872  33.098  1.00  0.00     0.029 A 
ATOM     23  C   UNL A   1      39.173  31.169  33.384  1.00  0.00     0.049 A 
ATOM     24  H   UNL A   1      40.271  29.948  32.101  1.00  0.00     0.167 HD
ATOM     25  C   UNL A   1      42.310  27.346  29.060  1.00  0.00     0.037 A 
ATOM     26  C   UNL A   1      39.834  31.181  34.555  1.00  0.00     0.037 A 
ATOM     27  C   UNL A   1      43.068  27.253  30.276  1.00  0.00     0.049 A 
ATOM     28  C   UNL A   1      41.057  30.310  34.655  1.00  0.00     0.074 A 
ATOM     29  C   UNL A   1      44.224  26.540  30.527  1.00  0.00     0.029 A 
ATOM     30  N   UNL A   1      42.730  27.908  31.455  1.00  0.00    -0.354 N 
ATOM     31  N   UNL A   1      41.635  29.593  33.719  1.00  0.00    -0.248 NA
ATOM     32  C   UNL A   1      41.698  30.216  35.970  1.00  0.00     0.031 C 
ATOM     33  C   UNL A   1      44.556  26.726  31.873  1.00  0.00     0.029 A 
ATOM     34  C   UNL A   1      43.636  27.592  32.449  1.00  0.00     0.049 A 
ATOM     35  H   UNL A   1      41.959  28.511  31.566  1.00  0.00     0.167 HD
ATOM     36  C   UNL A   1      42.703  28.957  34.329  1.00  0.00     0.074 A 
ATOM     37  C   UNL A   1      42.713  29.402  35.710  1.00  0.00     0.031 C 
ATOM     38  C   UNL A   1      43.590  28.074  33.808  1.00  0.00     0.037 A 
BRANCH  25  39
ATOM     39  C   UNL A   1      42.727  26.557  27.859  1.00  0.00     0.064 A 
ATOM     40  C   UNL A   1      42.314  25.234  27.645  1.00  0.00     0.173 A 
ATOM     41  C   UNL A   1      43.588  27.137  26.915  1.00  0.00     0.173 A 
ATOM     42  F   UNL A   1      41.520  24.622  28.536  1.00  0.00    -0.203 F 
ATOM     43  C   UNL A   1      42.763  24.517  26.538  1.00  0.00     0.198 A 
ATOM     44  C   UNL A   1      44.016  26.425  25.799  1.00  0.00     0.198 A 
ATOM     45  F   UNL A   1      44.026  28.395  27.083  1.00  0.00    -0.203 F 
ATOM     46  F   UNL A   1      42.397  23.237  26.377  1.00  0.00    -0.200 F 
ATOM     47  C   UNL A   1      43.609  25.114  25.614  1.00  0.00     0.200 A 
ATOM     48  F   UNL A   1      44.836  27.004  24.911  1.00  0.00    -0.200 F 
ATOM     49  F   UNL A   1      44.044  24.419  24.553  1.00  0.00    -0.200 F 
ENDBRANCH  25  39
BRANCH  26  50
ATOM     50  C   UNL A   1      39.295  31.930  35.722  1.00  0.00     0.064 A 
ATOM     51  C   UNL A   1      38.391  31.345  36.616  1.00  0.00     0.173 A 
ATOM     52  C   UNL A   1      39.668  33.266  35.960  1.00  0.00     0.173 A 
ATOM     53  F   UNL A   1      37.984  30.082  36.427  1.00  0.00    -0.203 F 
ATOM     54  C   UNL A   1      37.868  32.067  37.690  1.00  0.00     0.198 A 
ATOM     55  C   UNL A   1      39.174  33.974  37.052  1.00  0.00     0.198 A 
ATOM     56  F   UNL A   1      40.526  33.883  35.134  1.00  0.00    -0.203 F 
ATOM     57  F   UNL A   1      36.966  31.498  38.501  1.00  0.00    -0.200 F 
ATOM     58  C   UNL A   1      38.265  33.378  37.911  1.00  0.00     0.200 A 
ATOM     59  F   UNL A   1      39.574  35.234  37.268  1.00  0.00    -0.200 F 
ATOM     60  F   UNL A   1      37.764  34.069  38.943  1.00  0.00    -0.200 F 
ENDBRANCH  26  50
BRANCH  38  61
ATOM     61  C   UNL A   1      44.636  27.550  34.741  1.00  0.00     0.064 A 
ATOM     62  C   UNL A   1      45.813  28.270  34.987  1.00  0.00     0.173 A 
ATOM     63  C   UNL A   1      44.423  26.356  35.442  1.00  0.00     0.173 A 
ATOM     64  F   UNL A   1      46.061  29.408  34.322  1.00  0.00    -0.203 F 
ATOM     65  C   UNL A   1      46.750  27.803  35.903  1.00  0.00     0.198 A 
ATOM     66  C   UNL A   1      45.348  25.908  36.377  1.00  0.00     0.198 A 
ATOM     67  F   UNL A   1      43.306  25.641  35.238  1.00  0.00    -0.203 F 
ATOM     68  F   UNL A   1      47.885  28.486  36.102  1.00  0.00    -0.200 F 
ATOM     69  C   UNL A   1      46.512  26.629  36.603  1.00  0.00     0.200 A 
ATOM     70  F   UNL A   1      45.112  24.783  37.064  1.00  0.00    -0.200 F 
ATOM     71  F   UNL A   1      47.408  26.191  37.499  1.00  0.00    -0.200 F 
ENDBRANCH  38  61
ENDBRANCH  12  13
ENDBRANCH   5   7
ENDBRANCH   4   5
ENDBRANCH   3   4
ENDBRANCH   2   3
ENDBRANCH   1   2
BRANCH   1  72
ATOM     72  C   UNL A   1      31.915  26.201  25.783  1.00  0.00     0.202 C 
BRANCH  72  73
ATOM     73  C   UNL A   1      31.411  24.787  25.500  1.00  0.00     0.261 C 
BRANCH  73  74
ATOM     74  O   UNL A   1      32.240  24.182  24.493  1.00  0.00    -0.460 OA
BRANCH  74  75
ATOM     75  C   UNL A   1      32.063  22.856  24.249  1.00  0.00     0.349 C 
ATOM     76  O   UNL A   1      31.750  22.389  23.158  1.00  0.00    -0.248 OA
BRANCH  75  77
ATOM     77  C   UNL A   1      32.330  21.998  25.493  1.00  0.00     0.301 C 
ATOM     78  C   UNL A   1      33.745  22.128  26.068  1.00  0.00     0.174 C 
ATOM     79  O   UNL A   1      31.903  20.637  25.338  1.00  0.00    -0.475 OA
ATOM     80  N   UNL A   1      34.715  21.334  25.316  1.00  0.00    -0.360 N 
ATOM     81  C   UNL A   1      32.896  19.731  25.036  1.00  0.00     0.144 A 
ATOM     82  C   UNL A   1      34.268  20.049  25.004  1.00  0.00     0.080 A 
ATOM     83  C   UNL A   1      32.441  18.459  24.652  1.00  0.00     0.049 A 
ATOM     84  C   UNL A   1      35.152  19.029  24.627  1.00  0.00     0.030 A 
ATOM     85  C   UNL A   1      33.343  17.484  24.234  1.00  0.00     0.004 A 
ATOM     86  C   UNL A   1      34.703  17.766  24.233  1.00  0.00     0.002 A 
BRANCH  80  87
ATOM     87  C   UNL A   1      35.724  22.004  24.487  1.00  0.00     0.152 C 
BRANCH  87  88
ATOM     88  C   UNL A   1      36.954  22.398  25.264  1.00  0.00    -0.029 A 
ATOM     89  C   UNL A   1      37.999  21.484  25.450  1.00  0.00     0.005 A 
ATOM     90  C   UNL A   1      37.068  23.683  25.816  1.00  0.00     0.005 A 
ATOM     91  C   UNL A   1      39.153  21.865  26.135  1.00  0.00     0.000 A 
ATOM     92  C   UNL A   1      38.235  24.073  26.471  1.00  0.00     0.000 A 
ATOM     93  C   UNL A   1      39.278  23.163  26.626  1.00  0.00     0.000 A 
ENDBRANCH  87  88
ENDBRANCH  80  87
ENDBRANCH  75  77
ENDBRANCH  74  75
ENDBRANCH  73  74
ENDBRANCH  72  73
ENDBRANCH   1  72
TORSDOF 16
ENDMDL
