MODEL 1
REMARK VINA RESULT:      -9.9      0.000      0.000
REMARK SMILES NS(=O)(=O)c1ccc(-n2nc(NC(=O)NCCCCCCCCCCC(=O)OCCOCCOC(=O)c3ccc(-c4c5nc(c(-c6c(F)c(F)c(F)c(F)c6F)c6ccc([nH]6)c(-c6c(F)c(F)c(F)c(F)c6F)c6nc(c(-c7c(F)c(F)c(F)c(F)c7F)c7ccc4[nH]7)C=C6)C=C5)cc3)cc2-c2ccccc2)cc1
REMARK SMILES IDX 24 1 23 2 22 3 21 4 20 5 19 6 18 7 17 8 16 9 15 10 12 11
REMARK SMILES IDX 13 12 14 14 11 16 9 17 10 18 101 19 100 20 8 21 5 22 6 23
REMARK SMILES IDX 109 24 7 25 108 26 2 27 3 28 4 29 1 30 102 33 103 34 107 35
REMARK SMILES IDX 104 36 106 37 105 38 25 39 26 40 27 41 28 42 29 43 30 44
REMARK SMILES IDX 31 45 32 46 33 47 34 48 35 49 36 50 37 51 38 52 99 53 39 54
REMARK SMILES IDX 98 55 40 56 41 57 42 58 92 59 43 60 97 61 91 62 93 63 44 64
REMARK SMILES IDX 96 65 90 66 89 67 45 69 77 70 57 71 76 72 58 73 61 74 75 75
REMARK SMILES IDX 94 76 59 77 60 78 74 80 95 81 62 82 46 83 47 84 55 85 48 86
REMARK SMILES IDX 49 87 53 88 56 89 50 90 51 91 54 92 52 93 78 94 79 95 87 96
REMARK SMILES IDX 80 97 81 98 85 99 88 100 82 101 83 102 86 103 84 104 63 105
REMARK SMILES IDX 64 106 72 107 65 108 66 109 70 110 73 111 67 112 68 113
REMARK SMILES IDX 71 114 69 115
REMARK H PARENT 12 13 15 15 1 31 1 32 93 68 61 79
REMARK Flexibility Score: inf
ROOT
ATOM      1  C   UNL A   1      38.076  23.867  26.297  1.00  0.00     0.012 C 
ENDROOT
BRANCH   1   2
ATOM      2  C   UNL A   1      36.648  23.333  26.150  1.00  0.00     0.001 C 
BRANCH   2   3
ATOM      3  C   UNL A   1      35.986  23.681  24.822  1.00  0.00     0.000 C 
BRANCH   3   4
ATOM      4  C   UNL A   1      34.899  24.738  24.977  1.00  0.00     0.000 C 
BRANCH   4   5
ATOM      5  C   UNL A   1      34.211  25.105  23.661  1.00  0.00     0.000 C 
BRANCH   5   6
ATOM      6  C   UNL A   1      33.509  23.944  22.951  1.00  0.00     0.000 C 
BRANCH   6   7
ATOM      7  C   UNL A   1      32.040  23.749  23.346  1.00  0.00     0.002 C 
BRANCH   7   8
ATOM      8  C   UNL A   1      31.721  22.430  24.048  1.00  0.00     0.021 C 
BRANCH   8   9
ATOM      9  C   UNL A   1      31.705  22.494  25.566  1.00  0.00     0.117 C 
BRANCH   9  10
ATOM     10  N   UNL A   1      30.497  22.012  26.190  1.00  0.00    -0.338 N 
ATOM     11  N   UNL A   1      29.578  24.035  27.052  1.00  0.00    -0.291 N 
ATOM     12  C   UNL A   1      29.558  22.693  26.885  1.00  0.00     0.320 C 
ATOM     13  H   UNL A   1      29.062  24.352  27.827  1.00  0.00     0.173 HD
ATOM     14  O   UNL A   1      28.705  22.037  27.490  1.00  0.00    -0.248 OA
ATOM     15  H   UNL A   1      30.330  21.047  26.095  1.00  0.00     0.165 HD
BRANCH  11  16
ATOM     16  C   UNL A   1      30.189  25.040  26.333  1.00  0.00     0.157 A 
ATOM     17  N   UNL A   1      31.425  26.704  25.911  1.00  0.00    -0.231 N 
ATOM     18  N   UNL A   1      31.417  25.514  26.548  1.00  0.00    -0.149 NA
ATOM     19  C   UNL A   1      30.454  26.741  24.919  1.00  0.00     0.076 A 
ATOM     20  C   UNL A   1      29.605  25.690  25.220  1.00  0.00     0.078 A 
BRANCH  17  21
ATOM     21  C   UNL A   1      32.275  27.753  26.362  1.00  0.00     0.065 A 
ATOM     22  C   UNL A   1      33.943  29.805  27.263  1.00  0.00     0.082 A 
ATOM     23  C   UNL A   1      32.558  29.965  27.327  1.00  0.00     0.024 A 
ATOM     24  C   UNL A   1      34.498  28.621  26.764  1.00  0.00     0.024 A 
ATOM     25  C   UNL A   1      31.724  28.943  26.866  1.00  0.00     0.030 A 
ATOM     26  C   UNL A   1      33.663  27.580  26.341  1.00  0.00     0.030 A 
BRANCH  22  27
ATOM     27  S   UNL A   1      35.033  31.106  27.760  1.00  0.00     0.238 S 
ATOM     28  O   UNL A   1      34.479  32.361  27.314  1.00  0.00    -0.207 OA
ATOM     29  O   UNL A   1      36.391  30.704  27.466  1.00  0.00    -0.207 OA
BRANCH  27  30
ATOM     30  N   UNL A   1      34.917  31.141  29.435  1.00  0.00    -0.225 NA
ATOM     31  H   UNL A   1      34.330  30.369  29.752  1.00  0.00     0.137 HD
ATOM     32  H   UNL A   1      34.504  32.026  29.729  1.00  0.00     0.137 HD
ENDBRANCH  27  30
ENDBRANCH  22  27
ENDBRANCH  17  21
BRANCH  19  33
ATOM     33  C   UNL A   1      30.450  27.716  23.834  1.00  0.00     0.000 A 
ATOM     34  C   UNL A   1      31.670  28.084  23.244  1.00  0.00     0.010 A 
ATOM     35  C   UNL A   1      29.272  28.341  23.418  1.00  0.00     0.010 A 
ATOM     36  C   UNL A   1      31.720  29.093  22.286  1.00  0.00     0.001 A 
ATOM     37  C   UNL A   1      29.325  29.352  22.454  1.00  0.00     0.001 A 
ATOM     38  C   UNL A   1      30.547  29.732  21.897  1.00  0.00     0.000 A 
ENDBRANCH  19  33
ENDBRANCH  11  16
ENDBRANCH   9  10
ENDBRANCH   8   9
ENDBRANCH   7   8
ENDBRANCH   6   7
ENDBRANCH   5   6
ENDBRANCH   4   5
ENDBRANCH   3   4
ENDBRANCH   2   3
ENDBRANCH   1   2
BRANCH   1  39
ATOM     39  C   UNL A   1      39.213  22.840  26.171  1.00  0.00     0.123 C 
BRANCH  39  40
ATOM     40  C   UNL A   1      40.219  22.738  27.303  1.00  0.00     0.305 C 
ATOM     41  O   UNL A   1      40.452  21.687  27.887  1.00  0.00    -0.252 OA
BRANCH  40  42
ATOM     42  O   UNL A   1      40.801  23.926  27.591  1.00  0.00    -0.463 OA
BRANCH  42  43
ATOM     43  C   UNL A   1      42.112  24.173  27.055  1.00  0.00     0.261 C 
BRANCH  43  44
ATOM     44  C   UNL A   1      43.105  24.412  28.193  1.00  0.00     0.202 C 
BRANCH  44  45
ATOM     45  O   UNL A   1      43.238  23.354  29.146  1.00  0.00    -0.374 OA
BRANCH  45  46
ATOM     46  C   UNL A   1      43.835  23.643  30.406  1.00  0.00     0.202 C 
BRANCH  46  47
ATOM     47  C   UNL A   1      44.587  24.962  30.523  1.00  0.00     0.261 C 
BRANCH  47  48
ATOM     48  O   UNL A   1      43.774  25.980  31.091  1.00  0.00    -0.460 OA
BRANCH  48  49
ATOM     49  C   UNL A   1      43.990  26.203  32.411  1.00  0.00     0.338 C 
ATOM     50  O   UNL A   1      44.811  25.675  33.127  1.00  0.00    -0.246 OA
BRANCH  49  51
ATOM     51  C   UNL A   1      42.921  27.087  32.894  1.00  0.00     0.060 A 
ATOM     52  C   UNL A   1      42.244  27.811  31.915  1.00  0.00     0.016 A 
ATOM     53  C   UNL A   1      42.819  27.404  34.257  1.00  0.00     0.016 A 
ATOM     54  C   UNL A   1      41.673  29.006  32.279  1.00  0.00     0.010 A 
ATOM     55  C   UNL A   1      42.242  28.594  34.623  1.00  0.00     0.010 A 
ATOM     56  C   UNL A   1      41.771  29.422  33.613  1.00  0.00    -0.014 A 
BRANCH  56  57
ATOM     57  C   UNL A   1      41.253  30.730  33.944  1.00  0.00     0.031 A 
ATOM     58  C   UNL A   1      42.324  31.642  34.395  1.00  0.00     0.074 A 
ATOM     59  C   UNL A   1      39.956  31.051  33.784  1.00  0.00     0.049 A 
ATOM     60  N   UNL A   1      42.485  32.140  35.574  1.00  0.00    -0.248 NA
ATOM     61  C   UNL A   1      43.467  31.850  33.488  1.00  0.00     0.031 C 
ATOM     62  C   UNL A   1      38.902  30.280  33.120  1.00  0.00     0.029 A 
ATOM     63  N   UNL A   1      39.321  32.206  34.120  1.00  0.00    -0.354 N 
ATOM     64  C   UNL A   1      43.648  32.899  35.498  1.00  0.00     0.074 A 
ATOM     65  C   UNL A   1      44.306  32.516  34.279  1.00  0.00     0.031 C 
ATOM     66  C   UNL A   1      37.833  31.081  32.901  1.00  0.00     0.029 A 
ATOM     67  C   UNL A   1      38.077  32.370  33.522  1.00  0.00     0.049 A 
ATOM     68  H   UNL A   1      39.709  32.869  34.735  1.00  0.00     0.167 HD
ATOM     69  C   UNL A   1      43.796  33.992  36.292  1.00  0.00     0.037 A 
ATOM     70  C   UNL A   1      37.366  33.526  33.486  1.00  0.00     0.037 A 
ATOM     71  C   UNL A   1      42.955  33.883  37.461  1.00  0.00     0.049 A 
ATOM     72  C   UNL A   1      37.893  34.401  34.567  1.00  0.00     0.074 A 
ATOM     73  C   UNL A   1      42.865  32.991  38.514  1.00  0.00     0.029 A 
ATOM     74  N   UNL A   1      41.771  34.580  37.464  1.00  0.00    -0.354 N 
ATOM     75  N   UNL A   1      37.747  34.146  35.837  1.00  0.00    -0.248 NA
ATOM     76  C   UNL A   1      38.994  35.293  34.230  1.00  0.00     0.031 C 
ATOM     77  C   UNL A   1      41.469  32.881  38.794  1.00  0.00     0.029 A 
ATOM     78  C   UNL A   1      40.789  33.757  37.948  1.00  0.00     0.049 A 
ATOM     79  H   UNL A   1      41.650  35.511  37.170  1.00  0.00     0.167 HD
ATOM     80  C   UNL A   1      38.971  34.474  36.404  1.00  0.00     0.074 A 
ATOM     81  C   UNL A   1      39.672  35.245  35.380  1.00  0.00     0.031 C 
ATOM     82  C   UNL A   1      39.410  33.841  37.532  1.00  0.00     0.037 A 
BRANCH  69  83
ATOM     83  C   UNL A   1      44.295  35.324  35.768  1.00  0.00     0.064 A 
ATOM     84  C   UNL A   1      45.279  36.002  36.516  1.00  0.00     0.173 A 
ATOM     85  C   UNL A   1      43.639  36.108  34.792  1.00  0.00     0.173 A 
ATOM     86  F   UNL A   1      45.985  35.359  37.458  1.00  0.00    -0.203 F 
ATOM     87  C   UNL A   1      45.479  37.379  36.397  1.00  0.00     0.198 A 
ATOM     88  C   UNL A   1      43.873  37.474  34.646  1.00  0.00     0.198 A 
ATOM     89  F   UNL A   1      42.674  35.632  33.999  1.00  0.00    -0.203 F 
ATOM     90  F   UNL A   1      46.315  38.001  37.240  1.00  0.00    -0.200 F 
ATOM     91  C   UNL A   1      44.761  38.118  35.477  1.00  0.00     0.200 A 
ATOM     92  F   UNL A   1      43.161  38.170  33.749  1.00  0.00    -0.200 F 
ATOM     93  F   UNL A   1      44.890  39.448  35.418  1.00  0.00    -0.200 F 
ENDBRANCH  69  83
BRANCH  70  94
ATOM     94  C   UNL A   1      36.544  34.062  32.371  1.00  0.00     0.064 A 
ATOM     95  C   UNL A   1      36.989  33.984  31.040  1.00  0.00     0.173 A 
ATOM     96  C   UNL A   1      35.188  34.399  32.556  1.00  0.00     0.173 A 
ATOM     97  F   UNL A   1      38.252  33.621  30.773  1.00  0.00    -0.203 F 
ATOM     98  C   UNL A   1      36.125  34.205  29.961  1.00  0.00     0.198 A 
ATOM     99  C   UNL A   1      34.329  34.625  31.479  1.00  0.00     0.198 A 
ATOM    100  F   UNL A   1      34.644  34.419  33.780  1.00  0.00    -0.203 F 
ATOM    101  F   UNL A   1      36.571  34.060  28.706  1.00  0.00    -0.200 F 
ATOM    102  C   UNL A   1      34.793  34.515  30.182  1.00  0.00     0.200 A 
ATOM    103  F   UNL A   1      33.034  34.888  31.707  1.00  0.00    -0.200 F 
ATOM    104  F   UNL A   1      33.950  34.667  29.151  1.00  0.00    -0.200 F 
ENDBRANCH  70  94
BRANCH  82 105
ATOM    105  C   UNL A   1      38.423  32.992  38.284  1.00  0.00     0.064 A 
ATOM    106  C   UNL A   1      38.029  31.701  37.889  1.00  0.00     0.173 A 
ATOM    107  C   UNL A   1      37.968  33.454  39.525  1.00  0.00     0.173 A 
ATOM    108  F   UNL A   1      38.499  31.151  36.762  1.00  0.00    -0.203 F 
ATOM    109  C   UNL A   1      37.184  30.930  38.687  1.00  0.00     0.198 A 
ATOM    110  C   UNL A   1      37.157  32.668  40.336  1.00  0.00     0.198 A 
ATOM    111  F   UNL A   1      38.355  34.658  39.975  1.00  0.00    -0.203 F 
ATOM    112  F   UNL A   1      36.811  29.706  38.286  1.00  0.00    -0.200 F 
ATOM    113  C   UNL A   1      36.756  31.412  39.913  1.00  0.00     0.200 A 
ATOM    114  F   UNL A   1      36.785  33.119  41.542  1.00  0.00    -0.200 F 
ATOM    115  F   UNL A   1      35.978  30.654  40.700  1.00  0.00    -0.200 F 
ENDBRANCH  82 105
ENDBRANCH  56  57
ENDBRANCH  49  51
ENDBRANCH  48  49
ENDBRANCH  47  48
ENDBRANCH  46  47
ENDBRANCH  45  46
ENDBRANCH  44  45
ENDBRANCH  43  44
ENDBRANCH  42  43
ENDBRANCH  40  42
ENDBRANCH  39  40
ENDBRANCH   1  39
TORSDOF 29
ENDMDL
MODEL 2
REMARK VINA RESULT:      -9.4      5.801      8.381
REMARK SMILES NS(=O)(=O)c1ccc(-n2nc(NC(=O)NCCCCCCCCCCC(=O)OCCOCCOC(=O)c3ccc(-c4c5nc(c(-c6c(F)c(F)c(F)c(F)c6F)c6ccc([nH]6)c(-c6c(F)c(F)c(F)c(F)c6F)c6nc(c(-c7c(F)c(F)c(F)c(F)c7F)c7ccc4[nH]7)C=C6)C=C5)cc3)cc2-c2ccccc2)cc1
REMARK SMILES IDX 24 1 23 2 22 3 21 4 20 5 19 6 18 7 17 8 16 9 15 10 12 11
REMARK SMILES IDX 13 12 14 14 11 16 9 17 10 18 101 19 100 20 8 21 5 22 6 23
REMARK SMILES IDX 109 24 7 25 108 26 2 27 3 28 4 29 1 30 102 33 103 34 107 35
REMARK SMILES IDX 104 36 106 37 105 38 25 39 26 40 27 41 28 42 29 43 30 44
REMARK SMILES IDX 31 45 32 46 33 47 34 48 35 49 36 50 37 51 38 52 99 53 39 54
REMARK SMILES IDX 98 55 40 56 41 57 42 58 92 59 43 60 97 61 91 62 93 63 44 64
REMARK SMILES IDX 96 65 90 66 89 67 45 69 77 70 57 71 76 72 58 73 61 74 75 75
REMARK SMILES IDX 94 76 59 77 60 78 74 80 95 81 62 82 46 83 47 84 55 85 48 86
REMARK SMILES IDX 49 87 53 88 56 89 50 90 51 91 54 92 52 93 78 94 79 95 87 96
REMARK SMILES IDX 80 97 81 98 85 99 88 100 82 101 83 102 86 103 84 104 63 105
REMARK SMILES IDX 64 106 72 107 65 108 66 109 70 110 73 111 67 112 68 113
REMARK SMILES IDX 71 114 69 115
REMARK H PARENT 12 13 15 15 1 31 1 32 93 68 61 79
REMARK Flexibility Score: inf
ROOT
ATOM      1  C   UNL A   1      37.185  23.665  25.433  1.00  0.00     0.012 C 
ENDROOT
BRANCH   1   2
ATOM      2  C   UNL A   1      35.656  23.728  25.477  1.00  0.00     0.001 C 
BRANCH   2   3
ATOM      3  C   UNL A   1      35.067  25.008  24.894  1.00  0.00     0.000 C 
BRANCH   3   4
ATOM      4  C   UNL A   1      33.983  25.604  25.784  1.00  0.00     0.000 C 
BRANCH   4   5
ATOM      5  C   UNL A   1      34.233  27.067  26.155  1.00  0.00     0.000 C 
BRANCH   5   6
ATOM      6  C   UNL A   1      33.501  28.090  25.282  1.00  0.00     0.000 C 
BRANCH   6   7
ATOM      7  C   UNL A   1      32.151  27.613  24.734  1.00  0.00     0.002 C 
BRANCH   7   8
ATOM      8  C   UNL A   1      32.000  27.679  23.215  1.00  0.00     0.021 C 
BRANCH   8   9
ATOM      9  C   UNL A   1      32.812  26.655  22.440  1.00  0.00     0.117 C 
BRANCH   9  10
ATOM     10  N   UNL A   1      32.484  26.542  21.040  1.00  0.00    -0.338 N 
ATOM     11  N   UNL A   1      32.919  24.233  20.644  1.00  0.00    -0.291 N 
ATOM     12  C   UNL A   1      32.562  25.467  20.223  1.00  0.00     0.320 C 
ATOM     13  H   UNL A   1      33.259  23.647  19.931  1.00  0.00     0.173 HD
ATOM     14  O   UNL A   1      32.407  25.656  19.012  1.00  0.00    -0.248 OA
ATOM     15  H   UNL A   1      32.154  27.367  20.616  1.00  0.00     0.165 HD
BRANCH  11  16
ATOM     16  C   UNL A   1      32.894  23.645  21.890  1.00  0.00     0.157 A 
ATOM     17  N   UNL A   1      33.100  22.165  23.388  1.00  0.00    -0.231 N 
ATOM     18  N   UNL A   1      33.733  22.702  22.323  1.00  0.00    -0.149 NA
ATOM     19  C   UNL A   1      32.174  23.057  23.915  1.00  0.00     0.076 A 
ATOM     20  C   UNL A   1      31.987  23.998  22.918  1.00  0.00     0.078 A 
BRANCH  17  21
ATOM     21  C   UNL A   1      33.341  20.812  23.757  1.00  0.00     0.065 A 
ATOM     22  C   UNL A   1      33.804  18.158  24.495  1.00  0.00     0.082 A 
ATOM     23  C   UNL A   1      34.654  19.161  24.965  1.00  0.00     0.024 A 
ATOM     24  C   UNL A   1      32.719  18.474  23.670  1.00  0.00     0.024 A 
ATOM     25  C   UNL A   1      34.428  20.487  24.586  1.00  0.00     0.030 A 
ATOM     26  C   UNL A   1      32.468  19.808  23.325  1.00  0.00     0.030 A 
BRANCH  22  27
ATOM     27  S   UNL A   1      34.104  16.458  24.883  1.00  0.00     0.238 S 
ATOM     28  O   UNL A   1      35.525  16.270  25.042  1.00  0.00    -0.207 OA
ATOM     29  O   UNL A   1      33.301  15.639  24.003  1.00  0.00    -0.207 OA
BRANCH  27  30
ATOM     30  N   UNL A   1      33.455  16.253  26.419  1.00  0.00    -0.225 NA
ATOM     31  H   UNL A   1      32.491  15.929  26.341  1.00  0.00     0.137 HD
ATOM     32  H   UNL A   1      33.476  17.142  26.919  1.00  0.00     0.137 HD
ENDBRANCH  27  30
ENDBRANCH  22  27
ENDBRANCH  17  21
BRANCH  19  33
ATOM     33  C   UNL A   1      31.608  22.928  25.253  1.00  0.00     0.000 A 
ATOM     34  C   UNL A   1      30.262  23.272  25.460  1.00  0.00     0.010 A 
ATOM     35  C   UNL A   1      32.390  22.537  26.343  1.00  0.00     0.010 A 
ATOM     36  C   UNL A   1      29.718  23.271  26.741  1.00  0.00     0.001 A 
ATOM     37  C   UNL A   1      31.840  22.533  27.627  1.00  0.00     0.001 A 
ATOM     38  C   UNL A   1      30.510  22.908  27.826  1.00  0.00     0.000 A 
ENDBRANCH  19  33
ENDBRANCH  11  16
ENDBRANCH   9  10
ENDBRANCH   8   9
ENDBRANCH   7   8
ENDBRANCH   6   7
ENDBRANCH   5   6
ENDBRANCH   4   5
ENDBRANCH   3   4
ENDBRANCH   2   3
ENDBRANCH   1   2
BRANCH   1  39
ATOM     39  C   UNL A   1      37.837  22.376  25.957  1.00  0.00     0.123 C 
BRANCH  39  40
ATOM     40  C   UNL A   1      39.335  22.375  26.201  1.00  0.00     0.305 C 
ATOM     41  O   UNL A   1      39.912  23.293  26.770  1.00  0.00    -0.252 OA
BRANCH  40  42
ATOM     42  O   UNL A   1      39.942  21.268  25.711  1.00  0.00    -0.463 OA
BRANCH  42  43
ATOM     43  C   UNL A   1      40.379  20.276  26.654  1.00  0.00     0.261 C 
BRANCH  43  44
ATOM     44  C   UNL A   1      41.907  20.231  26.694  1.00  0.00     0.202 C 
BRANCH  44  45
ATOM     45  O   UNL A   1      42.579  20.492  25.460  1.00  0.00    -0.374 OA
BRANCH  45  46
ATOM     46  C   UNL A   1      43.647  19.635  25.069  1.00  0.00     0.202 C 
BRANCH  46  47
ATOM     47  C   UNL A   1      45.032  19.980  25.599  1.00  0.00     0.261 C 
BRANCH  47  48
ATOM     48  O   UNL A   1      45.157  21.369  25.874  1.00  0.00    -0.460 OA
BRANCH  48  49
ATOM     49  C   UNL A   1      45.922  22.053  24.987  1.00  0.00     0.338 C 
ATOM     50  O   UNL A   1      46.636  21.600  24.121  1.00  0.00    -0.246 OA
BRANCH  49  51
ATOM     51  C   UNL A   1      45.885  23.471  25.367  1.00  0.00     0.060 A 
ATOM     52  C   UNL A   1      46.535  23.797  26.556  1.00  0.00     0.016 A 
ATOM     53  C   UNL A   1      44.994  24.355  24.741  1.00  0.00     0.016 A 
ATOM     54  C   UNL A   1      46.095  24.900  27.247  1.00  0.00     0.010 A 
ATOM     55  C   UNL A   1      44.560  25.462  25.426  1.00  0.00     0.010 A 
ATOM     56  C   UNL A   1      45.044  25.656  26.713  1.00  0.00    -0.014 A 
BRANCH  56  57
ATOM     57  C   UNL A   1      44.534  26.747  27.511  1.00  0.00     0.031 A 
ATOM     58  C   UNL A   1      45.413  27.932  27.440  1.00  0.00     0.074 A 
ATOM     59  C   UNL A   1      43.364  26.669  28.172  1.00  0.00     0.049 A 
ATOM     60  N   UNL A   1      46.119  28.443  28.391  1.00  0.00    -0.248 NA
ATOM     61  C   UNL A   1      45.708  28.480  26.105  1.00  0.00     0.031 C 
ATOM     62  C   UNL A   1      42.339  25.625  28.089  1.00  0.00     0.029 A 
ATOM     63  N   UNL A   1      42.803  27.578  29.013  1.00  0.00    -0.354 N 
ATOM     64  C   UNL A   1      46.792  29.515  27.815  1.00  0.00     0.074 A 
ATOM     65  C   UNL A   1      46.667  29.358  26.392  1.00  0.00     0.031 C 
ATOM     66  C   UNL A   1      41.198  26.074  28.662  1.00  0.00     0.029 A 
ATOM     67  C   UNL A   1      41.451  27.370  29.263  1.00  0.00     0.049 A 
ATOM     68  H   UNL A   1      43.311  28.320  29.413  1.00  0.00     0.167 HD
ATOM     69  C   UNL A   1      47.121  30.594  28.573  1.00  0.00     0.037 A 
ATOM     70  C   UNL A   1      40.611  28.262  29.848  1.00  0.00     0.037 A 
ATOM     71  C   UNL A   1      47.191  30.227  29.968  1.00  0.00     0.049 A 
ATOM     72  C   UNL A   1      41.453  29.243  30.583  1.00  0.00     0.074 A 
ATOM     73  C   UNL A   1      47.954  29.339  30.702  1.00  0.00     0.029 A 
ATOM     74  N   UNL A   1      46.117  30.540  30.765  1.00  0.00    -0.354 N 
ATOM     75  N   UNL A   1      42.153  28.943  31.641  1.00  0.00    -0.248 NA
ATOM     76  C   UNL A   1      41.893  30.426  29.856  1.00  0.00     0.031 C 
ATOM     77  C   UNL A   1      47.070  28.815  31.694  1.00  0.00     0.029 A 
ATOM     78  C   UNL A   1      45.839  29.457  31.556  1.00  0.00     0.049 A 
ATOM     79  H   UNL A   1      45.631  31.396  30.769  1.00  0.00     0.167 HD
ATOM     80  C   UNL A   1      43.355  29.616  31.470  1.00  0.00     0.074 A 
ATOM     81  C   UNL A   1      43.108  30.570  30.391  1.00  0.00     0.031 C 
ATOM     82  C   UNL A   1      44.510  29.131  32.014  1.00  0.00     0.037 A 
BRANCH  69  83
ATOM     83  C   UNL A   1      46.883  32.020  28.116  1.00  0.00     0.064 A 
ATOM     84  C   UNL A   1      45.574  32.387  27.745  1.00  0.00     0.173 A 
ATOM     85  C   UNL A   1      47.896  32.919  27.707  1.00  0.00     0.173 A 
ATOM     86  F   UNL A   1      44.527  31.626  28.094  1.00  0.00    -0.203 F 
ATOM     87  C   UNL A   1      45.320  33.477  26.911  1.00  0.00     0.198 A 
ATOM     88  C   UNL A   1      47.632  34.031  26.910  1.00  0.00     0.198 A 
ATOM     89  F   UNL A   1      49.193  32.725  27.963  1.00  0.00    -0.203 F 
ATOM     90  F   UNL A   1      44.076  33.690  26.461  1.00  0.00    -0.200 F 
ATOM     91  C   UNL A   1      46.352  34.286  26.476  1.00  0.00     0.200 A 
ATOM     92  F   UNL A   1      48.651  34.798  26.498  1.00  0.00    -0.200 F 
ATOM     93  F   UNL A   1      46.123  35.280  25.610  1.00  0.00    -0.200 F 
ENDBRANCH  69  83
BRANCH  70  94
ATOM     94  C   UNL A   1      39.191  28.540  29.511  1.00  0.00     0.064 A 
ATOM     95  C   UNL A   1      38.226  28.701  30.519  1.00  0.00     0.173 A 
ATOM     96  C   UNL A   1      38.810  28.934  28.213  1.00  0.00     0.173 A 
ATOM     97  F   UNL A   1      38.523  28.397  31.791  1.00  0.00    -0.203 F 
ATOM     98  C   UNL A   1      36.965  29.247  30.249  1.00  0.00     0.198 A 
ATOM     99  C   UNL A   1      37.551  29.473  27.944  1.00  0.00     0.198 A 
ATOM    100  F   UNL A   1      39.683  28.898  27.197  1.00  0.00    -0.203 F 
ATOM    101  F   UNL A   1      36.093  29.444  31.248  1.00  0.00    -0.200 F 
ATOM    102  C   UNL A   1      36.633  29.642  28.964  1.00  0.00     0.200 A 
ATOM    103  F   UNL A   1      37.256  29.884  26.703  1.00  0.00    -0.200 F 
ATOM    104  F   UNL A   1      35.450  30.221  28.715  1.00  0.00    -0.200 F 
ENDBRANCH  70  94
BRANCH  82 105
ATOM    105  C   UNL A   1      44.394  28.019  33.019  1.00  0.00     0.064 A 
ATOM    106  C   UNL A   1      44.409  26.651  32.690  1.00  0.00     0.173 A 
ATOM    107  C   UNL A   1      44.407  28.355  34.377  1.00  0.00     0.173 A 
ATOM    108  F   UNL A   1      44.493  26.250  31.415  1.00  0.00    -0.203 F 
ATOM    109  C   UNL A   1      44.396  25.671  33.681  1.00  0.00     0.198 A 
ATOM    110  C   UNL A   1      44.434  27.376  35.365  1.00  0.00     0.198 A 
ATOM    111  F   UNL A   1      44.446  29.645  34.749  1.00  0.00    -0.203 F 
ATOM    112  F   UNL A   1      44.399  24.373  33.346  1.00  0.00    -0.200 F 
ATOM    113  C   UNL A   1      44.417  26.035  35.018  1.00  0.00     0.200 A 
ATOM    114  F   UNL A   1      44.503  27.733  36.655  1.00  0.00    -0.200 F 
ATOM    115  F   UNL A   1      44.448  25.094  35.972  1.00  0.00    -0.200 F 
ENDBRANCH  82 105
ENDBRANCH  56  57
ENDBRANCH  49  51
ENDBRANCH  48  49
ENDBRANCH  47  48
ENDBRANCH  46  47
ENDBRANCH  45  46
ENDBRANCH  44  45
ENDBRANCH  43  44
ENDBRANCH  42  43
ENDBRANCH  40  42
ENDBRANCH  39  40
ENDBRANCH   1  39
TORSDOF 29
ENDMDL
MODEL 3
REMARK VINA RESULT:      -9.0      5.472      7.937
REMARK SMILES NS(=O)(=O)c1ccc(-n2nc(NC(=O)NCCCCCCCCCCC(=O)OCCOCCOC(=O)c3ccc(-c4c5nc(c(-c6c(F)c(F)c(F)c(F)c6F)c6ccc([nH]6)c(-c6c(F)c(F)c(F)c(F)c6F)c6nc(c(-c7c(F)c(F)c(F)c(F)c7F)c7ccc4[nH]7)C=C6)C=C5)cc3)cc2-c2ccccc2)cc1
REMARK SMILES IDX 24 1 23 2 22 3 21 4 20 5 19 6 18 7 17 8 16 9 15 10 12 11
REMARK SMILES IDX 13 12 14 14 11 16 9 17 10 18 101 19 100 20 8 21 5 22 6 23
REMARK SMILES IDX 109 24 7 25 108 26 2 27 3 28 4 29 1 30 102 33 103 34 107 35
REMARK SMILES IDX 104 36 106 37 105 38 25 39 26 40 27 41 28 42 29 43 30 44
REMARK SMILES IDX 31 45 32 46 33 47 34 48 35 49 36 50 37 51 38 52 99 53 39 54
REMARK SMILES IDX 98 55 40 56 41 57 42 58 92 59 43 60 97 61 91 62 93 63 44 64
REMARK SMILES IDX 96 65 90 66 89 67 45 69 77 70 57 71 76 72 58 73 61 74 75 75
REMARK SMILES IDX 94 76 59 77 60 78 74 80 95 81 62 82 46 83 47 84 55 85 48 86
REMARK SMILES IDX 49 87 53 88 56 89 50 90 51 91 54 92 52 93 78 94 79 95 87 96
REMARK SMILES IDX 80 97 81 98 85 99 88 100 82 101 83 102 86 103 84 104 63 105
REMARK SMILES IDX 64 106 72 107 65 108 66 109 70 110 73 111 67 112 68 113
REMARK SMILES IDX 71 114 69 115
REMARK H PARENT 12 13 15 15 1 31 1 32 93 68 61 79
REMARK Flexibility Score: inf
ROOT
ATOM      1  C   UNL A   1      37.304  23.833  25.575  1.00  0.00     0.012 C 
ENDROOT
BRANCH   1   2
ATOM      2  C   UNL A   1      35.773  23.805  25.605  1.00  0.00     0.001 C 
BRANCH   2   3
ATOM      3  C   UNL A   1      35.114  25.017  24.957  1.00  0.00     0.000 C 
BRANCH   3   4
ATOM      4  C   UNL A   1      34.014  25.611  25.828  1.00  0.00     0.000 C 
BRANCH   4   5
ATOM      5  C   UNL A   1      34.250  27.078  26.194  1.00  0.00     0.000 C 
BRANCH   5   6
ATOM      6  C   UNL A   1      33.626  28.094  25.233  1.00  0.00     0.000 C 
BRANCH   6   7
ATOM      7  C   UNL A   1      32.292  27.655  24.619  1.00  0.00     0.002 C 
BRANCH   7   8
ATOM      8  C   UNL A   1      32.193  27.795  23.100  1.00  0.00     0.021 C 
BRANCH   8   9
ATOM      9  C   UNL A   1      32.936  26.735  22.304  1.00  0.00     0.117 C 
BRANCH   9  10
ATOM     10  N   UNL A   1      32.545  26.619  20.920  1.00  0.00    -0.338 N 
ATOM     11  N   UNL A   1      32.855  24.286  20.543  1.00  0.00    -0.291 N 
ATOM     12  C   UNL A   1      32.539  25.530  20.118  1.00  0.00     0.320 C 
ATOM     13  H   UNL A   1      33.137  23.675  19.826  1.00  0.00     0.173 HD
ATOM     14  O   UNL A   1      32.344  25.710  18.912  1.00  0.00    -0.248 OA
ATOM     15  H   UNL A   1      32.238  27.453  20.498  1.00  0.00     0.165 HD
BRANCH  11  16
ATOM     16  C   UNL A   1      32.854  23.718  21.798  1.00  0.00     0.157 A 
ATOM     17  N   UNL A   1      33.061  22.252  23.310  1.00  0.00    -0.231 N 
ATOM     18  N   UNL A   1      33.674  22.752  22.216  1.00  0.00    -0.149 NA
ATOM     19  C   UNL A   1      32.185  23.183  23.855  1.00  0.00     0.076 A 
ATOM     20  C   UNL A   1      31.996  24.116  22.851  1.00  0.00     0.078 A 
BRANCH  17  21
ATOM     21  C   UNL A   1      33.268  20.896  23.691  1.00  0.00     0.065 A 
ATOM     22  C   UNL A   1      33.686  18.234  24.426  1.00  0.00     0.082 A 
ATOM     23  C   UNL A   1      32.679  18.546  23.511  1.00  0.00     0.024 A 
ATOM     24  C   UNL A   1      34.492  19.243  24.966  1.00  0.00     0.024 A 
ATOM     25  C   UNL A   1      32.463  19.879  23.152  1.00  0.00     0.030 A 
ATOM     26  C   UNL A   1      34.304  20.574  24.575  1.00  0.00     0.030 A 
BRANCH  22  27
ATOM     27  S   UNL A   1      33.937  16.569  24.969  1.00  0.00     0.238 S 
ATOM     28  O   UNL A   1      33.894  15.702  23.818  1.00  0.00    -0.207 OA
ATOM     29  O   UNL A   1      33.128  16.345  26.147  1.00  0.00    -0.207 OA
BRANCH  27  30
ATOM     30  N   UNL A   1      35.532  16.530  25.494  1.00  0.00    -0.225 NA
ATOM     31  H   UNL A   1      35.630  15.837  26.236  1.00  0.00     0.137 HD
ATOM     32  H   UNL A   1      35.796  17.449  25.850  1.00  0.00     0.137 HD
ENDBRANCH  27  30
ENDBRANCH  22  27
ENDBRANCH  17  21
BRANCH  19  33
ATOM     33  C   UNL A   1      31.663  23.093  25.214  1.00  0.00     0.000 A 
ATOM     34  C   UNL A   1      32.539  22.771  26.263  1.00  0.00     0.010 A 
ATOM     35  C   UNL A   1      30.301  23.253  25.485  1.00  0.00     0.010 A 
ATOM     36  C   UNL A   1      32.059  22.566  27.553  1.00  0.00     0.001 A 
ATOM     37  C   UNL A   1      29.822  23.049  26.782  1.00  0.00     0.001 A 
ATOM     38  C   UNL A   1      30.698  22.697  27.810  1.00  0.00     0.000 A 
ENDBRANCH  19  33
ENDBRANCH  11  16
ENDBRANCH   9  10
ENDBRANCH   8   9
ENDBRANCH   7   8
ENDBRANCH   6   7
ENDBRANCH   5   6
ENDBRANCH   4   5
ENDBRANCH   3   4
ENDBRANCH   2   3
ENDBRANCH   1   2
BRANCH   1  39
ATOM     39  C   UNL A   1      38.029  22.662  26.257  1.00  0.00     0.123 C 
BRANCH  39  40
ATOM     40  C   UNL A   1      39.534  22.749  26.428  1.00  0.00     0.305 C 
ATOM     41  O   UNL A   1      40.087  23.720  26.930  1.00  0.00    -0.252 OA
BRANCH  40  42
ATOM     42  O   UNL A   1      40.176  21.655  25.956  1.00  0.00    -0.463 OA
BRANCH  42  43
ATOM     43  C   UNL A   1      40.702  20.724  26.917  1.00  0.00     0.261 C 
BRANCH  43  44
ATOM     44  C   UNL A   1      42.226  20.671  26.813  1.00  0.00     0.202 C 
BRANCH  44  45
ATOM     45  O   UNL A   1      42.781  20.950  25.526  1.00  0.00    -0.374 OA
BRANCH  45  46
ATOM     46  C   UNL A   1      43.797  20.092  25.019  1.00  0.00     0.202 C 
BRANCH  46  47
ATOM     47  C   UNL A   1      45.234  20.440  25.383  1.00  0.00     0.261 C 
BRANCH  47  48
ATOM     48  O   UNL A   1      45.351  21.785  25.829  1.00  0.00    -0.460 OA
BRANCH  48  49
ATOM     49  C   UNL A   1      46.057  22.594  25.002  1.00  0.00     0.338 C 
ATOM     50  O   UNL A   1      46.663  22.283  24.001  1.00  0.00    -0.246 OA
BRANCH  49  51
ATOM     51  C   UNL A   1      46.122  23.923  25.626  1.00  0.00     0.060 A 
ATOM     52  C   UNL A   1      46.697  23.969  26.894  1.00  0.00     0.016 A 
ATOM     53  C   UNL A   1      45.375  24.991  25.110  1.00  0.00     0.016 A 
ATOM     54  C   UNL A   1      46.307  24.977  27.741  1.00  0.00     0.010 A 
ATOM     55  C   UNL A   1      44.989  26.004  25.951  1.00  0.00     0.010 A 
ATOM     56  C   UNL A   1      45.380  25.923  27.281  1.00  0.00    -0.014 A 
BRANCH  56  57
ATOM     57  C   UNL A   1      44.909  26.909  28.226  1.00  0.00     0.031 A 
ATOM     58  C   UNL A   1      45.929  27.946  28.484  1.00  0.00     0.074 A 
ATOM     59  C   UNL A   1      43.664  26.881  28.735  1.00  0.00     0.049 A 
ATOM     60  N   UNL A   1      46.564  28.164  29.586  1.00  0.00    -0.248 NA
ATOM     61  C   UNL A   1      46.458  28.683  27.324  1.00  0.00     0.031 C 
ATOM     62  C   UNL A   1      42.537  26.032  28.340  1.00  0.00     0.029 A 
ATOM     63  N   UNL A   1      43.115  27.691  29.680  1.00  0.00    -0.354 N 
ATOM     64  C   UNL A   1      47.433  29.215  29.309  1.00  0.00     0.074 A 
ATOM     65  C   UNL A   1      47.473  29.344  27.879  1.00  0.00     0.031 C 
ATOM     66  C   UNL A   1      41.395  26.527  28.871  1.00  0.00     0.029 A 
ATOM     67  C   UNL A   1      41.727  27.639  29.743  1.00  0.00     0.049 A 
ATOM     68  H   UNL A   1      43.655  28.265  30.270  1.00  0.00     0.167 HD
ATOM     69  C   UNL A   1      47.791  30.076  30.298  1.00  0.00     0.037 A 
ATOM     70  C   UNL A   1      40.935  28.521  30.405  1.00  0.00     0.037 A 
ATOM     71  C   UNL A   1      47.635  29.451  31.591  1.00  0.00     0.049 A 
ATOM     72  C   UNL A   1      41.789  29.216  31.405  1.00  0.00     0.074 A 
ATOM     73  C   UNL A   1      48.182  28.340  32.206  1.00  0.00     0.029 A 
ATOM     74  N   UNL A   1      46.514  29.764  32.320  1.00  0.00    -0.354 N 
ATOM     75  N   UNL A   1      42.305  28.627  32.447  1.00  0.00    -0.248 NA
ATOM     76  C   UNL A   1      42.461  30.435  30.979  1.00  0.00     0.031 C 
ATOM     77  C   UNL A   1      47.121  27.777  32.976  1.00  0.00     0.029 A 
ATOM     78  C   UNL A   1      46.006  28.605  32.845  1.00  0.00     0.049 A 
ATOM     79  H   UNL A   1      46.141  30.666  32.446  1.00  0.00     0.167 HD
ATOM     80  C   UNL A   1      43.592  29.137  32.538  1.00  0.00     0.074 A 
ATOM     81  C   UNL A   1      43.605  30.300  31.654  1.00  0.00     0.031 C 
ATOM     82  C   UNL A   1      44.599  28.396  33.090  1.00  0.00     0.037 A 
BRANCH  69  83
ATOM     83  C   UNL A   1      47.791  31.581  30.114  1.00  0.00     0.064 A 
ATOM     84  C   UNL A   1      48.900  32.306  30.596  1.00  0.00     0.173 A 
ATOM     85  C   UNL A   1      46.651  32.360  29.812  1.00  0.00     0.173 A 
ATOM     86  F   UNL A   1      50.047  31.680  30.898  1.00  0.00    -0.203 F 
ATOM     87  C   UNL A   1      48.820  33.668  30.890  1.00  0.00     0.198 A 
ATOM     88  C   UNL A   1      46.590  33.728  30.066  1.00  0.00     0.198 A 
ATOM     89  F   UNL A   1      45.509  31.839  29.353  1.00  0.00    -0.203 F 
ATOM     90  F   UNL A   1      49.850  34.276  31.493  1.00  0.00    -0.200 F 
ATOM     91  C   UNL A   1      47.658  34.375  30.645  1.00  0.00     0.200 A 
ATOM     92  F   UNL A   1      45.450  34.391  29.823  1.00  0.00    -0.200 F 
ATOM     93  F   UNL A   1      47.550  35.659  31.003  1.00  0.00    -0.200 F 
ENDBRANCH  69  83
BRANCH  70  94
ATOM     94  C   UNL A   1      39.615  29.059  29.988  1.00  0.00     0.064 A 
ATOM     95  C   UNL A   1      39.361  29.396  28.648  1.00  0.00     0.173 A 
ATOM     96  C   UNL A   1      38.492  28.985  30.835  1.00  0.00     0.173 A 
ATOM     97  F   UNL A   1      40.367  29.440  27.762  1.00  0.00    -0.203 F 
ATOM     98  C   UNL A   1      38.061  29.620  28.179  1.00  0.00     0.198 A 
ATOM     99  C   UNL A   1      37.197  29.214  30.368  1.00  0.00     0.198 A 
ATOM    100  F   UNL A   1      38.616  28.592  32.111  1.00  0.00    -0.203 F 
ATOM    101  F   UNL A   1      37.852  29.877  26.880  1.00  0.00    -0.200 F 
ATOM    102  C   UNL A   1      36.979  29.519  29.038  1.00  0.00     0.200 A 
ATOM    103  F   UNL A   1      36.156  29.077  31.202  1.00  0.00    -0.200 F 
ATOM    104  F   UNL A   1      35.730  29.673  28.578  1.00  0.00    -0.200 F 
ENDBRANCH  70  94
BRANCH  82 105
ATOM    105  C   UNL A   1      44.219  27.147  33.833  1.00  0.00     0.064 A 
ATOM    106  C   UNL A   1      43.720  27.131  35.149  1.00  0.00     0.173 A 
ATOM    107  C   UNL A   1      44.231  25.935  33.133  1.00  0.00     0.173 A 
ATOM    108  F   UNL A   1      43.588  28.264  35.850  1.00  0.00    -0.203 F 
ATOM    109  C   UNL A   1      43.294  25.944  35.743  1.00  0.00     0.198 A 
ATOM    110  C   UNL A   1      43.769  24.759  33.715  1.00  0.00     0.198 A 
ATOM    111  F   UNL A   1      44.647  25.901  31.857  1.00  0.00    -0.203 F 
ATOM    112  F   UNL A   1      42.833  25.948  37.003  1.00  0.00    -0.200 F 
ATOM    113  C   UNL A   1      43.311  24.760  35.022  1.00  0.00     0.200 A 
ATOM    114  F   UNL A   1      43.741  23.627  32.997  1.00  0.00    -0.200 F 
ATOM    115  F   UNL A   1      42.861  23.627  35.578  1.00  0.00    -0.200 F 
ENDBRANCH  82 105
ENDBRANCH  56  57
ENDBRANCH  49  51
ENDBRANCH  48  49
ENDBRANCH  47  48
ENDBRANCH  46  47
ENDBRANCH  45  46
ENDBRANCH  44  45
ENDBRANCH  43  44
ENDBRANCH  42  43
ENDBRANCH  40  42
ENDBRANCH  39  40
ENDBRANCH   1  39
TORSDOF 29
ENDMDL
