MODEL 1
REMARK VINA RESULT:     -12.2      0.000      0.000
REMARK SMILES C[C@@H](Nc1cccc(C(=O)OCCOCCOC(=O)c2ccc(-c3c4nc(c(-c5c(F)c(F)c(F)c(F)c5F)c5ccc([nH]5)c(-c5c(F)c(F)c(F)c(F)c5F)c5nc(c(-c6c(F)c(F)c(F)c(F)c6F)c6ccc3[nH]6)C=C5)C=C4)cc2)c1)C1CC[NH+](C)CC1
REMARK SMILES IDX 13 1 12 2 11 3 9 4 10 5 8 6 4 7 5 8 83 9 6 10 7 11 3 12 2 14
REMARK SMILES IDX 1 15 84 16 85 17 90 18 86 19 89 20 87 21 88 22 14 24 15 25
REMARK SMILES IDX 16 26 17 27 18 28 19 29 20 30 21 31 82 32 22 33 81 34 23 35
REMARK SMILES IDX 24 36 25 37 75 38 26 39 80 40 74 41 76 42 27 43 79 44 73 45
REMARK SMILES IDX 72 46 28 48 60 49 40 50 59 51 41 52 44 53 58 54 77 55 42 56
REMARK SMILES IDX 43 57 57 59 78 60 45 61 29 62 30 63 38 64 31 65 32 66 36 67
REMARK SMILES IDX 39 68 33 69 34 70 37 71 35 72 61 73 62 74 70 75 63 76 64 77
REMARK SMILES IDX 68 78 71 79 65 80 66 81 69 82 67 83 46 84 47 85 55 86 48 87
REMARK SMILES IDX 49 88 53 89 56 90 50 91 51 92 54 93 52 94
REMARK H PARENT 3 13 87 23 76 47 44 58
REMARK Flexibility Score: inf
ROOT
ATOM      1  C   UNL A   1      43.703  19.079  24.934  1.00  0.00     0.202 C 
ENDROOT
BRANCH   1   2
ATOM      2  C   UNL A   1      42.812  19.441  26.120  1.00  0.00     0.261 C 
BRANCH   2   3
ATOM      3  O   UNL A   1      41.439  19.569  25.736  1.00  0.00    -0.460 OA
BRANCH   3   4
ATOM      4  C   UNL A   1      40.670  20.171  26.671  1.00  0.00     0.338 C 
ATOM      5  O   UNL A   1      40.783  20.089  27.883  1.00  0.00    -0.246 OA
BRANCH   4   6
ATOM      6  C   UNL A   1      39.598  20.950  26.044  1.00  0.00     0.062 A 
ATOM      7  C   UNL A   1      36.638  21.284  25.001  1.00  0.00     0.035 A 
ATOM      8  C   UNL A   1      36.695  23.053  25.432  1.00  0.00     0.026 A 
ATOM      9  C   UNL A   1      38.130  20.244  25.166  1.00  0.00     0.041 A 
ATOM     10  C   UNL A   1      38.194  23.762  26.177  1.00  0.00     0.003 A 
ATOM     11  C   UNL A   1      39.609  22.692  26.548  1.00  0.00     0.016 A 
BRANCH   7  12
ATOM     12  N   UNL A   1      35.381  20.665  24.975  1.00  0.00    -0.382 N 
ATOM     13  H   UNL A   1      35.290  19.720  24.718  1.00  0.00     0.160 HD
BRANCH  12  14
ATOM     14  C   UNL A   1      34.186  21.472  25.346  1.00  0.00     0.079 C 
ATOM     15  C   UNL A   1      33.793  21.195  26.803  1.00  0.00     0.031 C 
BRANCH  14  16
ATOM     16  C   UNL A   1      32.907  21.550  24.450  1.00  0.00     0.022 C 
ATOM     17  C   UNL A   1      32.934  22.322  23.134  1.00  0.00     0.067 C 
ATOM     18  C   UNL A   1      31.625  21.959  25.123  1.00  0.00     0.067 C 
ATOM     19  C   UNL A   1      32.740  23.843  23.243  1.00  0.00     0.262 C 
ATOM     20  C   UNL A   1      31.488  23.477  25.268  1.00  0.00     0.262 C 
ATOM     21  N   UNL A   1      32.706  24.442  24.692  1.00  0.00    -0.337 N 
ATOM     22  C   UNL A   1      33.859  25.896  25.643  1.00  0.00     0.332 C 
ATOM     23  H   UNL A   1      33.195  25.259  25.057  1.00  0.00     0.347 HD
ENDBRANCH  14  16
ENDBRANCH  12  14
ENDBRANCH   7  12
ENDBRANCH   4   6
ENDBRANCH   3   4
ENDBRANCH   2   3
ENDBRANCH   1   2
BRANCH   1  24
ATOM     24  O   UNL A   1      44.553  20.078  24.384  1.00  0.00    -0.374 OA
BRANCH  24  25
ATOM     25  C   UNL A   1      44.509  21.403  24.906  1.00  0.00     0.202 C 
BRANCH  25  26
ATOM     26  C   UNL A   1      44.284  22.582  23.949  1.00  0.00     0.261 C 
BRANCH  26  27
ATOM     27  O   UNL A   1      43.434  23.615  24.472  1.00  0.00    -0.460 OA
BRANCH  27  28
ATOM     28  C   UNL A   1      44.108  24.675  24.984  1.00  0.00     0.338 C 
ATOM     29  O   UNL A   1      45.240  25.039  24.713  1.00  0.00    -0.246 OA
BRANCH  28  30
ATOM     30  C   UNL A   1      43.224  25.481  25.840  1.00  0.00     0.060 A 
ATOM     31  C   UNL A   1      43.459  26.861  25.898  1.00  0.00     0.016 A 
ATOM     32  C   UNL A   1      42.293  24.877  26.684  1.00  0.00     0.016 A 
ATOM     33  C   UNL A   1      42.803  27.639  26.845  1.00  0.00     0.010 A 
ATOM     34  C   UNL A   1      41.643  25.658  27.645  1.00  0.00     0.010 A 
ATOM     35  C   UNL A   1      41.931  27.030  27.757  1.00  0.00    -0.014 A 
BRANCH  35  36
ATOM     36  C   UNL A   1      41.474  27.800  28.936  1.00  0.00     0.031 A 
ATOM     37  C   UNL A   1      42.253  27.692  30.217  1.00  0.00     0.074 A 
ATOM     38  C   UNL A   1      40.414  28.619  28.851  1.00  0.00     0.049 A 
ATOM     39  N   UNL A   1      42.032  28.255  31.377  1.00  0.00    -0.248 NA
ATOM     40  C   UNL A   1      43.445  26.829  30.184  1.00  0.00     0.031 C 
ATOM     41  C   UNL A   1      39.624  28.849  27.645  1.00  0.00     0.029 A 
ATOM     42  N   UNL A   1      39.825  29.412  29.802  1.00  0.00    -0.354 N 
ATOM     43  C   UNL A   1      43.051  27.811  32.210  1.00  0.00     0.074 A 
ATOM     44  C   UNL A   1      43.868  26.904  31.436  1.00  0.00     0.031 C 
ATOM     45  C   UNL A   1      38.648  29.728  27.927  1.00  0.00     0.029 A 
ATOM     46  C   UNL A   1      38.726  30.091  29.342  1.00  0.00     0.049 A 
ATOM     47  H   UNL A   1      40.160  29.487  30.724  1.00  0.00     0.167 HD
ATOM     48  C   UNL A   1      43.286  28.139  33.504  1.00  0.00     0.037 A 
ATOM     49  C   UNL A   1      37.872  30.898  29.998  1.00  0.00     0.037 A 
ATOM     50  C   UNL A   1      42.462  29.037  34.270  1.00  0.00     0.049 A 
ATOM     51  C   UNL A   1      38.098  31.175  31.461  1.00  0.00     0.074 A 
ATOM     52  C   UNL A   1      42.614  29.445  35.583  1.00  0.00     0.029 A 
ATOM     53  N   UNL A   1      41.319  29.661  33.787  1.00  0.00    -0.354 N 
ATOM     54  N   UNL A   1      39.067  30.762  32.243  1.00  0.00    -0.248 NA
ATOM     55  C   UNL A   1      37.109  32.028  32.133  1.00  0.00     0.031 C 
ATOM     56  C   UNL A   1      41.532  30.269  35.913  1.00  0.00     0.029 A 
ATOM     57  C   UNL A   1      40.738  30.425  34.787  1.00  0.00     0.049 A 
ATOM     58  H   UNL A   1      40.972  29.573  32.871  1.00  0.00     0.167 HD
ATOM     59  C   UNL A   1      38.825  31.331  33.487  1.00  0.00     0.074 A 
ATOM     60  C   UNL A   1      37.619  32.123  33.353  1.00  0.00     0.031 C 
ATOM     61  C   UNL A   1      39.538  31.212  34.635  1.00  0.00     0.037 A 
BRANCH  48  62
ATOM     62  C   UNL A   1      44.458  27.482  34.177  1.00  0.00     0.064 A 
ATOM     63  C   UNL A   1      45.750  28.030  34.116  1.00  0.00     0.173 A 
ATOM     64  C   UNL A   1      44.289  26.284  34.887  1.00  0.00     0.173 A 
ATOM     65  F   UNL A   1      45.970  29.167  33.439  1.00  0.00    -0.203 F 
ATOM     66  C   UNL A   1      46.833  27.380  34.705  1.00  0.00     0.198 A 
ATOM     67  C   UNL A   1      45.368  25.654  35.502  1.00  0.00     0.198 A 
ATOM     68  F   UNL A   1      43.076  25.719  34.981  1.00  0.00    -0.203 F 
ATOM     69  F   UNL A   1      48.066  27.887  34.577  1.00  0.00    -0.200 F 
ATOM     70  C   UNL A   1      46.640  26.196  35.399  1.00  0.00     0.200 A 
ATOM     71  F   UNL A   1      45.178  24.517  36.184  1.00  0.00    -0.200 F 
ATOM     72  F   UNL A   1      47.684  25.569  35.961  1.00  0.00    -0.200 F 
ENDBRANCH  48  62
BRANCH  49  73
ATOM     73  C   UNL A   1      36.729  31.506  29.270  1.00  0.00     0.064 A 
ATOM     74  C   UNL A   1      35.630  30.731  28.879  1.00  0.00     0.173 A 
ATOM     75  C   UNL A   1      36.706  32.875  28.962  1.00  0.00     0.173 A 
ATOM     76  F   UNL A   1      35.617  29.414  29.130  1.00  0.00    -0.203 F 
ATOM     77  C   UNL A   1      34.553  31.300  28.203  1.00  0.00     0.198 A 
ATOM     78  C   UNL A   1      35.617  33.448  28.310  1.00  0.00     0.198 A 
ATOM     79  F   UNL A   1      37.736  33.660  29.313  1.00  0.00    -0.203 F 
ATOM     80  F   UNL A   1      33.528  30.530  27.811  1.00  0.00    -0.200 F 
ATOM     81  C   UNL A   1      34.543  32.658  27.926  1.00  0.00     0.200 A 
ATOM     82  F   UNL A   1      35.606  34.763  28.057  1.00  0.00    -0.200 F 
ATOM     83  F   UNL A   1      33.501  33.207  27.287  1.00  0.00    -0.200 F 
ENDBRANCH  49  73
BRANCH  61  84
ATOM     84  C   UNL A   1      39.056  31.986  35.828  1.00  0.00     0.064 A 
ATOM     85  C   UNL A   1      38.245  31.401  36.811  1.00  0.00     0.173 A 
ATOM     86  C   UNL A   1      39.449  33.321  36.011  1.00  0.00     0.173 A 
ATOM     87  F   UNL A   1      37.830  30.132  36.676  1.00  0.00    -0.203 F 
ATOM     88  C   UNL A   1      37.821  32.132  37.917  1.00  0.00     0.198 A 
ATOM     89  C   UNL A   1      39.050  34.039  37.135  1.00  0.00     0.198 A 
ATOM     90  F   UNL A   1      40.231  33.927  35.105  1.00  0.00    -0.203 F 
ATOM     91  F   UNL A   1      37.004  31.568  38.818  1.00  0.00    -0.200 F 
ATOM     92  C   UNL A   1      38.230  33.447  38.083  1.00  0.00     0.200 A 
ATOM     93  F   UNL A   1      39.458  35.305  37.300  1.00  0.00    -0.200 F 
ATOM     94  F   UNL A   1      37.827  34.147  39.152  1.00  0.00    -0.200 F 
ENDBRANCH  61  84
ENDBRANCH  35  36
ENDBRANCH  28  30
ENDBRANCH  27  28
ENDBRANCH  26  27
ENDBRANCH  25  26
ENDBRANCH  24  25
ENDBRANCH   1  24
TORSDOF 17
ENDMDL
MODEL 2
REMARK VINA RESULT:     -12.0      1.063      7.432
REMARK SMILES C[C@@H](Nc1cccc(C(=O)OCCOCCOC(=O)c2ccc(-c3c4nc(c(-c5c(F)c(F)c(F)c(F)c5F)c5ccc([nH]5)c(-c5c(F)c(F)c(F)c(F)c5F)c5nc(c(-c6c(F)c(F)c(F)c(F)c6F)c6ccc3[nH]6)C=C5)C=C4)cc2)c1)C1CC[NH+](C)CC1
REMARK SMILES IDX 13 1 12 2 11 3 9 4 10 5 8 6 4 7 5 8 83 9 6 10 7 11 3 12 2 14
REMARK SMILES IDX 1 15 84 16 85 17 90 18 86 19 89 20 87 21 88 22 14 24 15 25
REMARK SMILES IDX 16 26 17 27 18 28 19 29 20 30 21 31 82 32 22 33 81 34 23 35
REMARK SMILES IDX 24 36 25 37 75 38 26 39 80 40 74 41 76 42 27 43 79 44 73 45
REMARK SMILES IDX 72 46 28 48 60 49 40 50 59 51 41 52 44 53 58 54 77 55 42 56
REMARK SMILES IDX 43 57 57 59 78 60 45 61 29 62 30 63 38 64 31 65 32 66 36 67
REMARK SMILES IDX 39 68 33 69 34 70 37 71 35 72 61 73 62 74 70 75 63 76 64 77
REMARK SMILES IDX 68 78 71 79 65 80 66 81 69 82 67 83 46 84 47 85 55 86 48 87
REMARK SMILES IDX 49 88 53 89 56 90 50 91 51 92 54 93 52 94
REMARK H PARENT 3 13 87 23 76 47 44 58
REMARK Flexibility Score: inf
ROOT
ATOM      1  C   UNL A   1      44.114  19.652  25.156  1.00  0.00     0.202 C 
ENDROOT
BRANCH   1   2
ATOM      2  C   UNL A   1      42.816  19.394  25.918  1.00  0.00     0.261 C 
BRANCH   2   3
ATOM      3  O   UNL A   1      41.811  20.364  25.605  1.00  0.00    -0.460 OA
BRANCH   3   4
ATOM      4  C   UNL A   1      40.869  20.497  26.565  1.00  0.00     0.338 C 
ATOM      5  O   UNL A   1      40.815  19.904  27.631  1.00  0.00    -0.246 OA
BRANCH   4   6
ATOM      6  C   UNL A   1      39.838  21.455  26.159  1.00  0.00     0.062 A 
ATOM      7  C   UNL A   1      36.847  22.220  25.502  1.00  0.00     0.035 A 
ATOM      8  C   UNL A   1      37.150  23.905  26.127  1.00  0.00     0.026 A 
ATOM      9  C   UNL A   1      38.218  21.021  25.375  1.00  0.00     0.041 A 
ATOM     10  C   UNL A   1      38.787  24.356  26.775  1.00  0.00     0.003 A 
ATOM     11  C   UNL A   1      40.099  23.108  26.857  1.00  0.00     0.016 A 
BRANCH   7  12
ATOM     12  N   UNL A   1      35.531  21.742  25.545  1.00  0.00    -0.382 N 
ATOM     13  H   UNL A   1      35.150  21.387  26.380  1.00  0.00     0.160 HD
BRANCH  12  14
ATOM     14  C   UNL A   1      34.720  21.784  24.297  1.00  0.00     0.079 C 
ATOM     15  C   UNL A   1      35.159  22.964  23.421  1.00  0.00     0.031 C 
BRANCH  14  16
ATOM     16  C   UNL A   1      33.160  21.665  24.297  1.00  0.00     0.022 C 
ATOM     17  C   UNL A   1      32.441  20.967  25.448  1.00  0.00     0.067 C 
ATOM     18  C   UNL A   1      32.516  21.133  23.046  1.00  0.00     0.067 C 
ATOM     19  C   UNL A   1      32.385  19.433  25.374  1.00  0.00     0.262 C 
ATOM     20  C   UNL A   1      32.527  19.604  22.975  1.00  0.00     0.262 C 
ATOM     21  N   UNL A   1      33.211  18.757  24.225  1.00  0.00    -0.337 N 
ATOM     22  C   UNL A   1      34.738  17.338  24.235  1.00  0.00     0.332 C 
ATOM     23  H   UNL A   1      33.842  17.958  24.276  1.00  0.00     0.347 HD
ENDBRANCH  14  16
ENDBRANCH  12  14
ENDBRANCH   7  12
ENDBRANCH   4   6
ENDBRANCH   3   4
ENDBRANCH   2   3
ENDBRANCH   1   2
BRANCH   1  24
ATOM     24  O   UNL A   1      44.235  20.846  24.392  1.00  0.00    -0.374 OA
BRANCH  24  25
ATOM     25  C   UNL A   1      45.238  21.800  24.731  1.00  0.00     0.202 C 
BRANCH  25  26
ATOM     26  C   UNL A   1      45.050  23.266  24.323  1.00  0.00     0.261 C 
BRANCH  26  27
ATOM     27  O   UNL A   1      44.249  24.037  25.233  1.00  0.00    -0.460 OA
BRANCH  27  28
ATOM     28  C   UNL A   1      44.594  25.348  25.294  1.00  0.00     0.338 C 
ATOM     29  O   UNL A   1      45.443  25.925  24.637  1.00  0.00    -0.246 OA
BRANCH  28  30
ATOM     30  C   UNL A   1      43.674  26.080  26.179  1.00  0.00     0.060 A 
ATOM     31  C   UNL A   1      43.927  27.441  26.395  1.00  0.00     0.016 A 
ATOM     32  C   UNL A   1      42.687  25.412  26.903  1.00  0.00     0.016 A 
ATOM     33  C   UNL A   1      43.230  28.131  27.380  1.00  0.00     0.010 A 
ATOM     34  C   UNL A   1      41.996  26.103  27.903  1.00  0.00     0.010 A 
ATOM     35  C   UNL A   1      42.299  27.449  28.173  1.00  0.00    -0.014 A 
BRANCH  35  36
ATOM     36  C   UNL A   1      41.787  28.103  29.399  1.00  0.00     0.031 A 
ATOM     37  C   UNL A   1      40.500  28.874  29.325  1.00  0.00     0.074 A 
ATOM     38  C   UNL A   1      42.432  27.966  30.569  1.00  0.00     0.049 A 
ATOM     39  N   UNL A   1      39.872  29.540  30.259  1.00  0.00    -0.248 NA
ATOM     40  C   UNL A   1      39.829  28.897  28.015  1.00  0.00     0.031 C 
ATOM     41  C   UNL A   1      43.653  27.190  30.770  1.00  0.00     0.029 A 
ATOM     42  N   UNL A   1      42.143  28.477  31.808  1.00  0.00    -0.354 N 
ATOM     43  C   UNL A   1      38.739  30.065  29.651  1.00  0.00     0.074 A 
ATOM     44  C   UNL A   1      38.783  29.672  28.260  1.00  0.00     0.031 C 
ATOM     45  C   UNL A   1      44.013  27.276  32.062  1.00  0.00     0.029 A 
ATOM     46  C   UNL A   1      43.067  28.142  32.765  1.00  0.00     0.049 A 
ATOM     47  H   UNL A   1      41.350  29.030  31.992  1.00  0.00     0.167 HD
ATOM     48  C   UNL A   1      37.746  30.803  30.206  1.00  0.00     0.037 A 
ATOM     49  C   UNL A   1      43.144  28.511  34.057  1.00  0.00     0.037 A 
ATOM     50  C   UNL A   1      37.715  31.196  31.590  1.00  0.00     0.049 A 
ATOM     51  C   UNL A   1      42.080  29.409  34.632  1.00  0.00     0.074 A 
ATOM     52  C   UNL A   1      36.754  31.935  32.259  1.00  0.00     0.029 A 
ATOM     53  N   UNL A   1      38.700  30.889  32.519  1.00  0.00    -0.354 N 
ATOM     54  N   UNL A   1      41.006  29.895  34.057  1.00  0.00    -0.248 NA
ATOM     55  C   UNL A   1      42.242  29.812  36.035  1.00  0.00     0.031 C 
ATOM     56  C   UNL A   1      37.186  32.123  33.577  1.00  0.00     0.029 A 
ATOM     57  C   UNL A   1      38.386  31.449  33.747  1.00  0.00     0.049 A 
ATOM     58  H   UNL A   1      39.503  30.351  32.332  1.00  0.00     0.167 HD
ATOM     59  C   UNL A   1      40.347  30.631  35.033  1.00  0.00     0.074 A 
ATOM     60  C   UNL A   1      41.142  30.522  36.240  1.00  0.00     0.031 C 
ATOM     61  C   UNL A   1      39.188  31.329  34.940  1.00  0.00     0.037 A 
BRANCH  48  62
ATOM     62  C   UNL A   1      36.642  31.264  29.297  1.00  0.00     0.064 A 
ATOM     63  C   UNL A   1      36.551  32.594  28.858  1.00  0.00     0.173 A 
ATOM     64  C   UNL A   1      35.656  30.364  28.866  1.00  0.00     0.173 A 
ATOM     65  F   UNL A   1      37.460  33.500  29.252  1.00  0.00    -0.203 F 
ATOM     66  C   UNL A   1      35.492  33.014  28.056  1.00  0.00     0.198 A 
ATOM     67  C   UNL A   1      34.617  30.780  28.038  1.00  0.00     0.198 A 
ATOM     68  F   UNL A   1      35.696  29.080  29.252  1.00  0.00    -0.203 F 
ATOM     69  F   UNL A   1      35.390  34.303  27.704  1.00  0.00    -0.200 F 
ATOM     70  C   UNL A   1      34.528  32.106  27.644  1.00  0.00     0.200 A 
ATOM     71  F   UNL A   1      33.694  29.899  27.630  1.00  0.00    -0.200 F 
ATOM     72  F   UNL A   1      33.507  32.513  26.877  1.00  0.00    -0.200 F 
ENDBRANCH  48  62
BRANCH  49  73
ATOM     73  C   UNL A   1      44.269  28.023  34.894  1.00  0.00     0.064 A 
ATOM     74  C   UNL A   1      45.446  28.772  35.028  1.00  0.00     0.173 A 
ATOM     75  C   UNL A   1      44.188  26.806  35.587  1.00  0.00     0.173 A 
ATOM     76  F   UNL A   1      45.580  29.930  34.366  1.00  0.00    -0.203 F 
ATOM     77  C   UNL A   1      46.500  28.321  35.819  1.00  0.00     0.198 A 
ATOM     78  C   UNL A   1      45.232  26.368  36.400  1.00  0.00     0.198 A 
ATOM     79  F   UNL A   1      43.084  26.050  35.490  1.00  0.00    -0.203 F 
ATOM     80  F   UNL A   1      47.627  29.041  35.904  1.00  0.00    -0.200 F 
ATOM     81  C   UNL A   1      46.390  27.124  36.510  1.00  0.00     0.200 A 
ATOM     82  F   UNL A   1      45.115  25.218  37.076  1.00  0.00    -0.200 F 
ATOM     83  F   UNL A   1      47.399  26.696  37.281  1.00  0.00    -0.200 F 
ENDBRANCH  49  73
BRANCH  61  84
ATOM     84  C   UNL A   1      38.686  31.999  36.187  1.00  0.00     0.064 A 
ATOM     85  C   UNL A   1      37.902  31.316  37.129  1.00  0.00     0.173 A 
ATOM     86  C   UNL A   1      39.030  33.331  36.463  1.00  0.00     0.173 A 
ATOM     87  F   UNL A   1      37.533  30.046  36.906  1.00  0.00    -0.203 F 
ATOM     88  C   UNL A   1      37.458  31.951  38.286  1.00  0.00     0.198 A 
ATOM     89  C   UNL A   1      38.612  33.953  37.636  1.00  0.00     0.198 A 
ATOM     90  F   UNL A   1      39.784  34.028  35.599  1.00  0.00    -0.203 F 
ATOM     91  F   UNL A   1      36.668  31.295  39.147  1.00  0.00    -0.200 F 
ATOM     92  C   UNL A   1      37.820  33.265  38.543  1.00  0.00     0.200 A 
ATOM     93  F   UNL A   1      38.975  35.218  37.889  1.00  0.00    -0.200 F 
ATOM     94  F   UNL A   1      37.398  33.873  39.660  1.00  0.00    -0.200 F 
ENDBRANCH  61  84
ENDBRANCH  35  36
ENDBRANCH  28  30
ENDBRANCH  27  28
ENDBRANCH  26  27
ENDBRANCH  25  26
ENDBRANCH  24  25
ENDBRANCH   1  24
TORSDOF 17
ENDMDL
MODEL 3
REMARK VINA RESULT:     -12.0      3.918      8.977
REMARK SMILES C[C@@H](Nc1cccc(C(=O)OCCOCCOC(=O)c2ccc(-c3c4nc(c(-c5c(F)c(F)c(F)c(F)c5F)c5ccc([nH]5)c(-c5c(F)c(F)c(F)c(F)c5F)c5nc(c(-c6c(F)c(F)c(F)c(F)c6F)c6ccc3[nH]6)C=C5)C=C4)cc2)c1)C1CC[NH+](C)CC1
REMARK SMILES IDX 13 1 12 2 11 3 9 4 10 5 8 6 4 7 5 8 83 9 6 10 7 11 3 12 2 14
REMARK SMILES IDX 1 15 84 16 85 17 90 18 86 19 89 20 87 21 88 22 14 24 15 25
REMARK SMILES IDX 16 26 17 27 18 28 19 29 20 30 21 31 82 32 22 33 81 34 23 35
REMARK SMILES IDX 24 36 25 37 75 38 26 39 80 40 74 41 76 42 27 43 79 44 73 45
REMARK SMILES IDX 72 46 28 48 60 49 40 50 59 51 41 52 44 53 58 54 77 55 42 56
REMARK SMILES IDX 43 57 57 59 78 60 45 61 29 62 30 63 38 64 31 65 32 66 36 67
REMARK SMILES IDX 39 68 33 69 34 70 37 71 35 72 61 73 62 74 70 75 63 76 64 77
REMARK SMILES IDX 68 78 71 79 65 80 66 81 69 82 67 83 46 84 47 85 55 86 48 87
REMARK SMILES IDX 49 88 53 89 56 90 50 91 51 92 54 93 52 94
REMARK H PARENT 3 13 87 23 76 47 44 58
REMARK Flexibility Score: inf
ROOT
ATOM      1  C   UNL A   1      32.550  30.074  25.812  1.00  0.00     0.202 C 
ENDROOT
BRANCH   1   2
ATOM      2  C   UNL A   1      33.617  29.041  26.171  1.00  0.00     0.261 C 
BRANCH   2   3
ATOM      3  O   UNL A   1      33.099  28.011  27.018  1.00  0.00    -0.460 OA
BRANCH   3   4
ATOM      4  C   UNL A   1      32.145  27.255  26.430  1.00  0.00     0.338 C 
ATOM      5  O   UNL A   1      31.039  26.989  26.872  1.00  0.00    -0.246 OA
BRANCH   4   6
ATOM      6  C   UNL A   1      32.614  26.724  25.147  1.00  0.00     0.062 A 
ATOM      7  C   UNL A   1      33.852  24.434  23.362  1.00  0.00     0.035 A 
ATOM      8  C   UNL A   1      32.869  25.020  21.945  1.00  0.00     0.026 A 
ATOM      9  C   UNL A   1      33.848  25.362  24.936  1.00  0.00     0.041 A 
ATOM     10  C   UNL A   1      31.755  26.444  22.134  1.00  0.00     0.003 A 
ATOM     11  C   UNL A   1      31.578  27.241  23.752  1.00  0.00     0.016 A 
BRANCH   7  12
ATOM     12  N   UNL A   1      34.233  23.086  23.372  1.00  0.00    -0.382 N 
ATOM     13  H   UNL A   1      33.783  22.431  22.792  1.00  0.00     0.160 HD
BRANCH  12  14
ATOM     14  C   UNL A   1      35.336  22.668  24.281  1.00  0.00     0.079 C 
ATOM     15  C   UNL A   1      36.660  22.603  23.510  1.00  0.00     0.031 C 
BRANCH  14  16
ATOM     16  C   UNL A   1      35.217  21.444  25.248  1.00  0.00     0.022 C 
ATOM     17  C   UNL A   1      34.270  20.293  24.920  1.00  0.00     0.067 C 
ATOM     18  C   UNL A   1      34.986  21.745  26.704  1.00  0.00     0.067 C 
ATOM     19  C   UNL A   1      32.795  20.510  25.291  1.00  0.00     0.262 C 
ATOM     20  C   UNL A   1      33.515  22.012  27.030  1.00  0.00     0.262 C 
ATOM     21  N   UNL A   1      32.404  21.939  25.802  1.00  0.00    -0.337 N 
ATOM     22  C   UNL A   1      31.024  23.349  25.127  1.00  0.00     0.332 C 
ATOM     23  H   UNL A   1      31.616  22.524  25.525  1.00  0.00     0.347 HD
ENDBRANCH  14  16
ENDBRANCH  12  14
ENDBRANCH   7  12
ENDBRANCH   4   6
ENDBRANCH   3   4
ENDBRANCH   2   3
ENDBRANCH   1   2
BRANCH   1  24
ATOM     24  O   UNL A   1      31.885  30.765  26.863  1.00  0.00    -0.374 OA
BRANCH  24  25
ATOM     25  C   UNL A   1      31.344  32.060  26.620  1.00  0.00     0.202 C 
BRANCH  25  26
ATOM     26  C   UNL A   1      32.148  33.300  27.033  1.00  0.00     0.261 C 
BRANCH  26  27
ATOM     27  O   UNL A   1      33.112  33.064  28.071  1.00  0.00    -0.460 OA
BRANCH  27  28
ATOM     28  C   UNL A   1      34.204  33.865  28.000  1.00  0.00     0.338 C 
ATOM     29  O   UNL A   1      34.230  35.078  27.877  1.00  0.00    -0.246 OA
BRANCH  28  30
ATOM     30  C   UNL A   1      35.428  33.090  28.257  1.00  0.00     0.060 A 
ATOM     31  C   UNL A   1      35.294  31.709  28.448  1.00  0.00     0.016 A 
ATOM     32  C   UNL A   1      36.652  33.726  28.465  1.00  0.00     0.016 A 
ATOM     33  C   UNL A   1      36.374  30.962  28.904  1.00  0.00     0.010 A 
ATOM     34  C   UNL A   1      37.734  32.976  28.936  1.00  0.00     0.010 A 
ATOM     35  C   UNL A   1      37.583  31.603  29.200  1.00  0.00    -0.014 A 
BRANCH  35  36
ATOM     36  C   UNL A   1      38.619  30.866  29.959  1.00  0.00     0.031 A 
ATOM     37  C   UNL A   1      38.802  31.172  31.418  1.00  0.00     0.074 A 
ATOM     38  C   UNL A   1      39.348  29.906  29.368  1.00  0.00     0.049 A 
ATOM     39  N   UNL A   1      39.653  30.669  32.276  1.00  0.00    -0.248 NA
ATOM     40  C   UNL A   1      37.898  32.184  31.989  1.00  0.00     0.031 C 
ATOM     41  C   UNL A   1      39.213  29.483  27.976  1.00  0.00     0.029 A 
ATOM     42  N   UNL A   1      40.346  29.111  29.871  1.00  0.00    -0.354 N 
ATOM     43  C   UNL A   1      39.393  31.307  33.482  1.00  0.00     0.074 A 
ATOM     44  C   UNL A   1      38.331  32.258  33.239  1.00  0.00     0.031 C 
ATOM     45  C   UNL A   1      40.099  28.503  27.733  1.00  0.00     0.029 A 
ATOM     46  C   UNL A   1      40.885  28.258  28.942  1.00  0.00     0.049 A 
ATOM     47  H   UNL A   1      40.645  29.150  30.807  1.00  0.00     0.167 HD
ATOM     48  C   UNL A   1      39.983  31.110  34.686  1.00  0.00     0.037 A 
ATOM     49  C   UNL A   1      41.909  27.392  29.056  1.00  0.00     0.037 A 
ATOM     50  C   UNL A   1      41.045  30.165  34.916  1.00  0.00     0.049 A 
ATOM     51  C   UNL A   1      42.613  27.255  30.380  1.00  0.00     0.074 A 
ATOM     52  C   UNL A   1      41.707  29.879  36.097  1.00  0.00     0.029 A 
ATOM     53  N   UNL A   1      41.607  29.359  33.936  1.00  0.00    -0.354 N 
ATOM     54  N   UNL A   1      42.359  27.852  31.521  1.00  0.00    -0.248 NA
ATOM     55  C   UNL A   1      43.750  26.327  30.432  1.00  0.00     0.031 C 
ATOM     56  C   UNL A   1      42.709  28.941  35.819  1.00  0.00     0.029 A 
ATOM     57  C   UNL A   1      42.630  28.597  34.479  1.00  0.00     0.049 A 
ATOM     58  H   UNL A   1      41.322  29.332  32.995  1.00  0.00     0.167 HD
ATOM     59  C   UNL A   1      43.278  27.348  32.432  1.00  0.00     0.074 A 
ATOM     60  C   UNL A   1      44.093  26.391  31.710  1.00  0.00     0.031 C 
ATOM     61  C   UNL A   1      43.431  27.646  33.746  1.00  0.00     0.037 A 
BRANCH  48  62
ATOM     62  C   UNL A   1      39.516  31.967  35.829  1.00  0.00     0.064 A 
ATOM     63  C   UNL A   1      40.128  33.193  36.132  1.00  0.00     0.173 A 
ATOM     64  C   UNL A   1      38.448  31.551  36.637  1.00  0.00     0.173 A 
ATOM     65  F   UNL A   1      41.163  33.632  35.400  1.00  0.00    -0.203 F 
ATOM     66  C   UNL A   1      39.713  33.950  37.227  1.00  0.00     0.198 A 
ATOM     67  C   UNL A   1      38.015  32.326  37.710  1.00  0.00     0.198 A 
ATOM     68  F   UNL A   1      37.825  30.389  36.390  1.00  0.00    -0.203 F 
ATOM     69  F   UNL A   1      40.355  35.085  37.535  1.00  0.00    -0.200 F 
ATOM     70  C   UNL A   1      38.655  33.517  38.011  1.00  0.00     0.200 A 
ATOM     71  F   UNL A   1      36.984  31.912  38.460  1.00  0.00    -0.200 F 
ATOM     72  F   UNL A   1      38.261  34.244  39.066  1.00  0.00    -0.200 F 
ENDBRANCH  48  62
BRANCH  49  73
ATOM     73  C   UNL A   1      42.321  26.583  27.881  1.00  0.00     0.064 A 
ATOM     74  C   UNL A   1      43.277  27.062  26.977  1.00  0.00     0.173 A 
ATOM     75  C   UNL A   1      41.778  25.311  27.645  1.00  0.00     0.173 A 
ATOM     76  F   UNL A   1      43.807  28.282  27.147  1.00  0.00    -0.203 F 
ATOM     77  C   UNL A   1      43.672  26.302  25.878  1.00  0.00     0.198 A 
ATOM     78  C   UNL A   1      42.193  24.540  26.562  1.00  0.00     0.198 A 
ATOM     79  F   UNL A   1      40.857  24.807  28.481  1.00  0.00    -0.203 F 
ATOM     80  F   UNL A   1      44.565  26.797  25.009  1.00  0.00    -0.200 F 
ATOM     81  C   UNL A   1      43.136  25.039  25.675  1.00  0.00     0.200 A 
ATOM     82  F   UNL A   1      41.683  23.315  26.378  1.00  0.00    -0.200 F 
ATOM     83  F   UNL A   1      43.525  24.304  24.625  1.00  0.00    -0.200 F 
ENDBRANCH  49  73
BRANCH  61  84
ATOM     84  C   UNL A   1      44.494  26.902  34.502  1.00  0.00     0.064 A 
ATOM     85  C   UNL A   1      44.242  25.661  35.104  1.00  0.00     0.173 A 
ATOM     86  C   UNL A   1      45.796  27.421  34.588  1.00  0.00     0.173 A 
ATOM     87  F   UNL A   1      43.011  25.129  35.064  1.00  0.00    -0.203 F 
ATOM     88  C   UNL A   1      45.246  24.981  35.789  1.00  0.00     0.198 A 
ATOM     89  C   UNL A   1      46.805  26.722  35.245  1.00  0.00     0.198 A 
ATOM     90  F   UNL A   1      46.093  28.601  34.023  1.00  0.00    -0.203 F 
ATOM     91  F   UNL A   1      44.969  23.821  36.401  1.00  0.00    -0.200 F 
ATOM     92  C   UNL A   1      46.527  25.507  35.852  1.00  0.00     0.200 A 
ATOM     93  F   UNL A   1      48.046  27.226  35.291  1.00  0.00    -0.200 F 
ATOM     94  F   UNL A   1      47.494  24.847  36.504  1.00  0.00    -0.200 F 
ENDBRANCH  61  84
ENDBRANCH  35  36
ENDBRANCH  28  30
ENDBRANCH  27  28
ENDBRANCH  26  27
ENDBRANCH  25  26
ENDBRANCH  24  25
ENDBRANCH   1  24
TORSDOF 17
ENDMDL
