MODEL 1
REMARK VINA RESULT:     -11.1      0.000      0.000
REMARK SMILES O=C(COc1csc(C(=O)OCCOCCOC(=O)c2ccc(-c3c4nc(c(-c5c(F)c(F)c(F)c(F)c5F)c5ccc([nH]5)c(-c5c(F)c(F)c(F)c(F)c5F)c5nc(c(-c6c(F)c(F)c(F)c(F)c6F)c6ccc3[nH]6)C=C5)C=C4)cc2)c1)Nc1nccs1
REMARK SMILES IDX 13 1 12 2 11 3 9 4 10 5 8 6 5 7 6 8 83 9 7 10 4 11 3 12 2 13
REMARK SMILES IDX 1 14 84 15 85 17 86 18 89 19 87 20 88 21 14 22 15 23 16 24
REMARK SMILES IDX 17 25 18 26 19 27 20 28 21 29 82 30 22 31 81 32 23 33 24 34
REMARK SMILES IDX 25 35 75 36 26 37 80 38 74 39 76 40 27 41 79 42 73 43 72 44
REMARK SMILES IDX 28 46 60 47 40 48 59 49 41 50 44 51 58 52 77 53 42 54 43 55
REMARK SMILES IDX 57 57 78 58 45 59 29 60 30 61 38 62 31 63 32 64 36 65 39 66
REMARK SMILES IDX 33 67 34 68 37 69 35 70 61 71 62 72 70 73 63 74 64 75 68 76
REMARK SMILES IDX 71 77 65 78 66 79 69 80 67 81 46 82 47 83 55 84 48 85 49 86
REMARK SMILES IDX 53 87 56 88 50 89 51 90 54 91 52 92
REMARK H PARENT 84 16 76 45 44 56
REMARK Flexibility Score: inf
ROOT
ATOM      1  C   UNL A   1      34.686  20.760  25.003  1.00  0.00     0.202 C 
ENDROOT
BRANCH   1   2
ATOM      2  C   UNL A   1      33.589  20.839  26.070  1.00  0.00     0.261 C 
BRANCH   2   3
ATOM      3  O   UNL A   1      32.667  21.905  25.775  1.00  0.00    -0.459 OA
BRANCH   3   4
ATOM      4  C   UNL A   1      32.497  22.821  26.772  1.00  0.00     0.348 C 
ATOM      5  O   UNL A   1      32.552  22.566  27.969  1.00  0.00    -0.245 OA
BRANCH   4   6
ATOM      6  C   UNL A   1      32.358  24.143  26.198  1.00  0.00     0.116 A 
ATOM      7  C   UNL A   1      31.544  26.154  25.324  1.00  0.00     0.131 A 
ATOM      8  C   UNL A   1      32.901  26.303  25.139  1.00  0.00     0.112 A 
ATOM      9  C   UNL A   1      31.228  24.881  25.891  1.00  0.00     0.074 A 
ATOM     10  S   UNL A   1      33.787  24.983  25.764  1.00  0.00    -0.133 S 
BRANCH   7  11
ATOM     11  O   UNL A   1      30.586  27.091  25.094  1.00  0.00    -0.483 OA
BRANCH  11  12
ATOM     12  C   UNL A   1      29.696  26.833  24.015  1.00  0.00     0.329 C 
BRANCH  12  13
ATOM     13  C   UNL A   1      29.558  27.898  22.916  1.00  0.00     0.264 C 
ATOM     14  O   UNL A   1      30.387  27.959  22.013  1.00  0.00    -0.271 OA
ATOM     15  N   UNL A   1      28.468  28.719  23.098  1.00  0.00    -0.299 N 
ATOM     16  H   UNL A   1      27.776  28.454  23.745  1.00  0.00     0.172 HD
BRANCH  15  17
ATOM     17  C   UNL A   1      28.315  29.890  22.411  1.00  0.00     0.189 A 
ATOM     18  N   UNL A   1      28.040  30.080  21.148  1.00  0.00    -0.229 NA
ATOM     19  S   UNL A   1      28.620  31.289  23.343  1.00  0.00    -0.105 S 
ATOM     20  C   UNL A   1      28.077  31.431  20.870  1.00  0.00     0.125 A 
ATOM     21  C   UNL A   1      28.393  32.247  21.936  1.00  0.00     0.088 A 
ENDBRANCH  15  17
ENDBRANCH  12  13
ENDBRANCH  11  12
ENDBRANCH   7  11
ENDBRANCH   4   6
ENDBRANCH   3   4
ENDBRANCH   2   3
ENDBRANCH   1   2
BRANCH   1  22
ATOM     22  O   UNL A   1      35.100  22.025  24.486  1.00  0.00    -0.374 OA
BRANCH  22  23
ATOM     23  C   UNL A   1      36.454  22.109  24.035  1.00  0.00     0.202 C 
BRANCH  23  24
ATOM     24  C   UNL A   1      37.395  21.054  24.626  1.00  0.00     0.261 C 
BRANCH  24  25
ATOM     25  O   UNL A   1      37.844  21.450  25.936  1.00  0.00    -0.460 OA
BRANCH  25  26
ATOM     26  C   UNL A   1      39.180  21.362  26.132  1.00  0.00     0.338 C 
ATOM     27  O   UNL A   1      39.926  20.471  25.764  1.00  0.00    -0.246 OA
BRANCH  26  28
ATOM     28  C   UNL A   1      39.682  22.614  26.732  1.00  0.00     0.060 A 
ATOM     29  C   UNL A   1      39.065  23.805  26.330  1.00  0.00     0.016 A 
ATOM     30  C   UNL A   1      40.757  22.641  27.623  1.00  0.00     0.016 A 
ATOM     31  C   UNL A   1      39.554  25.031  26.775  1.00  0.00     0.010 A 
ATOM     32  C   UNL A   1      41.251  23.874  28.067  1.00  0.00     0.010 A 
ATOM     33  C   UNL A   1      40.673  25.074  27.617  1.00  0.00    -0.014 A 
BRANCH  33  34
ATOM     34  C   UNL A   1      41.299  26.385  27.917  1.00  0.00     0.031 A 
ATOM     35  C   UNL A   1      42.697  26.660  27.439  1.00  0.00     0.074 A 
ATOM     36  C   UNL A   1      40.612  27.338  28.571  1.00  0.00     0.049 A 
ATOM     37  N   UNL A   1      43.416  27.747  27.557  1.00  0.00    -0.248 NA
ATOM     38  C   UNL A   1      43.376  25.561  26.734  1.00  0.00     0.031 C 
ATOM     39  C   UNL A   1      39.248  27.197  29.075  1.00  0.00     0.029 A 
ATOM     40  N   UNL A   1      40.974  28.613  28.926  1.00  0.00    -0.354 N 
ATOM     41  C   UNL A   1      44.631  27.464  26.945  1.00  0.00     0.074 A 
ATOM     42  C   UNL A   1      44.564  26.093  26.486  1.00  0.00     0.031 C 
ATOM     43  C   UNL A   1      38.888  28.341  29.682  1.00  0.00     0.029 A 
ATOM     44  C   UNL A   1      40.003  29.285  29.625  1.00  0.00     0.049 A 
ATOM     45  H   UNL A   1      41.847  29.008  28.700  1.00  0.00     0.167 HD
ATOM     46  C   UNL A   1      45.700  28.278  26.772  1.00  0.00     0.037 A 
ATOM     47  C   UNL A   1      40.018  30.518  30.167  1.00  0.00     0.037 A 
ATOM     48  C   UNL A   1      45.765  29.643  27.222  1.00  0.00     0.049 A 
ATOM     49  C   UNL A   1      41.232  31.391  29.993  1.00  0.00     0.074 A 
ATOM     50  C   UNL A   1      46.785  30.562  27.048  1.00  0.00     0.029 A 
ATOM     51  N   UNL A   1      44.770  30.282  27.948  1.00  0.00    -0.354 N 
ATOM     52  N   UNL A   1      42.353  31.135  29.362  1.00  0.00    -0.248 NA
ATOM     53  C   UNL A   1      41.177  32.730  30.597  1.00  0.00     0.031 C 
ATOM     54  C   UNL A   1      46.430  31.741  27.713  1.00  0.00     0.029 A 
ATOM     55  C   UNL A   1      45.167  31.573  28.259  1.00  0.00     0.049 A 
ATOM     56  H   UNL A   1      43.911  29.878  28.205  1.00  0.00     0.167 HD
ATOM     57  C   UNL A   1      43.128  32.282  29.479  1.00  0.00     0.074 A 
ATOM     58  C   UNL A   1      42.342  33.242  30.224  1.00  0.00     0.031 C 
ATOM     59  C   UNL A   1      44.379  32.516  29.011  1.00  0.00     0.037 A 
BRANCH  46  60
ATOM     60  C   UNL A   1      46.900  27.701  26.081  1.00  0.00     0.064 A 
ATOM     61  C   UNL A   1      47.020  27.700  24.684  1.00  0.00     0.173 A 
ATOM     62  C   UNL A   1      47.959  27.166  26.831  1.00  0.00     0.173 A 
ATOM     63  F   UNL A   1      46.029  28.187  23.922  1.00  0.00    -0.203 F 
ATOM     64  C   UNL A   1      48.143  27.161  24.061  1.00  0.00     0.198 A 
ATOM     65  C   UNL A   1      49.093  26.652  26.207  1.00  0.00     0.198 A 
ATOM     66  F   UNL A   1      47.896  27.146  28.171  1.00  0.00    -0.203 F 
ATOM     67  F   UNL A   1      48.215  27.129  22.724  1.00  0.00    -0.200 F 
ATOM     68  C   UNL A   1      49.180  26.643  24.822  1.00  0.00     0.200 A 
ATOM     69  F   UNL A   1      50.098  26.161  26.944  1.00  0.00    -0.200 F 
ATOM     70  F   UNL A   1      50.262  26.128  24.222  1.00  0.00    -0.200 F 
ENDBRANCH  46  60
BRANCH  47  71
ATOM     71  C   UNL A   1      38.838  30.998  30.930  1.00  0.00     0.064 A 
ATOM     72  C   UNL A   1      37.777  31.654  30.293  1.00  0.00     0.173 A 
ATOM     73  C   UNL A   1      38.749  30.806  32.317  1.00  0.00     0.173 A 
ATOM     74  F   UNL A   1      37.829  31.882  28.972  1.00  0.00    -0.203 F 
ATOM     75  C   UNL A   1      36.678  32.112  31.015  1.00  0.00     0.198 A 
ATOM     76  C   UNL A   1      37.638  31.241  33.034  1.00  0.00     0.198 A 
ATOM     77  F   UNL A   1      39.740  30.184  32.974  1.00  0.00    -0.203 F 
ATOM     78  F   UNL A   1      35.693  32.770  30.387  1.00  0.00    -0.200 F 
ATOM     79  C   UNL A   1      36.605  31.899  32.384  1.00  0.00     0.200 A 
ATOM     80  F   UNL A   1      37.567  31.023  34.354  1.00  0.00    -0.200 F 
ATOM     81  F   UNL A   1      35.543  32.331  33.076  1.00  0.00    -0.200 F 
ENDBRANCH  47  71
BRANCH  59  82
ATOM     82  C   UNL A   1      44.971  33.870  29.281  1.00  0.00     0.064 A 
ATOM     83  C   UNL A   1      45.758  34.112  30.416  1.00  0.00     0.173 A 
ATOM     84  C   UNL A   1      44.775  34.926  28.378  1.00  0.00     0.173 A 
ATOM     85  F   UNL A   1      45.963  33.138  31.317  1.00  0.00    -0.203 F 
ATOM     86  C   UNL A   1      46.306  35.370  30.651  1.00  0.00     0.198 A 
ATOM     87  C   UNL A   1      45.348  36.176  28.603  1.00  0.00     0.198 A 
ATOM     88  F   UNL A   1      44.036  34.745  27.274  1.00  0.00    -0.203 F 
ATOM     89  F   UNL A   1      47.016  35.592  31.767  1.00  0.00    -0.200 F 
ATOM     90  C   UNL A   1      46.107  36.399  29.743  1.00  0.00     0.200 A 
ATOM     91  F   UNL A   1      45.164  37.165  27.717  1.00  0.00    -0.200 F 
ATOM     92  F   UNL A   1      46.637  37.608  29.968  1.00  0.00    -0.200 F 
ENDBRANCH  59  82
ENDBRANCH  33  34
ENDBRANCH  26  28
ENDBRANCH  25  26
ENDBRANCH  24  25
ENDBRANCH  23  24
ENDBRANCH  22  23
ENDBRANCH   1  22
TORSDOF 18
ENDMDL
MODEL 2
REMARK VINA RESULT:     -10.9      0.444      7.398
REMARK SMILES O=C(COc1csc(C(=O)OCCOCCOC(=O)c2ccc(-c3c4nc(c(-c5c(F)c(F)c(F)c(F)c5F)c5ccc([nH]5)c(-c5c(F)c(F)c(F)c(F)c5F)c5nc(c(-c6c(F)c(F)c(F)c(F)c6F)c6ccc3[nH]6)C=C5)C=C4)cc2)c1)Nc1nccs1
REMARK SMILES IDX 13 1 12 2 11 3 9 4 10 5 8 6 5 7 6 8 83 9 7 10 4 11 3 12 2 13
REMARK SMILES IDX 1 14 84 15 85 17 86 18 89 19 87 20 88 21 14 22 15 23 16 24
REMARK SMILES IDX 17 25 18 26 19 27 20 28 21 29 82 30 22 31 81 32 23 33 24 34
REMARK SMILES IDX 25 35 75 36 26 37 80 38 74 39 76 40 27 41 79 42 73 43 72 44
REMARK SMILES IDX 28 46 60 47 40 48 59 49 41 50 44 51 58 52 77 53 42 54 43 55
REMARK SMILES IDX 57 57 78 58 45 59 29 60 30 61 38 62 31 63 32 64 36 65 39 66
REMARK SMILES IDX 33 67 34 68 37 69 35 70 61 71 62 72 70 73 63 74 64 75 68 76
REMARK SMILES IDX 71 77 65 78 66 79 69 80 67 81 46 82 47 83 55 84 48 85 49 86
REMARK SMILES IDX 53 87 56 88 50 89 51 90 54 91 52 92
REMARK H PARENT 84 16 76 45 44 56
REMARK Flexibility Score: inf
ROOT
ATOM      1  C   UNL A   1      34.507  20.760  25.040  1.00  0.00     0.202 C 
ENDROOT
BRANCH   1   2
ATOM      2  C   UNL A   1      33.388  20.842  26.083  1.00  0.00     0.261 C 
BRANCH   2   3
ATOM      3  O   UNL A   1      32.496  21.934  25.789  1.00  0.00    -0.459 OA
BRANCH   3   4
ATOM      4  C   UNL A   1      32.359  22.859  26.783  1.00  0.00     0.348 C 
ATOM      5  O   UNL A   1      32.437  22.611  27.980  1.00  0.00    -0.245 OA
BRANCH   4   6
ATOM      6  C   UNL A   1      32.220  24.178  26.203  1.00  0.00     0.116 A 
ATOM      7  C   UNL A   1      31.410  26.180  25.308  1.00  0.00     0.131 A 
ATOM      8  C   UNL A   1      32.769  26.339  25.148  1.00  0.00     0.112 A 
ATOM      9  C   UNL A   1      31.092  24.907  25.872  1.00  0.00     0.074 A 
ATOM     10  S   UNL A   1      33.652  25.027  25.794  1.00  0.00    -0.133 S 
BRANCH   7  11
ATOM     11  O   UNL A   1      30.449  27.110  25.057  1.00  0.00    -0.483 OA
BRANCH  11  12
ATOM     12  C   UNL A   1      29.608  26.864  23.937  1.00  0.00     0.329 C 
BRANCH  12  13
ATOM     13  C   UNL A   1      29.495  27.953  22.859  1.00  0.00     0.264 C 
ATOM     14  O   UNL A   1      30.355  28.046  21.987  1.00  0.00    -0.271 OA
ATOM     15  N   UNL A   1      28.390  28.757  23.023  1.00  0.00    -0.299 N 
ATOM     16  H   UNL A   1      27.678  28.468  23.638  1.00  0.00     0.172 HD
BRANCH  15  17
ATOM     17  C   UNL A   1      28.246  29.942  22.358  1.00  0.00     0.189 A 
ATOM     18  N   UNL A   1      28.253  30.178  21.073  1.00  0.00    -0.229 NA
ATOM     19  S   UNL A   1      28.130  31.304  23.382  1.00  0.00    -0.105 S 
ATOM     20  C   UNL A   1      28.172  31.539  20.858  1.00  0.00     0.125 A 
ATOM     21  C   UNL A   1      28.114  32.317  21.995  1.00  0.00     0.088 A 
ENDBRANCH  15  17
ENDBRANCH  12  13
ENDBRANCH  11  12
ENDBRANCH   7  11
ENDBRANCH   4   6
ENDBRANCH   3   4
ENDBRANCH   2   3
ENDBRANCH   1   2
BRANCH   1  22
ATOM     22  O   UNL A   1      34.935  22.024  24.530  1.00  0.00    -0.374 OA
BRANCH  22  23
ATOM     23  C   UNL A   1      36.294  22.101  24.094  1.00  0.00     0.202 C 
BRANCH  23  24
ATOM     24  C   UNL A   1      37.225  21.047  24.703  1.00  0.00     0.261 C 
BRANCH  24  25
ATOM     25  O   UNL A   1      37.683  21.464  26.003  1.00  0.00    -0.460 OA
BRANCH  25  26
ATOM     26  C   UNL A   1      39.007  21.291  26.224  1.00  0.00     0.338 C 
ATOM     27  O   UNL A   1      39.688  20.326  25.924  1.00  0.00    -0.246 OA
BRANCH  26  28
ATOM     28  C   UNL A   1      39.594  22.540  26.750  1.00  0.00     0.060 A 
ATOM     29  C   UNL A   1      39.104  23.743  26.229  1.00  0.00     0.016 A 
ATOM     30  C   UNL A   1      40.629  22.545  27.688  1.00  0.00     0.016 A 
ATOM     31  C   UNL A   1      39.682  24.954  26.603  1.00  0.00     0.010 A 
ATOM     32  C   UNL A   1      41.213  23.762  28.061  1.00  0.00     0.010 A 
ATOM     33  C   UNL A   1      40.764  24.968  27.493  1.00  0.00    -0.014 A 
BRANCH  33  34
ATOM     34  C   UNL A   1      41.493  26.240  27.722  1.00  0.00     0.031 A 
ATOM     35  C   UNL A   1      40.810  27.357  28.459  1.00  0.00     0.074 A 
ATOM     36  C   UNL A   1      42.766  26.381  27.315  1.00  0.00     0.049 A 
ATOM     37  N   UNL A   1      41.274  28.532  28.801  1.00  0.00    -0.248 NA
ATOM     38  C   UNL A   1      39.416  27.117  28.867  1.00  0.00     0.031 C 
ATOM     39  C   UNL A   1      43.540  25.368  26.601  1.00  0.00     0.029 A 
ATOM     40  N   UNL A   1      43.630  27.439  27.442  1.00  0.00    -0.354 N 
ATOM     41  C   UNL A   1      40.232  29.173  29.458  1.00  0.00     0.074 A 
ATOM     42  C   UNL A   1      39.101  28.270  29.441  1.00  0.00     0.031 C 
ATOM     43  C   UNL A   1      44.765  25.857  26.346  1.00  0.00     0.029 A 
ATOM     44  C   UNL A   1      44.854  27.222  26.862  1.00  0.00     0.049 A 
ATOM     45  H   UNL A   1      43.393  28.276  27.906  1.00  0.00     0.167 HD
ATOM     46  C   UNL A   1      40.222  30.398  30.036  1.00  0.00     0.037 A 
ATOM     47  C   UNL A   1      45.921  28.037  26.751  1.00  0.00     0.037 A 
ATOM     48  C   UNL A   1      41.348  31.295  30.060  1.00  0.00     0.049 A 
ATOM     49  C   UNL A   1      45.874  29.410  27.369  1.00  0.00     0.074 A 
ATOM     50  C   UNL A   1      41.451  32.536  30.663  1.00  0.00     0.029 A 
ATOM     51  N   UNL A   1      42.565  31.050  29.440  1.00  0.00    -0.354 N 
ATOM     52  N   UNL A   1      44.905  29.984  28.039  1.00  0.00    -0.248 NA
ATOM     53  C   UNL A   1      47.077  30.243  27.222  1.00  0.00     0.031 C 
ATOM     54  C   UNL A   1      42.712  33.064  30.366  1.00  0.00     0.029 A 
ATOM     55  C   UNL A   1      43.413  32.131  29.619  1.00  0.00     0.049 A 
ATOM     56  H   UNL A   1      42.792  30.229  28.946  1.00  0.00     0.167 HD
ATOM     57  C   UNL A   1      45.383  31.235  28.408  1.00  0.00     0.074 A 
ATOM     58  C   UNL A   1      46.737  31.329  27.904  1.00  0.00     0.031 C 
ATOM     59  C   UNL A   1      44.756  32.216  29.102  1.00  0.00     0.037 A 
BRANCH  46  60
ATOM     60  C   UNL A   1      38.941  30.852  30.671  1.00  0.00     0.064 A 
ATOM     61  C   UNL A   1      37.945  31.511  29.936  1.00  0.00     0.173 A 
ATOM     62  C   UNL A   1      38.696  30.598  32.029  1.00  0.00     0.173 A 
ATOM     63  F   UNL A   1      38.137  31.789  28.638  1.00  0.00    -0.203 F 
ATOM     64  C   UNL A   1      36.761  31.923  30.543  1.00  0.00     0.198 A 
ATOM     65  C   UNL A   1      37.501  30.988  32.627  1.00  0.00     0.198 A 
ATOM     66  F   UNL A   1      39.615  29.968  32.776  1.00  0.00    -0.203 F 
ATOM     67  F   UNL A   1      35.843  32.592  29.833  1.00  0.00    -0.200 F 
ATOM     68  C   UNL A   1      36.538  31.657  31.886  1.00  0.00     0.200 A 
ATOM     69  F   UNL A   1      37.283  30.721  33.922  1.00  0.00    -0.200 F 
ATOM     70  F   UNL A   1      35.397  32.051  32.468  1.00  0.00    -0.200 F 
ENDBRANCH  46  60
BRANCH  47  71
ATOM     71  C   UNL A   1      47.126  27.572  26.019  1.00  0.00     0.064 A 
ATOM     72  C   UNL A   1      48.187  26.949  26.688  1.00  0.00     0.173 A 
ATOM     73  C   UNL A   1      47.238  27.742  24.631  1.00  0.00     0.173 A 
ATOM     74  F   UNL A   1      48.136  26.786  28.018  1.00  0.00    -0.203 F 
ATOM     75  C   UNL A   1      49.321  26.524  25.998  1.00  0.00     0.198 A 
ATOM     76  C   UNL A   1      48.359  27.294  23.938  1.00  0.00     0.198 A 
ATOM     77  F   UNL A   1      46.248  28.335  23.945  1.00  0.00    -0.203 F 
ATOM     78  F   UNL A   1      50.338  25.963  26.666  1.00  0.00    -0.200 F 
ATOM     79  C   UNL A   1      49.403  26.690  24.623  1.00  0.00     0.200 A 
ATOM     80  F   UNL A   1      48.430  27.446  22.609  1.00  0.00    -0.200 F 
ATOM     81  F   UNL A   1      50.489  26.273  23.959  1.00  0.00    -0.200 F 
ENDBRANCH  47  71
BRANCH  59  82
ATOM     82  C   UNL A   1      45.532  33.474  29.368  1.00  0.00     0.064 A 
ATOM     83  C   UNL A   1      45.474  34.570  28.494  1.00  0.00     0.173 A 
ATOM     84  C   UNL A   1      46.319  33.596  30.524  1.00  0.00     0.173 A 
ATOM     85  F   UNL A   1      44.747  34.497  27.368  1.00  0.00    -0.203 F 
ATOM     86  C   UNL A   1      46.194  35.732  28.755  1.00  0.00     0.198 A 
ATOM     87  C   UNL A   1      47.016  34.771  30.795  1.00  0.00     0.198 A 
ATOM     88  F   UNL A   1      46.404  32.579  31.394  1.00  0.00    -0.203 F 
ATOM     89  F   UNL A   1      46.160  36.749  27.883  1.00  0.00    -0.200 F 
ATOM     90  C   UNL A   1      46.959  35.834  29.908  1.00  0.00     0.200 A 
ATOM     91  F   UNL A   1      47.745  34.871  31.916  1.00  0.00    -0.200 F 
ATOM     92  F   UNL A   1      47.649  36.955  30.159  1.00  0.00    -0.200 F 
ENDBRANCH  59  82
ENDBRANCH  33  34
ENDBRANCH  26  28
ENDBRANCH  25  26
ENDBRANCH  24  25
ENDBRANCH  23  24
ENDBRANCH  22  23
ENDBRANCH   1  22
TORSDOF 18
ENDMDL
MODEL 3
REMARK VINA RESULT:     -10.9      0.810      2.190
REMARK SMILES O=C(COc1csc(C(=O)OCCOCCOC(=O)c2ccc(-c3c4nc(c(-c5c(F)c(F)c(F)c(F)c5F)c5ccc([nH]5)c(-c5c(F)c(F)c(F)c(F)c5F)c5nc(c(-c6c(F)c(F)c(F)c(F)c6F)c6ccc3[nH]6)C=C5)C=C4)cc2)c1)Nc1nccs1
REMARK SMILES IDX 13 1 12 2 11 3 9 4 10 5 8 6 5 7 6 8 83 9 7 10 4 11 3 12 2 13
REMARK SMILES IDX 1 14 84 15 85 17 86 18 89 19 87 20 88 21 14 22 15 23 16 24
REMARK SMILES IDX 17 25 18 26 19 27 20 28 21 29 82 30 22 31 81 32 23 33 24 34
REMARK SMILES IDX 25 35 75 36 26 37 80 38 74 39 76 40 27 41 79 42 73 43 72 44
REMARK SMILES IDX 28 46 60 47 40 48 59 49 41 50 44 51 58 52 77 53 42 54 43 55
REMARK SMILES IDX 57 57 78 58 45 59 29 60 30 61 38 62 31 63 32 64 36 65 39 66
REMARK SMILES IDX 33 67 34 68 37 69 35 70 61 71 62 72 70 73 63 74 64 75 68 76
REMARK SMILES IDX 71 77 65 78 66 79 69 80 67 81 46 82 47 83 55 84 48 85 49 86
REMARK SMILES IDX 53 87 56 88 50 89 51 90 54 91 52 92
REMARK H PARENT 84 16 76 45 44 56
REMARK Flexibility Score: inf
ROOT
ATOM      1  C   UNL A   1      33.918  21.196  26.272  1.00  0.00     0.202 C 
ENDROOT
BRANCH   1   2
ATOM      2  C   UNL A   1      33.081  22.457  26.030  1.00  0.00     0.261 C 
BRANCH   2   3
ATOM      3  O   UNL A   1      33.531  23.148  24.850  1.00  0.00    -0.459 OA
BRANCH   3   4
ATOM      4  C   UNL A   1      33.902  24.448  25.041  1.00  0.00     0.348 C 
ATOM      5  O   UNL A   1      35.051  24.821  25.244  1.00  0.00    -0.245 OA
BRANCH   4   6
ATOM      6  C   UNL A   1      32.755  25.312  24.857  1.00  0.00     0.116 A 
ATOM      7  C   UNL A   1      30.895  26.450  24.014  1.00  0.00     0.131 A 
ATOM      8  C   UNL A   1      31.058  27.060  25.238  1.00  0.00     0.112 A 
ATOM      9  C   UNL A   1      31.910  25.474  23.773  1.00  0.00     0.074 A 
ATOM     10  S   UNL A   1      32.334  26.369  26.139  1.00  0.00    -0.133 S 
BRANCH   7  11
ATOM     11  O   UNL A   1      29.875  26.650  23.137  1.00  0.00    -0.483 OA
BRANCH  11  12
ATOM     12  C   UNL A   1      28.617  27.001  23.700  1.00  0.00     0.329 C 
BRANCH  12  13
ATOM     13  C   UNL A   1      27.967  28.324  23.262  1.00  0.00     0.264 C 
ATOM     14  O   UNL A   1      26.747  28.452  23.306  1.00  0.00    -0.271 OA
ATOM     15  N   UNL A   1      28.884  29.254  22.828  1.00  0.00    -0.299 N 
ATOM     16  H   UNL A   1      29.838  29.107  23.019  1.00  0.00     0.172 HD
BRANCH  15  17
ATOM     17  C   UNL A   1      28.515  30.375  22.140  1.00  0.00     0.189 A 
ATOM     18  N   UNL A   1      28.276  30.524  20.864  1.00  0.00    -0.229 NA
ATOM     19  S   UNL A   1      28.451  31.788  23.098  1.00  0.00    -0.105 S 
ATOM     20  C   UNL A   1      28.029  31.856  20.598  1.00  0.00     0.125 A 
ATOM     21  C   UNL A   1      28.096  32.701  21.686  1.00  0.00     0.088 A 
ENDBRANCH  15  17
ENDBRANCH  12  13
ENDBRANCH  11  12
ENDBRANCH   7  11
ENDBRANCH   4   6
ENDBRANCH   3   4
ENDBRANCH   2   3
ENDBRANCH   1   2
BRANCH   1  22
ATOM     22  O   UNL A   1      35.303  21.335  25.953  1.00  0.00    -0.374 OA
BRANCH  22  23
ATOM     23  C   UNL A   1      35.828  20.405  25.003  1.00  0.00     0.202 C 
BRANCH  23  24
ATOM     24  C   UNL A   1      37.357  20.314  24.971  1.00  0.00     0.261 C 
BRANCH  24  25
ATOM     25  O   UNL A   1      37.949  21.469  25.594  1.00  0.00    -0.460 OA
BRANCH  25  26
ATOM     26  C   UNL A   1      39.180  21.267  26.120  1.00  0.00     0.338 C 
ATOM     27  O   UNL A   1      39.873  20.269  26.019  1.00  0.00    -0.246 OA
BRANCH  26  28
ATOM     28  C   UNL A   1      39.679  22.519  26.722  1.00  0.00     0.060 A 
ATOM     29  C   UNL A   1      39.063  23.710  26.319  1.00  0.00     0.016 A 
ATOM     30  C   UNL A   1      40.752  22.545  27.617  1.00  0.00     0.016 A 
ATOM     31  C   UNL A   1      39.551  24.935  26.766  1.00  0.00     0.010 A 
ATOM     32  C   UNL A   1      41.244  23.778  28.064  1.00  0.00     0.010 A 
ATOM     33  C   UNL A   1      40.666  24.979  27.613  1.00  0.00    -0.014 A 
BRANCH  33  34
ATOM     34  C   UNL A   1      41.291  26.290  27.915  1.00  0.00     0.031 A 
ATOM     35  C   UNL A   1      42.697  26.558  27.457  1.00  0.00     0.074 A 
ATOM     36  C   UNL A   1      40.597  27.247  28.555  1.00  0.00     0.049 A 
ATOM     37  N   UNL A   1      43.417  27.645  27.580  1.00  0.00    -0.248 NA
ATOM     38  C   UNL A   1      43.383  25.455  26.767  1.00  0.00     0.031 C 
ATOM     39  C   UNL A   1      39.225  27.111  29.039  1.00  0.00     0.029 A 
ATOM     40  N   UNL A   1      40.957  28.522  28.909  1.00  0.00    -0.354 N 
ATOM     41  C   UNL A   1      44.640  27.356  26.988  1.00  0.00     0.074 A 
ATOM     42  C   UNL A   1      44.577  25.983  26.534  1.00  0.00     0.031 C 
ATOM     43  C   UNL A   1      38.860  28.259  29.636  1.00  0.00     0.029 A 
ATOM     44  C   UNL A   1      39.977  29.200  29.591  1.00  0.00     0.049 A 
ATOM     45  H   UNL A   1      41.834  28.914  28.694  1.00  0.00     0.167 HD
ATOM     46  C   UNL A   1      45.713  28.166  26.826  1.00  0.00     0.037 A 
ATOM     47  C   UNL A   1      39.987  30.436  30.127  1.00  0.00     0.037 A 
ATOM     48  C   UNL A   1      45.775  29.533  27.271  1.00  0.00     0.049 A 
ATOM     49  C   UNL A   1      41.206  31.305  29.966  1.00  0.00     0.074 A 
ATOM     50  C   UNL A   1      46.800  30.449  27.108  1.00  0.00     0.029 A 
ATOM     51  N   UNL A   1      44.771  30.178  27.979  1.00  0.00    -0.354 N 
ATOM     52  N   UNL A   1      42.335  31.044  29.354  1.00  0.00    -0.248 NA
ATOM     53  C   UNL A   1      41.146  32.647  30.564  1.00  0.00     0.031 C 
ATOM     54  C   UNL A   1      46.438  31.632  27.762  1.00  0.00     0.029 A 
ATOM     55  C   UNL A   1      45.167  31.470  28.290  1.00  0.00     0.049 A 
ATOM     56  H   UNL A   1      43.907  29.777  28.225  1.00  0.00     0.167 HD
ATOM     57  C   UNL A   1      43.112  32.189  29.476  1.00  0.00     0.074 A 
ATOM     58  C   UNL A   1      42.317  33.155  30.205  1.00  0.00     0.031 C 
ATOM     59  C   UNL A   1      44.370  32.418  29.025  1.00  0.00     0.037 A 
BRANCH  46  60
ATOM     60  C   UNL A   1      46.922  27.583  26.156  1.00  0.00     0.064 A 
ATOM     61  C   UNL A   1      47.935  26.945  26.886  1.00  0.00     0.173 A 
ATOM     62  C   UNL A   1      47.055  27.640  24.760  1.00  0.00     0.173 A 
ATOM     63  F   UNL A   1      47.862  26.876  28.224  1.00  0.00    -0.203 F 
ATOM     64  C   UNL A   1      49.051  26.408  26.247  1.00  0.00     0.198 A 
ATOM     65  C   UNL A   1      48.158  27.080  24.121  1.00  0.00     0.198 A 
ATOM     66  F   UNL A   1      46.113  28.237  24.015  1.00  0.00    -0.203 F 
ATOM     67  F   UNL A   1      50.028  25.844  26.968  1.00  0.00    -0.200 F 
ATOM     68  C   UNL A   1      49.158  26.471  24.866  1.00  0.00     0.200 A 
ATOM     69  F   UNL A   1      48.256  27.133  22.786  1.00  0.00    -0.200 F 
ATOM     70  F   UNL A   1      50.230  25.952  24.251  1.00  0.00    -0.200 F 
ENDBRANCH  46  60
BRANCH  47  71
ATOM     71  C   UNL A   1      38.798  30.922  30.870  1.00  0.00     0.064 A 
ATOM     72  C   UNL A   1      38.675  30.729  32.252  1.00  0.00     0.173 A 
ATOM     73  C   UNL A   1      37.758  31.593  30.209  1.00  0.00     0.173 A 
ATOM     74  F   UNL A   1      39.633  30.072  32.923  1.00  0.00    -0.203 F 
ATOM     75  C   UNL A   1      37.552  31.178  32.944  1.00  0.00     0.198 A 
ATOM     76  C   UNL A   1      36.648  32.064  30.905  1.00  0.00     0.198 A 
ATOM     77  F   UNL A   1      37.828  31.801  28.886  1.00  0.00    -0.203 F 
ATOM     78  F   UNL A   1      37.442  30.948  34.260  1.00  0.00    -0.200 F 
ATOM     79  C   UNL A   1      36.543  31.851  32.271  1.00  0.00     0.200 A 
ATOM     80  F   UNL A   1      35.681  32.724  30.253  1.00  0.00    -0.200 F 
ATOM     81  F   UNL A   1      35.467  32.290  32.938  1.00  0.00    -0.200 F 
ENDBRANCH  47  71
BRANCH  59  82
ATOM     82  C   UNL A   1      44.961  33.772  29.298  1.00  0.00     0.064 A 
ATOM     83  C   UNL A   1      44.783  34.841  28.408  1.00  0.00     0.173 A 
ATOM     84  C   UNL A   1      45.686  34.009  30.475  1.00  0.00     0.173 A 
ATOM     85  F   UNL A   1      44.110  34.661  27.261  1.00  0.00    -0.203 F 
ATOM     86  C   UNL A   1      45.331  36.093  28.675  1.00  0.00     0.198 A 
ATOM     87  C   UNL A   1      46.209  35.270  30.752  1.00  0.00     0.198 A 
ATOM     88  F   UNL A   1      45.880  33.021  31.361  1.00  0.00    -0.203 F 
ATOM     89  F   UNL A   1      45.189  37.088  27.789  1.00  0.00    -0.200 F 
ATOM     90  C   UNL A   1      46.038  36.308  29.849  1.00  0.00     0.200 A 
ATOM     91  F   UNL A   1      46.882  35.478  31.893  1.00  0.00    -0.200 F 
ATOM     92  F   UNL A   1      46.563  37.514  30.107  1.00  0.00    -0.200 F 
ENDBRANCH  59  82
ENDBRANCH  33  34
ENDBRANCH  26  28
ENDBRANCH  25  26
ENDBRANCH  24  25
ENDBRANCH  23  24
ENDBRANCH  22  23
ENDBRANCH   1  22
TORSDOF 18
ENDMDL
