MODEL 1
REMARK VINA RESULT:     -12.0      0.000      0.000
REMARK SMILES C[C@]1(C(=O)OCCOCCOC(=O)c2ccc(-c3c4nc(c(-c5c(F)c(F)c(F)c(F)c5F)c5ccc([nH]5)c(-c5c(F)c(F)c(F)c(F)c5F)c5nc(c(-c6c(F)c(F)c(F)c(F)c6F)c6ccc3[nH]6)C=C5)C=C4)cc2)CCN(c2ccc([N+](=O)[O-])c(N)n2)C1
REMARK SMILES IDX 8 1 7 2 6 3 5 4 3 5 4 6 2 7 1 8 77 9 90 10 78 11 79 12 80 13
REMARK SMILES IDX 81 14 89 15 82 16 87 17 83 18 88 19 84 22 85 23 86 24 9 25
REMARK SMILES IDX 10 26 11 27 12 28 13 29 14 30 15 31 76 32 16 33 75 34 17 35
REMARK SMILES IDX 18 36 19 37 69 38 20 39 74 40 68 41 70 42 21 43 73 44 67 45
REMARK SMILES IDX 66 46 22 48 54 49 34 50 53 51 35 52 38 53 52 54 71 55 36 56
REMARK SMILES IDX 37 57 51 59 72 60 39 61 23 62 24 63 32 64 25 65 26 66 30 67
REMARK SMILES IDX 33 68 27 69 28 70 31 71 29 72 55 73 56 74 64 75 57 76 58 77
REMARK SMILES IDX 62 78 65 79 59 80 60 81 63 82 61 83 40 84 41 85 49 86 42 87
REMARK SMILES IDX 43 88 47 89 50 90 44 91 45 92 48 93 46 94
REMARK H PARENT 88 20 88 21 70 47 38 58
REMARK Flexibility Score: inf
ROOT
ATOM      1  O   UNL A   1      34.955  21.317  26.265  1.00  0.00    -0.374 OA
ENDROOT
BRANCH   1   2
ATOM      2  C   UNL A   1      33.545  21.531  26.309  1.00  0.00     0.202 C 
BRANCH   2   3
ATOM      3  C   UNL A   1      32.975  22.023  27.644  1.00  0.00     0.261 C 
BRANCH   3   4
ATOM      4  O   UNL A   1      32.487  23.376  27.548  1.00  0.00    -0.463 OA
BRANCH   4   5
ATOM      5  C   UNL A   1      31.393  23.550  26.763  1.00  0.00     0.313 C 
ATOM      6  O   UNL A   1      30.323  22.971  26.928  1.00  0.00    -0.252 OA
BRANCH   5   7
ATOM      7  C   UNL A   1      31.600  24.561  25.647  1.00  0.00     0.084 C 
ATOM      8  C   UNL A   1      33.005  25.155  25.806  1.00  0.00     0.026 C 
ATOM      9  C   UNL A   1      31.437  23.828  24.300  1.00  0.00     0.042 C 
ATOM     10  C   UNL A   1      30.547  25.677  25.542  1.00  0.00     0.136 C 
ATOM     11  C   UNL A   1      31.036  24.904  23.295  1.00  0.00     0.119 C 
ATOM     12  N   UNL A   1      30.521  25.986  24.117  1.00  0.00    -0.355 N 
BRANCH  12  13
ATOM     13  C   UNL A   1      29.843  27.028  23.548  1.00  0.00     0.131 A 
ATOM     14  C   UNL A   1      28.462  27.131  23.664  1.00  0.00     0.054 A 
ATOM     15  N   UNL A   1      30.554  27.991  22.914  1.00  0.00    -0.207 NA
ATOM     16  C   UNL A   1      27.805  28.245  23.147  1.00  0.00     0.093 A 
ATOM     17  C   UNL A   1      29.926  29.054  22.359  1.00  0.00     0.204 A 
ATOM     18  C   UNL A   1      28.552  29.219  22.483  1.00  0.00     0.311 A 
BRANCH  17  19
ATOM     19  N   UNL A   1      30.777  29.961  21.762  1.00  0.00    -0.378 N 
ATOM     20  H   UNL A   1      31.300  30.584  22.316  1.00  0.00     0.158 HD
ATOM     21  H   UNL A   1      30.862  29.985  20.781  1.00  0.00     0.158 HD
ENDBRANCH  17  19
BRANCH  18  22
ATOM     22  N   UNL A   1      27.869  30.376  21.923  1.00  0.00     0.066 N 
ATOM     23  O   UNL A   1      27.920  30.526  20.692  1.00  0.00    -0.258 OA
ATOM     24  O   UNL A   1      27.315  31.169  22.701  1.00  0.00    -0.258 OA
ENDBRANCH  18  22
ENDBRANCH  12  13
ENDBRANCH   5   7
ENDBRANCH   4   5
ENDBRANCH   3   4
ENDBRANCH   2   3
ENDBRANCH   1   2
BRANCH   1  25
ATOM     25  C   UNL A   1      35.495  20.779  25.059  1.00  0.00     0.202 C 
BRANCH  25  26
ATOM     26  C   UNL A   1      37.022  20.693  24.973  1.00  0.00     0.261 C 
BRANCH  26  27
ATOM     27  O   UNL A   1      37.658  21.732  25.737  1.00  0.00    -0.460 OA
BRANCH  27  28
ATOM     28  C   UNL A   1      38.937  21.474  26.094  1.00  0.00     0.338 C 
ATOM     29  O   UNL A   1      39.583  20.458  25.876  1.00  0.00    -0.246 OA
BRANCH  28  30
ATOM     30  C   UNL A   1      39.551  22.693  26.649  1.00  0.00     0.060 A 
ATOM     31  C   UNL A   1      39.106  23.926  26.154  1.00  0.00     0.016 A 
ATOM     32  C   UNL A   1      40.573  22.635  27.597  1.00  0.00     0.016 A 
ATOM     33  C   UNL A   1      39.706  25.108  26.582  1.00  0.00     0.010 A 
ATOM     34  C   UNL A   1      41.185  23.822  28.016  1.00  0.00     0.010 A 
ATOM     35  C   UNL A   1      40.771  25.059  27.490  1.00  0.00    -0.014 A 
BRANCH  35  36
ATOM     36  C   UNL A   1      41.536  26.290  27.797  1.00  0.00     0.031 A 
ATOM     37  C   UNL A   1      40.865  27.395  28.560  1.00  0.00     0.074 A 
ATOM     38  C   UNL A   1      42.816  26.417  27.403  1.00  0.00     0.049 A 
ATOM     39  N   UNL A   1      41.315  28.583  28.870  1.00  0.00    -0.248 NA
ATOM     40  C   UNL A   1      39.498  27.124  29.036  1.00  0.00     0.031 C 
ATOM     41  C   UNL A   1      43.586  25.396  26.696  1.00  0.00     0.029 A 
ATOM     42  N   UNL A   1      43.687  27.470  27.530  1.00  0.00    -0.354 N 
ATOM     43  C   UNL A   1      40.288  29.204  29.570  1.00  0.00     0.074 A 
ATOM     44  C   UNL A   1      39.183  28.271  29.618  1.00  0.00     0.031 C 
ATOM     45  C   UNL A   1      44.811  25.881  26.432  1.00  0.00     0.029 A 
ATOM     46  C   UNL A   1      44.897  27.257  26.920  1.00  0.00     0.049 A 
ATOM     47  H   UNL A   1      43.465  28.299  28.013  1.00  0.00     0.167 HD
ATOM     48  C   UNL A   1      40.274  30.439  30.124  1.00  0.00     0.037 A 
ATOM     49  C   UNL A   1      45.941  28.090  26.747  1.00  0.00     0.037 A 
ATOM     50  C   UNL A   1      41.378  31.361  30.075  1.00  0.00     0.049 A 
ATOM     51  C   UNL A   1      45.868  29.490  27.299  1.00  0.00     0.074 A 
ATOM     52  C   UNL A   1      41.475  32.621  30.639  1.00  0.00     0.029 A 
ATOM     53  N   UNL A   1      42.573  31.125  29.414  1.00  0.00    -0.354 N 
ATOM     54  N   UNL A   1      44.907  30.060  27.986  1.00  0.00    -0.248 NA
ATOM     55  C   UNL A   1      47.022  30.365  27.047  1.00  0.00     0.031 C 
ATOM     56  C   UNL A   1      42.708  33.170  30.272  1.00  0.00     0.029 A 
ATOM     57  C   UNL A   1      43.400  32.230  29.524  1.00  0.00     0.049 A 
ATOM     58  H   UNL A   1      42.801  30.294  28.937  1.00  0.00     0.167 HD
ATOM     59  C   UNL A   1      45.347  31.347  28.265  1.00  0.00     0.074 A 
ATOM     60  C   UNL A   1      46.668  31.472  27.686  1.00  0.00     0.031 C 
ATOM     61  C   UNL A   1      44.714  32.337  28.940  1.00  0.00     0.037 A 
BRANCH  48  62
ATOM     62  C   UNL A   1      39.015  30.877  30.811  1.00  0.00     0.064 A 
ATOM     63  C   UNL A   1      37.947  31.445  30.102  1.00  0.00     0.173 A 
ATOM     64  C   UNL A   1      38.860  30.686  32.193  1.00  0.00     0.173 A 
ATOM     65  F   UNL A   1      38.051  31.660  28.782  1.00  0.00    -0.203 F 
ATOM     66  C   UNL A   1      36.777  31.825  30.755  1.00  0.00     0.198 A 
ATOM     67  C   UNL A   1      37.679  31.044  32.837  1.00  0.00     0.198 A 
ATOM     68  F   UNL A   1      39.851  30.144  32.916  1.00  0.00    -0.203 F 
ATOM     69  F   UNL A   1      35.784  32.403  30.064  1.00  0.00    -0.200 F 
ATOM     70  C   UNL A   1      36.642  31.619  32.120  1.00  0.00     0.200 A 
ATOM     71  F   UNL A   1      37.547  30.833  34.154  1.00  0.00    -0.200 F 
ATOM     72  F   UNL A   1      35.512  31.978  32.745  1.00  0.00    -0.200 F 
ENDBRANCH  48  62
BRANCH  49  73
ATOM     73  C   UNL A   1      47.136  27.635  25.989  1.00  0.00     0.064 A 
ATOM     74  C   UNL A   1      48.260  27.122  26.650  1.00  0.00     0.173 A 
ATOM     75  C   UNL A   1      47.182  27.718  24.589  1.00  0.00     0.173 A 
ATOM     76  F   UNL A   1      48.273  27.048  27.988  1.00  0.00    -0.203 F 
ATOM     77  C   UNL A   1      49.391  26.723  25.940  1.00  0.00     0.198 A 
ATOM     78  C   UNL A   1      48.302  27.294  23.879  1.00  0.00     0.198 A 
ATOM     79  F   UNL A   1      46.133  28.204  23.910  1.00  0.00    -0.203 F 
ATOM     80  F   UNL A   1      50.469  26.275  26.598  1.00  0.00    -0.200 F 
ATOM     81  C   UNL A   1      49.409  26.803  24.555  1.00  0.00     0.200 A 
ATOM     82  F   UNL A   1      48.310  27.362  22.541  1.00  0.00    -0.200 F 
ATOM     83  F   UNL A   1      50.494  26.415  23.873  1.00  0.00    -0.200 F 
ENDBRANCH  49  73
BRANCH  61  84
ATOM     84  C   UNL A   1      45.444  33.637  29.110  1.00  0.00     0.064 A 
ATOM     85  C   UNL A   1      45.287  34.689  28.197  1.00  0.00     0.173 A 
ATOM     86  C   UNL A   1      46.263  33.853  30.229  1.00  0.00     0.173 A 
ATOM     87  F   UNL A   1      44.528  34.526  27.103  1.00  0.00    -0.203 F 
ATOM     88  C   UNL A   1      45.936  35.906  28.390  1.00  0.00     0.198 A 
ATOM     89  C   UNL A   1      46.887  35.080  30.433  1.00  0.00     0.198 A 
ATOM     90  F   UNL A   1      46.440  32.879  31.134  1.00  0.00    -0.203 F 
ATOM     91  F   UNL A   1      45.802  36.886  27.486  1.00  0.00    -0.200 F 
ATOM     92  C   UNL A   1      46.728  36.104  29.512  1.00  0.00     0.200 A 
ATOM     93  F   UNL A   1      47.642  35.273  31.524  1.00  0.00    -0.200 F 
ATOM     94  F   UNL A   1      47.341  37.280  29.702  1.00  0.00    -0.200 F 
ENDBRANCH  61  84
ENDBRANCH  35  36
ENDBRANCH  28  30
ENDBRANCH  27  28
ENDBRANCH  26  27
ENDBRANCH  25  26
ENDBRANCH   1  25
TORSDOF 17
ENDMDL
MODEL 2
REMARK VINA RESULT:     -12.0      2.340      4.450
REMARK SMILES C[C@]1(C(=O)OCCOCCOC(=O)c2ccc(-c3c4nc(c(-c5c(F)c(F)c(F)c(F)c5F)c5ccc([nH]5)c(-c5c(F)c(F)c(F)c(F)c5F)c5nc(c(-c6c(F)c(F)c(F)c(F)c6F)c6ccc3[nH]6)C=C5)C=C4)cc2)CCN(c2ccc([N+](=O)[O-])c(N)n2)C1
REMARK SMILES IDX 8 1 7 2 6 3 5 4 3 5 4 6 2 7 1 8 77 9 90 10 78 11 79 12 80 13
REMARK SMILES IDX 81 14 89 15 82 16 87 17 83 18 88 19 84 22 85 23 86 24 9 25
REMARK SMILES IDX 10 26 11 27 12 28 13 29 14 30 15 31 76 32 16 33 75 34 17 35
REMARK SMILES IDX 18 36 19 37 69 38 20 39 74 40 68 41 70 42 21 43 73 44 67 45
REMARK SMILES IDX 66 46 22 48 54 49 34 50 53 51 35 52 38 53 52 54 71 55 36 56
REMARK SMILES IDX 37 57 51 59 72 60 39 61 23 62 24 63 32 64 25 65 26 66 30 67
REMARK SMILES IDX 33 68 27 69 28 70 31 71 29 72 55 73 56 74 64 75 57 76 58 77
REMARK SMILES IDX 62 78 65 79 59 80 60 81 63 82 61 83 40 84 41 85 49 86 42 87
REMARK SMILES IDX 43 88 47 89 50 90 44 91 45 92 48 93 46 94
REMARK H PARENT 88 20 88 21 70 47 38 58
REMARK Flexibility Score: inf
ROOT
ATOM      1  O   UNL A   1      35.546  23.063  25.459  1.00  0.00    -0.374 OA
ENDROOT
BRANCH   1   2
ATOM      2  C   UNL A   1      35.479  24.433  25.066  1.00  0.00     0.202 C 
BRANCH   2   3
ATOM      3  C   UNL A   1      34.258  25.220  25.553  1.00  0.00     0.261 C 
BRANCH   3   4
ATOM      4  O   UNL A   1      33.452  25.687  24.452  1.00  0.00    -0.463 OA
BRANCH   4   5
ATOM      5  C   UNL A   1      32.131  25.381  24.524  1.00  0.00     0.313 C 
ATOM      6  O   UNL A   1      31.288  26.076  25.083  1.00  0.00    -0.252 OA
BRANCH   5   7
ATOM      7  C   UNL A   1      31.769  24.083  23.820  1.00  0.00     0.084 C 
ATOM      8  C   UNL A   1      30.320  24.201  23.333  1.00  0.00     0.026 C 
ATOM      9  C   UNL A   1      32.753  23.880  22.650  1.00  0.00     0.042 C 
ATOM     10  C   UNL A   1      31.964  22.795  24.637  1.00  0.00     0.136 C 
ATOM     11  C   UNL A   1      32.775  22.378  22.390  1.00  0.00     0.119 C 
ATOM     12  N   UNL A   1      32.278  21.794  23.625  1.00  0.00    -0.355 N 
BRANCH  12  13
ATOM     13  C   UNL A   1      32.385  20.450  23.849  1.00  0.00     0.131 A 
ATOM     14  C   UNL A   1      32.408  19.548  22.791  1.00  0.00     0.054 A 
ATOM     15  N   UNL A   1      32.526  20.017  25.125  1.00  0.00    -0.207 NA
ATOM     16  C   UNL A   1      32.602  18.192  23.042  1.00  0.00     0.093 A 
ATOM     17  C   UNL A   1      32.663  18.697  25.391  1.00  0.00     0.204 A 
ATOM     18  C   UNL A   1      32.729  17.763  24.364  1.00  0.00     0.311 A 
BRANCH  17  19
ATOM     19  N   UNL A   1      32.813  18.406  26.731  1.00  0.00    -0.378 N 
ATOM     20  H   UNL A   1      32.691  17.483  27.051  1.00  0.00     0.158 HD
ATOM     21  H   UNL A   1      33.042  19.121  27.368  1.00  0.00     0.158 HD
ENDBRANCH  17  19
BRANCH  18  22
ATOM     22  N   UNL A   1      32.913  16.344  24.634  1.00  0.00     0.066 N 
ATOM     23  O   UNL A   1      32.161  15.823  25.473  1.00  0.00    -0.258 OA
ATOM     24  O   UNL A   1      33.830  15.746  24.051  1.00  0.00    -0.258 OA
ENDBRANCH  18  22
ENDBRANCH  12  13
ENDBRANCH   5   7
ENDBRANCH   4   5
ENDBRANCH   3   4
ENDBRANCH   2   3
ENDBRANCH   1   2
BRANCH   1  25
ATOM     25  C   UNL A   1      35.888  22.112  24.452  1.00  0.00     0.202 C 
BRANCH  25  26
ATOM     26  C   UNL A   1      37.031  21.148  24.783  1.00  0.00     0.261 C 
BRANCH  26  27
ATOM     27  O   UNL A   1      37.624  21.443  26.060  1.00  0.00    -0.460 OA
BRANCH  27  28
ATOM     28  C   UNL A   1      38.970  21.306  26.107  1.00  0.00     0.338 C 
ATOM     29  O   UNL A   1      39.644  20.396  25.647  1.00  0.00    -0.246 OA
BRANCH  28  30
ATOM     30  C   UNL A   1      39.572  22.536  26.651  1.00  0.00     0.060 A 
ATOM     31  C   UNL A   1      39.125  23.760  26.136  1.00  0.00     0.016 A 
ATOM     32  C   UNL A   1      40.587  22.495  27.609  1.00  0.00     0.016 A 
ATOM     33  C   UNL A   1      39.716  24.950  26.554  1.00  0.00     0.010 A 
ATOM     34  C   UNL A   1      41.188  23.691  28.017  1.00  0.00     0.010 A 
ATOM     35  C   UNL A   1      40.773  24.919  27.471  1.00  0.00    -0.014 A 
BRANCH  35  36
ATOM     36  C   UNL A   1      41.530  26.157  27.769  1.00  0.00     0.031 A 
ATOM     37  C   UNL A   1      40.852  27.261  28.530  1.00  0.00     0.074 A 
ATOM     38  C   UNL A   1      42.806  26.294  27.367  1.00  0.00     0.049 A 
ATOM     39  N   UNL A   1      41.294  28.454  28.832  1.00  0.00    -0.248 NA
ATOM     40  C   UNL A   1      39.491  26.981  29.014  1.00  0.00     0.031 C 
ATOM     41  C   UNL A   1      43.581  25.275  26.661  1.00  0.00     0.029 A 
ATOM     42  N   UNL A   1      43.668  27.354  27.485  1.00  0.00    -0.354 N 
ATOM     43  C   UNL A   1      40.266  29.070  29.534  1.00  0.00     0.074 A 
ATOM     44  C   UNL A   1      39.169  28.128  29.592  1.00  0.00     0.031 C 
ATOM     45  C   UNL A   1      44.800  25.769  26.389  1.00  0.00     0.029 A 
ATOM     46  C   UNL A   1      44.878  27.148  26.870  1.00  0.00     0.049 A 
ATOM     47  H   UNL A   1      43.442  28.184  27.965  1.00  0.00     0.167 HD
ATOM     48  C   UNL A   1      40.244  30.307  30.082  1.00  0.00     0.037 A 
ATOM     49  C   UNL A   1      45.913  27.990  26.687  1.00  0.00     0.037 A 
ATOM     50  C   UNL A   1      41.340  31.238  30.023  1.00  0.00     0.049 A 
ATOM     51  C   UNL A   1      45.831  29.392  27.233  1.00  0.00     0.074 A 
ATOM     52  C   UNL A   1      41.429  32.502  30.580  1.00  0.00     0.029 A 
ATOM     53  N   UNL A   1      42.534  31.009  29.357  1.00  0.00    -0.354 N 
ATOM     54  N   UNL A   1      44.869  29.957  27.922  1.00  0.00    -0.248 NA
ATOM     55  C   UNL A   1      46.977  30.275  26.972  1.00  0.00     0.031 C 
ATOM     56  C   UNL A   1      42.656  33.059  30.205  1.00  0.00     0.029 A 
ATOM     57  C   UNL A   1      43.352  32.121  29.457  1.00  0.00     0.049 A 
ATOM     58  H   UNL A   1      42.766  30.177  28.883  1.00  0.00     0.167 HD
ATOM     59  C   UNL A   1      45.300  31.249  28.193  1.00  0.00     0.074 A 
ATOM     60  C   UNL A   1      46.616  31.382  27.607  1.00  0.00     0.031 C 
ATOM     61  C   UNL A   1      44.662  32.237  28.867  1.00  0.00     0.037 A 
BRANCH  48  62
ATOM     62  C   UNL A   1      38.985  30.738  30.773  1.00  0.00     0.064 A 
ATOM     63  C   UNL A   1      37.901  31.277  30.065  1.00  0.00     0.173 A 
ATOM     64  C   UNL A   1      38.846  30.569  32.160  1.00  0.00     0.173 A 
ATOM     65  F   UNL A   1      37.990  31.470  28.741  1.00  0.00    -0.203 F 
ATOM     66  C   UNL A   1      36.732  31.651  30.722  1.00  0.00     0.198 A 
ATOM     67  C   UNL A   1      37.666  30.920  32.809  1.00  0.00     0.198 A 
ATOM     68  F   UNL A   1      39.852  30.055  32.883  1.00  0.00    -0.203 F 
ATOM     69  F   UNL A   1      35.724  32.201  30.031  1.00  0.00    -0.200 F 
ATOM     70  C   UNL A   1      36.613  31.466  32.092  1.00  0.00     0.200 A 
ATOM     71  F   UNL A   1      37.549  30.730  34.130  1.00  0.00    -0.200 F 
ATOM     72  F   UNL A   1      35.483  31.819  32.721  1.00  0.00    -0.200 F 
ENDBRANCH  48  62
BRANCH  49  73
ATOM     73  C   UNL A   1      47.108  27.541  25.926  1.00  0.00     0.064 A 
ATOM     74  C   UNL A   1      48.204  26.958  26.575  1.00  0.00     0.173 A 
ATOM     75  C   UNL A   1      47.183  27.699  24.533  1.00  0.00     0.173 A 
ATOM     76  F   UNL A   1      48.191  26.810  27.908  1.00  0.00    -0.203 F 
ATOM     77  C   UNL A   1      49.336  26.565  25.863  1.00  0.00     0.198 A 
ATOM     78  C   UNL A   1      48.303  27.281  23.819  1.00  0.00     0.198 A 
ATOM     79  F   UNL A   1      46.161  28.254  23.864  1.00  0.00    -0.203 F 
ATOM     80  F   UNL A   1      50.389  26.050  26.514  1.00  0.00    -0.200 F 
ATOM     81  C   UNL A   1      49.382  26.720  24.485  1.00  0.00     0.200 A 
ATOM     82  F   UNL A   1      48.337  27.422  22.488  1.00  0.00    -0.200 F 
ATOM     83  F   UNL A   1      50.468  26.338  23.801  1.00  0.00    -0.200 F 
ENDBRANCH  49  73
BRANCH  61  84
ATOM     84  C   UNL A   1      45.382  33.543  29.026  1.00  0.00     0.064 A 
ATOM     85  C   UNL A   1      46.267  33.766  30.091  1.00  0.00     0.173 A 
ATOM     86  C   UNL A   1      45.232  34.560  28.072  1.00  0.00     0.173 A 
ATOM     87  F   UNL A   1      46.433  32.830  31.038  1.00  0.00    -0.203 F 
ATOM     88  C   UNL A   1      46.963  34.966  30.203  1.00  0.00     0.198 A 
ATOM     89  C   UNL A   1      45.950  35.748  28.172  1.00  0.00     0.198 A 
ATOM     90  F   UNL A   1      44.402  34.393  27.031  1.00  0.00    -0.203 F 
ATOM     91  F   UNL A   1      47.776  35.173  31.249  1.00  0.00    -0.200 F 
ATOM     92  C   UNL A   1      46.812  35.953  29.239  1.00  0.00     0.200 A 
ATOM     93  F   UNL A   1      45.812  36.695  27.233  1.00  0.00    -0.200 F 
ATOM     94  F   UNL A   1      47.493  37.102  29.341  1.00  0.00    -0.200 F 
ENDBRANCH  61  84
ENDBRANCH  35  36
ENDBRANCH  28  30
ENDBRANCH  27  28
ENDBRANCH  26  27
ENDBRANCH  25  26
ENDBRANCH   1  25
TORSDOF 17
ENDMDL
MODEL 3
REMARK VINA RESULT:     -12.0      0.994      7.386
REMARK SMILES C[C@]1(C(=O)OCCOCCOC(=O)c2ccc(-c3c4nc(c(-c5c(F)c(F)c(F)c(F)c5F)c5ccc([nH]5)c(-c5c(F)c(F)c(F)c(F)c5F)c5nc(c(-c6c(F)c(F)c(F)c(F)c6F)c6ccc3[nH]6)C=C5)C=C4)cc2)CCN(c2ccc([N+](=O)[O-])c(N)n2)C1
REMARK SMILES IDX 8 1 7 2 6 3 5 4 3 5 4 6 2 7 1 8 77 9 90 10 78 11 79 12 80 13
REMARK SMILES IDX 81 14 89 15 82 16 87 17 83 18 88 19 84 22 85 23 86 24 9 25
REMARK SMILES IDX 10 26 11 27 12 28 13 29 14 30 15 31 76 32 16 33 75 34 17 35
REMARK SMILES IDX 18 36 19 37 69 38 20 39 74 40 68 41 70 42 21 43 73 44 67 45
REMARK SMILES IDX 66 46 22 48 54 49 34 50 53 51 35 52 38 53 52 54 71 55 36 56
REMARK SMILES IDX 37 57 51 59 72 60 39 61 23 62 24 63 32 64 25 65 26 66 30 67
REMARK SMILES IDX 33 68 27 69 28 70 31 71 29 72 55 73 56 74 64 75 57 76 58 77
REMARK SMILES IDX 62 78 65 79 59 80 60 81 63 82 61 83 40 84 41 85 49 86 42 87
REMARK SMILES IDX 43 88 47 89 50 90 44 91 45 92 48 93 46 94
REMARK H PARENT 88 20 88 21 70 47 38 58
REMARK Flexibility Score: inf
ROOT
ATOM      1  O   UNL A   1      37.755  21.160  24.711  1.00  0.00    -0.374 OA
ENDROOT
BRANCH   1   2
ATOM      2  C   UNL A   1      36.622  21.839  25.249  1.00  0.00     0.202 C 
BRANCH   2   3
ATOM      3  C   UNL A   1      35.249  21.352  24.774  1.00  0.00     0.261 C 
BRANCH   3   4
ATOM      4  O   UNL A   1      34.178  22.098  25.385  1.00  0.00    -0.463 OA
BRANCH   4   5
ATOM      5  C   UNL A   1      33.233  22.572  24.533  1.00  0.00     0.313 C 
ATOM      6  O   UNL A   1      32.710  21.910  23.642  1.00  0.00    -0.252 OA
BRANCH   5   7
ATOM      7  C   UNL A   1      32.855  24.021  24.791  1.00  0.00     0.084 C 
ATOM      8  C   UNL A   1      32.821  24.235  26.309  1.00  0.00     0.026 C 
ATOM      9  C   UNL A   1      33.905  24.921  24.109  1.00  0.00     0.042 C 
ATOM     10  C   UNL A   1      31.544  24.502  24.146  1.00  0.00     0.136 C 
ATOM     11  C   UNL A   1      33.200  26.249  23.852  1.00  0.00     0.119 C 
ATOM     12  N   UNL A   1      31.786  25.918  23.899  1.00  0.00    -0.355 N 
BRANCH  12  13
ATOM     13  C   UNL A   1      30.848  26.817  23.474  1.00  0.00     0.131 A 
ATOM     14  C   UNL A   1      29.503  26.646  23.779  1.00  0.00     0.054 A 
ATOM     15  N   UNL A   1      31.265  27.912  22.793  1.00  0.00    -0.207 NA
ATOM     16  C   UNL A   1      28.578  27.619  23.405  1.00  0.00     0.093 A 
ATOM     17  C   UNL A   1      30.373  28.842  22.376  1.00  0.00     0.204 A 
ATOM     18  C   UNL A   1      29.024  28.732  22.691  1.00  0.00     0.311 A 
BRANCH  17  19
ATOM     19  N   UNL A   1      30.942  29.908  21.711  1.00  0.00    -0.378 N 
ATOM     20  H   UNL A   1      31.369  29.771  20.835  1.00  0.00     0.158 HD
ATOM     21  H   UNL A   1      30.921  30.807  22.113  1.00  0.00     0.158 HD
ENDBRANCH  17  19
BRANCH  18  22
ATOM     22  N   UNL A   1      28.061  29.743  22.281  1.00  0.00     0.066 N 
ATOM     23  O   UNL A   1      28.114  30.135  21.105  1.00  0.00    -0.258 OA
ATOM     24  O   UNL A   1      27.273  30.188  23.131  1.00  0.00    -0.258 OA
ENDBRANCH  18  22
ENDBRANCH  12  13
ENDBRANCH   5   7
ENDBRANCH   4   5
ENDBRANCH   3   4
ENDBRANCH   2   3
ENDBRANCH   1   2
BRANCH   1  25
ATOM     25  C   UNL A   1      37.883  19.770  25.009  1.00  0.00     0.202 C 
BRANCH  25  26
ATOM     26  C   UNL A   1      39.184  19.336  25.693  1.00  0.00     0.261 C 
BRANCH  26  27
ATOM     27  O   UNL A   1      40.103  20.433  25.837  1.00  0.00    -0.460 OA
BRANCH  27  28
ATOM     28  C   UNL A   1      40.717  20.506  27.040  1.00  0.00     0.338 C 
ATOM     29  O   UNL A   1      41.152  19.582  27.713  1.00  0.00    -0.246 OA
BRANCH  28  30
ATOM     30  C   UNL A   1      40.975  21.916  27.378  1.00  0.00     0.060 A 
ATOM     31  C   UNL A   1      40.363  22.896  26.585  1.00  0.00     0.016 A 
ATOM     32  C   UNL A   1      41.833  22.278  28.418  1.00  0.00     0.016 A 
ATOM     33  C   UNL A   1      40.634  24.244  26.807  1.00  0.00     0.010 A 
ATOM     34  C   UNL A   1      42.115  23.632  28.631  1.00  0.00     0.010 A 
ATOM     35  C   UNL A   1      41.537  24.617  27.809  1.00  0.00    -0.014 A 
BRANCH  35  36
ATOM     36  C   UNL A   1      41.977  26.027  27.921  1.00  0.00     0.031 A 
ATOM     37  C   UNL A   1      43.310  26.423  27.355  1.00  0.00     0.074 A 
ATOM     38  C   UNL A   1      41.194  26.943  28.518  1.00  0.00     0.049 A 
ATOM     39  N   UNL A   1      43.926  27.575  27.407  1.00  0.00    -0.248 NA
ATOM     40  C   UNL A   1      44.050  25.375  26.633  1.00  0.00     0.031 C 
ATOM     41  C   UNL A   1      39.863  26.687  29.065  1.00  0.00     0.029 A 
ATOM     42  N   UNL A   1      41.416  28.273  28.775  1.00  0.00    -0.354 N 
ATOM     43  C   UNL A   1      45.126  27.392  26.734  1.00  0.00     0.074 A 
ATOM     44  C   UNL A   1      45.164  26.011  26.302  1.00  0.00     0.031 C 
ATOM     45  C   UNL A   1      39.394  27.821  29.614  1.00  0.00     0.029 A 
ATOM     46  C   UNL A   1      40.406  28.869  29.488  1.00  0.00     0.049 A 
ATOM     47  H   UNL A   1      42.222  28.754  28.477  1.00  0.00     0.167 HD
ATOM     48  C   UNL A   1      46.104  28.297  26.495  1.00  0.00     0.037 A 
ATOM     49  C   UNL A   1      40.324  30.109  30.007  1.00  0.00     0.037 A 
ATOM     50  C   UNL A   1      46.061  29.669  26.924  1.00  0.00     0.049 A 
ATOM     51  C   UNL A   1      41.464  31.073  29.801  1.00  0.00     0.074 A 
ATOM     52  C   UNL A   1      46.985  30.674  26.699  1.00  0.00     0.029 A 
ATOM     53  N   UNL A   1      45.039  30.227  27.678  1.00  0.00    -0.354 N 
ATOM     54  N   UNL A   1      42.583  30.902  29.137  1.00  0.00    -0.248 NA
ATOM     55  C   UNL A   1      41.334  32.399  30.421  1.00  0.00     0.031 C 
ATOM     56  C   UNL A   1      46.549  31.825  27.363  1.00  0.00     0.029 A 
ATOM     57  C   UNL A   1      45.327  31.551  27.958  1.00  0.00     0.049 A 
ATOM     58  H   UNL A   1      44.227  29.750  27.971  1.00  0.00     0.167 HD
ATOM     59  C   UNL A   1      43.276  32.100  29.241  1.00  0.00     0.074 A 
ATOM     60  C   UNL A   1      42.448  32.997  30.020  1.00  0.00     0.031 C 
ATOM     61  C   UNL A   1      44.490  32.430  28.737  1.00  0.00     0.037 A 
BRANCH  48  62
ATOM     62  C   UNL A   1      47.321  27.825  25.755  1.00  0.00     0.064 A 
ATOM     63  C   UNL A   1      47.374  27.812  24.354  1.00  0.00     0.173 A 
ATOM     64  C   UNL A   1      48.465  27.421  26.461  1.00  0.00     0.173 A 
ATOM     65  F   UNL A   1      46.303  28.177  23.634  1.00  0.00    -0.203 F 
ATOM     66  C   UNL A   1      48.521  27.391  23.686  1.00  0.00     0.198 A 
ATOM     67  C   UNL A   1      49.618  27.025  25.789  1.00  0.00     0.198 A 
ATOM     68  F   UNL A   1      48.467  27.418  27.803  1.00  0.00    -0.203 F 
ATOM     69  F   UNL A   1      48.537  27.349  22.346  1.00  0.00    -0.200 F 
ATOM     70  C   UNL A   1      49.644  27.004  24.404  1.00  0.00     0.200 A 
ATOM     71  F   UNL A   1      50.705  26.663  26.485  1.00  0.00    -0.200 F 
ATOM     72  F   UNL A   1      50.750  26.608  23.759  1.00  0.00    -0.200 F 
ENDBRANCH  48  62
BRANCH  49  73
ATOM     73  C   UNL A   1      39.132  30.504  30.800  1.00  0.00     0.064 A 
ATOM     74  C   UNL A   1      38.032  31.128  30.195  1.00  0.00     0.173 A 
ATOM     75  C   UNL A   1      39.073  30.279  32.184  1.00  0.00     0.173 A 
ATOM     76  F   UNL A   1      38.052  31.390  28.880  1.00  0.00    -0.203 F 
ATOM     77  C   UNL A   1      36.927  31.525  30.946  1.00  0.00     0.198 A 
ATOM     78  C   UNL A   1      37.957  30.650  32.929  1.00  0.00     0.198 A 
ATOM     79  F   UNL A   1      40.100  29.686  32.812  1.00  0.00    -0.203 F 
ATOM     80  F   UNL A   1      35.908  32.158  30.349  1.00  0.00    -0.200 F 
ATOM     81  C   UNL A   1      36.887  31.279  32.311  1.00  0.00     0.200 A 
ATOM     82  F   UNL A   1      37.918  30.400  34.244  1.00  0.00    -0.200 F 
ATOM     83  F   UNL A   1      35.823  31.656  33.031  1.00  0.00    -0.200 F 
ENDBRANCH  49  73
BRANCH  61  84
ATOM     84  C   UNL A   1      44.993  33.820  28.992  1.00  0.00     0.064 A 
ATOM     85  C   UNL A   1      44.661  34.886  28.143  1.00  0.00     0.173 A 
ATOM     86  C   UNL A   1      45.764  34.101  30.130  1.00  0.00     0.173 A 
ATOM     87  F   UNL A   1      43.939  34.665  27.033  1.00  0.00    -0.203 F 
ATOM     88  C   UNL A   1      45.097  36.180  28.416  1.00  0.00     0.198 A 
ATOM     89  C   UNL A   1      46.174  35.400  30.414  1.00  0.00     0.198 A 
ATOM     90  F   UNL A   1      46.103  33.117  30.976  1.00  0.00    -0.203 F 
ATOM     91  F   UNL A   1      44.799  37.178  27.572  1.00  0.00    -0.200 F 
ATOM     92  C   UNL A   1      45.845  36.438  29.555  1.00  0.00     0.200 A 
ATOM     93  F   UNL A   1      46.886  35.650  31.522  1.00  0.00    -0.200 F 
ATOM     94  F   UNL A   1      46.252  37.686  29.823  1.00  0.00    -0.200 F 
ENDBRANCH  61  84
ENDBRANCH  35  36
ENDBRANCH  28  30
ENDBRANCH  27  28
ENDBRANCH  26  27
ENDBRANCH  25  26
ENDBRANCH   1  25
TORSDOF 17
ENDMDL
