MODEL 1
REMARK VINA RESULT:     -12.2      0.000      0.000
REMARK SMILES CN(c1ccccc1)c1nc(OCC(=O)OCCOCCOC(=O)c2ccc(-c3c4nc(c(-c5c(F)c(F)c(F)c(F)c5F)c5ccc([nH]5)c(-c5c(F)c(F)c(F)c(F)c5F)c5nc(c(-c6c(F)c(F)c(F)c(F)c6F)c6ccc3[nH]6)C=C5)C=C4)cc2)cc(-c2ccncc2)n1
REMARK SMILES IDX 18 1 17 2 16 3 14 4 15 5 13 6 12 7 11 8 9 9 10 10 96 11
REMARK SMILES IDX 89 12 88 13 2 14 1 15 3 16 4 17 8 18 5 19 7 20 6 21 90 22
REMARK SMILES IDX 91 23 95 24 92 25 94 26 93 27 19 28 20 29 21 30 22 31 23 32
REMARK SMILES IDX 24 33 25 34 26 35 87 36 27 37 86 38 28 39 29 40 30 41 80 42
REMARK SMILES IDX 31 43 85 44 79 45 81 46 32 47 84 48 78 49 77 50 33 52 65 53
REMARK SMILES IDX 45 54 64 55 46 56 49 57 63 58 82 59 47 60 48 61 62 63 83 64
REMARK SMILES IDX 50 65 34 66 35 67 43 68 36 69 37 70 41 71 44 72 38 73 39 74
REMARK SMILES IDX 42 75 40 76 66 77 67 78 75 79 68 80 69 81 73 82 76 83 70 84
REMARK SMILES IDX 71 85 74 86 72 87 51 88 52 89 60 90 53 91 54 92 58 93 61 94
REMARK SMILES IDX 55 95 56 96 59 97 57 98
REMARK H PARENT 81 51 49 62
REMARK Flexibility Score: inf
ROOT
ATOM      1  C   UNL A   1      34.636  22.940  24.669  1.00  0.00     0.202 C 
ENDROOT
BRANCH   1   2
ATOM      2  C   UNL A   1      34.496  24.428  24.306  1.00  0.00     0.261 C 
BRANCH   2   3
ATOM      3  O   UNL A   1      34.425  24.661  22.879  1.00  0.00    -0.461 OA
BRANCH   3   4
ATOM      4  C   UNL A   1      33.318  24.169  22.248  1.00  0.00     0.344 C 
ATOM      5  O   UNL A   1      33.335  23.262  21.422  1.00  0.00    -0.248 OA
BRANCH   4   6
ATOM      6  C   UNL A   1      32.006  24.838  22.683  1.00  0.00     0.353 C 
BRANCH   6   7
ATOM      7  O   UNL A   1      31.539  25.972  21.988  1.00  0.00    -0.466 OA
BRANCH   7   8
ATOM      8  C   UNL A   1      31.367  27.183  22.587  1.00  0.00     0.219 A 
ATOM      9  C   UNL A   1      31.405  28.130  24.705  1.00  0.00     0.233 A 
ATOM     10  N   UNL A   1      31.747  27.134  23.870  1.00  0.00    -0.177 NA
ATOM     11  N   UNL A   1      30.648  29.165  24.308  1.00  0.00    -0.212 NA
ATOM     12  C   UNL A   1      30.333  29.251  22.997  1.00  0.00     0.080 A 
ATOM     13  C   UNL A   1      30.717  28.283  22.072  1.00  0.00     0.097 A 
BRANCH   9  14
ATOM     14  N   UNL A   1      31.865  28.061  26.030  1.00  0.00    -0.314 N 
ATOM     15  C   UNL A   1      31.376  26.913  26.778  1.00  0.00     0.153 C 
BRANCH  14  16
ATOM     16  C   UNL A   1      32.884  28.871  26.558  1.00  0.00     0.043 A 
ATOM     17  C   UNL A   1      32.578  30.186  26.958  1.00  0.00     0.026 A 
ATOM     18  C   UNL A   1      34.209  28.442  26.726  1.00  0.00     0.026 A 
ATOM     19  C   UNL A   1      33.539  31.033  27.511  1.00  0.00     0.002 A 
ATOM     20  C   UNL A   1      35.181  29.294  27.270  1.00  0.00     0.002 A 
ATOM     21  C   UNL A   1      34.844  30.586  27.665  1.00  0.00     0.000 A 
ENDBRANCH  14  16
ENDBRANCH   9  14
BRANCH  12  22
ATOM     22  C   UNL A   1      29.460  30.391  22.652  1.00  0.00     0.004 A 
ATOM     23  C   UNL A   1      28.869  30.528  21.389  1.00  0.00     0.030 A 
ATOM     24  C   UNL A   1      29.134  31.364  23.597  1.00  0.00     0.030 A 
ATOM     25  C   UNL A   1      28.080  31.628  21.092  1.00  0.00     0.111 A 
ATOM     26  C   UNL A   1      28.316  32.424  23.221  1.00  0.00     0.111 A 
ATOM     27  N   UNL A   1      27.802  32.590  21.983  1.00  0.00    -0.265 NA
ENDBRANCH  12  22
ENDBRANCH   7   8
ENDBRANCH   6   7
ENDBRANCH   4   6
ENDBRANCH   3   4
ENDBRANCH   2   3
ENDBRANCH   1   2
BRANCH   1  28
ATOM     28  O   UNL A   1      35.720  22.222  24.081  1.00  0.00    -0.374 OA
BRANCH  28  29
ATOM     29  C   UNL A   1      36.106  21.016  24.714  1.00  0.00     0.202 C 
BRANCH  29  30
ATOM     30  C   UNL A   1      37.584  20.807  25.052  1.00  0.00     0.261 C 
BRANCH  30  31
ATOM     31  O   UNL A   1      38.174  21.864  25.765  1.00  0.00    -0.460 OA
BRANCH  31  32
ATOM     32  C   UNL A   1      39.382  21.543  26.260  1.00  0.00     0.338 C 
ATOM     33  O   UNL A   1      40.006  20.497  26.178  1.00  0.00    -0.246 OA
BRANCH  32  34
ATOM     34  C   UNL A   1      39.891  22.771  26.829  1.00  0.00     0.060 A 
ATOM     35  C   UNL A   1      39.305  23.956  26.392  1.00  0.00     0.016 A 
ATOM     36  C   UNL A   1      40.895  22.731  27.803  1.00  0.00     0.016 A 
ATOM     37  C   UNL A   1      39.778  25.145  26.901  1.00  0.00     0.010 A 
ATOM     38  C   UNL A   1      41.357  23.924  28.325  1.00  0.00     0.010 A 
ATOM     39  C   UNL A   1      40.823  25.125  27.837  1.00  0.00    -0.014 A 
BRANCH  39  40
ATOM     40  C   UNL A   1      41.447  26.401  28.189  1.00  0.00     0.031 A 
ATOM     41  C   UNL A   1      42.831  26.672  27.695  1.00  0.00     0.074 A 
ATOM     42  C   UNL A   1      40.721  27.307  28.858  1.00  0.00     0.049 A 
ATOM     43  N   UNL A   1      43.536  27.765  27.779  1.00  0.00    -0.248 NA
ATOM     44  C   UNL A   1      43.516  25.559  27.014  1.00  0.00     0.031 C 
ATOM     45  C   UNL A   1      39.358  27.096  29.348  1.00  0.00     0.029 A 
ATOM     46  N   UNL A   1      41.018  28.590  29.215  1.00  0.00    -0.354 N 
ATOM     47  C   UNL A   1      44.741  27.478  27.154  1.00  0.00     0.074 A 
ATOM     48  C   UNL A   1      44.696  26.094  26.742  1.00  0.00     0.031 C 
ATOM     49  C   UNL A   1      38.924  28.228  29.923  1.00  0.00     0.029 A 
ATOM     50  C   UNL A   1      39.989  29.223  29.861  1.00  0.00     0.049 A 
ATOM     51  H   UNL A   1      41.885  29.017  29.027  1.00  0.00     0.167 HD
ATOM     52  C   UNL A   1      45.781  28.313  26.934  1.00  0.00     0.037 A 
ATOM     53  C   UNL A   1      39.932  30.478  30.341  1.00  0.00     0.037 A 
ATOM     54  C   UNL A   1      45.790  29.684  27.371  1.00  0.00     0.049 A 
ATOM     55  C   UNL A   1      41.123  31.370  30.124  1.00  0.00     0.074 A 
ATOM     56  C   UNL A   1      46.774  30.639  27.207  1.00  0.00     0.029 A 
ATOM     57  N   UNL A   1      44.754  30.289  28.073  1.00  0.00    -0.354 N 
ATOM     58  N   UNL A   1      42.250  31.111  29.501  1.00  0.00    -0.248 NA
ATOM     59  C   UNL A   1      41.032  32.728  30.668  1.00  0.00     0.031 C 
ATOM     60  C   UNL A   1      46.358  31.804  27.859  1.00  0.00     0.029 A 
ATOM     61  C   UNL A   1      45.087  31.597  28.378  1.00  0.00     0.049 A 
ATOM     62  H   UNL A   1      43.907  29.850  28.319  1.00  0.00     0.167 HD
ATOM     63  C   UNL A   1      42.998  32.277  29.562  1.00  0.00     0.074 A 
ATOM     64  C   UNL A   1      42.180  33.251  30.261  1.00  0.00     0.031 C 
ATOM     65  C   UNL A   1      44.246  32.527  29.091  1.00  0.00     0.037 A 
BRANCH  52  66
ATOM     66  C   UNL A   1      46.982  27.750  26.233  1.00  0.00     0.064 A 
ATOM     67  C   UNL A   1      48.071  27.216  26.941  1.00  0.00     0.173 A 
ATOM     68  C   UNL A   1      47.052  27.757  24.833  1.00  0.00     0.173 A 
ATOM     69  F   UNL A   1      48.068  27.208  28.282  1.00  0.00    -0.203 F 
ATOM     70  C   UNL A   1      49.197  26.738  26.272  1.00  0.00     0.198 A 
ATOM     71  C   UNL A   1      48.165  27.249  24.167  1.00  0.00     0.198 A 
ATOM     72  F   UNL A   1      46.043  28.262  24.107  1.00  0.00    -0.203 F 
ATOM     73  F   UNL A   1      50.249  26.289  26.971  1.00  0.00    -0.200 F 
ATOM     74  C   UNL A   1      49.240  26.750  24.887  1.00  0.00     0.200 A 
ATOM     75  F   UNL A   1      48.201  27.255  22.828  1.00  0.00    -0.200 F 
ATOM     76  F   UNL A   1      50.323  26.290  24.244  1.00  0.00    -0.200 F 
ENDBRANCH  52  66
BRANCH  53  77
ATOM     77  C   UNL A   1      38.710  30.944  31.040  1.00  0.00     0.064 A 
ATOM     78  C   UNL A   1      38.600  30.875  32.434  1.00  0.00     0.173 A 
ATOM     79  C   UNL A   1      37.635  31.498  30.327  1.00  0.00     0.173 A 
ATOM     80  F   UNL A   1      39.597  30.346  33.159  1.00  0.00    -0.203 F 
ATOM     81  C   UNL A   1      37.455  31.327  33.088  1.00  0.00     0.198 A 
ATOM     82  C   UNL A   1      36.505  31.977  30.984  1.00  0.00     0.198 A 
ATOM     83  F   UNL A   1      37.695  31.598  28.991  1.00  0.00    -0.203 F 
ATOM     84  F   UNL A   1      37.362  31.217  34.420  1.00  0.00    -0.200 F 
ATOM     85  C   UNL A   1      36.412  31.884  32.364  1.00  0.00     0.200 A 
ATOM     86  F   UNL A   1      35.508  32.531  30.280  1.00  0.00    -0.200 F 
ATOM     87  F   UNL A   1      35.318  32.328  32.995  1.00  0.00    -0.200 F 
ENDBRANCH  53  77
BRANCH  65  88
ATOM     88  C   UNL A   1      44.782  33.911  29.317  1.00  0.00     0.064 A 
ATOM     89  C   UNL A   1      45.533  34.229  30.459  1.00  0.00     0.173 A 
ATOM     90  C   UNL A   1      44.555  34.922  28.372  1.00  0.00     0.173 A 
ATOM     91  F   UNL A   1      45.764  33.297  31.397  1.00  0.00    -0.203 F 
ATOM     92  C   UNL A   1      46.002  35.522  30.666  1.00  0.00     0.198 A 
ATOM     93  C   UNL A   1      45.058  36.204  28.566  1.00  0.00     0.198 A 
ATOM     94  F   UNL A   1      43.852  34.665  27.260  1.00  0.00    -0.203 F 
ATOM     95  F   UNL A   1      46.660  35.820  31.794  1.00  0.00    -0.200 F 
ATOM     96  C   UNL A   1      45.770  36.506  29.716  1.00  0.00     0.200 A 
ATOM     97  F   UNL A   1      44.848  37.150  27.640  1.00  0.00    -0.200 F 
ATOM     98  F   UNL A   1      46.224  37.751  29.917  1.00  0.00    -0.200 F 
ENDBRANCH  65  88
ENDBRANCH  39  40
ENDBRANCH  32  34
ENDBRANCH  31  32
ENDBRANCH  30  31
ENDBRANCH  29  30
ENDBRANCH  28  29
ENDBRANCH   1  28
TORSDOF 19
ENDMDL
MODEL 2
REMARK VINA RESULT:     -12.1      4.399     10.254
REMARK SMILES CN(c1ccccc1)c1nc(OCC(=O)OCCOCCOC(=O)c2ccc(-c3c4nc(c(-c5c(F)c(F)c(F)c(F)c5F)c5ccc([nH]5)c(-c5c(F)c(F)c(F)c(F)c5F)c5nc(c(-c6c(F)c(F)c(F)c(F)c6F)c6ccc3[nH]6)C=C5)C=C4)cc2)cc(-c2ccncc2)n1
REMARK SMILES IDX 18 1 17 2 16 3 14 4 15 5 13 6 12 7 11 8 9 9 10 10 96 11
REMARK SMILES IDX 89 12 88 13 2 14 1 15 3 16 4 17 8 18 5 19 7 20 6 21 90 22
REMARK SMILES IDX 91 23 95 24 92 25 94 26 93 27 19 28 20 29 21 30 22 31 23 32
REMARK SMILES IDX 24 33 25 34 26 35 87 36 27 37 86 38 28 39 29 40 30 41 80 42
REMARK SMILES IDX 31 43 85 44 79 45 81 46 32 47 84 48 78 49 77 50 33 52 65 53
REMARK SMILES IDX 45 54 64 55 46 56 49 57 63 58 82 59 47 60 48 61 62 63 83 64
REMARK SMILES IDX 50 65 34 66 35 67 43 68 36 69 37 70 41 71 44 72 38 73 39 74
REMARK SMILES IDX 42 75 40 76 66 77 67 78 75 79 68 80 69 81 73 82 76 83 70 84
REMARK SMILES IDX 71 85 74 86 72 87 51 88 52 89 60 90 53 91 54 92 58 93 61 94
REMARK SMILES IDX 55 95 56 96 59 97 57 98
REMARK H PARENT 81 51 49 62
REMARK Flexibility Score: inf
ROOT
ATOM      1  C   UNL A   1      30.864  26.886  24.782  1.00  0.00     0.202 C 
ENDROOT
BRANCH   1   2
ATOM      2  C   UNL A   1      29.957  25.698  25.145  1.00  0.00     0.261 C 
BRANCH   2   3
ATOM      3  O   UNL A   1      30.155  25.224  26.499  1.00  0.00    -0.461 OA
BRANCH   3   4
ATOM      4  C   UNL A   1      30.060  23.873  26.677  1.00  0.00     0.344 C 
ATOM      5  O   UNL A   1      29.491  23.337  27.623  1.00  0.00    -0.248 OA
BRANCH   4   6
ATOM      6  C   UNL A   1      30.716  23.050  25.559  1.00  0.00     0.353 C 
BRANCH   6   7
ATOM      7  O   UNL A   1      32.077  23.252  25.253  1.00  0.00    -0.466 OA
BRANCH   7   8
ATOM      8  C   UNL A   1      32.989  22.240  25.250  1.00  0.00     0.219 A 
ATOM      9  C   UNL A   1      35.156  21.814  24.541  1.00  0.00     0.233 A 
ATOM     10  N   UNL A   1      34.193  22.689  24.874  1.00  0.00    -0.177 NA
ATOM     11  N   UNL A   1      34.943  20.490  24.526  1.00  0.00    -0.212 NA
ATOM     12  C   UNL A   1      33.753  20.036  24.980  1.00  0.00     0.080 A 
ATOM     13  C   UNL A   1      32.741  20.894  25.403  1.00  0.00     0.097 A 
BRANCH   9  14
ATOM     14  N   UNL A   1      36.418  22.328  24.199  1.00  0.00    -0.314 N 
ATOM     15  C   UNL A   1      36.462  23.010  22.914  1.00  0.00     0.153 C 
BRANCH  14  16
ATOM     16  C   UNL A   1      37.508  22.406  25.082  1.00  0.00     0.043 A 
ATOM     17  C   UNL A   1      37.780  23.628  25.728  1.00  0.00     0.026 A 
ATOM     18  C   UNL A   1      38.349  21.324  25.377  1.00  0.00     0.026 A 
ATOM     19  C   UNL A   1      38.833  23.766  26.634  1.00  0.00     0.002 A 
ATOM     20  C   UNL A   1      39.415  21.461  26.278  1.00  0.00     0.002 A 
ATOM     21  C   UNL A   1      39.652  22.681  26.908  1.00  0.00     0.000 A 
ENDBRANCH  14  16
ENDBRANCH   9  14
BRANCH  12  22
ATOM     22  C   UNL A   1      33.581  18.573  24.887  1.00  0.00     0.004 A 
ATOM     23  C   UNL A   1      32.743  17.859  25.753  1.00  0.00     0.030 A 
ATOM     24  C   UNL A   1      34.208  17.834  23.884  1.00  0.00     0.030 A 
ATOM     25  C   UNL A   1      32.630  16.481  25.654  1.00  0.00     0.111 A 
ATOM     26  C   UNL A   1      34.023  16.456  23.843  1.00  0.00     0.111 A 
ATOM     27  N   UNL A   1      33.268  15.761  24.721  1.00  0.00    -0.265 NA
ENDBRANCH  12  22
ENDBRANCH   7   8
ENDBRANCH   6   7
ENDBRANCH   4   6
ENDBRANCH   3   4
ENDBRANCH   2   3
ENDBRANCH   1   2
BRANCH   1  28
ATOM     28  O   UNL A   1      31.311  27.719  25.850  1.00  0.00    -0.374 OA
BRANCH  28  29
ATOM     29  C   UNL A   1      31.477  29.095  25.561  1.00  0.00     0.202 C 
BRANCH  29  30
ATOM     30  C   UNL A   1      31.989  30.020  26.668  1.00  0.00     0.261 C 
BRANCH  30  31
ATOM     31  O   UNL A   1      33.375  30.246  26.643  1.00  0.00    -0.460 OA
BRANCH  31  32
ATOM     32  C   UNL A   1      33.733  31.337  27.342  1.00  0.00     0.338 C 
ATOM     33  O   UNL A   1      33.092  32.342  27.604  1.00  0.00    -0.246 OA
BRANCH  32  34
ATOM     34  C   UNL A   1      35.046  31.031  27.866  1.00  0.00     0.060 A 
ATOM     35  C   UNL A   1      35.304  29.698  28.173  1.00  0.00     0.016 A 
ATOM     36  C   UNL A   1      36.002  32.044  28.002  1.00  0.00     0.016 A 
ATOM     37  C   UNL A   1      36.539  29.374  28.690  1.00  0.00     0.010 A 
ATOM     38  C   UNL A   1      37.246  31.715  28.505  1.00  0.00     0.010 A 
ATOM     39  C   UNL A   1      37.489  30.388  28.886  1.00  0.00    -0.014 A 
BRANCH  39  40
ATOM     40  C   UNL A   1      38.701  30.051  29.636  1.00  0.00     0.031 A 
ATOM     41  C   UNL A   1      38.830  30.558  31.035  1.00  0.00     0.074 A 
ATOM     42  C   UNL A   1      39.596  29.229  29.071  1.00  0.00     0.049 A 
ATOM     43  N   UNL A   1      39.746  30.295  31.925  1.00  0.00    -0.248 NA
ATOM     44  C   UNL A   1      37.785  31.488  31.498  1.00  0.00     0.031 C 
ATOM     45  C   UNL A   1      39.507  28.694  27.712  1.00  0.00     0.029 A 
ATOM     46  N   UNL A   1      40.739  28.683  29.580  1.00  0.00    -0.354 N 
ATOM     47  C   UNL A   1      39.385  31.017  33.053  1.00  0.00     0.074 A 
ATOM     48  C   UNL A   1      38.197  31.771  32.723  1.00  0.00     0.031 C 
ATOM     49  C   UNL A   1      40.544  27.870  27.502  1.00  0.00     0.029 A 
ATOM     50  C   UNL A   1      41.375  27.846  28.701  1.00  0.00     0.049 A 
ATOM     51  H   UNL A   1      41.071  28.871  30.487  1.00  0.00     0.167 HD
ATOM     52  C   UNL A   1      39.992  31.026  34.261  1.00  0.00     0.037 A 
ATOM     53  C   UNL A   1      42.507  27.141  28.869  1.00  0.00     0.037 A 
ATOM     54  C   UNL A   1      41.181  30.268  34.546  1.00  0.00     0.049 A 
ATOM     55  C   UNL A   1      43.188  27.209  30.208  1.00  0.00     0.074 A 
ATOM     56  C   UNL A   1      41.892  30.183  35.727  1.00  0.00     0.029 A 
ATOM     57  N   UNL A   1      41.839  29.467  33.620  1.00  0.00    -0.354 N 
ATOM     58  N   UNL A   1      42.827  27.862  31.288  1.00  0.00    -0.248 NA
ATOM     59  C   UNL A   1      44.425  26.436  30.354  1.00  0.00     0.031 C 
ATOM     60  C   UNL A   1      43.011  29.375  35.499  1.00  0.00     0.029 A 
ATOM     61  C   UNL A   1      42.967  28.907  34.193  1.00  0.00     0.049 A 
ATOM     62  H   UNL A   1      41.546  29.321  32.691  1.00  0.00     0.167 HD
ATOM     63  C   UNL A   1      43.782  27.569  32.250  1.00  0.00     0.074 A 
ATOM     64  C   UNL A   1      44.722  26.655  31.627  1.00  0.00     0.031 C 
ATOM     65  C   UNL A   1      43.884  28.013  33.529  1.00  0.00     0.037 A 
BRANCH  52  66
ATOM     66  C   UNL A   1      39.399  31.904  35.324  1.00  0.00     0.064 A 
ATOM     67  C   UNL A   1      39.734  33.264  35.435  1.00  0.00     0.173 A 
ATOM     68  C   UNL A   1      38.493  31.375  36.254  1.00  0.00     0.173 A 
ATOM     69  F   UNL A   1      40.616  33.815  34.587  1.00  0.00    -0.203 F 
ATOM     70  C   UNL A   1      39.207  34.051  36.457  1.00  0.00     0.198 A 
ATOM     71  C   UNL A   1      37.944  32.174  37.254  1.00  0.00     0.198 A 
ATOM     72  F   UNL A   1      38.144  30.082  36.199  1.00  0.00    -0.203 F 
ATOM     73  F   UNL A   1      39.589  35.330  36.579  1.00  0.00    -0.200 F 
ATOM     74  C   UNL A   1      38.308  33.508  37.361  1.00  0.00     0.200 A 
ATOM     75  F   UNL A   1      37.070  31.648  38.123  1.00  0.00    -0.200 F 
ATOM     76  F   UNL A   1      37.802  34.266  38.344  1.00  0.00    -0.200 F 
ENDBRANCH  52  66
BRANCH  53  77
ATOM     77  C   UNL A   1      43.032  26.315  27.755  1.00  0.00     0.064 A 
ATOM     78  C   UNL A   1      42.623  24.987  27.579  1.00  0.00     0.173 A 
ATOM     79  C   UNL A   1      43.934  26.849  26.821  1.00  0.00     0.173 A 
ATOM     80  F   UNL A   1      41.770  24.429  28.451  1.00  0.00    -0.203 F 
ATOM     81  C   UNL A   1      43.109  24.219  26.523  1.00  0.00     0.198 A 
ATOM     82  C   UNL A   1      44.395  26.089  25.749  1.00  0.00     0.198 A 
ATOM     83  F   UNL A   1      44.348  28.119  26.936  1.00  0.00    -0.203 F 
ATOM     84  F   UNL A   1      42.729  22.940  26.400  1.00  0.00    -0.200 F 
ATOM     85  C   UNL A   1      43.988  24.771  25.605  1.00  0.00     0.200 A 
ATOM     86  F   UNL A   1      45.229  26.635  24.853  1.00  0.00    -0.200 F 
ATOM     87  F   UNL A   1      44.445  24.035  24.584  1.00  0.00    -0.200 F 
ENDBRANCH  53  77
BRANCH  65  88
ATOM     88  C   UNL A   1      45.048  27.500  34.325  1.00  0.00     0.064 A 
ATOM     89  C   UNL A   1      44.964  26.309  35.062  1.00  0.00     0.173 A 
ATOM     90  C   UNL A   1      46.263  28.200  34.335  1.00  0.00     0.173 A 
ATOM     91  F   UNL A   1      43.817  25.613  35.094  1.00  0.00    -0.203 F 
ATOM     92  C   UNL A   1      46.044  25.860  35.815  1.00  0.00     0.198 A 
ATOM     93  C   UNL A   1      47.352  27.726  35.059  1.00  0.00     0.198 A 
ATOM     94  F   UNL A   1      46.396  29.338  33.638  1.00  0.00    -0.203 F 
ATOM     95  F   UNL A   1      45.921  24.756  36.564  1.00  0.00    -0.200 F 
ATOM     96  C   UNL A   1      47.239  26.565  35.808  1.00  0.00     0.200 A 
ATOM     97  F   UNL A   1      48.511  28.400  35.038  1.00  0.00    -0.200 F 
ATOM     98  F   UNL A   1      48.278  26.130  36.532  1.00  0.00    -0.200 F 
ENDBRANCH  65  88
ENDBRANCH  39  40
ENDBRANCH  32  34
ENDBRANCH  31  32
ENDBRANCH  30  31
ENDBRANCH  29  30
ENDBRANCH  28  29
ENDBRANCH   1  28
TORSDOF 19
ENDMDL
MODEL 3
REMARK VINA RESULT:     -11.8      1.160      2.996
REMARK SMILES CN(c1ccccc1)c1nc(OCC(=O)OCCOCCOC(=O)c2ccc(-c3c4nc(c(-c5c(F)c(F)c(F)c(F)c5F)c5ccc([nH]5)c(-c5c(F)c(F)c(F)c(F)c5F)c5nc(c(-c6c(F)c(F)c(F)c(F)c6F)c6ccc3[nH]6)C=C5)C=C4)cc2)cc(-c2ccncc2)n1
REMARK SMILES IDX 18 1 17 2 16 3 14 4 15 5 13 6 12 7 11 8 9 9 10 10 96 11
REMARK SMILES IDX 89 12 88 13 2 14 1 15 3 16 4 17 8 18 5 19 7 20 6 21 90 22
REMARK SMILES IDX 91 23 95 24 92 25 94 26 93 27 19 28 20 29 21 30 22 31 23 32
REMARK SMILES IDX 24 33 25 34 26 35 87 36 27 37 86 38 28 39 29 40 30 41 80 42
REMARK SMILES IDX 31 43 85 44 79 45 81 46 32 47 84 48 78 49 77 50 33 52 65 53
REMARK SMILES IDX 45 54 64 55 46 56 49 57 63 58 82 59 47 60 48 61 62 63 83 64
REMARK SMILES IDX 50 65 34 66 35 67 43 68 36 69 37 70 41 71 44 72 38 73 39 74
REMARK SMILES IDX 42 75 40 76 66 77 67 78 75 79 68 80 69 81 73 82 76 83 70 84
REMARK SMILES IDX 71 85 74 86 72 87 51 88 52 89 60 90 53 91 54 92 58 93 61 94
REMARK SMILES IDX 55 95 56 96 59 97 57 98
REMARK H PARENT 81 51 49 62
REMARK Flexibility Score: inf
ROOT
ATOM      1  C   UNL A   1      34.294  22.665  23.393  1.00  0.00     0.202 C 
ENDROOT
BRANCH   1   2
ATOM      2  C   UNL A   1      32.925  22.059  23.040  1.00  0.00     0.261 C 
BRANCH   2   3
ATOM      3  O   UNL A   1      31.829  22.673  23.761  1.00  0.00    -0.461 OA
BRANCH   3   4
ATOM      4  C   UNL A   1      31.658  22.259  25.052  1.00  0.00     0.344 C 
ATOM      5  O   UNL A   1      31.486  21.091  25.389  1.00  0.00    -0.248 OA
BRANCH   4   6
ATOM      6  C   UNL A   1      31.727  23.394  26.083  1.00  0.00     0.353 C 
BRANCH   6   7
ATOM      7  O   UNL A   1      32.765  24.344  26.005  1.00  0.00    -0.466 OA
BRANCH   7   8
ATOM      8  C   UNL A   1      32.534  25.675  25.829  1.00  0.00     0.219 A 
ATOM      9  C   UNL A   1      31.916  27.157  24.155  1.00  0.00     0.233 A 
ATOM     10  N   UNL A   1      31.971  25.904  24.636  1.00  0.00    -0.177 NA
ATOM     11  N   UNL A   1      32.451  28.197  24.812  1.00  0.00    -0.212 NA
ATOM     12  C   UNL A   1      32.948  27.976  26.049  1.00  0.00     0.080 A 
ATOM     13  C   UNL A   1      32.971  26.709  26.627  1.00  0.00     0.097 A 
BRANCH   9  14
ATOM     14  N   UNL A   1      31.274  27.358  22.922  1.00  0.00    -0.314 N 
ATOM     15  C   UNL A   1      31.707  26.457  21.865  1.00  0.00     0.153 C 
BRANCH  14  16
ATOM     16  C   UNL A   1      30.150  28.180  22.739  1.00  0.00     0.043 A 
ATOM     17  C   UNL A   1      28.908  27.768  23.258  1.00  0.00     0.026 A 
ATOM     18  C   UNL A   1      30.189  29.413  22.071  1.00  0.00     0.026 A 
ATOM     19  C   UNL A   1      27.758  28.549  23.130  1.00  0.00     0.002 A 
ATOM     20  C   UNL A   1      29.033  30.195  21.930  1.00  0.00     0.002 A 
ATOM     21  C   UNL A   1      27.821  29.764  22.464  1.00  0.00     0.000 A 
ENDBRANCH  14  16
ENDBRANCH   9  14
BRANCH  12  22
ATOM     22  C   UNL A   1      33.560  29.160  26.683  1.00  0.00     0.004 A 
ATOM     23  C   UNL A   1      32.830  30.324  26.960  1.00  0.00     0.030 A 
ATOM     24  C   UNL A   1      34.893  29.155  27.092  1.00  0.00     0.030 A 
ATOM     25  C   UNL A   1      33.446  31.428  27.528  1.00  0.00     0.111 A 
ATOM     26  C   UNL A   1      35.426  30.299  27.676  1.00  0.00     0.111 A 
ATOM     27  N   UNL A   1      34.738  31.443  27.880  1.00  0.00    -0.265 NA
ENDBRANCH  12  22
ENDBRANCH   7   8
ENDBRANCH   6   7
ENDBRANCH   4   6
ENDBRANCH   3   4
ENDBRANCH   2   3
ENDBRANCH   1   2
BRANCH   1  28
ATOM     28  O   UNL A   1      35.175  21.874  24.189  1.00  0.00    -0.374 OA
BRANCH  28  29
ATOM     29  C   UNL A   1      36.558  22.161  24.091  1.00  0.00     0.202 C 
BRANCH  29  30
ATOM     30  C   UNL A   1      37.543  21.304  24.889  1.00  0.00     0.261 C 
BRANCH  30  31
ATOM     31  O   UNL A   1      38.016  21.904  26.068  1.00  0.00    -0.460 OA
BRANCH  31  32
ATOM     32  C   UNL A   1      39.314  21.639  26.297  1.00  0.00     0.338 C 
ATOM     33  O   UNL A   1      39.972  20.652  26.010  1.00  0.00    -0.246 OA
BRANCH  32  34
ATOM     34  C   UNL A   1      39.850  22.857  26.864  1.00  0.00     0.060 A 
ATOM     35  C   UNL A   1      39.280  24.053  26.433  1.00  0.00     0.016 A 
ATOM     36  C   UNL A   1      40.860  22.798  27.830  1.00  0.00     0.016 A 
ATOM     37  C   UNL A   1      39.778  25.232  26.940  1.00  0.00     0.010 A 
ATOM     38  C   UNL A   1      41.347  23.982  28.349  1.00  0.00     0.010 A 
ATOM     39  C   UNL A   1      40.831  25.192  27.867  1.00  0.00    -0.014 A 
BRANCH  39  40
ATOM     40  C   UNL A   1      41.481  26.457  28.216  1.00  0.00     0.031 A 
ATOM     41  C   UNL A   1      42.860  26.709  27.700  1.00  0.00     0.074 A 
ATOM     42  C   UNL A   1      40.779  27.370  28.902  1.00  0.00     0.049 A 
ATOM     43  N   UNL A   1      43.583  27.792  27.778  1.00  0.00    -0.248 NA
ATOM     44  C   UNL A   1      43.516  25.591  27.001  1.00  0.00     0.031 C 
ATOM     45  C   UNL A   1      39.422  27.177  29.413  1.00  0.00     0.029 A 
ATOM     46  N   UNL A   1      41.102  28.646  29.261  1.00  0.00    -0.354 N 
ATOM     47  C   UNL A   1      44.772  27.490  27.131  1.00  0.00     0.074 A 
ATOM     48  C   UNL A   1      44.700  26.109  26.712  1.00  0.00     0.031 C 
ATOM     49  C   UNL A   1      39.015  28.312  30.003  1.00  0.00     0.029 A 
ATOM     50  C   UNL A   1      40.094  29.292  29.927  1.00  0.00     0.049 A 
ATOM     51  H   UNL A   1      41.972  29.061  29.060  1.00  0.00     0.167 HD
ATOM     52  C   UNL A   1      45.821  28.310  26.898  1.00  0.00     0.037 A 
ATOM     53  C   UNL A   1      40.064  30.544  30.415  1.00  0.00     0.037 A 
ATOM     54  C   UNL A   1      45.859  29.678  27.342  1.00  0.00     0.049 A 
ATOM     55  C   UNL A   1      41.265  31.419  30.184  1.00  0.00     0.074 A 
ATOM     56  C   UNL A   1      46.854  30.619  27.167  1.00  0.00     0.029 A 
ATOM     57  N   UNL A   1      44.844  30.295  28.065  1.00  0.00    -0.354 N 
ATOM     58  N   UNL A   1      42.377  31.147  29.540  1.00  0.00    -0.248 NA
ATOM     59  C   UNL A   1      41.204  32.775  30.737  1.00  0.00     0.031 C 
ATOM     60  C   UNL A   1      46.467  31.787  27.833  1.00  0.00     0.029 A 
ATOM     61  C   UNL A   1      45.202  31.596  28.372  1.00  0.00     0.049 A 
ATOM     62  H   UNL A   1      43.995  29.868  28.323  1.00  0.00     0.167 HD
ATOM     63  C   UNL A   1      43.143  32.301  29.594  1.00  0.00     0.074 A 
ATOM     64  C   UNL A   1      42.352  33.283  30.313  1.00  0.00     0.031 C 
ATOM     65  C   UNL A   1      44.387  32.535  29.104  1.00  0.00     0.037 A 
BRANCH  52  66
ATOM     66  C   UNL A   1      47.001  27.733  26.174  1.00  0.00     0.064 A 
ATOM     67  C   UNL A   1      48.092  27.174  26.860  1.00  0.00     0.173 A 
ATOM     68  C   UNL A   1      47.050  27.751  24.773  1.00  0.00     0.173 A 
ATOM     69  F   UNL A   1      48.109  27.154  28.201  1.00  0.00    -0.203 F 
ATOM     70  C   UNL A   1      49.198  26.683  26.170  1.00  0.00     0.198 A 
ATOM     71  C   UNL A   1      48.144  27.231  24.085  1.00  0.00     0.198 A 
ATOM     72  F   UNL A   1      46.039  28.280  24.067  1.00  0.00    -0.203 F 
ATOM     73  F   UNL A   1      50.254  26.210  26.848  1.00  0.00    -0.200 F 
ATOM     74  C   UNL A   1      49.221  26.707  24.784  1.00  0.00     0.200 A 
ATOM     75  F   UNL A   1      48.160  27.248  22.746  1.00  0.00    -0.200 F 
ATOM     76  F   UNL A   1      50.286  26.235  24.121  1.00  0.00    -0.200 F 
ENDBRANCH  52  66
BRANCH  53  77
ATOM     77  C   UNL A   1      38.862  31.024  31.138  1.00  0.00     0.064 A 
ATOM     78  C   UNL A   1      38.720  30.837  32.518  1.00  0.00     0.173 A 
ATOM     79  C   UNL A   1      37.839  31.711  30.464  1.00  0.00     0.173 A 
ATOM     80  F   UNL A   1      39.665  30.178  33.205  1.00  0.00    -0.203 F 
ATOM     81  C   UNL A   1      37.594  31.302  33.195  1.00  0.00     0.198 A 
ATOM     82  C   UNL A   1      36.729  32.202  31.147  1.00  0.00     0.198 A 
ATOM     83  F   UNL A   1      37.931  31.927  29.144  1.00  0.00    -0.203 F 
ATOM     84  F   UNL A   1      37.468  31.078  34.510  1.00  0.00    -0.200 F 
ATOM     85  C   UNL A   1      36.603  31.990  32.511  1.00  0.00     0.200 A 
ATOM     86  F   UNL A   1      35.784  32.883  30.484  1.00  0.00    -0.200 F 
ATOM     87  F   UNL A   1      35.528  32.447  33.166  1.00  0.00    -0.200 F 
ENDBRANCH  53  77
BRANCH  65  88
ATOM     88  C   UNL A   1      44.948  33.908  29.329  1.00  0.00     0.064 A 
ATOM     89  C   UNL A   1      45.644  34.234  30.503  1.00  0.00     0.173 A 
ATOM     90  C   UNL A   1      44.800  34.903  28.351  1.00  0.00     0.173 A 
ATOM     91  F   UNL A   1      45.798  33.319  31.473  1.00  0.00    -0.203 F 
ATOM     92  C   UNL A   1      46.136  35.518  30.707  1.00  0.00     0.198 A 
ATOM     93  C   UNL A   1      45.327  36.176  28.543  1.00  0.00     0.198 A 
ATOM     94  F   UNL A   1      44.152  34.638  27.208  1.00  0.00    -0.203 F 
ATOM     95  F   UNL A   1      46.741  35.825  31.862  1.00  0.00    -0.200 F 
ATOM     96  C   UNL A   1      45.983  36.486  29.724  1.00  0.00     0.200 A 
ATOM     97  F   UNL A   1      45.193  37.105  27.587  1.00  0.00    -0.200 F 
ATOM     98  F   UNL A   1      46.460  37.722  29.922  1.00  0.00    -0.200 F 
ENDBRANCH  65  88
ENDBRANCH  39  40
ENDBRANCH  32  34
ENDBRANCH  31  32
ENDBRANCH  30  31
ENDBRANCH  29  30
ENDBRANCH  28  29
ENDBRANCH   1  28
TORSDOF 19
ENDMDL
