MODEL 1
REMARK VINA RESULT:     -11.2      0.000      0.000
REMARK SMILES Cc1ccc(/C=C/C(=O)N[C@](C)(C(=O)OCCOCCOC(=O)c2ccc(-c3c4nc(c(-c5c(F)c(F)c(F)c(F)c5F)c5ccc([nH]5)c(-c5c(F)c(F)c(F)c(F)c5F)c5nc(c(-c6c(F)c(F)c(F)c(F)c6F)c6ccc3[nH]6)C=C5)C=C4)cc2)C(F)(F)F)o1
REMARK SMILES IDX 17 1 16 2 15 3 13 4 14 5 11 6 12 7 10 8 8 9 9 10 7 12 6 13
REMARK SMILES IDX 5 14 1 15 2 16 3 17 91 18 4 19 87 20 88 21 89 22 90 23 18 24
REMARK SMILES IDX 19 25 20 26 21 27 22 28 23 29 24 30 25 31 86 32 26 33 85 34
REMARK SMILES IDX 27 35 28 36 29 37 79 38 30 39 84 40 78 41 80 42 31 43 83 44
REMARK SMILES IDX 77 45 76 46 32 48 64 49 44 50 63 51 45 52 48 53 62 54 81 55
REMARK SMILES IDX 46 56 47 57 61 59 82 60 49 61 33 62 34 63 42 64 35 65 36 66
REMARK SMILES IDX 40 67 43 68 37 69 38 70 41 71 39 72 65 73 66 74 74 75 67 76
REMARK SMILES IDX 68 77 72 78 75 79 69 80 70 81 73 82 71 83 50 84 51 85 59 86
REMARK SMILES IDX 52 87 53 88 57 89 60 90 54 91 55 92 58 93 56 94
REMARK H PARENT 10 11 80 47 48 58
REMARK Flexibility Score: inf
ROOT
ATOM      1  C   UNL A   1      35.679  20.900  25.057  1.00  0.00     0.202 C 
ENDROOT
BRANCH   1   2
ATOM      2  C   UNL A   1      34.221  20.473  24.873  1.00  0.00     0.261 C 
BRANCH   2   3
ATOM      3  O   UNL A   1      33.312  21.568  25.100  1.00  0.00    -0.461 OA
BRANCH   3   4
ATOM      4  C   UNL A   1      32.681  22.055  23.989  1.00  0.00     0.341 C 
ATOM      5  O   UNL A   1      32.430  21.372  23.005  1.00  0.00    -0.249 OA
BRANCH   4   6
ATOM      6  C   UNL A   1      32.499  23.575  24.055  1.00  0.00     0.231 C 
ATOM      7  C   UNL A   1      33.277  24.238  25.198  1.00  0.00     0.058 C 
BRANCH   6   8
ATOM      8  N   UNL A   1      32.813  24.059  22.671  1.00  0.00    -0.329 N 
ATOM      9  C   UNL A   1      32.866  25.260  22.049  1.00  0.00     0.245 C 
ATOM     10  O   UNL A   1      33.402  25.336  20.947  1.00  0.00    -0.270 OA
ATOM     11  H   UNL A   1      33.037  23.318  22.062  1.00  0.00     0.165 HD
BRANCH   9  12
ATOM     12  C   UNL A   1      32.161  26.432  22.588  1.00  0.00     0.075 C 
ATOM     13  C   UNL A   1      31.079  26.969  22.010  1.00  0.00     0.053 C 
BRANCH  13  14
ATOM     14  C   UNL A   1      30.516  28.146  22.570  1.00  0.00     0.127 A 
ATOM     15  C   UNL A   1      28.025  30.728  22.396  1.00  0.00     0.087 C 
ATOM     16  C   UNL A   1      29.152  29.878  22.824  1.00  0.00     0.101 A 
ATOM     17  C   UNL A   1      30.020  29.923  23.889  1.00  0.00     0.046 A 
ATOM     18  O   UNL A   1      29.432  28.803  22.039  1.00  0.00    -0.462 OA
ATOM     19  C   UNL A   1      30.895  28.825  23.721  1.00  0.00     0.050 A 
ENDBRANCH  13  14
ENDBRANCH   9  12
ENDBRANCH   6   8
BRANCH   6  20
ATOM     20  C   UNL A   1      31.003  23.768  24.390  1.00  0.00     0.422 C 
ATOM     21  F   UNL A   1      30.225  23.732  23.283  1.00  0.00    -0.168 F 
ATOM     22  F   UNL A   1      30.569  22.766  25.198  1.00  0.00    -0.168 F 
ATOM     23  F   UNL A   1      30.758  24.922  25.048  1.00  0.00    -0.168 F 
ENDBRANCH   6  20
ENDBRANCH   4   6
ENDBRANCH   3   4
ENDBRANCH   2   3
ENDBRANCH   1   2
BRANCH   1  24
ATOM     24  O   UNL A   1      36.650  19.858  24.989  1.00  0.00    -0.374 OA
BRANCH  24  25
ATOM     25  C   UNL A   1      38.023  20.238  24.936  1.00  0.00     0.202 C 
BRANCH  25  26
ATOM     26  C   UNL A   1      39.029  19.261  25.555  1.00  0.00     0.261 C 
BRANCH  26  27
ATOM     27  O   UNL A   1      39.663  19.794  26.733  1.00  0.00    -0.460 OA
BRANCH  27  28
ATOM     28  C   UNL A   1      40.919  20.263  26.529  1.00  0.00     0.338 C 
ATOM     29  O   UNL A   1      41.818  19.720  25.902  1.00  0.00    -0.246 OA
BRANCH  28  30
ATOM     30  C   UNL A   1      41.057  21.641  27.038  1.00  0.00     0.060 A 
ATOM     31  C   UNL A   1      40.468  22.667  26.290  1.00  0.00     0.016 A 
ATOM     32  C   UNL A   1      41.842  21.942  28.152  1.00  0.00     0.016 A 
ATOM     33  C   UNL A   1      40.712  24.000  26.617  1.00  0.00     0.010 A 
ATOM     34  C   UNL A   1      42.082  23.280  28.484  1.00  0.00     0.010 A 
ATOM     35  C   UNL A   1      41.556  24.316  27.691  1.00  0.00    -0.014 A 
BRANCH  35  36
ATOM     36  C   UNL A   1      42.010  25.717  27.872  1.00  0.00     0.031 A 
ATOM     37  C   UNL A   1      43.341  26.134  27.302  1.00  0.00     0.074 A 
ATOM     38  C   UNL A   1      41.237  26.619  28.503  1.00  0.00     0.049 A 
ATOM     39  N   UNL A   1      43.937  27.299  27.349  1.00  0.00    -0.248 NA
ATOM     40  C   UNL A   1      44.103  25.101  26.583  1.00  0.00     0.031 C 
ATOM     41  C   UNL A   1      39.922  26.347  29.079  1.00  0.00     0.029 A 
ATOM     42  N   UNL A   1      41.455  27.947  28.771  1.00  0.00    -0.354 N 
ATOM     43  C   UNL A   1      45.143  27.135  26.681  1.00  0.00     0.074 A 
ATOM     44  C   UNL A   1      45.207  25.755  26.252  1.00  0.00     0.031 C 
ATOM     45  C   UNL A   1      39.455  27.471  29.648  1.00  0.00     0.029 A 
ATOM     46  C   UNL A   1      40.448  28.534  29.497  1.00  0.00     0.049 A 
ATOM     47  H   UNL A   1      42.256  28.434  28.470  1.00  0.00     0.167 HD
ATOM     48  C   UNL A   1      46.106  28.054  26.439  1.00  0.00     0.037 A 
ATOM     49  C   UNL A   1      40.349  29.781  29.999  1.00  0.00     0.037 A 
ATOM     50  C   UNL A   1      46.034  29.434  26.838  1.00  0.00     0.049 A 
ATOM     51  C   UNL A   1      41.455  30.774  29.743  1.00  0.00     0.074 A 
ATOM     52  C   UNL A   1      46.938  30.453  26.588  1.00  0.00     0.029 A 
ATOM     53  N   UNL A   1      45.002  29.988  27.578  1.00  0.00    -0.354 N 
ATOM     54  N   UNL A   1      42.565  30.622  29.061  1.00  0.00    -0.248 NA
ATOM     55  C   UNL A   1      41.289  32.116  30.321  1.00  0.00     0.031 C 
ATOM     56  C   UNL A   1      46.475  31.612  27.215  1.00  0.00     0.029 A 
ATOM     57  C   UNL A   1      45.261  31.328  27.818  1.00  0.00     0.049 A 
ATOM     58  H   UNL A   1      44.203  29.502  27.887  1.00  0.00     0.167 HD
ATOM     59  C   UNL A   1      43.211  31.851  29.106  1.00  0.00     0.074 A 
ATOM     60  C   UNL A   1      42.366  32.744  29.868  1.00  0.00     0.031 C 
ATOM     61  C   UNL A   1      44.401  32.208  28.563  1.00  0.00     0.037 A 
BRANCH  48  62
ATOM     62  C   UNL A   1      47.341  27.605  25.717  1.00  0.00     0.064 A 
ATOM     63  C   UNL A   1      47.455  27.700  24.323  1.00  0.00     0.173 A 
ATOM     64  C   UNL A   1      48.454  27.150  26.440  1.00  0.00     0.173 A 
ATOM     65  F   UNL A   1      46.414  28.118  23.588  1.00  0.00    -0.203 F 
ATOM     66  C   UNL A   1      48.637  27.347  23.678  1.00  0.00     0.198 A 
ATOM     67  C   UNL A   1      49.642  26.821  25.794  1.00  0.00     0.198 A 
ATOM     68  F   UNL A   1      48.395  27.046  27.777  1.00  0.00    -0.203 F 
ATOM     69  F   UNL A   1      48.718  27.423  22.342  1.00  0.00    -0.200 F 
ATOM     70  C   UNL A   1      49.732  26.918  24.414  1.00  0.00     0.200 A 
ATOM     71  F   UNL A   1      50.702  26.417  26.508  1.00  0.00    -0.200 F 
ATOM     72  F   UNL A   1      50.875  26.597  23.792  1.00  0.00    -0.200 F 
ENDBRANCH  48  62
BRANCH  49  73
ATOM     73  C   UNL A   1      39.173  30.165  30.821  1.00  0.00     0.064 A 
ATOM     74  C   UNL A   1      38.035  30.739  30.239  1.00  0.00     0.173 A 
ATOM     75  C   UNL A   1      39.185  30.010  32.216  1.00  0.00     0.173 A 
ATOM     76  F   UNL A   1      37.987  30.933  28.913  1.00  0.00    -0.203 F 
ATOM     77  C   UNL A   1      36.965  31.170  31.022  1.00  0.00     0.198 A 
ATOM     78  C   UNL A   1      38.104  30.415  32.995  1.00  0.00     0.198 A 
ATOM     79  F   UNL A   1      40.253  29.472  32.822  1.00  0.00    -0.203 F 
ATOM     80  F   UNL A   1      35.915  31.770  30.445  1.00  0.00    -0.200 F 
ATOM     81  C   UNL A   1      36.999  31.005  32.399  1.00  0.00     0.200 A 
ATOM     82  F   UNL A   1      38.139  30.247  34.324  1.00  0.00    -0.200 F 
ATOM     83  F   UNL A   1      35.975  31.428  33.152  1.00  0.00    -0.200 F 
ENDBRANCH  49  73
BRANCH  61  84
ATOM     84  C   UNL A   1      44.844  33.631  28.740  1.00  0.00     0.064 A 
ATOM     85  C   UNL A   1      44.472  34.635  27.835  1.00  0.00     0.173 A 
ATOM     86  C   UNL A   1      45.611  34.002  29.855  1.00  0.00     0.173 A 
ATOM     87  F   UNL A   1      43.751  34.328  26.746  1.00  0.00    -0.203 F 
ATOM     88  C   UNL A   1      44.871  35.955  28.027  1.00  0.00     0.198 A 
ATOM     89  C   UNL A   1      45.984  35.326  30.060  1.00  0.00     0.198 A 
ATOM     90  F   UNL A   1      45.985  33.079  30.755  1.00  0.00    -0.203 F 
ATOM     91  F   UNL A   1      44.540  36.891  27.128  1.00  0.00    -0.200 F 
ATOM     92  C   UNL A   1      45.619  36.301  29.143  1.00  0.00     0.200 A 
ATOM     93  F   UNL A   1      46.695  35.661  31.146  1.00  0.00    -0.200 F 
ATOM     94  F   UNL A   1      45.995  37.573  29.331  1.00  0.00    -0.200 F 
ENDBRANCH  61  84
ENDBRANCH  35  36
ENDBRANCH  28  30
ENDBRANCH  27  28
ENDBRANCH  26  27
ENDBRANCH  25  26
ENDBRANCH  24  25
ENDBRANCH   1  24
TORSDOF 18
ENDMDL
MODEL 2
REMARK VINA RESULT:     -11.2      1.245      1.916
REMARK SMILES Cc1ccc(/C=C/C(=O)N[C@](C)(C(=O)OCCOCCOC(=O)c2ccc(-c3c4nc(c(-c5c(F)c(F)c(F)c(F)c5F)c5ccc([nH]5)c(-c5c(F)c(F)c(F)c(F)c5F)c5nc(c(-c6c(F)c(F)c(F)c(F)c6F)c6ccc3[nH]6)C=C5)C=C4)cc2)C(F)(F)F)o1
REMARK SMILES IDX 17 1 16 2 15 3 13 4 14 5 11 6 12 7 10 8 8 9 9 10 7 12 6 13
REMARK SMILES IDX 5 14 1 15 2 16 3 17 91 18 4 19 87 20 88 21 89 22 90 23 18 24
REMARK SMILES IDX 19 25 20 26 21 27 22 28 23 29 24 30 25 31 86 32 26 33 85 34
REMARK SMILES IDX 27 35 28 36 29 37 79 38 30 39 84 40 78 41 80 42 31 43 83 44
REMARK SMILES IDX 77 45 76 46 32 48 64 49 44 50 63 51 45 52 48 53 62 54 81 55
REMARK SMILES IDX 46 56 47 57 61 59 82 60 49 61 33 62 34 63 42 64 35 65 36 66
REMARK SMILES IDX 40 67 43 68 37 69 38 70 41 71 39 72 65 73 66 74 74 75 67 76
REMARK SMILES IDX 68 77 72 78 75 79 69 80 70 81 73 82 71 83 50 84 51 85 59 86
REMARK SMILES IDX 52 87 53 88 57 89 60 90 54 91 55 92 58 93 56 94
REMARK H PARENT 10 11 80 47 48 58
REMARK Flexibility Score: inf
ROOT
ATOM      1  C   UNL A   1      36.398  21.978  25.179  1.00  0.00     0.202 C 
ENDROOT
BRANCH   1   2
ATOM      2  C   UNL A   1      35.060  21.237  25.137  1.00  0.00     0.261 C 
BRANCH   2   3
ATOM      3  O   UNL A   1      33.988  22.097  24.704  1.00  0.00    -0.461 OA
BRANCH   3   4
ATOM      4  C   UNL A   1      33.548  23.007  25.625  1.00  0.00     0.341 C 
ATOM      5  O   UNL A   1      33.645  22.840  26.834  1.00  0.00    -0.249 OA
BRANCH   4   6
ATOM      6  C   UNL A   1      32.766  24.151  24.971  1.00  0.00     0.231 C 
ATOM      7  C   UNL A   1      32.412  23.892  23.502  1.00  0.00     0.058 C 
BRANCH   6   8
ATOM      8  N   UNL A   1      31.612  24.404  25.896  1.00  0.00    -0.329 N 
ATOM      9  C   UNL A   1      30.528  25.215  25.899  1.00  0.00     0.245 C 
ATOM     10  O   UNL A   1      29.629  25.002  26.708  1.00  0.00    -0.270 OA
ATOM     11  H   UNL A   1      31.653  23.840  26.702  1.00  0.00     0.165 HD
BRANCH   9  12
ATOM     12  C   UNL A   1      30.479  26.428  25.071  1.00  0.00     0.075 C 
ATOM     13  C   UNL A   1      29.597  26.606  24.080  1.00  0.00     0.053 C 
BRANCH  13  14
ATOM     14  C   UNL A   1      29.680  27.784  23.291  1.00  0.00     0.127 A 
ATOM     15  C   UNL A   1      27.983  30.374  21.470  1.00  0.00     0.087 C 
ATOM     16  C   UNL A   1      29.023  29.537  22.100  1.00  0.00     0.101 A 
ATOM     17  C   UNL A   1      30.394  29.608  22.148  1.00  0.00     0.046 A 
ATOM     18  O   UNL A   1      28.586  28.455  22.799  1.00  0.00    -0.462 OA
ATOM     19  C   UNL A   1      30.813  28.486  22.899  1.00  0.00     0.050 A 
ENDBRANCH  13  14
ENDBRANCH   9  12
ENDBRANCH   6   8
BRANCH   6  20
ATOM     20  C   UNL A   1      33.753  25.339  24.969  1.00  0.00     0.422 C 
ATOM     21  F   UNL A   1      33.460  26.242  24.005  1.00  0.00    -0.168 F 
ATOM     22  F   UNL A   1      33.690  26.004  26.152  1.00  0.00    -0.168 F 
ATOM     23  F   UNL A   1      35.038  24.951  24.817  1.00  0.00    -0.168 F 
ENDBRANCH   6  20
ENDBRANCH   4   6
ENDBRANCH   3   4
ENDBRANCH   2   3
ENDBRANCH   1   2
BRANCH   1  24
ATOM     24  O   UNL A   1      37.517  21.278  24.641  1.00  0.00    -0.374 OA
BRANCH  24  25
ATOM     25  C   UNL A   1      37.656  19.899  24.973  1.00  0.00     0.202 C 
BRANCH  25  26
ATOM     26  C   UNL A   1      39.019  19.458  25.518  1.00  0.00     0.261 C 
BRANCH  26  27
ATOM     27  O   UNL A   1      39.932  20.561  25.679  1.00  0.00    -0.460 OA
BRANCH  27  28
ATOM     28  C   UNL A   1      40.631  20.544  26.840  1.00  0.00     0.338 C 
ATOM     29  O   UNL A   1      41.170  19.579  27.365  1.00  0.00    -0.246 OA
BRANCH  28  30
ATOM     30  C   UNL A   1      40.820  21.911  27.362  1.00  0.00     0.060 A 
ATOM     31  C   UNL A   1      40.124  22.946  26.726  1.00  0.00     0.016 A 
ATOM     32  C   UNL A   1      41.743  22.197  28.369  1.00  0.00     0.016 A 
ATOM     33  C   UNL A   1      40.393  24.274  27.054  1.00  0.00     0.010 A 
ATOM     34  C   UNL A   1      42.010  23.530  28.701  1.00  0.00     0.010 A 
ATOM     35  C   UNL A   1      41.370  24.576  28.013  1.00  0.00    -0.014 A 
BRANCH  35  36
ATOM     36  C   UNL A   1      41.827  25.980  28.169  1.00  0.00     0.031 A 
ATOM     37  C   UNL A   1      43.166  26.379  27.607  1.00  0.00     0.074 A 
ATOM     38  C   UNL A   1      41.050  26.898  28.770  1.00  0.00     0.049 A 
ATOM     39  N   UNL A   1      43.767  27.543  27.636  1.00  0.00    -0.248 NA
ATOM     40  C   UNL A   1      43.934  25.327  26.920  1.00  0.00     0.031 C 
ATOM     41  C   UNL A   1      39.727  26.643  29.335  1.00  0.00     0.029 A 
ATOM     42  N   UNL A   1      41.269  28.231  29.011  1.00  0.00    -0.354 N 
ATOM     43  C   UNL A   1      44.981  27.359  26.987  1.00  0.00     0.074 A 
ATOM     44  C   UNL A   1      45.045  25.970  26.590  1.00  0.00     0.031 C 
ATOM     45  C   UNL A   1      39.257  27.782  29.874  1.00  0.00     0.029 A 
ATOM     46  C   UNL A   1      40.256  28.838  29.712  1.00  0.00     0.049 A 
ATOM     47  H   UNL A   1      42.076  28.708  28.711  1.00  0.00     0.167 HD
ATOM     48  C   UNL A   1      45.951  28.269  26.737  1.00  0.00     0.037 A 
ATOM     49  C   UNL A   1      40.156  30.096  30.185  1.00  0.00     0.037 A 
ATOM     50  C   UNL A   1      45.879  29.658  27.105  1.00  0.00     0.049 A 
ATOM     51  C   UNL A   1      41.269  31.079  29.921  1.00  0.00     0.074 A 
ATOM     52  C   UNL A   1      46.790  30.667  26.844  1.00  0.00     0.029 A 
ATOM     53  N   UNL A   1      44.839  30.232  27.819  1.00  0.00    -0.354 N 
ATOM     54  N   UNL A   1      42.386  30.907  29.257  1.00  0.00    -0.248 NA
ATOM     55  C   UNL A   1      41.101  32.433  30.467  1.00  0.00     0.031 C 
ATOM     56  C   UNL A   1      46.324  31.842  27.440  1.00  0.00     0.029 A 
ATOM     57  C   UNL A   1      45.101  31.576  28.033  1.00  0.00     0.049 A 
ATOM     58  H   UNL A   1      44.035  29.756  28.129  1.00  0.00     0.167 HD
ATOM     59  C   UNL A   1      43.037  32.134  29.283  1.00  0.00     0.074 A 
ATOM     60  C   UNL A   1      42.186  33.047  30.015  1.00  0.00     0.031 C 
ATOM     61  C   UNL A   1      44.235  32.475  28.748  1.00  0.00     0.037 A 
BRANCH  48  62
ATOM     62  C   UNL A   1      47.192  27.799  26.041  1.00  0.00     0.064 A 
ATOM     63  C   UNL A   1      48.306  27.335  26.755  1.00  0.00     0.173 A 
ATOM     64  C   UNL A   1      47.234  27.736  24.640  1.00  0.00     0.173 A 
ATOM     65  F   UNL A   1      48.317  27.386  28.095  1.00  0.00    -0.203 F 
ATOM     66  C   UNL A   1      49.421  26.832  26.090  1.00  0.00     0.198 A 
ATOM     67  C   UNL A   1      48.341  27.211  23.979  1.00  0.00     0.198 A 
ATOM     68  F   UNL A   1      46.191  28.164  23.912  1.00  0.00    -0.203 F 
ATOM     69  F   UNL A   1      50.484  26.415  26.791  1.00  0.00    -0.200 F 
ATOM     70  C   UNL A   1      49.433  26.761  24.705  1.00  0.00     0.200 A 
ATOM     71  F   UNL A   1      48.347  27.133  22.641  1.00  0.00    -0.200 F 
ATOM     72  F   UNL A   1      50.501  26.260  24.068  1.00  0.00    -0.200 F 
ENDBRANCH  48  62
BRANCH  49  73
ATOM     73  C   UNL A   1      38.971  30.502  30.983  1.00  0.00     0.064 A 
ATOM     74  C   UNL A   1      37.846  31.075  30.376  1.00  0.00     0.173 A 
ATOM     75  C   UNL A   1      38.961  30.370  32.380  1.00  0.00     0.173 A 
ATOM     76  F   UNL A   1      37.819  31.248  29.046  1.00  0.00    -0.203 F 
ATOM     77  C   UNL A   1      36.768  31.527  31.136  1.00  0.00     0.198 A 
ATOM     78  C   UNL A   1      37.873  30.796  33.137  1.00  0.00     0.198 A 
ATOM     79  F   UNL A   1      40.016  29.834  33.011  1.00  0.00    -0.203 F 
ATOM     80  F   UNL A   1      35.732  32.126  30.534  1.00  0.00    -0.200 F 
ATOM     81  C   UNL A   1      36.781  31.384  32.515  1.00  0.00     0.200 A 
ATOM     82  F   UNL A   1      37.886  30.650  34.469  1.00  0.00    -0.200 F 
ATOM     83  F   UNL A   1      35.749  31.827  33.246  1.00  0.00    -0.200 F 
ENDBRANCH  49  73
BRANCH  61  84
ATOM     84  C   UNL A   1      44.682  33.900  28.899  1.00  0.00     0.064 A 
ATOM     85  C   UNL A   1      44.264  34.900  28.009  1.00  0.00     0.173 A 
ATOM     86  C   UNL A   1      45.500  34.277  29.975  1.00  0.00     0.173 A 
ATOM     87  F   UNL A   1      43.494  34.587  26.957  1.00  0.00    -0.203 F 
ATOM     88  C   UNL A   1      44.668  36.221  28.178  1.00  0.00     0.198 A 
ATOM     89  C   UNL A   1      45.878  35.603  30.158  1.00  0.00     0.198 A 
ATOM     90  F   UNL A   1      45.918  33.359  30.859  1.00  0.00    -0.203 F 
ATOM     91  F   UNL A   1      44.292  37.154  27.293  1.00  0.00    -0.200 F 
ATOM     92  C   UNL A   1      45.467  36.574  29.256  1.00  0.00     0.200 A 
ATOM     93  F   UNL A   1      46.638  35.944  31.208  1.00  0.00    -0.200 F 
ATOM     94  F   UNL A   1      45.847  37.847  29.422  1.00  0.00    -0.200 F 
ENDBRANCH  61  84
ENDBRANCH  35  36
ENDBRANCH  28  30
ENDBRANCH  27  28
ENDBRANCH  26  27
ENDBRANCH  25  26
ENDBRANCH  24  25
ENDBRANCH   1  24
TORSDOF 18
ENDMDL
MODEL 3
REMARK VINA RESULT:     -11.1      4.482     10.552
REMARK SMILES Cc1ccc(/C=C/C(=O)N[C@](C)(C(=O)OCCOCCOC(=O)c2ccc(-c3c4nc(c(-c5c(F)c(F)c(F)c(F)c5F)c5ccc([nH]5)c(-c5c(F)c(F)c(F)c(F)c5F)c5nc(c(-c6c(F)c(F)c(F)c(F)c6F)c6ccc3[nH]6)C=C5)C=C4)cc2)C(F)(F)F)o1
REMARK SMILES IDX 17 1 16 2 15 3 13 4 14 5 11 6 12 7 10 8 8 9 9 10 7 12 6 13
REMARK SMILES IDX 5 14 1 15 2 16 3 17 91 18 4 19 87 20 88 21 89 22 90 23 18 24
REMARK SMILES IDX 19 25 20 26 21 27 22 28 23 29 24 30 25 31 86 32 26 33 85 34
REMARK SMILES IDX 27 35 28 36 29 37 79 38 30 39 84 40 78 41 80 42 31 43 83 44
REMARK SMILES IDX 77 45 76 46 32 48 64 49 44 50 63 51 45 52 48 53 62 54 81 55
REMARK SMILES IDX 46 56 47 57 61 59 82 60 49 61 33 62 34 63 42 64 35 65 36 66
REMARK SMILES IDX 40 67 43 68 37 69 38 70 41 71 39 72 65 73 66 74 74 75 67 76
REMARK SMILES IDX 68 77 72 78 75 79 69 80 70 81 73 82 71 83 50 84 51 85 59 86
REMARK SMILES IDX 52 87 53 88 57 89 60 90 54 91 55 92 58 93 56 94
REMARK H PARENT 10 11 80 47 48 58
REMARK Flexibility Score: inf
ROOT
ATOM      1  C   UNL A   1      32.776  29.898  27.227  1.00  0.00     0.202 C 
ENDROOT
BRANCH   1   2
ATOM      2  C   UNL A   1      33.325  28.559  26.729  1.00  0.00     0.261 C 
BRANCH   2   3
ATOM      3  O   UNL A   1      32.460  27.963  25.741  1.00  0.00    -0.461 OA
BRANCH   3   4
ATOM      4  C   UNL A   1      31.479  27.145  26.229  1.00  0.00     0.341 C 
ATOM      5  O   UNL A   1      31.011  27.253  27.355  1.00  0.00    -0.249 OA
BRANCH   4   6
ATOM      6  C   UNL A   1      31.178  25.982  25.277  1.00  0.00     0.231 C 
ATOM      7  C   UNL A   1      32.432  25.360  24.651  1.00  0.00     0.058 C 
BRANCH   6   8
ATOM      8  N   UNL A   1      30.303  25.056  26.068  1.00  0.00    -0.329 N 
ATOM      9  C   UNL A   1      30.447  23.843  26.651  1.00  0.00     0.245 C 
ATOM     10  O   UNL A   1      29.592  23.460  27.445  1.00  0.00    -0.270 OA
ATOM     11  H   UNL A   1      29.397  25.421  26.194  1.00  0.00     0.165 HD
BRANCH   9  12
ATOM     12  C   UNL A   1      31.511  22.917  26.238  1.00  0.00     0.075 C 
ATOM     13  C   UNL A   1      31.297  21.856  25.450  1.00  0.00     0.053 C 
BRANCH  13  14
ATOM     14  C   UNL A   1      32.380  20.981  25.169  1.00  0.00     0.127 A 
ATOM     15  C   UNL A   1      33.496  17.711  24.187  1.00  0.00     0.087 C 
ATOM     16  C   UNL A   1      33.458  19.131  24.588  1.00  0.00     0.101 A 
ATOM     17  C   UNL A   1      34.429  20.077  24.814  1.00  0.00     0.046 A 
ATOM     18  O   UNL A   1      32.226  19.672  24.781  1.00  0.00    -0.462 OA
ATOM     19  C   UNL A   1      33.742  21.253  25.194  1.00  0.00     0.050 A 
ENDBRANCH  13  14
ENDBRANCH   9  12
ENDBRANCH   6   8
BRANCH   6  20
ATOM     20  C   UNL A   1      30.399  26.632  24.112  1.00  0.00     0.422 C 
ATOM     21  F   UNL A   1      31.191  26.873  23.042  1.00  0.00    -0.168 F 
ATOM     22  F   UNL A   1      29.415  25.799  23.683  1.00  0.00    -0.168 F 
ATOM     23  F   UNL A   1      29.794  27.787  24.467  1.00  0.00    -0.168 F 
ENDBRANCH   6  20
ENDBRANCH   4   6
ENDBRANCH   3   4
ENDBRANCH   2   3
ENDBRANCH   1   2
BRANCH   1  24
ATOM     24  O   UNL A   1      32.134  30.713  26.249  1.00  0.00    -0.374 OA
BRANCH  24  25
ATOM     25  C   UNL A   1      31.390  31.838  26.713  1.00  0.00     0.202 C 
BRANCH  25  26
ATOM     26  C   UNL A   1      32.155  33.160  26.845  1.00  0.00     0.261 C 
BRANCH  26  27
ATOM     27  O   UNL A   1      32.601  33.407  28.192  1.00  0.00    -0.460 OA
BRANCH  27  28
ATOM     28  C   UNL A   1      33.724  34.162  28.281  1.00  0.00     0.338 C 
ATOM     29  O   UNL A   1      33.795  35.384  28.282  1.00  0.00    -0.246 OA
BRANCH  28  30
ATOM     30  C   UNL A   1      34.907  33.321  28.542  1.00  0.00     0.060 A 
ATOM     31  C   UNL A   1      34.686  32.048  29.082  1.00  0.00     0.016 A 
ATOM     32  C   UNL A   1      36.207  33.802  28.378  1.00  0.00     0.016 A 
ATOM     33  C   UNL A   1      35.764  31.277  29.517  1.00  0.00     0.010 A 
ATOM     34  C   UNL A   1      37.288  33.025  28.809  1.00  0.00     0.010 A 
ATOM     35  C   UNL A   1      37.070  31.779  29.423  1.00  0.00    -0.014 A 
BRANCH  35  36
ATOM     36  C   UNL A   1      38.174  31.068  30.114  1.00  0.00     0.031 A 
ATOM     37  C   UNL A   1      38.451  31.379  31.561  1.00  0.00     0.074 A 
ATOM     38  C   UNL A   1      38.901  30.133  29.476  1.00  0.00     0.049 A 
ATOM     39  N   UNL A   1      39.368  30.887  32.357  1.00  0.00    -0.248 NA
ATOM     40  C   UNL A   1      37.579  32.378  32.200  1.00  0.00     0.031 C 
ATOM     41  C   UNL A   1      38.718  29.726  28.085  1.00  0.00     0.029 A 
ATOM     42  N   UNL A   1      39.946  29.361  29.919  1.00  0.00    -0.354 N 
ATOM     43  C   UNL A   1      39.191  31.523  33.578  1.00  0.00     0.074 A 
ATOM     44  C   UNL A   1      38.093  32.452  33.419  1.00  0.00     0.031 C 
ATOM     45  C   UNL A   1      39.633  28.789  27.781  1.00  0.00     0.029 A 
ATOM     46  C   UNL A   1      40.480  28.549  28.949  1.00  0.00     0.049 A 
ATOM     47  H   UNL A   1      40.281  29.387  30.844  1.00  0.00     0.167 HD
ATOM     48  C   UNL A   1      39.877  31.343  34.731  1.00  0.00     0.037 A 
ATOM     49  C   UNL A   1      41.542  27.721  28.995  1.00  0.00     0.037 A 
ATOM     50  C   UNL A   1      40.950  30.401  34.902  1.00  0.00     0.049 A 
ATOM     51  C   UNL A   1      42.309  27.568  30.284  1.00  0.00     0.074 A 
ATOM     52  C   UNL A   1      41.667  30.110  36.050  1.00  0.00     0.029 A 
ATOM     53  N   UNL A   1      41.466  29.602  33.894  1.00  0.00    -0.354 N 
ATOM     54  N   UNL A   1      42.097  28.133  31.447  1.00  0.00    -0.248 NA
ATOM     55  C   UNL A   1      43.460  26.653  30.267  1.00  0.00     0.031 C 
ATOM     56  C   UNL A   1      42.647  29.168  35.726  1.00  0.00     0.029 A 
ATOM     57  C   UNL A   1      42.512  28.838  34.388  1.00  0.00     0.049 A 
ATOM     58  H   UNL A   1      41.139  29.580  32.966  1.00  0.00     0.167 HD
ATOM     59  C   UNL A   1      43.066  27.623  32.302  1.00  0.00     0.074 A 
ATOM     60  C   UNL A   1      43.859  26.692  31.531  1.00  0.00     0.031 C 
ATOM     61  C   UNL A   1      43.280  27.902  33.612  1.00  0.00     0.037 A 
BRANCH  48  62
ATOM     62  C   UNL A   1      39.504  32.191  35.909  1.00  0.00     0.064 A 
ATOM     63  C   UNL A   1      40.102  33.439  36.137  1.00  0.00     0.173 A 
ATOM     64  C   UNL A   1      38.476  31.785  36.774  1.00  0.00     0.173 A 
ATOM     65  F   UNL A   1      41.096  33.865  35.345  1.00  0.00    -0.203 F 
ATOM     66  C   UNL A   1      39.689  34.245  37.194  1.00  0.00     0.198 A 
ATOM     67  C   UNL A   1      38.051  32.605  37.816  1.00  0.00     0.198 A 
ATOM     68  F   UNL A   1      37.870  30.601  36.594  1.00  0.00    -0.203 F 
ATOM     69  F   UNL A   1      40.290  35.424  37.409  1.00  0.00    -0.200 F 
ATOM     70  C   UNL A   1      38.658  33.833  38.025  1.00  0.00     0.200 A 
ATOM     71  F   UNL A   1      37.047  32.208  38.610  1.00  0.00    -0.200 F 
ATOM     72  F   UNL A   1      38.251  34.619  39.031  1.00  0.00    -0.200 F 
ENDBRANCH  48  62
BRANCH  49  73
ATOM     73  C   UNL A   1      41.971  26.987  27.776  1.00  0.00     0.064 A 
ATOM     74  C   UNL A   1      41.513  25.690  27.509  1.00  0.00     0.173 A 
ATOM     75  C   UNL A   1      42.888  27.553  26.877  1.00  0.00     0.173 A 
ATOM     76  F   UNL A   1      40.657  25.096  28.355  1.00  0.00    -0.203 F 
ATOM     77  C   UNL A   1      41.977  24.975  26.407  1.00  0.00     0.198 A 
ATOM     78  C   UNL A   1      43.330  26.848  25.760  1.00  0.00     0.198 A 
ATOM     79  F   UNL A   1      43.361  28.789  27.090  1.00  0.00    -0.203 F 
ATOM     80  F   UNL A   1      41.570  23.713  26.210  1.00  0.00    -0.200 F 
ATOM     81  C   UNL A   1      42.883  25.555  25.532  1.00  0.00     0.200 A 
ATOM     82  F   UNL A   1      44.199  27.416  24.913  1.00  0.00    -0.200 F 
ATOM     83  F   UNL A   1      43.336  24.864  24.477  1.00  0.00    -0.200 F 
ENDBRANCH  49  73
BRANCH  61  84
ATOM     84  C   UNL A   1      44.390  27.167  34.304  1.00  0.00     0.064 A 
ATOM     85  C   UNL A   1      45.681  27.706  34.400  1.00  0.00     0.173 A 
ATOM     86  C   UNL A   1      44.145  25.931  34.920  1.00  0.00     0.173 A 
ATOM     87  F   UNL A   1      45.968  28.878  33.816  1.00  0.00    -0.203 F 
ATOM     88  C   UNL A   1      46.693  27.022  35.068  1.00  0.00     0.198 A 
ATOM     89  C   UNL A   1      45.151  25.263  35.612  1.00  0.00     0.198 A 
ATOM     90  F   UNL A   1      42.924  25.378  34.865  1.00  0.00    -0.203 F 
ATOM     91  F   UNL A   1      47.930  27.534  35.112  1.00  0.00    -0.200 F 
ATOM     92  C   UNL A   1      46.426  25.805  35.681  1.00  0.00     0.200 A 
ATOM     93  F   UNL A   1      44.888  24.095  36.215  1.00  0.00    -0.200 F 
ATOM     94  F   UNL A   1      47.399  25.153  36.330  1.00  0.00    -0.200 F 
ENDBRANCH  61  84
ENDBRANCH  35  36
ENDBRANCH  28  30
ENDBRANCH  27  28
ENDBRANCH  26  27
ENDBRANCH  25  26
ENDBRANCH  24  25
ENDBRANCH   1  24
TORSDOF 18
ENDMDL
